#------------------------------------------------------------------------------
#$Date: 2017-03-02 08:10:16 +0200 (Thu, 02 Mar 2017) $
#$Revision: 192769 $
#$URL: file:///home/coder/svn-repositories/cod/cif/1/54/53/1545384.cif $
#------------------------------------------------------------------------------
#
# This file is available in the Crystallography Open Database (COD),
# http://www.crystallography.net/. The original data for this entry
# were provided by IUCr Journals, http://journals.iucr.org/.
#
# The file may be used within the scientific community so long as
# proper attribution is given to the journal article from which the
# data were obtained.
#
data_1545384
loop_
_publ_author_name
'Shakuntala, K.'
'Kumari, Vijaya'
'Lokanath, N. K.'
'Naveen, S.'
'Suchetan, P. A.'
_publ_section_title
;
 2,5-Dimethoxy-<i>N</i>-phenylbenzenesulfonamide
;
_journal_coeditor_code           HB4126
_journal_issue                   2
_journal_name_full               IUCrData
_journal_page_first              x170311
_journal_paper_doi               10.1107/S241431461700311X
_journal_volume                  2
_journal_year                    2017
_chemical_formula_iupac          'C14 H15 N O4 S'
_chemical_formula_moiety         'C14 H15 N O4 S'
_chemical_formula_sum            'C14 H15 N O4 S'
_chemical_formula_weight         293.33
_chemical_melting_point          439
_chemical_name_systematic
;
2,5-Dimethoxy-<i>N</i>-phenylbenzenesulfonamide
;
_space_group_crystal_system      monoclinic
_space_group_IT_number           14
_space_group_name_Hall           '-P 2ybc'
_space_group_name_H-M_alt        'P 1 21/c 1'
_symmetry_space_group_name_Hall  '-P 2ybc'
_symmetry_space_group_name_H-M   'P 1 21/c 1'
_atom_sites_solution_hydrogens   mixed
_audit_creation_method           SHELXL-2016/4
_cell_angle_alpha                90
_cell_angle_beta                 117.064(6)
_cell_angle_gamma                90
_cell_formula_units_Z            4
_cell_length_a                   10.4328(12)
_cell_length_b                   14.3157(15)
_cell_length_c                   10.4869(12)
_cell_measurement_reflns_used    143
_cell_measurement_temperature    296(2)
_cell_measurement_theta_max      64.5
_cell_measurement_theta_min      7.8
_cell_volume                     1394.7(3)
_computing_cell_refinement
;
APEX2 and SAINT-Plus (Bruker, 2009)
;
_computing_data_collection
;
APEX2 (Bruker, 2009)
;
_computing_data_reduction
;
SAINT-Plus and XPREP (Bruker, 2009)
;
_computing_molecular_graphics
;
Mercury (Macrae <i>et al.</i>,  2008)
;
_computing_publication_material
;
SHELXL2016 (Sheldrick, 2015b)
;
_computing_structure_refinement
;
SHELXL2016 (Sheldrick, 2015b)
;
_computing_structure_solution
;
SHELXT2016 (Sheldrick, 2015a)
;
_diffrn_ambient_temperature      296(2)
_diffrn_measured_fraction_theta_full 0.983
_diffrn_measured_fraction_theta_max 0.983
_diffrn_measurement_device_type  'Bruker APEXII'
_diffrn_measurement_method       'phi and \f scans'
_diffrn_radiation_monochromator  graphite
_diffrn_radiation_type           CuK\a
_diffrn_radiation_wavelength     1.54178
_diffrn_reflns_av_R_equivalents  0.0646
_diffrn_reflns_limit_h_max       11
_diffrn_reflns_limit_h_min       -12
_diffrn_reflns_limit_k_max       16
_diffrn_reflns_limit_k_min       -16
_diffrn_reflns_limit_l_max       11
_diffrn_reflns_limit_l_min       -12
_diffrn_reflns_number            10083
_diffrn_reflns_theta_full        64.537
_diffrn_reflns_theta_max         64.537
_diffrn_reflns_theta_min         7.799
_diffrn_standards_decay_%        0.1
_diffrn_standards_interval_count 1
_diffrn_standards_number         1
_exptl_absorpt_coefficient_mu    2.187
_exptl_absorpt_correction_T_max  0.689
_exptl_absorpt_correction_T_min  0.589
_exptl_absorpt_correction_type   multi-scan
_exptl_absorpt_process_details
;
(SADABS; Bruker, 2009)
;
_exptl_crystal_colour            Colourless
_exptl_crystal_density_diffrn    1.397
_exptl_crystal_description       Prism
_exptl_crystal_F_000             616
_exptl_crystal_size_max          0.280
_exptl_crystal_size_mid          0.220
_exptl_crystal_size_min          0.170
_refine_diff_density_max         0.420
_refine_diff_density_min         -0.332
_refine_ls_extinction_coef       0.0106(19)
_refine_ls_extinction_expression Fc^*^=kFc[1+0.001xFc^2^\l^3^/sin(2\q)]^-1/4^
_refine_ls_extinction_method
;
SHELXL2016 (Sheldrick, 2015b)
;
_refine_ls_goodness_of_fit_ref   1.036
_refine_ls_hydrogen_treatment    mixed
_refine_ls_matrix_type           full
_refine_ls_number_parameters     188
_refine_ls_number_reflns         2305
_refine_ls_number_restraints     1
_refine_ls_restrained_S_all      1.036
_refine_ls_R_factor_all          0.0756
_refine_ls_R_factor_gt           0.0666
_refine_ls_shift/su_max          0.001
_refine_ls_shift/su_mean         0.000
_refine_ls_structure_factor_coef Fsqd
_refine_ls_weighting_details
'w=1/[\s^2^(Fo^2^)+(0.1364P)^2^] where P=(Fo^2^+2Fc^2^)/3'
_refine_ls_weighting_scheme      calc
_refine_ls_wR_factor_gt          0.1767
_refine_ls_wR_factor_ref         0.1857
_reflns_number_gt                1943
_reflns_number_total             2305
_reflns_threshold_expression     'I > 2\s(I)'
_cod_data_source_file            hb4126sup1.cif
_cod_data_source_block           I
_cod_database_code               1545384
_shelx_space_group_comment
;
The symmetry employed for this shelxl refinement is uniquely defined
by the following loop, which should always be used as a source of
symmetry information in preference to the above space-group names.
They are only intended as comments.
;
_shelx_estimated_absorpt_t_min   0.579
_shelx_estimated_absorpt_t_max   0.707
_shelx_hkl_file
;
   1   0   0   -0.01    0.02
  -2   0   0   15.94    1.77
   2   0   0   15.08    1.78
   4   0   0   20.47    2.38
   5   0   0   47.40    5.42
  -6   0   0   33.72    3.73
   6   0   0   31.93    3.80
  -6   0   0   32.22    3.77
  -7   0   0   12.42    1.52
  -7   0   0   13.17    1.46
  -7   0   0   11.43    1.45
   7   0   0   11.69    1.59
  -8   0   0   39.12    4.55
  -8   0   0   40.23    4.49
  -8   0   0   38.42    4.49
  -9   0   0   10.47    1.25
  -9   0   0    9.92    1.30
  -9   0   0    9.72    1.23
 -10   0   0    0.95    0.30
 -10   0   0    0.46    0.22
   0  -1   0   -0.01    0.02
   2  -1   0   88.67   10.19
  -2   1   0   93.07   10.18
   2   1   0   89.85   10.19
   3  -1   0    2.71    0.38
   3   1   0    3.01    0.38
   4  -1   0    0.29    0.12
  -4   1   0    0.44    0.11
   4   1   0    0.26    0.12
   5  -1   0    4.92    0.68
   5   1   0    5.31    0.68
  -5   1   0    5.08    0.63
  -6  -1   0    0.20    0.20
  -6  -1   0    0.25    0.13
   6  -1   0    0.53    0.22
   6   1   0    0.29    0.20
  -6   1   0    0.30    0.14
  -6   1   0    0.18    0.20
   7  -1   0   11.93    1.76
  -7  -1   0   14.50    1.70
  -7  -1   0   14.03    1.64
   7   1   0   13.32    1.75
  -7   1   0   14.95    1.70
  -7   1   0   14.27    1.65
  -7   1   0   13.78    1.64
  -8  -1   0    1.09    0.28
  -8  -1   0    1.29    0.36
  -8  -1   0    1.02    0.27
  -8   1   0    1.31    0.34
  -8   1   0    1.05    0.27
  -8   1   0    1.30    0.29
  -9  -1   0    3.42    0.66
  -9  -1   0    5.28    0.77
  -9  -1   0    5.91    0.80
  -9   1   0    5.12    0.72
  -9   1   0    6.26    0.73
  -9   1   0    5.19    0.76
 -10  -1   0    2.99    0.45
 -10  -1   0    2.70    0.50
 -10   1   0    3.52    0.52
 -10   1   0    3.39    0.46
 -10   1   0    2.15    0.45
   0  -2   0   -0.07    0.04
  -1   2   0  195.28   21.94
  -2   2   0  413.74   43.57
   2   2   0  362.43   43.57
   3   2   0   34.84    3.97
   4  -2   0   19.89    2.76
  -4   2   0   26.70    2.74
   4   2   0   23.93    2.76
  -5  -2   0   20.14    2.29
  -5  -2   0   18.97    2.34
   5  -2   0   22.67    2.39
  -5   2   0   20.38    2.31
  -5   2   0   17.21    2.29
   5   2   0   21.58    2.36
  -6  -2   0   23.53    2.72
   6  -2   0   24.12    2.83
  -6  -2   0   23.99    2.78
  -6   2   0   22.43    2.72
   6   2   0   23.31    2.80
  -6   2   0   23.78    2.76
  -6   2   0   24.81    2.74
   7  -2   0    2.75    0.65
  -7  -2   0    3.58    0.60
  -7  -2   0    3.94    0.54
  -7   2   0    3.66    0.54
   7   2   0    3.31    0.63
  -7   2   0    4.11    0.62
  -7   2   0    4.38    0.57
  -8  -2   0    3.68    0.59
  -8  -2   0    1.80    0.45
  -8   2   0    3.74    0.51
  -8   2   0    4.21    0.52
  -9  -2   0    3.05    0.54
  -9  -2   0    3.51    0.56
  -9  -2   0    3.64    0.51
  -9   2   0    2.97    0.56
  -9   2   0    3.09    0.49
  -9   2   0    2.79    0.47
 -10  -2   0    0.31    0.18
 -10   2   0    0.21    0.22
 -10   2   0    0.30    0.21
 -10   2   0    0.14    0.19
   0  -3   0    0.09    0.06
   1  -3   0   61.71    6.52
  -1   3   0   53.71    6.53
   2   3   0   23.44    2.68
   3   3   0   11.46    1.35
   4   3   0  111.73   12.99
  -4   3   0  118.03   12.96
   5  -3   0    0.92    0.28
  -5  -3   0    0.51    0.21
  -5  -3   0    0.89    0.17
  -5   3   0    0.92    0.20
  -5   3   0    0.90    0.19
   5   3   0    0.94    0.25
  -6  -3   0    3.69    0.51
   6  -3   0    4.09    0.70
  -6  -3   0    3.60    0.60
   6   3   0    3.67    0.62
  -6   3   0    3.78    0.53
  -6   3   0    4.13    0.56
  -7  -3   0    2.25    0.44
   7  -3   0    2.05    0.56
  -7   3   0    2.28    0.37
   7   3   0    1.85    0.49
  -7   3   0    2.11    0.37
  -8  -3   0   10.67    1.44
  -8  -3   0   12.16    1.47
  -8   3   0   11.46    1.39
  -8   3   0   11.92    1.42
  -9  -3   0   -0.18    0.15
  -9  -3   0   -0.10    0.20
  -9   3   0    0.09    0.20
  -9   3   0    0.19    0.18
  -9   3   0   -0.14    0.20
 -10  -3   0    2.11    0.35
 -10   3   0    2.25    0.39
 -10   3   0    2.04    0.40
   0   4   0   47.04    5.39
  -1  -4   0   50.83    5.66
   1  -4   0   58.27    5.68
  -1   4   0   41.83    5.69
   2  -4   0   12.15    1.38
   2   4   0   10.95    1.34
   3  -4   0  217.77   23.62
   3   4   0  202.13   23.58
   4  -4   0  101.59   10.37
  -4   4   0   94.56   10.29
  -4   4   0   92.35   10.28
   4   4   0   77.31   10.31
  -5  -4   0   15.82    1.82
  -5  -4   0   15.11    1.75
   5  -4   0   15.99    1.89
   5   4   0   16.10    1.84
  -5   4   0   16.46    1.78
  -5   4   0   12.51    1.75
   6  -4   0   20.32    2.46
  -6  -4   0   19.74    2.37
  -6  -4   0   20.24    2.30
  -6   4   0   20.85    2.33
  -6   4   0   18.52    2.30
   6   4   0   20.45    2.41
  -7  -4   0   -0.03    0.18
  -7   4   0    0.08    0.16
   7   4   0    0.29    0.32
  -7   4   0    0.16    0.17
  -8  -4   0    2.12    0.42
  -8   4   0    1.56    0.37
  -8   4   0    1.93    0.37
  -9  -4   0    1.53    0.35
  -9  -4   0    1.51    0.31
  -9   4   0    1.28    0.33
  -9   4   0    1.35    0.32
 -10  -4   0    0.45    0.20
 -10  -4   0    0.46    0.22
 -10   4   0    0.35    0.18
 -10   4   0    0.22    0.21
   0  -5   0   -0.02    0.08
   0   5   0    0.05    0.10
  -1  -5   0    0.56    0.16
   1  -5   0    0.55    0.17
  -1   5   0    0.30    0.18
   2  -5   0    0.04    0.12
   2   5   0    0.18    0.09
  -2   5   0    0.01    0.12
   3  -5   0    1.46    0.37
   3   5   0    1.97    0.34
  -3   5   0    2.31    0.33
  -4  -5   0   45.12    5.16
   4  -5   0   49.32    5.29
  -4  -5   0   43.08    5.20
  -4   5   0   45.86    5.17
  -4   5   0   44.93    5.19
   4   5   0   46.09    5.22
   5  -5   0    4.08    0.68
  -5  -5   0    3.73    0.59
  -5  -5   0    3.75    0.48
  -5   5   0    2.77    0.53
  -5   5   0    3.61    0.51
   5   5   0    3.76    0.61
   6  -5   0   18.04    2.34
  -6  -5   0   19.82    2.24
  -6  -5   0   18.98    2.16
   6   5   0   17.34    2.26
  -6   5   0   19.06    2.19
  -7  -5   0    9.68    1.07
  -7   5   0    6.28    1.02
  -8  -5   0   11.44    1.38
  -8   5   0   10.99    1.33
  -8   5   0    9.68    1.36
  -9  -5   0    0.07    0.18
  -9  -5   0    0.22    0.22
  -9   5   0    0.02    0.16
  -9   5   0    0.20    0.19
 -10  -5   0    2.31    0.37
 -10  -5   0    2.19    0.40
 -10   5   0    2.29    0.39
 -10   5   0    2.12    0.40
  -1  -6   0    4.06    0.59
   1  -6   0    3.99    0.61
  -1   6   0    3.51    0.65
   2  -6   0    3.31    0.62
  -2   6   0    5.10    0.65
   2   6   0    3.78    0.55
   3  -6   0   38.23    4.47
  -3   6   0   36.84    4.37
  -3   6   0   39.89    4.42
   3   6   0   38.26    4.40
   4  -6   0    4.80    0.78
  -4  -6   0    4.40    0.58
  -4  -6   0    5.50    0.70
   4   6   0    4.70    0.69
  -4   6   0    4.65    0.63
  -4   6   0    4.22    0.64
   5  -6   0    6.62    1.02
  -5  -6   0    6.16    0.79
  -5  -6   0    7.01    0.93
  -5   6   0    6.16    0.87
   5   6   0    6.92    0.90
  -5   6   0    6.08    0.80
  -6  -6   0   15.41    1.72
   6  -6   0   13.67    1.85
  -6  -6   0   14.82    1.63
   6   6   0   14.06    1.75
  -6   6   0   11.76    1.64
  -7  -6   0    0.51    0.16
  -7  -6   0    0.00    0.19
  -7   6   0    0.38    0.18
  -7   6   0    0.67    0.25
  -8  -6   0    0.32    0.23
  -8   6   0    0.20    0.18
  -8   6   0    0.45    0.24
  -9  -6   0    0.34    0.21
  -9  -6   0    0.43    0.22
  -9   6   0    0.12    0.19
  -9   6   0    0.26    0.22
 -10  -6   0    0.28    0.20
 -10  -6   0    0.55    0.21
 -10   6   0    0.21    0.20
 -10   6   0    0.23    0.24
   0  -7   0   -0.09    0.12
   0   7   0   -0.01    0.16
   1  -7   0    9.29    1.08
  -1   7   0    7.26    1.11
   2  -7   0    4.34    0.69
  -2   7   0    3.21    0.65
  -2   7   0    4.01    0.56
   2   7   0    3.80    0.57
  -3  -7   0    4.15    0.63
   3  -7   0    4.68    0.74
  -3  -7   0    4.49    0.56
  -3   7   0    3.68    0.56
  -3   7   0    3.92    0.62
  -3   7   0    4.77    0.62
   3   7   0    4.33    0.59
  -4  -7   0   61.45    6.82
   4  -7   0   64.04    6.94
  -4  -7   0   58.65    6.75
  -4   7   0   60.03    6.77
   4   7   0   59.73    6.83
  -4   7   0   55.52    6.79
   5  -7   0   15.88    2.18
  -5  -7   0   17.73    1.98
  -5  -7   0   18.77    2.07
  -5   7   0   17.11    2.00
   5   7   0   16.27    2.08
  -5   7   0   15.95    2.04
  -6  -7   0    6.19    0.71
  -6  -7   0    4.30    0.80
  -6   7   0    5.16    0.81
  -6   7   0    5.79    0.80
  -7  -7   0    8.51    1.19
  -7   7   0    7.56    1.13
  -7   7   0   12.17    1.22
  -8  -7   0   12.60    1.62
  -8   7   0   13.12    1.62
  -8   7   0   13.21    1.58
  -9  -7   0    0.47    0.18
  -9  -7   0   -0.19    0.17
  -9   7   0    0.26    0.20
  -9   7   0    0.19    0.17
   0  -8   0    4.62    0.66
   0   8   0    2.54    0.67
   0   8   0    4.83    0.58
   1  -8   0    0.71    0.27
  -1  -8   0    0.61    0.21
  -1  -8   0    0.59    0.22
  -1   8   0    0.46    0.27
  -1   8   0    0.84    0.23
   1   8   0    0.47    0.18
   1   8   0    0.31    0.29
  -2  -8   0    1.29    0.28
   2  -8   0    1.00    0.33
  -2  -8   0    1.17    0.19
   2  -8   0    1.24    0.22
   2   8   0    1.34    0.34
  -2   8   0    0.74    0.22
   2   8   0    0.42    0.31
  -2   8   0    0.86    0.25
   2   8   0    1.38    0.28
  -2   8   0    0.82    0.33
  -3  -8   0    0.30    0.20
   3  -8   0    0.12    0.14
   3  -8   0    0.78    0.34
  -3  -8   0    0.06    0.12
  -3   8   0    0.37    0.16
  -3   8   0    0.39    0.24
   3   8   0    0.51    0.20
  -3   8   0    0.02    0.19
  -4  -8   0   -0.06    0.11
   4  -8   0   -0.27    0.31
  -4  -8   0    0.17    0.18
   4   8   0    0.11    0.20
  -4   8   0    0.09    0.13
  -4   8   0    0.06    0.22
  -5  -8   0    0.30    0.14
  -5  -8   0    0.41    0.23
   5  -8   0    0.05    0.39
  -5   8   0    0.41    0.17
  -5   8   0    0.64    0.28
   5   8   0    0.20    0.29
  -6  -8   0    0.16    0.14
  -6  -8   0    0.27    0.21
  -6   8   0    0.10    0.22
  -6   8   0    0.18    0.29
  -6   8   0    0.20    0.16
  -7  -8   0   -0.08    0.21
  -7  -8   0   -0.05    0.13
  -7   8   0   -0.25    0.15
  -7   8   0   -0.02    0.23
  -8  -8   0    0.34    0.22
  -8   8   0   -0.09    0.16
  -8   8   0    0.25    0.24
   9  -8   0    0.44    0.21
  -9  -8   0    0.53    0.19
  -9  -8   0    0.10    0.19
  -9   8   0    0.33    0.23
  -9   8   0    0.38    0.18
   0  -9   0   -0.16    0.16
   0  -9   0   -0.22    0.17
   0  -9   0    0.00    0.12
   0   9   0   -0.31    0.14
   0   9   0    0.05    0.26
   1  -9   0    0.33    0.25
   1  -9   0   -0.20    0.18
   1  -9   0    0.09    0.13
  -1  -9   0    0.30    0.13
  -1  -9   0    0.16    0.20
  -1  -9   0    0.63    0.23
  -1   9   0   -0.04    0.18
   1   9   0    0.24    0.15
   1   9   0    0.22    0.25
  -1   9   0    0.34    0.26
   2  -9   0    9.35    1.15
   2  -9   0    8.11    0.93
  -2  -9   0    8.64    1.00
  -2  -9   0    7.36    0.92
  -2   9   0    7.09    1.12
   2   9   0    4.53    1.17
  -2   9   0    7.69    0.99
   2   9   0    7.16    0.94
   2   9   0    9.29    1.03
  -2   9   0    7.85    0.95
   3  -9   0    0.85    0.41
   3  -9   0    0.71    0.19
  -3  -9   0    0.87    0.26
  -3  -9   0    0.88    0.20
  -3   9   0    0.71    0.26
   3   9   0    0.76    0.25
  -3   9   0    0.55    0.22
   3   9   0    0.13    0.34
  -3   9   0    0.98    0.37
   4  -9   0   28.75    3.46
   4  -9   0   26.25    3.19
  -4  -9   0   27.84    3.19
  -4  -9   0   29.68    3.27
   4   9   0   26.21    3.28
  -4   9   0   28.88    3.22
  -4   9   0   27.98    3.26
   5  -9   0   15.85    1.98
  -5  -9   0   16.73    1.97
  -5   9   0   16.99    2.06
  -5   9   0   18.22    2.01
  -6  -9   0    0.60    0.27
  -6  -9   0    0.34    0.16
   6  -9   0    0.34    0.19
  -6   9   0    0.37    0.28
  -6   9   0    0.34    0.19
   7  -9   0    2.78    0.42
  -7  -9   0    2.36    0.36
  -7  -9   0    1.63    0.43
  -7   9   0    2.36    0.41
   8  -9   0    2.92    0.47
  -8  -9   0    3.04    0.54
  -8   9   0    3.63    0.52
  -9  -9   0    0.13    0.18
  -9   9   0    0.22    0.17
   0 -10   0    0.52    0.30
   0 -10   0    0.46    0.25
   0 -10   0    0.46    0.16
   0  10   0    0.39    0.20
   0  10   0    0.35    0.34
   1 -10   0    0.29    0.15
  -1 -10   0    0.26    0.21
   1 -10   0   -0.06    0.23
  -1 -10   0    0.14    0.12
   1 -10   0    0.14    0.23
  -1 -10   0    0.40    0.26
   1  10   0   -0.01    0.16
   1  10   0   -0.07    0.31
  -1  10   0    0.28    0.33
  -1  10   0    0.18    0.17
   2 -10   0    1.97    0.53
   2 -10   0    2.23    0.34
  -2 -10   0    3.37    0.49
  -2 -10   0    2.45    0.33
   2  10   0    1.84    0.37
  -2  10   0    2.08    0.56
   2  10   0    2.44    0.47
   2  10   0    0.80    0.52
  -2  10   0    2.25    0.42
  -3 -10   0   13.41    1.47
   3 -10   0   12.92    1.65
   3 -10   0   10.59    1.36
  -3 -10   0   11.43    1.36
  -3  10   0   12.49    1.40
  -3  10   0   10.79    1.44
   3  10   0   10.28    1.46
  -4 -10   0    2.47    0.39
  -4 -10   0    2.32    0.49
   4 -10   0    2.49    0.40
  -4  10   0    3.26    0.54
  -4  10   0    2.51    0.43
   5 -10   0    1.27    0.27
  -5 -10   0    1.04    0.23
  -5 -10   0    1.26    0.37
  -5  10   0    1.35    0.31
  -5  10   0    1.40    0.35
  -6 -10   0    1.46    0.27
  -6 -10   0    0.79    0.32
   6 -10   0    1.77    0.31
  -6  10   0    1.82    0.34
  -6  10   0    1.50    0.37
  -7 -10   0    0.61    0.26
   7 -10   0    0.82    0.24
  -7  10   0    1.29    0.29
  -8 -10   0    0.29    0.20
  -8 -10   0   -0.09    0.19
  -8  10   0    0.34    0.19
   0 -11   0   -0.38    0.20
   0 -11   0    0.08    0.14
   0 -11   0    0.19    0.29
   0  11   0   -0.08    0.36
   0  11   0   -0.18    0.15
   1 -11   0   -0.06    0.15
  -1 -11   0    0.07    0.13
   1 -11   0    0.14    0.23
   1 -11   0   -0.20    0.27
  -1 -11   0   -0.02    0.21
   1  11   0    0.07    0.17
  -1  11   0   -0.11    0.44
  -1  11   0   -0.10    0.19
   1  11   0    0.07    0.45
  -2 -11   0   19.57    1.91
  -2 -11   0   16.94    1.81
   2 -11   0   15.61    1.81
   2  11   0   15.36    1.93
   2  11   0   15.25    1.84
  -2  11   0   13.06    2.07
  -2  11   0   12.91    1.87
   3 -11   0    1.14    0.25
  -3 -11   0    1.49    0.38
  -3 -11   0    1.40    0.24
  -3  11   0    1.19    0.29
  -3  11   0    0.52    0.28
  -4 -11   0    1.69    0.30
  -4 -11   0    1.97    0.44
   4 -11   0    1.57    0.31
  -4  11   0    1.29    0.38
  -4  11   0    2.30    0.37
  -5 -11   0    9.95    1.28
  -5 -11   0    9.25    1.16
   5 -11   0    9.21    1.18
  -5  11   0   10.04    1.26
  -5  11   0   10.31    1.22
  -6 -11   0   -0.31    0.12
  -6 -11   0    0.20    0.21
  -6  11   0   -0.02    0.23
  -6  11   0    0.23    0.19
  -7 -11   0    0.11    0.18
  -7  11   0   -0.29    0.21
  -7  11   0    0.13    0.19
  -8 -11   0    0.93    0.24
   0 -12   0    0.32    0.26
   0  12   0    0.13    0.20
  -1 -12   0    0.77    0.29
  -1 -12   0    0.24    0.16
  -1  12   0    0.02    0.19
   1  12   0    0.55    0.23
  -2 -12   0    2.44    0.37
  -2 -12   0    3.33    0.51
  -2  12   0    1.16    0.37
   2  12   0    2.57    0.43
  -3 -12   0   16.73    1.72
  -3 -12   0   14.71    1.62
  -3  12   0   10.02    1.65
  -4 -12   0    9.38    1.08
  -4 -12   0    7.15    0.95
  -4  12   0    7.52    1.00
  -4  12   0    8.14    1.10
  -5 -12   0    5.70    0.85
  -5 -12   0    5.82    0.71
  -5  12   0    4.77    0.79
  -5  12   0    6.22    0.81
  -6 -12   0    0.30    0.17
  -6 -12   0    0.26    0.20
  -6  12   0    0.05    0.22
  -6  12   0    0.31    0.21
  -7 -12   0    0.20    0.17
  -7  12   0    0.12    0.20
  -7  12   0    0.06    0.22
   0  13   0    0.13    0.19
  -1 -13   0    2.39    0.47
  -1  13   0    2.22    0.42
   1  13   0    2.87    0.46
  -1  13   0    2.75    0.48
  -2 -13   0    6.75    0.90
  -2  13   0    5.25    0.85
  -3 -13   0    3.33    0.52
  -3  13   0    1.61    0.40
  -4 -13   0    4.35    0.71
  -4  13   0    5.15    0.73
  -5 -13   0    0.59    0.26
  -5  13   0    0.60    0.23
  -6 -13   0    0.20    0.20
  -6  13   0    0.38    0.20
  -6  13   0    0.04    0.19
   0  14   0   29.04    3.37
  -1  14   0    1.78    0.41
   1  14   0    2.53    0.42
  -1  14   0    2.46    0.44
  -2 -14   0    0.99    0.32
  -2  14   0    1.24    0.30
  -2  14   0    1.43    0.33
  -2  14   0    1.44    0.35
  -3 -14   0   10.61    1.35
  -3  14   0   10.99    1.34
  -4 -14   0    0.35    0.24
  -4  14   0    0.67    0.24
  -4  14   0    0.67    0.22
  -5 -14   0    1.53    0.33
  -5  14   0    1.86    0.33
  -5  14   0    1.74    0.35
   0  15   0    0.12    0.17
  -1  15   0    5.02    0.66
   1  15   0    4.05    0.62
  -2  15   0    1.61    0.36
  -2  15   0    1.74    0.35
  -3 -15   0   -0.27    0.20
  -3  15   0    0.00    0.18
  -3  15   0    0.11    0.20
  -3  15   0    0.02    0.19
  -4 -15   0    0.20    0.19
  -4  15   0    0.35    0.21
  -4  15   0   -0.15    0.19
  -4  15   0    0.07    0.16
   0  16   0   11.51    1.38
  -1  16   0    1.70    0.32
  -2  16   0    2.68    0.42
  -3  16   0    1.99    0.34
 -11   0   1   -0.24    0.19
 -10   0   1    0.01    0.18
 -10   0   1   -0.13    0.20
 -10   0   1    0.06    0.21
  -9   0   1    0.09    0.16
  -9   0   1    0.31    0.30
  -9   0   1    0.21    0.18
  -8   0   1    0.03    0.23
  -8   0   1   -0.14    0.14
   7   0  -1   -0.05    0.21
  -7   0   1   -0.04    0.11
  -7   0   1   -0.04    0.20
  -6   0   1   -0.22    0.18
  -6   0   1    0.07    0.09
   6   0  -1    0.34    0.21
   6   0  -1   -0.06    0.12
   5   0  -1   -0.07    0.09
   4   0  -1    0.07    0.06
   3   0  -1    0.02    0.05
   2   0  -1    0.02    0.02
   2   0  -1   -0.01    0.03
   1   0  -1    0.00    0.02
   1   0  -1    0.08    0.02
  -1   0   1   -0.02    0.02
   0   0  -1   -0.60    0.02
   0   0  -1   -0.63    0.01
   0   0   1   -0.62    0.01
   1   0   1    0.00    0.03
  -1   0  -1   -0.02    0.02
  -2   0  -1    0.03    0.04
   2   0   1   -0.02    0.04
   3   0   1   -0.06    0.06
  -3   0  -1   -0.07    0.05
   4   0   1   -0.03    0.09
  -5   0  -1   -0.02    0.16
   5   0   1   -0.08    0.12
  -5   0  -1    0.23    0.12
   6   0   1    0.05    0.22
  -6   0  -1   -0.07    0.13
  -6   0  -1    0.05    0.19
  -6   0  -1    0.09    0.14
  -7   0  -1   -0.01    0.13
  -7   0  -1    0.07    0.20
  -7   0  -1   -0.20    0.19
   7   0   1    0.01    0.40
  -7   0  -1    0.09    0.17
  -8   0  -1    0.15    0.16
  -8   0  -1    0.14    0.24
  -8   0  -1   -0.01    0.19
  -8   0  -1    0.21    0.22
  -9   0  -1   -0.12    0.21
  -9   0  -1    0.03    0.15
 -10   0  -1   -0.03    0.17
 -10   0  -1    0.18    0.20
 -11   1   1    0.67    0.24
 -10  -1   1    0.26    0.19
 -10  -1   1   -0.21    0.22
 -10   1   1    0.09    0.19
 -10   1   1    0.03    0.18
 -10   1   1    0.03    0.21
  -9  -1   1    4.79    0.65
  -9  -1   1    4.32    0.69
  -9  -1   1    4.26    0.63
  -9   1   1    4.56    0.65
  -9   1   1    3.97    0.62
  -8  -1   1   14.35    1.65
  -8  -1   1   13.80    1.72
  -8   1   1   14.24    1.65
  -8   1   1   14.06    1.66
  -8   1   1   12.72    1.73
   7  -1  -1   18.52    2.32
  -7  -1   1   18.70    2.25
  -7  -1   1   19.47    2.20
  -7   1   1   20.30    2.21
  -7   1   1   17.64    2.24
   7   1  -1   18.64    2.29
  -6  -1   1   11.93    1.43
   6  -1  -1   13.25    1.53
  -6  -1   1   11.32    1.47
   6  -1  -1   12.69    1.50
  -6   1   1   13.47    1.45
  -6   1   1   10.09    1.47
   6   1  -1   13.22    1.52
   5  -1  -1   42.62    4.79
   5   1  -1   41.15    4.79
   4  -1  -1   12.62    1.53
   4   1  -1   13.39    1.53
   3  -1  -1    4.52    0.59
   3   1  -1    5.29    0.60
   2  -1  -1   92.42   10.18
  -2   1   1   90.98   10.15
   2   1  -1   88.12   10.18
   1  -1   1  207.25   22.87
  -1  -1  -1  206.63   22.87
  -1   1  -1  205.50   22.87
   1   1   1  195.61   22.86
   2  -1   1   85.80    9.39
  -2  -1  -1   86.34    9.40
   2   1   1   81.04    9.38
  -2   1  -1   80.06    9.39
   3  -1   1    8.47    1.21
  -3   1  -1   11.35    1.22
   3   1   1   10.58    1.22
   4  -1   1    9.34    1.09
   4   1   1    8.33    1.07
  -4   1  -1    8.88    1.07
  -5  -1  -1   44.70    4.90
   5  -1   1   49.93    5.01
  -5  -1  -1   42.05    4.95
  -5  -1  -1   38.85    4.90
  -5   1  -1   43.67    4.92
  -5   1  -1   41.87    4.91
  -5   1  -1   43.36    4.95
   5   1   1   43.07    4.96
  -6  -1  -1    5.57    0.75
  -6  -1  -1    6.56    0.85
   6  -1   1    4.92    0.86
  -6   1  -1    7.34    0.88
  -6   1  -1    5.68    0.73
   6   1   1    5.77    0.88
  -6   1  -1    5.65    0.75
   7  -1   1   36.95    5.09
  -7  -1  -1   45.78    5.03
  -7  -1  -1   47.98    5.02
   7   1   1   36.02    5.07
  -7   1  -1   45.40    4.97
  -7   1  -1   46.65    5.03
  -7   1  -1   41.48    5.01
  -7   1  -1   47.53    4.97
  -8  -1  -1   32.07    3.63
  -8  -1  -1   31.63    3.62
  -8   1  -1   28.74    3.56
  -8   1  -1   32.70    3.56
  -8   1  -1   29.76    3.62
  -9  -1  -1    0.21    0.23
  -9  -1  -1    0.14    0.17
  -9   1  -1    0.46    0.24
  -9   1  -1    0.07    0.17
 -10  -1  -1   -0.04    0.16
 -10  -1  -1    0.14    0.25
 -10   1  -1   -0.17    0.18
 -10   1  -1   -0.11    0.19
 -11   2   1    1.11    0.27
 -10  -2   1    0.97    0.33
 -10  -2   1    1.07    0.32
 -10  -2   1    1.25    0.28
 -10   2   1    1.73    0.31
 -10   2   1    1.57    0.33
  -9  -2   1    9.27    1.25
  -9  -2   1    9.87    1.20
  -9  -2   1    9.74    1.20
  -9   2   1    9.03    1.19
  -9   2   1   10.38    1.21
  -8  -2   1    1.97    0.32
  -8  -2   1    1.95    0.41
  -8   2   1    1.20    0.29
  -8   2   1    1.24    0.30
  -7  -2   1    0.04    0.12
   7  -2  -1    0.11    0.23
  -7  -2   1    0.11    0.20
  -7   2   1   -0.16    0.15
  -7   2   1    0.04    0.11
   7   2  -1    0.50    0.25
   6  -2  -1   42.17    4.89
  -6  -2   1   39.48    4.83
  -6  -2   1   42.14    4.78
   6   2  -1   42.69    4.87
  -6   2   1   44.52    4.80
   5  -2  -1    8.95    1.09
   5   2  -1    8.65    1.08
  -5   2   1    8.49    1.02
   4  -2  -1    5.28    0.79
  -4   2   1    7.18    0.75
   4   2  -1    5.55    0.79
   3  -2  -1   42.83    5.11
   3   2  -1   47.13    5.10
   2  -2  -1  956.64   94.22
   2   2  -1  851.60   94.21
  -2   2   1  713.84   94.20
   1   2  -1    1.77    0.27
   0  -2  -1   48.54    5.06
   0   2  -1   41.16    5.09
   1  -2   1   17.69    2.12
   1   2   1   18.08    2.10
  -1   2  -1   19.67    2.13
   2  -2   1    1.47    0.29
  -2   2  -1    1.87    0.26
   2   2   1    1.94    0.26
   3  -2   1   13.11    1.73
   3   2   1   14.77    1.72
  -3   2  -1   15.80    1.72
   4  -2   1    6.09    0.82
   4   2   1    6.24    0.80
  -4   2  -1    6.53    0.79
  -5  -2  -1    4.95    0.74
   5  -2   1    5.72    0.76
  -5  -2  -1    4.63    0.63
  -5   2  -1    5.98    0.75
  -5   2  -1    5.33    0.65
  -5   2  -1    5.15    0.69
  -5   2  -1    5.09    0.66
   5   2   1    5.32    0.72
  -6  -2  -1   18.61    2.21
   6  -2   1   18.15    2.29
  -6   2  -1   20.39    2.18
   6   2   1   16.97    2.24
  -6   2  -1   19.04    2.21
  -6   2  -1   18.15    2.16
  -7  -2  -1    0.00    0.15
  -7  -2  -1   -0.08    0.21
  -7  -2  -1    0.18    0.22
  -7   2  -1    0.04    0.17
  -7   2  -1    0.29    0.17
  -7   2  -1    0.03    0.17
  -8  -2  -1    0.01    0.26
  -8  -2  -1   -0.01    0.15
  -8  -2  -1    0.37    0.23
  -8   2  -1    0.16    0.19
  -8   2  -1    0.06    0.18
  -8   2  -1    0.32    0.18
  -9  -2  -1    5.93    0.82
  -9  -2  -1    6.21    0.87
  -9  -2  -1    6.83    0.93
  -9   2  -1    6.04    0.83
  -9   2  -1    5.93    0.88
  -9   2  -1    6.78    0.84
 -10  -2  -1    2.05    0.37
 -10   2  -1    3.11    0.46
 -11   3   1    0.15    0.19
 -10  -3   1    9.00    1.27
 -10  -3   1    9.95    1.24
 -10   3   1   11.08    1.26
 -10   3   1   10.95    1.30
  -9  -3   1    0.42    0.27
  -9   3   1    0.86    0.24
  -8  -3   1    5.73    0.80
  -8  -3   1    5.99    0.73
  -8   3   1    3.90    0.70
  -8   3   1    5.97    0.77
   7  -3  -1   23.40    2.99
  -7  -3   1   25.53    2.90
  -7  -3   1   23.58    2.83
  -7   3   1   26.74    2.86
   7   3  -1   24.78    2.95
  -7   3   1   24.09    2.83
  -6  -3   1    0.41    0.13
   6  -3  -1    0.12    0.21
  -6  -3   1    0.27    0.18
   6   3  -1    0.57    0.22
  -6   3   1    0.35    0.14
  -6   3   1    0.20    0.15
   5  -3  -1    0.25    0.15
   5   3  -1    0.22    0.13
  -5   3   1    0.15    0.11
   4  -3  -1   31.79    3.77
   4   3  -1   33.61    3.76
   3  -3  -1    2.02    0.32
   3   3  -1    1.55    0.28
   2   3  -1  549.59   57.33
  -2   3   1  472.62   57.34
   1  -3  -1  298.85   30.57
  -1  -3   1  245.91   30.55
   0  -3  -1    2.46    0.33
   0  -3   1    2.14    0.33
   1  -3   1   81.55    9.56
   1   3   1   87.07    9.54
  -1   3  -1   85.42    9.58
   2   3   1   42.13    4.97
  -2   3  -1   45.60    4.99
   3  -3   1    1.38    0.29
  -3   3  -1    1.79    0.27
   3   3   1    1.80    0.29
  -4  -3  -1   53.99    6.58
  -4   3  -1   55.00    6.59
  -4   3  -1   60.33    6.62
   4   3   1   63.99    6.64
   5  -3   1   13.35    1.56
  -5  -3  -1   12.08    1.44
  -5  -3  -1   11.97    1.49
  -5   3  -1   11.94    1.44
   5   3   1   12.47    1.51
  -5   3  -1   12.36    1.46
  -6  -3  -1    0.26    0.22
   6  -3   1   -0.05    0.29
  -6  -3  -1   -0.04    0.10
  -6  -3  -1    0.07    0.18
  -6   3  -1   -0.27    0.12
  -6   3  -1   -0.15    0.13
   6   3   1   -0.19    0.21
  -7  -3  -1   18.21    2.55
  -7  -3  -1   21.58    2.54
  -7   3  -1   26.82    2.55
  -7   3  -1   24.17    2.51
  -7   3  -1   17.34    2.54
  -8  -3  -1    0.13    0.17
  -8  -3  -1    0.30    0.22
  -8   3  -1    0.07    0.18
  -8   3  -1    0.21    0.20
  -8   3  -1    0.24    0.20
  -9  -3  -1    1.59    0.31
  -9  -3  -1    1.39    0.34
  -9   3  -1    1.01    0.30
  -9   3  -1    2.14    0.39
  -9   3  -1    1.34    0.30
 -10  -3  -1    1.48    0.27
 -10   3  -1    1.38    0.29
 -10  -4   1    3.91    0.68
 -10  -4   1    5.16    0.67
 -10   4   1    5.05    0.70
 -10   4   1    5.43    0.74
  -9  -4   1   18.34    2.08
  -9   4   1   16.02    2.02
  -8  -4   1    2.86    0.47
  -8   4   1    1.23    0.31
   7  -4  -1    3.00    0.68
  -7  -4   1    3.58    0.56
  -7   4   1    3.05    0.50
   7   4  -1    3.17    0.60
  -6  -4   1   15.56    1.91
  -6  -4   1   17.23    1.92
  -6  -4   1   16.10    1.99
   6  -4  -1   16.76    2.06
  -6   4   1   16.76    1.94
   6   4  -1   17.56    2.02
  -5  -4   1    0.07    0.16
  -5  -4   1   -0.06    0.09
   5  -4  -1    0.10    0.15
   5   4  -1    0.01    0.12
  -5   4   1   -0.14    0.09
   4  -4  -1   11.13    1.31
   4   4  -1   10.15    1.28
   3  -4  -1   31.17    3.48
   3   4  -1   29.17    3.44
   2  -4  -1    8.11    0.85
  -2   4   1    6.36    0.85
   2   4  -1    6.24    0.81
  -1  -4   1   18.47    2.49
   1  -4  -1   25.84    2.53
   0  -4   1  238.39   30.23
   0  -4  -1  299.76   30.23
  -1   4  -1    1.86    0.35
   2  -4   1    0.33    0.16
   2   4   1    1.32    0.18
  -2   4  -1    0.65    0.17
   3  -4   1    4.77    0.66
   3   4   1    4.91    0.63
  -3   4  -1    4.81    0.62
   4  -4   1    4.77    0.74
  -4  -4  -1    5.87    0.72
  -4  -4  -1    4.97    0.58
  -4   4  -1    3.89    0.59
  -4   4  -1    4.33    0.60
  -4   4  -1    4.68    0.62
   4   4   1    5.06    0.65
   5  -4   1    9.41    1.26
  -5  -4  -1    9.55    1.17
  -5  -4  -1    9.27    1.10
  -5   4  -1    8.18    1.10
  -5   4  -1    9.26    1.13
   5   4   1   10.22    1.20
  -6  -4  -1   12.42    1.36
   6  -4   1   10.11    1.53
  -6  -4  -1   11.60    1.44
  -6   4  -1   10.88    1.36
  -6   4  -1   12.75    1.40
   6   4   1   10.54    1.47
  -7  -4  -1    1.40    0.40
  -7   4  -1    1.79    0.41
  -7   4  -1    2.97    0.44
  -7   4  -1    3.93    0.44
  -8  -4  -1    0.71    0.22
  -8  -4  -1    0.16    0.23
  -8   4  -1    0.77    0.27
  -8   4  -1    0.56    0.24
  -8   4  -1    0.48    0.23
  -9  -4  -1    3.89    0.55
  -9  -4  -1    3.68    0.60
  -9   4  -1    3.06    0.54
  -9   4  -1    3.63    0.58
 -10   4  -1    0.13    0.18
 -10  -5   1    1.15    0.26
 -10  -5   1    1.23    0.31
 -10   5   1    1.01    0.26
 -10   5   1    1.46    0.32
  -9  -5   1    0.29    0.22
  -9   5   1   -0.03    0.14
  -9   5   1    0.25    0.23
  -8  -5   1    1.12    0.31
  -8   5   1    0.17    0.19
   7  -5  -1    0.70    0.41
  -7  -5   1    0.88    0.26
  -7   5   1    0.51    0.19
   7   5  -1    0.20    0.33
   6  -5  -1   15.19    1.83
  -6  -5   1   14.12    1.71
  -6  -5   1   13.82    1.64
   6   5  -1   14.23    1.74
  -6   5   1   13.81    1.66
  -6   5   1   13.59    1.67
  -5  -5   1    1.05    0.26
  -5  -5   1    1.00    0.18
   5  -5  -1    1.11    0.32
  -5   5   1    1.09    0.22
  -5   5   1    0.89    0.21
   5   5  -1    0.96    0.27
   4  -5  -1   52.15    5.78
   4   5  -1   49.89    5.72
  -4   5   1   48.82    5.69
   3  -5  -1   38.47    4.28
   3   5  -1   35.95    4.24
   2  -5  -1   14.74    1.64
  -2   5   1   12.77    1.65
   2   5  -1   13.57    1.59
   1  -5  -1    1.82    0.29
  -1  -5   1    1.41    0.25
   1   5  -1    0.87    0.28
  -1   5   1    0.84    0.25
   0  -5   1    0.16    0.11
   0  -5  -1    0.26    0.11
   0   5  -1    0.06    0.12
   1  -5   1   39.57    4.58
  -1   5  -1   40.14    4.62
  -2   5  -1  274.21   30.42
   2   5   1  266.46   30.37
   3  -5   1    0.48    0.19
  -3   5  -1    0.41    0.14
   3   5   1    0.27    0.13
  -3   5  -1    0.22    0.11
   4  -5   1   21.53    2.34
  -4  -5  -1   19.76    2.25
  -4  -5  -1   18.27    2.19
  -4   5  -1   17.84    2.18
   4   5   1   19.18    2.26
  -4   5  -1   19.18    2.21
  -4   5  -1   18.83    2.24
  -5  -5  -1   44.77    4.97
   5  -5   1   44.27    5.06
  -5  -5  -1   44.73    4.91
   5   5   1   40.57    4.98
  -5   5  -1   44.03    4.93
  -5   5  -1   41.40    4.90
   6  -5   1    1.28    0.50
  -6  -5  -1    0.79    0.28
  -6  -5  -1    1.23    0.22
  -6   5  -1    0.99    0.25
  -6   5  -1    0.98    0.25
  -6   5  -1    1.23    0.31
   6   5   1    1.34    0.39
  -7  -5  -1    3.42    0.71
  -7   5  -1    4.99    0.72
  -7   5  -1    4.72    0.73
  -7   5  -1    7.10    0.72
  -8  -5  -1    1.56    0.31
  -8  -5  -1    0.92    0.32
  -8   5  -1    1.01    0.27
  -8   5  -1    1.20    0.30
  -9  -5  -1    0.09    0.18
  -9  -5  -1    0.11    0.18
  -9   5  -1    0.04    0.18
  -9   5  -1   -0.16    0.18
 -10  -6   1    1.43    0.33
 -10  -6   1    1.42    0.27
 -10   6   1    1.16    0.29
 -10   6   1    1.21    0.28
  -9  -6   1    6.10    0.96
  -9   6   1    6.87    0.97
  -9   6   1    8.22    0.94
  -8  -6   1    2.86    0.50
  -8   6   1    2.02    0.40
  -7  -6   1    4.90    0.67
  -7   6   1    3.11    0.56
   6  -6  -1   28.81    3.62
  -6  -6   1   31.32    3.52
  -6  -6   1   31.10    3.44
  -6   6   1   31.56    3.47
  -6   6   1   30.00    3.49
   6   6  -1   27.67    3.54
  -5  -6   1   26.27    3.03
  -5  -6   1   24.90    2.97
   5  -6  -1   27.23    3.14
  -5   6   1   25.15    2.98
  -5   6   1   25.10    2.99
   5   6  -1   28.04    3.07
   4  -6  -1   21.38    2.27
  -4  -6   1   16.81    2.17
  -4  -6   1   17.25    2.16
  -4   6   1   17.60    2.13
  -4   6   1   18.11    2.13
   4   6  -1   20.01    2.19
   3  -6  -1   41.11    4.50
   3   6  -1   38.23    4.43
  -3   6   1   37.42    4.46
   2  -6  -1    0.46    0.21
  -2   6   1    0.11    0.15
   2   6  -1    0.03    0.14
  -1  -6   1   16.30    1.64
  -1   6   1   11.47    1.66
   0  -6   1   36.55    4.22
   1  -6   1    3.37    0.54
  -1   6  -1    3.06    0.59
   2  -6   1    4.08    0.79
   2   6   1    6.10    0.72
  -2   6  -1    5.99    0.79
   3  -6   1    0.14    0.22
  -3  -6  -1    0.32    0.19
  -3  -6  -1    0.08    0.09
  -3   6  -1    0.00    0.19
  -3   6  -1    0.11    0.13
   3   6   1    0.65    0.19
  -3   6  -1   -0.04    0.11
   4  -6   1    3.07    0.63
  -4  -6  -1    4.10    0.50
  -4  -6  -1    5.02    0.63
   4   6   1    3.99    0.59
  -4   6  -1    3.03    0.53
  -4   6  -1    3.06    0.52
  -4   6  -1    4.18    0.58
  -4   6  -1    4.07    0.54
  -5  -6  -1    1.83    0.37
  -5  -6  -1    1.66    0.26
   5  -6   1    1.59    0.50
   5   6   1    0.70    0.31
  -5   6  -1    1.58    0.30
  -5   6  -1    1.37    0.31
  -6  -6  -1    2.54    0.38
  -6  -6  -1    2.26    0.46
  -6   6  -1    4.13    0.54
   6   6   1    1.95    0.59
  -6   6  -1    1.94    0.40
  -7  -6  -1    2.47    0.53
  -7   6  -1    4.40    0.59
  -7   6  -1    2.95    0.50
  -8  -6  -1    6.25    0.76
  -8  -6  -1    5.52    0.82
  -8   6  -1    5.50    0.75
  -8   6  -1    4.21    0.75
  -9  -6  -1    1.56    0.34
  -9  -6  -1    0.65    0.26
  -9   6  -1    1.58    0.32
  -9   6  -1    1.50    0.32
 -10  -7   1    0.04    0.15
 -10  -7   1    0.13    0.19
  10  -7  -1    0.14    0.17
 -10   7   1    0.19    0.16
 -10   7   1    0.26    0.21
  -9  -7   1    0.21    0.20
  -9   7   1    0.42    0.20
  -9   7   1    0.32    0.22
  -8  -7   1    1.00    0.31
  -8   7   1    0.99    0.31
  -8   7   1    0.61    0.23
  -7  -7   1    0.02    0.12
  -7  -7   1    0.07    0.21
  -7   7   1   -0.44    0.27
  -7   7   1   -0.03    0.14
  -6  -7   1    0.63    0.27
  -6  -7   1    0.47    0.15
   6  -7  -1    0.34    0.38
  -6   7   1    0.75    0.29
   6   7  -1    0.02    0.29
  -6   7   1    0.27    0.16
  -5  -7   1   15.85    1.93
   5  -7  -1   14.92    2.04
  -5  -7   1   16.52    1.86
  -5   7   1   15.92    1.88
  -5   7   1   16.20    1.91
   5   7  -1   16.38    1.96
  -4  -7   1   24.96    2.97
  -4  -7   1   25.70    3.03
   4  -7  -1   27.33    3.14
  -4   7   1   25.69    2.98
   4   7  -1   27.67    3.05
  -4   7   1   25.23    3.00
  -3  -7   1    5.05    0.65
   3  -7  -1    4.61    0.72
   3  -7  -1    3.84    0.54
   3   7  -1    4.06    0.57
  -3   7   1    4.68    0.59
  -3   7   1    3.72    0.54
  -3   7   1    3.64    0.66
   2   7  -1   13.41    2.08
  -2   7   1   20.08    2.10
  -1  -7   1    3.83    0.53
  -1   7   1    2.46    0.54
   1   7  -1    2.28    0.56
   0  -7   1   -0.02    0.12
   0  -7  -1   -0.01    0.13
   0   7  -1   -0.03    0.14
   1  -7   1    0.34    0.20
  -1  -7  -1    0.57    0.20
  -1   7  -1    0.39    0.23
  -2  -7  -1   59.83    7.04
  -2  -7  -1   60.36    7.08
   2  -7   1   68.07    7.19
   2   7   1   66.85    7.10
  -2   7  -1   66.27    7.19
  -2   7  -1   59.99    7.05
  -2   7  -1   55.92    7.07
   3  -7   1    0.77    0.33
  -3  -7  -1    1.14    0.27
  -3  -7  -1    1.07    0.20
  -3   7  -1    0.75    0.20
  -3   7  -1    0.59    0.24
  -3   7  -1    0.89    0.28
   3   7   1    0.73    0.23
  -4  -7  -1   26.93    3.26
   4  -7   1   29.06    3.39
  -4  -7  -1   30.14    3.20
  -4   7  -1   31.00    3.23
   4   7   1   28.66    3.28
  -4   7  -1   24.79    3.22
  -4   7  -1   24.90    3.24
   5  -7   1    0.94    0.47
  -5  -7  -1    1.13    0.22
  -5  -7  -1    1.13    0.31
  -5   7  -1    1.09    0.25
   5   7   1    0.94    0.35
  -5   7  -1    0.82    0.27
  -5   7  -1    1.41    0.35
  -6  -7  -1    1.59    0.37
  -6  -7  -1    0.70    0.22
  -6   7  -1    1.72    0.32
  -6   7  -1    2.23    0.39
  -7  -7  -1    0.12    0.21
  -7  -7  -1    0.07    0.12
  -7   7  -1   -0.13    0.18
  -7   7  -1    0.27    0.18
  -8  -7  -1    0.30    0.20
  -8  -7  -1    0.24    0.22
  -8   7  -1   -0.06    0.21
  -8   7  -1   -0.01    0.16
  -9  -7  -1   -0.12    0.17
  -9  -7  -1   -0.03    0.17
  -9   7  -1    0.39    0.21
  -9   7  -1   -0.07    0.17
  -9  -8   1    0.87    0.27
   9  -8  -1    0.96    0.23
  -9   8   1    0.71    0.23
  -9   8   1    0.73    0.27
  -8  -8   1    0.79    0.29
  -8   8   1    0.77    0.30
  -8   8   1    0.74    0.22
  -7  -8   1   11.41    1.26
  -7   8   1   10.09    1.33
  -7   8   1   10.03    1.30
  -7   8   1   10.22    1.36
  -6  -8   1   14.14    1.69
  -6   8   1   14.88    1.73
  -6   8   1   14.23    1.77
  -5  -8   1    5.18    0.71
   5  -8  -1    5.18    0.98
  -5  -8   1    6.39    0.86
   5   8  -1    5.60    0.87
  -5   8   1    6.11    0.83
  -5   8   1    5.54    0.76
  -4  -8   1   15.65    1.90
   4  -8  -1   15.80    1.91
   4  -8  -1   17.29    2.11
  -4  -8   1   17.32    1.98
  -4   8   1   16.70    1.92
  -4   8   1   15.35    1.95
   4   8  -1   17.23    2.00
  -3  -8   1    6.02    0.76
   3  -8  -1    6.66    0.98
  -3  -8   1    7.30    0.84
   3  -8  -1    6.31    0.77
   3   8  -1    7.85    0.85
   3   8  -1    6.27    0.78
   3   8  -1    3.56    0.97
  -3   8   1    6.66    0.80
  -3   8   1    5.98    0.76
  -3   8   1    5.63    0.89
  -2  -8   1    9.95    1.01
   2  -8  -1    8.89    0.94
   2  -8  -1   10.06    1.13
  -2   8   1    8.51    0.99
   2   8  -1    8.08    0.96
  -2   8   1    5.69    1.07
   2   8  -1    4.99    1.16
  -1  -8   1    1.82    0.33
  -1  -8   1    1.50    0.33
   1  -8  -1    1.71    0.38
   1  -8  -1    1.50    0.24
   1   8  -1    0.94    0.39
  -1   8   1    1.22    0.28
   1   8  -1    1.79    0.29
  -1   8   1    0.81    0.36
   0  -8   1    7.41    0.86
   0  -8   1    7.14    0.93
   0  -8  -1    7.30    0.92
   0  -8  -1    5.79    0.81
   0   8   1    6.23    0.88
   0   8  -1    6.86    0.86
   1  -8   1    0.52    0.25
  -1  -8  -1    0.55    0.14
  -1  -8  -1    0.83    0.24
  -1  -8  -1    0.35    0.19
  -1   8  -1    0.71    0.19
  -1   8  -1    0.55    0.21
  -1   8  -1    0.76    0.33
  -2  -8  -1    2.51    0.39
  -2  -8  -1    2.89    0.48
   2  -8   1    3.03    0.60
   2   8   1    2.65    0.46
  -2   8  -1    2.97    0.48
  -2   8  -1    2.56    0.41
  -2   8  -1    2.98    0.58
  -3  -8  -1   21.07    2.39
   3  -8   1   20.52    2.53
  -3  -8  -1   19.82    2.33
   3   8   1   19.88    2.40
  -3   8  -1   20.90    2.35
  -3   8  -1   20.09    2.39
  -3   8  -1   19.38    2.43
  -4  -8  -1   27.90    3.15
  -4  -8  -1   28.30    3.07
   4  -8   1   26.43    3.28
   4   8   1   23.59    3.14
  -4   8  -1   27.35    3.09
  -4   8  -1   26.99    3.13
  -5  -8  -1    0.72    0.27
  -5  -8  -1    0.61    0.17
  -5   8  -1    0.17    0.18
  -5   8  -1    0.38    0.30
  -5   8  -1    0.48    0.24
   5   8   1    0.12    0.38
  -6  -8  -1    5.17    0.64
  -6  -8  -1    4.06    0.74
  -6   8  -1    3.85    0.67
  -6   8  -1    6.14    0.75
  -7  -8  -1    0.22    0.14
  -7  -8  -1    0.00    0.20
  -7   8  -1    0.46    0.19
  -7   8  -1    0.38    0.24
  -8  -8  -1    1.43    0.35
  -8  -8  -1    1.24    0.29
  -8   8  -1    1.45    0.30
  -8   8  -1    1.15    0.32
  -9  -8  -1    2.11    0.38
  -9  -9   1    0.07    0.17
   9  -9  -1   -0.12    0.16
  -9   9   1   -0.17    0.18
   8  -9  -1    0.40    0.21
  -8  -9   1    0.51    0.24
  -8   9   1    0.60    0.21
  -7  -9   1    0.11    0.20
   7  -9  -1    0.13    0.17
  -7   9   1    0.06    0.19
  -7   9   1    0.10    0.29
  -6  -9   1    0.11    0.21
   6  -9  -1    0.36    0.18
  -6  -9   1    0.06    0.14
  -6   9   1    0.30    0.29
  -6   9   1    0.12    0.17
  -5  -9   1    0.36    0.23
   5  -9  -1    0.70    0.20
  -5  -9   1    1.02    0.20
  -5   9   1    0.89    0.31
  -5   9   1    0.70    0.23
   4  -9  -1    2.59    0.66
  -4  -9   1    3.06    0.41
  -4  -9   1    3.51    0.53
   4  -9  -1    2.65    0.41
   4   9  -1    2.79    0.54
  -4   9   1    3.51    0.45
  -4   9   1    3.08    0.50
   4   9  -1    1.04    0.60
  -3  -9   1    9.22    1.05
  -3  -9   1    8.51    0.98
   3  -9  -1    8.08    1.22
   3  -9  -1    8.83    0.98
  -3   9   1    7.57    0.97
   3   9  -1    8.65    1.07
   3   9  -1    4.70    1.24
   3   9  -1    7.50    0.98
  -3   9   1    8.74    1.04
  -2  -9   1    2.23    0.36
   2  -9  -1    1.67    0.25
   2  -9  -1    1.47    0.45
  -2   9   1    0.72    0.38
   2   9  -1    2.14    0.39
   2   9  -1    1.53    0.29
   2   9  -1    0.66    0.41
  -2   9   1    1.23    0.30
   1  -9  -1    0.14    0.12
  -1  -9   1    0.11    0.18
  -1  -9   1    0.08    0.17
   1  -9  -1    0.14    0.22
  -1   9   1    0.08    0.27
   1   9  -1    0.09    0.16
   1   9  -1    0.10    0.15
   1   9  -1    0.04    0.28
  -1   9   1   -0.07    0.17
   0  -9  -1    5.97    0.75
   0  -9  -1    5.40    0.83
   0  -9   1    5.07    0.83
   0  -9   1    5.31    0.70
   0  -9  -1    5.21    0.65
   0   9  -1    4.35    0.68
   0   9   1    5.09    0.73
   0   9  -1    5.04    0.72
  -1  -9  -1    3.89    0.57
  -1  -9  -1    4.43    0.51
   1  -9   1    3.18    0.63
  -1   9  -1    3.05    0.50
  -1   9  -1    3.78    0.57
   1   9   1    3.60    0.53
  -1   9  -1    3.14    0.74
  -2  -9  -1   48.58    5.62
  -2  -9  -1   47.34    5.55
   2  -9   1   49.90    5.74
  -2   9  -1   49.36    5.58
   2   9   1   47.88    5.63
  -2   9  -1   51.09    5.62
  -2   9  -1   49.53    5.75
  -3  -9  -1    1.52    0.27
  -3  -9  -1    1.32    0.34
   3  -9   1    0.98    0.42
  -3   9  -1    1.48    0.30
   3   9   1    1.31    0.36
  -3   9  -1    1.09    0.38
  -3   9  -1    1.44    0.35
  -4  -9  -1    1.92    0.40
  -4  -9  -1    1.23    0.26
   4  -9   1    1.49    0.59
   4   9   1    1.91    0.44
  -4   9  -1    1.64    0.38
  -4   9  -1    1.33    0.32
  -5  -9  -1    2.30    0.47
  -5  -9  -1    1.83    0.32
  -5   9  -1    1.96    0.39
  -5   9  -1    2.16    0.45
  -6  -9  -1    2.02    0.32
  -6  -9  -1    1.87    0.43
  -6   9  -1    1.39    0.36
  -7  -9  -1    0.54    0.28
  -7  -9  -1    0.76    0.24
  -7   9  -1    0.71    0.28
  -7   9  -1    0.82    0.24
  -8  -9  -1    0.32    0.20
  -8  -9  -1    0.27    0.19
  -8   9  -1    0.01    0.17
  -8   9  -1    0.72    0.42
  -9 -10   1    2.28    0.38
   8 -10  -1    0.03    0.17
  -8 -10   1    0.03    0.18
  -8  10   1    0.01    0.18
  -7 -10   1    0.10    0.20
   7 -10  -1    0.36    0.18
  -7  10   1    0.31    0.20
  -7  10   1    0.42    0.27
   6 -10  -1   21.54    2.48
  -6 -10   1   21.08    2.45
  -6 -10   1   18.04    2.53
  -6  10   1   22.52    2.56
  -6  10   1   23.30    2.50
  -5 -10   1    0.69    0.30
  -5 -10   1    0.88    0.22
   5 -10  -1    0.99    0.25
  -5  10   1    1.20    0.27
  -5  10   1    1.10    0.35
  -4 -10   1   10.38    1.49
   4 -10  -1   12.53    1.43
  -4  10   1   12.87    1.45
  -4  10   1   12.00    1.51
  -3 -10   1   19.69    2.05
   3 -10  -1   17.18    1.96
   3 -10  -1   16.73    2.18
   3  10  -1   16.23    2.06
   3  10  -1   14.92    1.97
  -3  10   1   16.75    2.03
   2 -10  -1    2.67    0.61
   2 -10  -1    3.00    0.41
  -2 -10   1    2.73    0.49
  -2  10   1    1.94    0.61
   2  10  -1    1.85    0.70
   2  10  -1    3.02    0.45
   2  10  -1    4.02    0.59
  -2  10   1    3.29    0.51
  -1 -10   1    0.96    0.31
   1 -10  -1    0.98    0.21
  -1 -10   1    0.82    0.27
   1 -10  -1    1.00    0.37
  -1  10   1    0.40    0.38
   1  10  -1    0.98    0.24
   1  10  -1    0.74    0.23
  -1  10   1    0.95    0.29
   1  10  -1    0.49    0.39
   0 -10   1    0.09    0.22
   0 -10  -1    0.39    0.29
   0 -10   1    0.23    0.22
   0 -10  -1    0.31    0.24
   0 -10  -1    0.16    0.13
   0  10  -1    0.17    0.36
   0  10   1    0.42    0.35
   0  10  -1    0.54    0.20
   0  10   1    0.32    0.21
  -1 -10  -1    4.33    0.63
   1 -10   1    3.22    0.70
  -1 -10  -1    3.95    0.55
   1 -10   1    4.00    0.61
   1  10   1    4.37    0.60
  -1  10  -1    3.18    0.80
  -1  10  -1    4.78    0.61
   1  10   1    4.39    0.68
  -1  10  -1    3.87    0.62
  -2 -10  -1   15.37    1.83
  -2 -10  -1   15.61    1.75
   2 -10   1   14.07    1.95
   2  10   1   13.79    1.84
  -2  10  -1   17.04    1.83
  -2  10  -1   15.44    1.78
  -2  10  -1   13.75    1.95
  -3 -10  -1   37.33    4.05
  -3 -10  -1   37.70    4.13
   3 -10   1   29.76    4.27
  -3  10  -1   37.91    4.09
  -3  10  -1   38.74    4.13
   3  10   1   30.86    4.14
  -4 -10  -1    4.49    0.62
  -4 -10  -1    5.06    0.76
  -4  10  -1    4.94    0.70
  -4  10  -1    3.75    0.69
  -5 -10  -1    2.37    0.51
  -5 -10  -1    2.80    0.41
  -5  10  -1    2.73    0.49
  -5  10  -1    2.68    0.50
  -6 -10  -1    2.11    0.48
  -6 -10  -1    2.71    0.40
  -6  10  -1    3.09    0.50
  -6  10  -1    2.72    0.46
  -7 -10  -1    1.23    0.31
  -7  10  -1    0.79    0.23
  -7  10  -1    0.46    0.30
  -8 -10  -1   -0.02    0.17
  -8  10  -1   -0.11    0.17
  -8 -11   1    0.16    0.17
   8 -11  -1    0.21    0.18
  -8  11   1   -0.09    0.19
  -8  11   1    0.04    0.25
  -7 -11   1    0.13    0.20
   7 -11  -1    0.25    0.18
  -7  11   1    0.03    0.21
  -7  11   1    0.33    0.26
   6 -11  -1   -0.11    0.15
  -6 -11   1   -0.17    0.19
  -6  11   1   -0.02    0.25
  -6  11   1   -0.11    0.20
  -5 -11   1    0.79    0.31
   5 -11  -1    1.67    0.27
  -5  11   1    1.17    0.33
  -5  11   1    1.20    0.35
  -4 -11   1    6.25    1.03
   4 -11  -1    8.67    0.94
  -4  11   1    6.86    1.06
  -3 -11   1    0.23    0.21
   3 -11  -1   -0.05    0.13
   3  11  -1    0.05    0.18
  -3  11   1   -0.23    0.18
   2 -11  -1   10.17    1.73
  -2 -11   1   15.92    1.66
   2 -11  -1   13.23    1.56
   2  11  -1   13.38    1.59
   2  11  -1   12.56    1.68
  -2  11   1   14.11    1.65
   1 -11  -1    0.02    0.12
   1 -11  -1   -0.02    0.31
  -1 -11   1    0.31    0.22
   1  11  -1    0.23    0.17
  -1  11   1    0.16    0.41
  -1  11   1   -0.24    0.18
   1  11  -1   -0.12    0.39
   1  11  -1    0.06    0.19
   1  11  -1    0.12    0.17
   0 -11   1    0.92    0.28
   0 -11  -1    1.10    0.40
   0 -11  -1    0.80    0.20
   0 -11   1    0.38    0.32
   0  11  -1    0.76    0.25
   0  11   1    0.02    0.44
   0  11   1    0.88    0.26
   0  11  -1    0.57    0.49
   1 -11   1   12.62    1.71
   1 -11   1   15.06    1.57
  -1 -11  -1   13.03    1.50
  -1 -11  -1   13.24    1.57
  -1  11  -1   10.74    1.78
   1  11   1   12.77    1.62
  -1  11  -1   11.90    1.55
   1  11   1   11.95    1.53
  -2 -11  -1   12.71    1.41
  -2 -11  -1   10.80    1.32
   2 -11   1   10.89    1.37
  -2  11  -1   10.34    1.35
  -3 -11  -1    0.15    0.14
  -3 -11  -1    0.04    0.21
  -3  11  -1    0.24    0.20
  -3  11  -1    0.08    0.22
  -4 -11  -1   14.08    1.68
  -4 -11  -1   13.16    1.57
  -4  11  -1   11.89    1.61
  -4  11  -1   14.41    1.65
  -5 -11  -1    7.32    0.85
  -5 -11  -1    6.55    0.97
  -5  11  -1    6.05    0.91
  -5  11  -1    6.71    0.93
  -6 -11  -1    0.04    0.13
  -6 -11  -1    0.04    0.20
  -6  11  -1    0.03    0.20
  -6  11  -1    0.07    0.20
  -7 -11  -1    0.42    0.22
  -7  11  -1    0.18    0.20
  -7  11  -1    0.42    0.25
  -8 -12   1   -0.02    0.23
  -7 -12   1    0.19    0.16
   7 -12  -1   -0.08    0.22
  -7  12   1    0.40    0.21
  -7  12   1    0.24    0.24
  -6 -12   1    1.84    0.40
   6 -12  -1    2.03    0.34
  -6  12   1    2.37    0.45
  -5 -12   1    0.61    0.25
   5 -12  -1    0.64    0.20
  -5  12   1    0.40    0.27
   4 -12  -1    1.79    0.30
  -4 -12   1    1.82    0.39
  -4  12   1    0.97    0.35
  -3 -12   1   31.90    3.09
   3 -12  -1   26.94    2.99
  -3  12   1   19.59    3.03
  -2 -12   1    4.89    0.69
   2 -12  -1    3.48    0.56
   2  12  -1    4.09    0.61
  -1 -12   1    0.27    0.23
   1 -12  -1    0.30    0.16
  -1  12   1    0.38    0.23
   1  12  -1    0.30    0.20
   0 -12   1    1.84    0.39
   0 -12  -1    1.75    0.30
   0  12   1    1.59    0.35
   0  12  -1    1.28    0.33
   0  12  -1    2.04    0.39
   0  12  -1    1.90    0.37
  -1 -12  -1    3.21    0.44
   1 -12   1    4.06    0.56
  -1 -12  -1    2.74    0.51
  -1  12  -1    1.56    0.44
   1  12   1    3.38    0.50
  -2 -12  -1    4.88    0.68
  -2 -12  -1    5.14    0.78
   2 -12   1    5.55    0.78
  -3 -12  -1   13.68    1.57
  -3 -12  -1   14.53    1.66
  -3  12  -1   12.70    1.61
  -3  12  -1   11.93    1.61
  -4 -12  -1    2.00    0.34
  -4 -12  -1    2.09    0.45
  -4  12  -1    2.06    0.41
  -4  12  -1    2.61    0.42
  -5 -12  -1    0.90    0.19
  -5 -12  -1    0.69    0.27
  -5  12  -1    0.81    0.25
  -5  12  -1    0.78    0.27
  -5  12  -1    0.27    0.22
  -6 -12  -1    2.16    0.34
  -6 -12  -1    2.25    0.42
  -6  12  -1    2.18    0.42
  -6  12  -1    2.41    0.41
  -7 -13   1    0.48    0.19
  -6 -13   1   -0.05    0.17
  -6  13   1    0.08    0.18
  -5 -13   1    5.90    0.79
   5 -13  -1    4.82    0.67
  -5  13   1    4.63    0.73
   4 -13  -1   10.50    1.28
  -4 -13   1   12.62    1.39
  -4  13   1    9.38    1.35
   3 -13  -1    1.11    0.24
  -3 -13   1    1.49    0.37
  -3  13   1    0.67    0.28
  -2 -13   1    5.05    0.81
   2 -13  -1    6.25    0.76
  -2  13   1    5.18    0.81
   2  13  -1    5.98    0.80
  -1 -13   1    3.89    0.66
   1 -13  -1    4.24    0.59
  -1  13   1    4.50    0.68
   1  13  -1    4.65    0.66
   0 -13  -1    0.98    0.23
   0 -13   1    1.02    0.32
   0  13  -1    1.01    0.29
   0  13  -1    1.12    0.31
   0  13   1    1.15    0.28
   0  13  -1    1.05    0.29
  -1 -13  -1    2.34    0.37
   1 -13   1    3.17    0.49
  -1  13  -1    2.31    0.42
  -1  13  -1    1.70    0.40
  -1  13  -1    2.12    0.43
  -2 -13  -1    6.46    0.86
  -2 -13  -1    6.64    0.75
  -2  13  -1    3.80    0.78
  -2  13  -1    6.85    0.87
  -3 -13  -1   -0.03    0.23
  -3 -13  -1   -0.07    0.14
  -3  13  -1   -0.05    0.18
  -3  13  -1    0.00    0.19
  -4 -13  -1    9.16    1.16
  -4 -13  -1    9.08    1.24
  -4  13  -1   10.83    1.22
  -4  13  -1   10.19    1.23
  -4  13  -1    9.56    1.23
  -5 -13  -1    1.21    0.22
  -5 -13  -1    0.47    0.25
  -5  13  -1    0.95    0.27
  -5  13  -1    0.94    0.29
  -5  13  -1    1.04    0.29
  -6 -13  -1   -0.08    0.18
  -6 -14   1   -0.05    0.16
  -6  14   1   -0.12    0.18
  -6  14   1    0.05    0.17
  -5 -14   1    0.23    0.20
  -5  14   1    0.57    0.22
  -4 -14   1    0.45    0.23
  -4  14   1    0.12    0.22
  -3 -14   1    2.97    0.52
  -3  14   1    3.18    0.53
  -2 -14   1    3.01    0.53
   2  14  -1    2.82    0.48
  -2  14   1    3.54    0.53
   1 -14  -1    7.63    1.02
  -1 -14   1    8.23    1.09
  -1  14   1    8.72    1.08
   1  14  -1    9.25    1.08
   0 -14  -1    2.29    0.36
   0 -14   1    2.24    0.43
   0  14   1    2.25    0.41
   0  14  -1    1.76    0.40
   0  14  -1    3.63    0.55
  -1 -14  -1    2.46    0.38
  -1  14  -1    2.29    0.42
  -1  14  -1    2.10    0.42
  -1  14  -1    2.42    0.45
  -2 -14  -1    0.17    0.16
  -2  14  -1    0.08    0.20
  -2  14  -1   -0.03    0.19
  -2  14  -1   -0.11    0.16
  -3 -14  -1    0.84    0.21
  -3 -14  -1    0.41    0.26
  -3  14  -1    0.97    0.28
  -3  14  -1    0.98    0.25
  -3  14  -1    0.89    0.25
  -4 -14  -1    0.70    0.26
  -4  14  -1    0.86    0.24
  -4  14  -1    1.01    0.26
  -4  14  -1    0.62    0.26
  -5  14  -1    0.20    0.18
  -5  14  -1    0.16    0.18
  -5  14  -1   -0.01    0.17
  -5  15   1    5.53    0.75
  -4 -15   1    2.31    0.41
  -4  15   1    1.99    0.40
  -4  15   1    3.18    0.43
  -4  15   1    2.16    0.39
  -3 -15   1    0.30    0.23
  -3  15   1   -0.39    0.21
  -3  15   1    0.09    0.17
  -2 -15   1    0.36    0.22
  -2  15   1    0.91    0.27
  -2  15   1    0.41    0.22
  -1 -15   1    1.74    0.36
   1  15  -1    1.81    0.36
  -1  15   1    2.19    0.37
   0  15   1    0.50    0.20
   0  15  -1    0.18    0.19
  -1  15  -1    5.63    0.89
  -1  15  -1    7.99    0.90
  -2  15  -1    5.84    0.76
  -2  15  -1    4.84    0.74
  -2  15  -1    5.77    0.75
  -3  15  -1    0.14    0.19
  -3  15  -1    0.04    0.15
  -3  15  -1    0.31    0.20
  -4  15  -1    1.27    0.27
  -3  16   1    0.26    0.16
  -2  16   1    0.86    0.22
   1  16  -1    0.60    0.22
  -1  16   1    0.68    0.21
   0  16  -1    9.34    1.14
  -1  16  -1   -0.09    0.15
  -2  16  -1    0.11    0.15
 -11   0   2    0.20    0.18
 -11   0   2   -0.08    0.19
 -10   0   2    4.24    0.64
 -10   0   2    4.46    0.62
  -9   0   2    8.24    0.99
  -9   0   2    7.64    1.00
  -8   0   2    0.30    0.16
   8   0  -2    0.30    0.26
   8   0  -2    0.27    0.35
  -7   0   2    0.00    0.10
   7   0  -2   -0.07    0.16
   7   0  -2    0.01    0.21
   6   0  -2    1.31    0.29
   6   0  -2    0.97    0.25
  -6   0   2    1.17    0.21
   5   0  -2    4.53    0.60
   4   0  -2    3.69    0.48
   3   0  -2    3.19    0.40
   2   0  -2    8.43    0.99
   2   0  -2    8.70    0.98
   1   0  -2   64.90    6.97
   1   0  -2   58.32    6.95
   0   0   2  348.81   45.92
   0   0  -2  468.32   45.95
   0   0  -2  412.11   45.92
   1   0   2    0.19    0.06
  -1   0  -2    0.10    0.05
   2   0   2   11.61    1.17
  -2   0  -2    8.73    1.17
   3   0   2   30.78    3.71
  -3   0  -2   34.09    3.73
  -4   0  -2    0.88    0.25
  -4   0  -2    0.77    0.17
  -4   0  -2    0.95    0.23
  -4   0  -2    1.23    0.26
  -4   0  -2    0.75    0.18
   4   0   2    0.81    0.22
  -5   0  -2    1.03    0.30
  -5   0  -2    2.51    0.41
  -5   0  -2    1.92    0.37
  -5   0  -2    2.20    0.32
   5   0   2    1.57    0.38
  -6   0  -2   52.71    5.35
   6   0   2   39.91    5.37
  -6   0  -2   47.96    5.33
  -6   0  -2   45.71    5.28
  -7   0  -2   40.08    4.48
  -7   0  -2   36.98    4.41
  -8   0  -2   -0.16    0.20
  -8   0  -2    0.21    0.16
  -9   0  -2    3.60    0.59
  -9   0  -2    3.91    0.55
 -11  -1   2   -0.18    0.22
 -11  -1   2   -0.25    0.18
 -11  -1   2    0.13    0.21
 -11   1   2   -0.05    0.20
 -11   1   2    0.06    0.16
 -10  -1   2    7.75    0.98
 -10  -1   2    7.99    0.99
 -10   1   2    7.62    0.99
 -10   1   2    7.46    1.11
  -9  -1   2    3.36    0.54
  -9   1   2    4.13    0.57
  -9   1   2    3.89    0.57
  -8  -1   2   11.98    1.37
  -8  -1   2   11.79    1.31
   8  -1  -2   10.95    1.47
   8   1  -2    9.80    1.42
  -8   1   2    9.83    1.30
  -7  -1   2   17.24    2.25
  -7  -1   2   20.26    2.21
   7  -1  -2   20.62    2.27
   7  -1  -2   18.86    2.32
  -7   1   2   19.85    2.21
   7   1  -2   17.88    2.25
   7   1  -2   18.63    2.30
  -6  -1   2    0.18    0.09
   6  -1  -2   -0.08    0.15
   6  -1  -2    0.10    0.13
   6   1  -2    0.16    0.19
   6   1  -2    0.06    0.13
  -6   1   2    0.17    0.09
   5  -1  -2   17.05    1.77
   5   1  -2   12.99    1.75
   4  -1  -2    5.45    0.67
   4   1  -2    4.57    0.68
   4   1  -2    6.79    0.69
   3  -1  -2   67.90    7.14
   3   1  -2   58.73    7.14
   2  -1  -2  295.69   32.58
  -2   1   2  273.47   32.57
   2   1  -2  302.49   32.58
   1  -1  -2   32.01    3.71
   1  -1  -2   35.23    3.72
   1   1  -2   29.86    3.71
   1   1  -2   34.61    3.74
   0  -1  -2   93.70    9.09
   0  -1   2   76.81    9.08
   0   1   2   70.71    9.06
   0   1   2   75.62    9.06
   0   1  -2   87.37    9.09
  -1  -1  -2    1.51    0.23
   1  -1   2    2.13    0.24
  -1   1  -2    1.34    0.23
   1   1   2    1.92    0.22
  -2   1  -2   75.49    9.49
   2   1   2   93.29    9.48
  -3  -1  -2   16.21    1.90
   3  -1   2   16.23    1.89
   3   1   2   16.02    1.87
  -3   1  -2   16.00    1.89
   4  -1   2    0.88    0.22
  -4  -1  -2    0.63    0.23
  -4  -1  -2    0.61    0.21
  -4  -1  -2    0.76    0.16
  -4  -1  -2    0.80    0.17
  -4   1  -2    0.72    0.21
  -4   1  -2    0.45    0.18
   4   1   2    0.73    0.20
  -4   1  -2    0.76    0.22
  -4   1  -2    0.66    0.20
  -4   1  -2    0.65    0.16
   5  -1   2    0.47    0.26
  -5  -1  -2    0.99    0.28
  -5  -1  -2    0.88    0.26
  -5  -1  -2    0.72    0.19
  -5   1  -2    0.77    0.19
  -5   1  -2    1.04    0.22
   5   1   2    0.57    0.25
  -5   1  -2    0.97    0.27
  -5   1  -2    1.01    0.26
  -6  -1  -2    1.26    0.32
  -6  -1  -2    0.64    0.22
  -6  -1  -2    1.00    0.30
   6  -1   2    0.57    0.43
  -6   1  -2    1.03    0.29
  -6   1  -2    0.92    0.23
  -6   1  -2    1.30    0.33
  -6   1  -2    1.47    0.27
  -7  -1  -2    1.68    0.36
  -7  -1  -2    1.05    0.27
  -7  -1  -2    0.73    0.29
  -7   1  -2    0.76    0.24
  -7   1  -2    1.41    0.31
  -7   1  -2    1.36    0.33
  -8  -1  -2    6.53    0.93
  -8  -1  -2    6.16    0.87
  -8   1  -2    5.85    0.85
  -8   1  -2    7.84    0.97
  -9  -1  -2    0.27    0.25
  -9  -1  -2    0.47    0.19
  -9   1  -2    0.49    0.21
  -9   1  -2    0.96    0.26
 -11  -2   2    0.37    0.20
 -11   2   2    0.06    0.20
 -11   2   2    0.37    0.17
 -10  -2   2    0.13    0.20
 -10  -2   2    0.01    0.17
 -10   2   2    0.27    0.17
  -9  -2   2    7.85    1.06
  -9  -2   2    8.68    0.97
  -9   2   2    6.45    0.95
  -8  -2   2    1.31    0.36
  -8  -2   2    1.86    0.29
  -8   2   2    1.09    0.27
  -8   2   2    1.74    0.31
  -7  -2   2    1.12    0.21
   7  -2  -2    0.78    0.33
   7  -2  -2    1.10    0.29
  -7  -2   2    0.75    0.27
  -7   2   2    1.12    0.23
   7   2  -2    0.94    0.32
  -6  -2   2    2.42    0.34
   6  -2  -2    2.48    0.47
  -6  -2   2    2.15    0.41
   6  -2  -2    2.13    0.40
   6   2  -2    2.62    0.46
  -6   2   2    2.34    0.35
   6   2  -2    2.56    0.43
   5  -2  -2   24.30    2.47
   5   2  -2   18.21    2.43
   4  -2  -2    5.75    0.65
   4   2  -2    4.40    0.64
   3  -2  -2   84.90    9.14
   3   2  -2   77.22    9.13
   2  -2  -2  288.47   32.15
   2   2  -2  284.43   32.14
  -1  -2   2   94.76   10.65
   1  -2  -2   98.33   10.64
   1   2  -2   90.80   10.68
   0  -2   2  272.40   30.80
   0   2  -2  275.56   30.82
   0   2   2  274.91   30.77
   1  -2   2   36.25    4.04
   1   2   2   34.89    4.01
   2  -2   2    2.72    0.38
  -2   2  -2    2.57    0.37
   2   2   2    2.83    0.36
   3  -2   2   52.06    6.09
   3   2   2   53.48    6.07
  -3   2  -2   54.68    6.08
  -4  -2  -2   73.13    8.30
  -4  -2  -2   73.28    8.25
   4  -2   2   75.00    8.33
  -4   2  -2   71.77    8.30
  -4   2  -2   71.67    8.26
  -4   2  -2   74.75    8.31
   4   2   2   74.12    8.30
  -4   2  -2   69.81    8.26
  -4   2  -2   75.08    8.30
  -5  -2  -2    5.76    0.69
  -5  -2  -2    6.39    0.77
  -5  -2  -2    6.30    0.75
  -5  -2  -2    5.09    0.76
   5  -2   2    5.66    0.85
  -5   2  -2    5.78    0.70
  -5   2  -2    4.73    0.74
  -5   2  -2    5.74    0.80
  -5   2  -2    6.25    0.80
   5   2   2    4.65    0.78
  -5   2  -2    5.55    0.71
  -6  -2  -2   42.63    4.70
   6  -2   2   33.43    4.76
  -6  -2  -2   43.79    4.73
  -6   2  -2   41.45    4.66
  -6   2  -2   40.26    4.71
  -6   2  -2   42.78    4.65
  -7  -2  -2   17.80    2.37
  -7  -2  -2   24.88    2.45
  -7  -2  -2   16.79    2.41
  -7   2  -2   25.40    2.42
  -7   2  -2   18.02    2.42
  -8  -2  -2    2.14    0.47
  -8  -2  -2    3.33    0.54
  -8  -2  -2    2.02    0.41
  -8   2  -2    3.46    0.55
  -8   2  -2    2.90    0.44
  -8   2  -2    2.87    0.47
  -9  -2  -2    9.49    1.06
  -9   2  -2    7.54    1.04
  -9   2  -2    8.46    1.09
 -11  -3   2    1.88    0.33
 -11   3   2    1.98    0.37
 -10  -3   2    7.06    0.92
 -10   3   2    6.78    0.90
  -9  -3   2   -0.44    0.21
  -9  -3   2    0.12    0.17
  -9   3   2    0.00    0.15
  -8  -3   2   27.93    2.94
  -8  -3   2   26.13    3.00
  -8   3   2   22.33    2.94
   7  -3  -2   34.59    4.19
  -7  -3   2   35.05    4.11
  -7  -3   2   35.46    4.05
   7   3  -2   35.08    4.16
  -7   3   2   37.49    4.07
   6  -3  -2    0.38    0.20
   6  -3  -2    0.67    0.24
  -6  -3   2    0.56    0.22
   6   3  -2    0.64    0.22
  -6   3   2    0.65    0.16
   5  -3  -2    1.42    0.26
   5  -3  -2    0.67    0.22
   5   3  -2    0.99    0.23
  -5   3   2    0.80    0.16
   4   3  -2    1.26    0.33
   4   3  -2    1.81    0.28
   3  -3  -2    4.55    0.55
  -3   3   2    4.34    0.49
   3   3  -2    3.41    0.51
   2  -3  -2 1000.00  100.71
   2   3  -2  796.56  100.68
  -1  -3   2    2.32    0.33
   1  -3  -2    2.81    0.34
   1   3  -2    2.01    0.40
   0  -3  -2    1.96    0.28
   0  -3   2    2.48    0.34
   0   3  -2    1.80    0.34
   1  -3   2    4.59    0.60
   1   3   2    4.71    0.56
   2  -3   2    6.11    0.81
   2   3   2    6.28    0.77
  -2   3  -2    6.38    0.79
   3  -3   2    4.60    0.64
   3   3   2    4.37    0.60
  -3   3  -2    4.77    0.61
   4  -3   2    4.94    0.75
  -4  -3  -2    5.40    0.62
  -4  -3  -2    5.71    0.69
  -4   3  -2    4.72    0.66
  -4   3  -2    4.66    0.63
  -4   3  -2    5.61    0.72
  -4   3  -2    4.56    0.61
   4   3   2    4.47    0.66
  -5  -3  -2   61.15    6.42
  -5  -3  -2   50.59    6.45
   5  -3   2   54.12    6.54
  -5  -3  -2   60.93    6.49
  -5   3  -2   57.22    6.43
   5   3   2   55.05    6.49
  -5   3  -2   59.86    6.49
  -5   3  -2   61.01    6.45
  -5   3  -2   52.59    6.48
  -6  -3  -2    4.46    0.67
   6  -3   2    4.27    0.86
  -6  -3  -2    4.90    0.76
  -6  -3  -2    6.67    0.77
  -6   3  -2    4.86    0.68
  -6   3  -2    3.00    0.66
  -6   3  -2    6.64    0.70
  -7  -3  -2    0.56    0.26
  -7  -3  -2    0.40    0.20
  -7   3  -2    0.62    0.21
  -7   3  -2    0.62    0.24
  -7   3  -2    1.11    0.26
  -8  -3  -2    0.84    0.22
  -8  -3  -2    0.48    0.24
  -8   3  -2    0.98    0.25
  -8   3  -2    0.43    0.25
  -8   3  -2    0.55    0.23
  -9  -3  -2    0.73    0.23
  -9   3  -2    0.84    0.25
  -9   3  -2    1.09    0.27
 -11  -4   2    1.18    0.25
 -11   4   2    1.38    0.30
 -11   4   2    1.30    0.28
 -10  -4   2    0.61    0.28
 -10   4   2    1.02    0.24
  -9  -4   2    1.60    0.37
  -9   4   2    1.17    0.29
  -8  -4   2    1.32    0.26
  -8  -4   2    1.35    0.34
  -8   4   2    0.89    0.24
  -7  -4   2    1.59    0.28
  -7  -4   2    1.86    0.38
   7  -4  -2    1.82    0.45
  -7   4   2    1.75    0.31
   7   4  -2    1.69    0.45
  -6  -4   2   16.53    2.10
   6  -4  -2   18.14    2.17
   6   4  -2   18.33    2.14
  -6   4   2   18.06    2.06
   5  -4  -2    5.46    0.73
   5  -4  -2    5.75    0.77
  -5  -4   2    5.54    0.94
   5   4  -2    6.62    0.77
  -5   4   2    5.05    0.69
   4  -4  -2    1.60    0.28
   4   4  -2    0.79    0.27
   4   4  -2    1.11    0.22
   3   4  -2   93.69   10.50
  -3   4   2   92.54   10.50
   2  -4  -2    2.50    0.33
   2   4  -2    1.59    0.25
   2   4  -2    1.17    0.31
  -1  -4   2    1.37    0.25
   1  -4  -2    2.17    0.28
   1   4  -2    0.77    0.26
   0  -4  -2    2.14    0.31
   0  -4   2    2.04    0.33
   0   4  -2    1.66    0.36
   1  -4   2    7.19    0.83
   1   4   2    7.59    0.77
  -1   4  -2    4.91    0.80
   2  -4   2    3.39    0.48
   2   4   2    2.64    0.37
  -2   4  -2    2.40    0.39
   3  -4   2   62.61    6.88
  -3  -4  -2   58.92    6.78
  -3   4  -2   57.08    6.80
  -3   4  -2   59.04    6.79
   3   4   2   61.13    6.82
  -3   4  -2   61.79    6.84
  -4  -4  -2   54.84    6.10
   4  -4   2   52.30    6.15
  -4  -4  -2   54.69    6.04
   4   4   2   53.84    6.10
  -4   4  -2   54.49    6.04
  -4   4  -2   52.16    6.06
  -4   4  -2   51.57    6.09
  -4   4  -2   53.72    6.09
   5  -4   2    4.99    0.91
  -5  -4  -2    6.15    0.74
  -5  -4  -2    6.85    0.90
  -5   4  -2    6.38    0.85
  -5   4  -2    6.36    0.78
  -5   4  -2    5.76    0.74
   5   4   2    5.16    0.86
   6  -4   2   30.69    3.46
  -6  -4  -2   30.31    3.31
  -6  -4  -2   25.45    3.22
  -6  -4  -2   31.04    3.25
  -6   4  -2   24.45    3.28
  -7  -4  -2    1.16    0.26
  -7  -4  -2    0.56    0.30
  -7   4  -2    0.95    0.29
  -7   4  -2    1.51    0.32
  -7   4  -2    1.79    0.32
  -8  -4  -2    0.42    0.25
  -8  -4  -2    0.90    0.25
  -8   4  -2    0.66    0.24
  -8   4  -2    0.66    0.26
  -8   4  -2    0.92    0.24
  -9  -4  -2   11.10    1.12
  -9   4  -2    7.55    1.13
  -9   4  -2   10.27    1.17
  -9   4  -2    7.29    1.15
 -11   5   2    1.22    0.29
 -11   5   2    1.44    0.32
 -10  -5   2    2.58    0.52
 -10   5   2    3.49    0.53
 -10   5   2    3.15    0.49
  -9  -5   2    0.25    0.23
  -9   5   2    0.09    0.16
  -8  -5   2    5.41    0.72
  -8   5   2    3.49    0.59
  -7  -5   2   10.97    1.30
   7  -5  -2    8.32    1.42
  -7  -5   2   10.97    1.21
  -7   5   2   10.10    1.23
  -7   5   2   10.14    1.23
   7   5  -2    8.99    1.33
   6  -5  -2    0.13    0.26
  -6  -5   2    0.43    0.22
  -6  -5   2    0.12    0.12
   6   5  -2    0.06    0.17
  -6   5   2    0.15    0.13
   5  -5  -2   30.64    3.59
  -5  -5   2   29.35    3.52
   5   5  -2   31.35    3.55
  -5   5   2   30.74    3.48
   4  -5  -2  142.87   15.17
   4   5  -2  126.08   15.13
   3  -5  -2    0.07    0.12
   3   5  -2    0.02    0.07
  -3   5   2    0.14    0.12
   3   5  -2   -0.10    0.15
  -2   5   2   10.53    1.22
   2   5  -2    8.51    1.24
   1  -5  -2  170.38   16.65
  -1  -5   2  125.68   16.62
   0  -5   2    0.36    0.14
   0  -5  -2    0.15    0.11
   0   5  -2    0.12    0.14
   1  -5   2    4.45    0.61
  -1   5  -2    2.97    0.54
   1   5   2    4.16    0.49
   2  -5   2   24.03    2.74
  -2   5  -2   22.96    2.72
   2   5   2   22.76    2.67
  -3  -5  -2    9.37    1.18
  -3  -5  -2    9.54    1.12
   3  -5   2   10.00    1.24
  -3   5  -2    9.58    1.18
   3   5   2    9.20    1.17
  -3   5  -2    9.94    1.17
  -3   5  -2    9.19    1.12
  -3   5  -2    9.31    1.14
  -4  -5  -2   14.00    1.63
  -4  -5  -2   14.15    1.56
   4  -5   2   13.63    1.71
  -4   5  -2   14.31    1.57
  -4   5  -2   12.61    1.62
  -4   5  -2   14.14    1.59
  -4   5  -2   12.72    1.60
   4   5   2   12.10    1.62
   5  -5   2    1.60    0.49
  -5  -5  -2    1.48    0.28
  -5  -5  -2    2.11    0.39
  -5   5  -2    1.39    0.34
  -5   5  -2    1.89    0.31
  -5   5  -2    1.69    0.32
  -6  -5  -2    0.43    0.19
  -6  -5  -2    0.21    0.21
  -6  -5  -2    0.29    0.14
  -6   5  -2    0.34    0.20
  -6   5  -2    0.52    0.20
  -6   5  -2    0.41    0.19
  -7  -5  -2    7.24    0.83
  -7  -5  -2    4.38    0.86
  -7   5  -2    4.93    0.85
  -7   5  -2    7.23    0.88
  -7   5  -2    6.75    0.81
  -8  -5  -2    1.33    0.30
  -8  -5  -2    1.19    0.33
  -8   5  -2    1.33    0.29
  -8   5  -2    1.20    0.30
  -8   5  -2    1.24    0.33
  -9  -5  -2   -0.03    0.15
  -9  -5  -2    0.26    0.19
  -9   5  -2    0.21    0.19
 -10  -6   2    0.55    0.24
 -10   6   2    0.30    0.22
 -10   6   2    0.82    0.24
  -9  -6   2    0.64    0.29
  -9   6   2    1.31    0.27
  -8  -6   2    0.61    0.26
  -8   6   2    0.38    0.19
  -7  -6   2    0.60    0.25
  -7   6   2    0.35    0.24
  -7   6   2    0.39    0.18
  -6  -6   2   41.38    4.93
   6  -6  -2   42.21    5.10
  -6  -6   2   41.96    5.00
  -6   6   2   47.60    4.96
   6   6  -2   43.19    5.05
  -6   6   2   44.36    4.96
  -5  -6   2    0.37    0.21
   5  -6  -2    0.31    0.24
  -5  -6   2    0.08    0.14
  -5   6   2    0.45    0.15
   5   6  -2    0.23    0.28
   5   6  -2    0.16    0.15
  -5   6   2    0.46    0.13
   4  -6  -2   79.71    8.55
  -4  -6   2   71.39    8.47
  -4   6   2   70.52    8.43
   4   6  -2   78.27    8.50
   3   6  -2   36.35    4.76
  -3   6   2   44.04    4.69
  -2  -6   2    3.85    0.55
   2   6  -2    2.83    0.63
  -2   6   2    3.18    0.57
   1  -6  -2    5.55    0.68
  -1  -6   2    4.32    0.65
   0  -6   2   81.67    9.80
   0  -6  -2   90.78    9.78
   1  -6   2    2.65    0.50
   1   6   2    2.88    0.43
  -1   6  -2    3.02    0.56
  -2  -6  -2    9.28    1.14
   2  -6   2    8.98    1.25
   2   6   2    9.79    1.18
  -2   6  -2   10.30    1.25
  -2   6  -2    9.91    1.16
  -3  -6  -2   29.34    3.21
   3  -6   2   29.65    3.35
  -3  -6  -2   30.30    3.27
  -3   6  -2   24.84    3.23
   3   6   2   30.23    3.27
  -3   6  -2   28.33    3.29
  -3   6  -2   29.44    3.23
  -3   6  -2   25.16    3.24
  -3   6  -2   26.02    3.20
  -4  -6  -2    7.18    0.84
  -4  -6  -2    7.04    0.91
   4  -6   2    6.65    1.08
   4   6   2    6.36    0.92
  -4   6  -2    7.51    0.89
  -4   6  -2    7.78    0.87
  -4   6  -2    5.63    0.89
  -4   6  -2    7.34    0.84
  -5  -6  -2   14.66    1.57
   5  -6   2   11.43    1.75
  -5  -6  -2   11.20    1.46
  -5   6  -2   15.45    1.56
  -5   6  -2    9.36    1.48
  -5   6  -2   14.13    1.48
  -6  -6  -2    0.16    0.13
  -6  -6  -2    0.17    0.23
  -6  -6  -2    0.85    0.23
  -6   6  -2    0.34    0.20
  -6   6  -2    0.07    0.20
  -6   6  -2    0.26    0.18
  -7  -6  -2    0.11    0.20
  -7  -6  -2    0.06    0.18
  -7   6  -2    0.07    0.18
  -7   6  -2   -0.14    0.21
  -7   6  -2    0.09    0.22
  -8  -6  -2    0.18    0.20
  -8  -6  -2   -0.02    0.20
  -8   6  -2   -0.09    0.17
  -8   6  -2   -0.04    0.18
  -9  -6  -2    0.53    0.20
  -9   6  -2    0.35    0.22
  10  -7  -2    0.90    0.21
 -10  -7   2    0.65    0.24
 -10   7   2    0.98    0.27
 -10   7   2    0.91    0.24
  -9  -7   2    0.59    0.28
  -9   7   2    0.99    0.26
  -9   7   2    0.87    0.29
  -8  -7   2   11.30    1.46
  -8   7   2   11.74    1.41
  -7  -7   2   15.40    1.91
  -7   7   2   14.82    1.85
  -7   7   2   16.73    1.89
   6  -7  -2    0.26    0.37
  -6  -7   2    0.46    0.17
  -6  -7   2    0.66    0.26
  -6   7   2    0.55    0.23
   6   7  -2    0.82    0.32
  -6   7   2    0.71    0.21
  -5  -7   2   35.63    3.80
   5  -7  -2   33.31    3.89
   5   7  -2   31.59    3.81
  -5   7   2   33.24    3.74
  -5   7   2   30.36    3.74
  -4  -7   2   28.66    3.17
   4  -7  -2   26.33    3.12
   4  -7  -2   28.59    3.26
   4   7  -2   29.91    3.19
   4   7  -2   24.64    3.12
  -4   7   2   24.37    3.11
  -4   7   2   29.55    3.13
   3  -7  -2    6.68    0.91
  -3  -7   2    6.39    0.81
   3  -7  -2    5.58    0.77
   3   7  -2    6.14    0.74
   3   7  -2    6.26    0.82
   3   7  -2    5.94    0.78
  -3   7   2    6.80    0.78
  -2  -7   2   38.16    4.08
   2  -7  -2   32.84    4.04
  -2  -7   2   34.30    4.12
   2  -7  -2   39.58    4.17
  -2   7   2   34.10    4.07
  -1  -7   2   65.78    7.60
   1  -7  -2   67.38    7.60
   0  -7  -2   26.17    2.91
   0  -7   2   28.19    3.00
   0  -7  -2   27.12    2.97
   0   7  -2   23.82    2.94
   0   7  -2   26.15    2.93
   0   7  -2   21.19    3.05
  -1  -7  -2   77.11    8.85
   1  -7   2   76.13    8.97
  -1   7  -2   75.39    8.89
  -1   7  -2   77.21    8.87
   1   7   2   79.62    8.90
  -1   7  -2   85.50    9.04
  -2  -7  -2    3.62    0.54
   2  -7   2    3.61    0.71
  -2  -7  -2    4.91    0.64
  -2   7  -2    4.48    0.67
  -2   7  -2    4.74    0.62
   2   7   2    4.00    0.62
  -2   7  -2    4.77    0.60
  -2   7  -2    3.55    0.53
   3  -7   2    5.40    0.89
  -3  -7  -2    5.16    0.76
  -3  -7  -2    6.04    0.67
  -3   7  -2    4.55    0.71
  -3   7  -2    5.04    0.66
  -3   7  -2    5.67    0.69
   3   7   2    5.03    0.77
  -3   7  -2    6.88    0.80
  -3   7  -2    5.02    0.76
   4  -7   2    4.60    0.90
  -4  -7  -2    5.46    0.64
  -4  -7  -2    4.82    0.74
   4   7   2    4.27    0.81
  -4   7  -2    5.06    0.71
  -4   7  -2    4.29    0.64
  -4   7  -2    5.92    0.74
  -4   7  -2    5.03    0.69
  -5  -7  -2    1.55    0.37
  -5  -7  -2    1.50    0.28
  -5   7  -2    1.86    0.36
  -5   7  -2    1.86    0.31
  -5   7  -2    1.08    0.28
  -6  -7  -2    0.86    0.25
  -6  -7  -2    0.77    0.19
  -6  -7  -2    0.48    0.25
  -6   7  -2    1.20    0.31
  -6   7  -2    0.51    0.22
  -7  -7  -2    2.71    0.56
  -7  -7  -2    4.18    0.54
  -7   7  -2    2.84    0.53
  -7   7  -2    3.73    0.54
  -8  -7  -2    0.82    0.28
  -8  -7  -2    1.43    0.27
  -8   7  -2    1.15    0.30
  -8   7  -2    0.67    0.23
 -10  -8   2    0.12    0.18
  10  -8  -2    0.04    0.15
 -10   8   2    0.06    0.32
 -10   8   2    0.19    0.17
  -9  -8   2    0.28    0.24
   9  -8  -2    0.60    0.21
  -9   8   2    0.35    0.26
  -9   8   2    0.75    0.22
  -8  -8   2    0.67    0.26
  -8   8   2    0.45    0.22
  -8   8   2    0.49    0.31
  -7  -8   2    1.59    0.41
  -7   8   2    2.05    0.44
  -7   8   2    2.28    0.39
  -6  -8   2    5.75    0.90
  -6   8   2    6.78    0.84
  -6   8   2    6.69    0.90
  -5  -8   2   15.89    1.94
   5  -8  -2   16.88    1.89
   5  -8  -2   16.57    2.08
   5   8  -2   14.79    1.96
  -5   8   2   16.53    1.92
  -5   8   2   16.04    1.89
   4  -8  -2   -0.03    0.24
   4  -8  -2    0.21    0.14
  -4  -8   2    0.11    0.16
   4   8  -2   -0.14    0.15
   4   8  -2    0.01    0.29
  -4   8   2   -0.02    0.13
   4   8  -2   -0.05    0.16
  -4   8   2    0.11    0.15
  -3  -8   2    3.51    0.53
   3  -8  -2    3.52    0.66
   3  -8  -2    3.28    0.47
   3   8  -2    3.01    0.53
   3   8  -2    3.04    0.48
   3   8  -2    2.59    0.70
  -3   8   2    4.64    0.54
   3   8  -2    3.56    0.51
  -2  -8   2    3.49    0.48
   2  -8  -2    3.02    0.39
   2  -8  -2    3.65    0.57
   2   8  -2    2.07    0.40
   2   8  -2    1.44    0.55
  -2   8   2    3.55    0.46
  -2   8   2    1.74    0.51
   2   8  -2    3.15    0.37
   2   8  -2    2.45    0.40
   2   8  -2    3.02    0.41
   1  -8  -2    1.21    0.30
  -1  -8   2    0.97    0.28
   1  -8  -2    1.18    0.20
  -1  -8   2    1.11    0.24
   1   8  -2    0.81    0.21
   1   8  -2    1.00    0.19
   1   8  -2    1.18    0.23
  -1   8   2    0.39    0.27
   1   8  -2    0.72    0.21
   1   8  -2    0.63    0.35
  -1   8   2    0.90    0.24
   0  -8  -2    6.09    0.74
   0  -8   2    6.76    0.88
   0  -8  -2    6.46    0.84
   0   8  -2    6.92    0.79
   0   8  -2    4.91    0.97
   0   8   2    5.46    0.81
   0   8  -2    5.99    0.73
   0   8  -2    5.93    0.77
  -1  -8  -2    6.55    0.91
   1  -8   2    7.33    1.01
  -1  -8  -2    7.21    0.87
  -1   8  -2    6.26    0.85
   1   8   2    7.00    0.93
  -1   8  -2    7.29    0.89
  -1   8  -2    7.77    1.07
  -1   8  -2    8.41    0.93
  -2  -8  -2    0.93    0.19
  -2  -8  -2    0.88    0.27
   2  -8   2    0.59    0.31
   2   8   2    1.03    0.28
  -2   8  -2    0.86    0.31
  -2   8  -2    0.92    0.25
  -2   8  -2    0.84    0.25
  -3  -8  -2   10.42    1.14
   3  -8   2    8.59    1.39
  -3  -8  -2    9.94    1.22
  -3   8  -2    9.93    1.20
   3   8   2    8.11    1.22
  -3   8  -2    8.97    1.25
  -3   8  -2   10.50    1.18
   4  -8   2    0.41    0.44
  -4  -8  -2    0.59    0.18
  -4  -8  -2    0.67    0.27
  -4   8  -2    0.71    0.23
  -4   8  -2    0.88    0.26
  -4   8  -2    0.80    0.28
  -5  -8  -2    3.36    0.57
  -5   8  -2    2.49    0.48
  -5   8  -2    3.59    0.54
  -5   8  -2    2.62    0.49
  -6  -8  -2    0.99    0.26
  -6  -8  -2    0.50    0.28
  -6  -8  -2    0.65    0.18
  -6   8  -2    0.48    0.28
  -6   8  -2    0.61    0.26
  -6   8  -2    0.55    0.22
  -7  -8  -2    0.59    0.23
  -7  -8  -2    0.69    0.29
  -7   8  -2    0.36    0.25
  -7   8  -2    0.29    0.22
  -8  -8  -2   -0.31    0.15
  -8  -8  -2    0.13    0.20
  -8   8  -2   -0.07    0.17
  -8   8  -2    0.29    0.23
   9  -9  -2   -0.22    0.14
  -9  -9   2   -0.09    0.18
  -9   9   2    0.00    0.18
  -8  -9   2    3.68    0.57
   8  -9  -2    2.67    0.48
  -8   9   2    3.32    0.53
  -8   9   2    3.40    0.59
  -7  -9   2   10.72    1.77
   7  -9  -2   15.53    1.75
  -7   9   2   17.42    1.77
  -7   9   2   15.49    1.83
  -6  -9   2   -0.04    0.18
   6  -9  -2    0.09    0.15
  -6   9   2    0.00    0.25
  -6   9   2   -0.12    0.17
   5  -9  -2   31.44    3.36
  -5  -9   2   25.94    3.40
   5  -9  -2   28.54    3.58
  -5   9   2   29.00    3.40
  -5   9   2   30.73    3.36
   5   9  -2   28.72    3.45
   4  -9  -2   43.06    5.27
   4  -9  -2   43.98    5.09
  -4  -9   2   47.33    5.15
   4   9  -2   42.67    5.10
  -4   9   2   47.08    5.14
   4   9  -2   44.54    5.18
  -3  -9   2    0.74    0.25
   3  -9  -2    0.92    0.37
   3  -9  -2    0.54    0.17
   3   9  -2    0.12    0.22
   3   9  -2    0.29    0.38
   3   9  -2    0.65    0.22
  -3   9   2    0.81    0.24
   3   9  -2    0.64    0.20
  -2  -9   2    1.12    0.27
   2  -9  -2    0.63    0.18
   2  -9  -2    0.82    0.32
   2   9  -2    0.72    0.21
   2   9  -2    0.95    0.22
  -2   9   2    0.82    0.24
   2   9  -2    0.64    0.17
   2   9  -2    1.28    0.49
  -2   9   2    0.57    0.37
   2   9  -2    0.70    0.22
  -1  -9   2   17.70    2.02
   1  -9  -2   16.45    1.88
   1  -9  -2   17.37    2.01
  -1  -9   2   18.08    1.93
   1   9  -2   12.60    2.09
   1   9  -2   17.88    1.91
   1   9  -2   15.82    1.90
   1   9  -2   15.92    1.90
   1   9  -2   14.61    1.90
   1   9  -2   17.25    1.86
  -1   9   2   14.52    1.92
   0  -9   2    0.34    0.26
   0  -9  -2    0.28    0.13
   0  -9  -2    0.09    0.22
   0   9   2   -0.11    0.20
   0   9  -2    0.07    0.28
   0   9  -2    0.26    0.17
   0   9  -2    0.35    0.17
   0   9   2    0.21    0.28
  -1  -9  -2   32.74    3.58
   1  -9   2   28.47    3.71
  -1  -9  -2   29.50    3.62
   1   9   2   30.48    3.65
  -1   9  -2   33.08    3.61
  -1   9  -2   32.82    3.63
  -1   9  -2   32.12    3.80
  -2  -9  -2   49.04    5.46
  -2  -9  -2   50.37    5.52
   2  -9   2   46.03    5.63
  -2   9  -2   51.62    5.51
  -2   9  -2   49.97    5.49
   2   9   2   44.24    5.52
  -2   9  -2   45.74    5.61
  -3  -9  -2    1.12    0.23
  -3  -9  -2    1.10    0.33
   3  -9   2    1.07    0.49
  -3   9  -2    1.19    0.28
  -3   9  -2    0.89    0.36
  -3   9  -2    1.39    0.31
  -4  -9  -2    2.36    0.38
  -4  -9  -2    5.24    0.63
  -4   9  -2    1.13    0.39
  -4   9  -2    3.70    0.52
  -5  -9  -2    0.43    0.16
  -5  -9  -2    0.15    0.25
  -5   9  -2    0.41    0.23
  -5   9  -2    0.09    0.23
  -6  -9  -2   -0.14    0.22
  -6  -9  -2    0.05    0.12
  -6  -9  -2   -0.13    0.20
  -6   9  -2    0.00    0.16
  -6   9  -2    0.22    0.24
  -6   9  -2   -0.19    0.23
  -7  -9  -2    0.81    0.27
  -7  -9  -2    0.77    0.32
  -7   9  -2    0.81    0.25
  -7   9  -2    1.02    0.30
  -8  -9  -2    1.59    0.34
   9 -10  -2    0.12    0.15
  -9 -10   2    0.18    0.19
  -9  10   2    0.42    0.21
   8 -10  -2    0.36    0.18
  -8 -10   2    0.29    0.22
  -8  10   2    0.38    0.25
  -8  10   2    0.11    0.20
  -7 -10   2   -0.05    0.19
   7 -10  -2    0.17    0.16
  -7  10   2    0.25    0.19
  -7  10   2    0.56    0.31
   6 -10  -2    0.38    0.18
  -6 -10   2    0.18    0.19
  -6  10   2    0.21    0.30
  -6  10   2    0.25    0.20
  -5 -10   2    1.74    0.41
   5 -10  -2    1.97    0.34
  -5  10   2    1.91    0.43
   4 -10  -2    9.01    0.98
  -4 -10   2    6.58    1.06
   4 -10  -2    7.01    1.25
  -4  10   2    6.00    1.04
   4  10  -2    8.95    1.02
   4  10  -2   10.97    1.45
  -3 -10   2    9.66    1.17
   3 -10  -2    9.08    1.09
   3 -10  -2    8.63    1.36
   3  10  -2    8.92    1.21
  -3  10   2    9.76    1.17
   3  10  -2    8.28    1.12
   2 -10  -2    0.34    0.32
   2 -10  -2    0.61    0.17
  -2 -10   2    0.83    0.26
  -2  10   2    0.51    0.41
   2  10  -2    0.63    0.46
   2  10  -2    0.61    0.31
  -2  10   2    0.81    0.28
   2  10  -2    0.83    0.22
   2  10  -2    1.07    0.24
   1 -10  -2    0.11    0.30
  -1 -10   2    0.07    0.18
  -1 -10   2    0.11    0.25
   1 -10  -2    0.04    0.13
   1  10  -2   -0.06    0.16
  -1  10   2   -0.03    0.19
   1  10  -2   -0.30    0.13
   1  10  -2   -0.13    0.14
  -1  10   2    0.57    0.36
   1  10  -2   -0.21    0.33
   0 -10  -2    9.40    1.35
   0 -10   2   11.11    1.28
   0 -10   2    9.76    1.37
   0 -10  -2   10.84    1.23
   0  10  -2   10.35    1.26
   0  10   2    8.91    1.26
   0  10  -2    9.52    1.52
   0  10  -2   12.18    1.29
  -1 -10  -2    3.16    0.46
   1 -10   2    2.06    0.60
   1  10   2    3.82    0.59
  -1  10  -2    3.18    0.72
  -1  10  -2    3.72    0.55
  -1  10  -2    3.48    0.53
   2 -10   2    0.10    0.35
  -2 -10  -2    0.38    0.15
  -2 -10  -2    0.57    0.25
   2  10   2    0.31    0.33
  -2  10  -2    0.09    0.17
  -2  10  -2    0.33    0.35
  -2  10  -2    0.36    0.21
  -3 -10  -2    4.26    0.62
  -3 -10  -2    4.51    0.73
  -3  10  -2    4.44    0.68
  -3  10  -2    5.31    0.72
  -4 -10  -2    4.94    0.72
  -4 -10  -2    3.75    0.57
  -4  10  -2    4.26    0.68
  -4  10  -2    4.38    0.65
  -4  10  -2    3.73    0.62
  -5 -10  -2    2.55    0.42
  -5 -10  -2    3.28    0.55
  -5  10  -2    2.78    0.48
  -5  10  -2    2.54    0.49
  -6 -10  -2    2.07    0.41
  -6 -10  -2    1.23    0.27
  -6  10  -2    1.69    0.35
  -6  10  -2    2.02    0.38
  -7 -10  -2    0.04    0.19
  -7  10  -2   -0.17    0.16
   8 -11  -2    1.46    0.24
  -8 -11   2    0.68    0.23
  -8  11   2    0.84    0.29
  -8  11   2    1.02    0.30
   7 -11  -2    4.55    0.58
  -7 -11   2    3.52    0.61
  -7  11   2    3.60    0.58
  -7  11   2    4.27    0.65
   6 -11  -2    1.04    0.24
  -6 -11   2    0.76    0.26
  -6  11   2    1.67    0.40
  -5 -11   2   11.76    1.48
  -5  11   2   11.67    1.49
  -4 -11   2   17.08    2.44
   4 -11  -2   23.95    2.40
  -4  11   2   16.59    2.45
   4  11  -2   24.56    2.43
   3 -11  -2    0.12    0.12
  -3 -11   2    0.05    0.20
   3  11  -2    0.03    0.16
  -3  11   2   -0.01    0.21
   2 -11  -2    6.47    1.23
   2 -11  -2    9.30    1.06
  -2 -11   2    8.91    1.13
   2  11  -2    8.47    1.09
   2  11  -2    9.12    1.09
  -2  11   2    8.92    1.13
   1 -11  -2    0.15    0.13
  -1 -11   2    0.39    0.32
   1 -11  -2   -0.17    0.34
  -1 -11   2   -0.02    0.17
  -1  11   2    0.26    0.22
  -1  11   2   -0.26    0.46
   1  11  -2   -0.18    0.18
   1  11  -2    0.01    0.17
   0 -11  -2    0.66    0.19
   0 -11   2    0.73    0.39
   0 -11   2    0.58    0.25
   0  11  -2    0.70    0.24
   0  11  -2    0.60    0.21
   0  11  -2    0.62    0.23
   0  11   2    0.34    0.86
   0  11  -2    0.46    0.20
   0  11   2    0.76    0.26
   1 -11   2   11.53    1.28
  -1 -11  -2   11.68    1.22
  -1  11  -2   10.80    1.28
   1  11   2    8.35    1.34
  -1  11  -2    6.69    1.26
  -1  11  -2   10.99    1.26
  -2 -11  -2   33.93    3.96
  -2 -11  -2   35.74    4.02
  -2  11  -2   34.20    4.00
  -3 -11  -2    0.30    0.25
  -3 -11  -2    0.14    0.14
  -3  11  -2    0.09    0.19
  -3  11  -2    0.06    0.19
  -3  11  -2   -0.12    0.19
  -4 -11  -2   12.36    1.50
  -4 -11  -2   11.33    1.40
  -4  11  -2   11.87    1.45
  -4  11  -2   11.75    1.47
  -4  11  -2   11.58    1.45
  -5 -11  -2    3.94    0.63
  -5 -11  -2    3.90    0.54
  -5  11  -2    4.36    0.65
  -5  11  -2    3.90    0.61
  -5  11  -2    3.79    0.64
  -6 -11  -2    0.55    0.17
  -6 -11  -2    0.99    0.30
  -6  11  -2    0.71    0.23
  -6  11  -2    0.64    0.26
  -8 -12   2    0.01    0.15
  -7 -12   2    1.96    0.37
   7 -12  -2    1.26    0.27
  -7  12   2    1.85    0.36
  -6 -12   2    1.34    0.35
   6 -12  -2    1.79    0.31
  -6  12   2    2.05    0.42
   5 -12  -2    2.44    0.36
  -5 -12   2    1.94    0.43
  -5  12   2    1.95    0.43
  -4 -12   2    0.19    0.21
   4 -12  -2    0.42    0.17
  -4  12   2    0.03    0.23
  -3 -12   2    1.83    0.41
   3 -12  -2    2.45    0.36
   3  12  -2    2.14    0.40
  -3  12   2    1.74    0.43
  -2 -12   2   -0.06    0.19
   2 -12  -2    0.06    0.13
   2  12  -2   -0.21    0.23
   2  12  -2   -0.10    0.16
  -2  12   2    0.04    0.21
  -1 -12   2    1.72    0.35
   1 -12  -2    1.39    0.27
   1  12  -2    1.74    0.33
  -1  12   2    1.23    0.34
   1  12  -2    1.20    0.30
   1  12  -2    0.76    0.27
   0 -12  -2    3.55    0.48
   0 -12   2    3.68    0.55
   0  12   2    4.15    0.55
   0  12  -2    4.17    0.58
   0  12  -2    1.53    0.47
   0  12  -2    3.27    0.55
  -1 -12  -2    2.27    0.35
   1 -12   2    2.20    0.43
  -1  12  -2    1.21    0.37
  -1  12  -2    2.65    0.44
  -1  12  -2    2.69    0.43
  -1  12  -2    1.65    0.37
  -2 -12  -2    0.36    0.18
   2 -12   2    0.61    0.25
  -2  12  -2    0.97    0.27
  -2  12  -2    0.35    0.20
  -2  12  -2    0.58    0.22
   3 -12   2   11.92    1.61
  -3 -12  -2   13.18    1.65
  -3 -12  -2   14.41    1.59
  -3  12  -2   13.45    1.63
  -3  12  -2   13.92    1.63
  -4 -12  -2    8.52    1.12
  -4 -12  -2    8.21    1.05
  -4  12  -2    8.53    1.12
  -4  12  -2    8.66    1.10
  -4  12  -2    9.34    1.13
  -5 -12  -2   -0.12    0.12
  -5 -12  -2   -0.36    0.20
  -5  12  -2    0.36    0.21
  -5  12  -2    0.31    0.22
  -5  12  -2   -0.05    0.21
  -6 -12  -2    0.79    0.18
  -6 -12  -2    0.85    0.25
  -6  12  -2    0.86    0.26
  -6  12  -2    1.09    0.27
  -7 -13   2    0.68    0.23
   7 -13  -2    1.04    0.22
  -7  13   2    1.46    0.28
  -6 -13   2   -0.08    0.16
   6 -13  -2    0.11    0.15
  -6  13   2    0.14    0.23
  -5 -13   2    0.29    0.22
   5 -13  -2    0.29    0.17
  -5  13   2    0.75    0.27
   4 -13  -2    0.60    0.17
  -4 -13   2    0.39    0.25
  -4  13   2    0.54    0.28
   3 -13  -2    1.22    0.26
  -3 -13   2    2.05    0.39
   3  13  -2    1.14    0.31
  -3  13   2    1.45    0.37
  -2 -13   2   20.86    2.47
   2 -13  -2   20.69    2.41
  -2  13   2   21.28    2.47
   2  13  -2   20.25    2.45
   1 -13  -2    1.54    0.30
  -1 -13   2    1.70    0.39
   1  13  -2    1.70    0.36
   1  13  -2    1.81    0.38
   1  13  -2    1.90    0.37
  -1  13   2    1.78    0.36
   0 -13  -2    0.26    0.14
   0 -13   2   -0.09    0.21
   0  13  -2    0.15    0.18
   0  13  -2    0.50    0.23
   0  13  -2    0.34    0.21
   1 -13   2    4.43    0.62
  -1 -13  -2    3.62    0.52
  -1  13  -2    4.72    0.63
  -1  13  -2    3.70    0.61
  -1  13  -2    2.57    0.54
   2 -13   2    0.10    0.23
  -2 -13  -2    0.28    0.16
  -2  13  -2    0.16    0.18
  -2  13  -2    0.35    0.23
  -2  13  -2   -0.08    0.19
  -2  13  -2    0.03    0.18
  -3 -13  -2    0.04    0.14
  -3  13  -2    0.22    0.19
  -3  13  -2    0.07    0.17
  -3  13  -2   -0.34    0.16
  -3  13  -2    0.19    0.24
  -4 -13  -2    3.43    0.63
  -4 -13  -2    4.71    0.60
  -4  13  -2    4.92    0.68
  -4  13  -2    4.12    0.64
  -4  13  -2    5.32    0.70
  -4  13  -2    4.68    0.67
  -5 -13  -2    3.20    0.43
  -5 -13  -2    2.79    0.49
  -5  13  -2    3.22    0.51
  -5  13  -2    3.04    0.48
  -5  13  -2    3.35    0.51
  -6 -14   2    2.66    0.47
  -6  14   2    3.08    0.47
   5 -14  -2    0.69    0.22
  -5 -14   2    1.01    0.26
  -5  14   2    1.34    0.30
   4 -14  -2    0.15    0.16
  -4 -14   2    0.06    0.19
  -4  14   2    0.52    0.23
   3 -14  -2    0.27    0.16
  -3 -14   2    0.26    0.22
  -3  14   2    0.24    0.23
   3  14  -2    0.64    0.22
   2 -14  -2    0.07    0.14
  -2 -14   2    0.31    0.20
   2  14  -2    0.02    0.18
  -2  14   2   -0.16    0.19
   1 -14  -2    0.27    0.16
  -1 -14   2    0.38    0.23
   1  14  -2    0.60    0.24
  -1  14   2    0.09    0.21
   0 -14   2    9.88    1.24
   0 -14  -2    9.96    1.18
   0  14  -2    9.64    1.23
   0  14  -2    9.93    1.25
   0  14  -2    9.42    1.22
   1 -14   2    2.05    0.41
  -1 -14  -2    2.59    0.38
  -1  14  -2    2.22    0.42
  -1  14  -2    2.41    0.42
  -1  14  -2    2.18    0.43
  -2 -14  -2    0.78    0.19
  -2  14  -2    0.55    0.22
  -2  14  -2    0.68    0.23
  -2  14  -2    0.39    0.22
  -3 -14  -2    7.82    0.99
  -3  14  -2    8.24    1.04
  -3  14  -2    7.98    1.05
  -3  14  -2    9.19    1.06
  -4 -14  -2    1.10    0.21
  -4  14  -2    1.02    0.26
  -4  14  -2    0.84    0.24
  -4  14  -2    1.34    0.29
  -5 -15   2    0.01    0.17
  -5  15   2   -0.06    0.15
  -4 -15   2    0.05    0.19
  -4  15   2    0.10    0.17
   3 -15  -2    1.13    0.20
  -3 -15   2    0.15    0.19
  -3  15   2    0.83    0.24
   2 -15  -2    0.40    0.17
  -2 -15   2    0.35    0.21
   2  15  -2   -0.09    0.18
  -2  15   2    0.24    0.18
  -1 -15   2    4.15    0.66
   1 -15  -2    5.36    0.64
  -1  15   2    4.15    0.65
   1  15  -2    6.15    0.71
   0 -15   2    0.90    0.26
   0 -15  -2    1.04    0.22
   0  15  -2    0.72    0.24
   0  15  -2    0.36    0.36
  -1 -15  -2    0.35    0.18
  -1  15  -2    0.07    0.19
  -1  15  -2    0.05    0.17
  -1  15  -2   -0.07    0.24
  -2 -15  -2    0.34    0.15
  -2  15  -2   -0.01    0.15
  -2  15  -2   -0.12    0.20
  -2  15  -2   -0.21    0.18
  -3  15  -2   -0.19    0.19
  -3  15  -2   -0.20    0.14
  -3  15  -2    0.10    0.19
  -3  16   2    1.59    0.34
  -2 -16   2    0.00    0.27
  -2  16   2    0.51    0.20
   1  16  -2    0.03    0.17
   0  16  -2    1.72    0.33
  -1  16  -2    3.06    0.47
 -11   0   3    0.05    0.16
 -10   0   3   -0.26    0.18
 -10   0   3    0.08    0.16
   9   0  -3   -0.17    0.24
  -9   0   3    0.04    0.14
  -8   0   3    0.13    0.13
   8   0  -3    0.01    0.20
   8   0  -3    0.16    0.29
  -7   0   3    0.02    0.10
   7   0  -3    0.01    0.18
   7   0  -3    0.01    0.17
  -6   0   3    0.03    0.08
   6   0  -3    0.05    0.16
   6   0  -3   -0.01    0.12
   5   0  -3    0.02    0.09
   4   0  -3   -0.01    0.07
   3   0  -3   -0.16    0.03
   3   0  -3   -0.13    0.06
   2   0  -3   -0.19    0.03
   2   0  -3   -0.13    0.04
   1   0  -3   -0.15    0.03
   0   0  -3    0.04    0.05
   1   0   3    0.09    0.06
  -1   0  -3    0.00    0.04
   2   0   3    0.13    0.09
  -2   0  -3   -0.03    0.05
  -3   0  -3    0.03    0.15
   3   0   3    0.06    0.12
  -3   0  -3    0.04    0.10
  -3   0  -3   -0.15    0.11
  -3   0  -3   -0.02    0.15
  -4   0  -3   -0.10    0.16
  -4   0  -3    0.05    0.10
  -4   0  -3    0.10    0.15
  -4   0  -3    0.08    0.16
  -5   0  -3   -0.01    0.17
  -5   0  -3    0.06    0.18
  -5   0  -3    0.01    0.13
  -6   0  -3    0.10    0.17
  -6   0  -3    0.01    0.20
  -6   0  -3   -0.03    0.15
  -7   0  -3   -0.09    0.18
  -7   0  -3    0.15    0.16
  -8   0  -3   -0.12    0.16
  -8   0  -3    0.04    0.22
  -9   0  -3    0.01    0.16
 -11  -1   3    5.14    0.87
 -11  -1   3    8.09    0.90
 -11   1   3    7.94    0.90
 -10  -1   3    7.05    0.90
 -10   1   3    7.01    0.90
  -9  -1   3    4.86    0.60
  -9   1   3    3.14    0.55
   8  -1  -3   -0.20    0.28
   8  -1  -3    0.11    0.21
  -8  -1   3    0.21    0.12
   8   1  -3    0.07    0.27
   8   1  -3    0.28    0.22
  -8   1   3   -0.02    0.12
   7  -1  -3    1.31    0.35
  -7  -1   3    1.23    0.22
   7  -1  -3    1.21    0.30
   7   1  -3    1.06    0.28
   7   1  -3    1.38    0.34
  -7   1   3    1.06    0.21
   6  -1  -3    3.51    0.59
   6  -1  -3    4.25    0.60
   6   1  -3    4.37    0.59
  -6   1   3    4.29    0.52
   6   1  -3    3.81    0.60
   5  -1  -3    1.75    0.32
   5   1  -3    2.36    0.36
   4  -1  -3   68.56    7.64
   4   1  -3   65.98    7.61
   4   1  -3   68.52    7.64
   3  -1  -3   23.32    2.81
   3   1  -3   25.47    2.82
   3   1  -3   25.15    2.82
   2  -1  -3  165.88   19.01
   2  -1  -3  177.35   19.02
   2   1  -3  174.59   19.03
   2   1  -3  159.57   19.01
   1  -1  -3  150.91   16.35
   1   1  -3  149.68   16.36
   1   1  -3  136.11   16.32
   0  -1  -3   25.82    2.93
   0   1  -3   25.51    2.94
   1  -1   3    8.93    0.86
  -1  -1  -3    5.94    0.85
   1   1   3    8.07    0.82
  -1   1  -3    5.94    0.85
   2  -1   3   99.92   10.91
   2   1   3   93.69   10.88
  -3  -1  -3    6.40    0.78
   3  -1   3    6.24    0.82
  -3  -1  -3    6.51    0.82
  -3  -1  -3    6.55    0.83
  -3   1  -3    6.01    0.82
  -3   1  -3    6.54    0.78
  -3   1  -3    6.44    0.82
   3   1   3    5.98    0.80
  -3   1  -3    6.70    0.83
  -4  -1  -3   27.31    3.03
  -4  -1  -3   26.83    3.01
   4  -1   3   26.21    3.18
  -4  -1  -3   27.24    2.97
  -4  -1  -3   25.89    2.96
  -4   1  -3   26.37    2.97
  -4   1  -3   24.48    3.01
  -4   1  -3   27.42    3.02
  -4   1  -3   22.11    2.97
  -4   1  -3   26.10    3.04
  -5  -1  -3   57.31    6.50
  -5  -1  -3   53.84    6.44
  -5  -1  -3   59.56    6.49
  -5   1  -3   52.99    6.44
  -5   1  -3   55.69    6.44
  -5   1  -3   58.80    6.50
  -5   1  -3   59.87    6.50
  -6  -1  -3    0.27    0.22
  -6  -1  -3    0.56    0.27
  -6  -1  -3    0.40    0.18
  -6   1  -3    0.32    0.24
  -6   1  -3    0.08    0.15
  -7  -1  -3   59.14    5.93
  -7  -1  -3   42.39    5.86
  -7   1  -3   62.36    5.96
  -7   1  -3   46.08    5.87
  -8  -1  -3   19.15    2.55
  -8  -1  -3   22.31    2.52
  -8   1  -3   24.28    2.53
  -8   1  -3   21.03    2.57
  -9  -1  -3    0.71    0.20
  -9   1  -3    0.33    0.24
  -9   1  -3    0.16    0.24
 -11  -2   3    1.14    0.30
 -11  -2   3    2.28    0.36
 -11   2   3    1.94    0.33
 -10  -2   3    0.62    0.21
 -10   2   3    0.29    0.19
  -9  -2   3    5.61    0.73
   8  -2  -3    2.69    0.49
   8  -2  -3    2.45    0.60
  -8  -2   3    3.04    0.41
  -8   2   3    2.70    0.43
   8   2  -3    2.13    0.51
   8   2  -3    2.85    0.51
   7  -2  -3    7.64    1.00
   7  -2  -3    7.84    1.06
  -7  -2   3    7.88    0.92
   7   2  -3    7.93    1.03
  -7   2   3    7.34    0.93
   7   2  -3    7.43    1.01
   6  -2  -3   10.51    1.26
   6  -2  -3   11.12    1.31
   6   2  -3    9.64    1.26
  -6   2   3    9.98    1.21
   6   2  -3   10.37    1.28
   5  -2  -3    9.98    1.24
   5   2  -3   10.21    1.23
   4  -2  -3    0.04    0.08
   4   2  -3   -0.02    0.11
   4   2  -3    0.20    0.10
   3  -2  -3  127.06   13.88
   3   2  -3  131.19   13.87
   3   2  -3  111.95   13.90
   2  -2  -3  318.46   35.15
   2   2  -3  315.27   35.14
   2   2  -3  305.94   35.18
   1  -2  -3   14.50    1.67
  -1  -2   3   13.59    1.68
   1   2  -3   16.15    1.73
   0  -2   3  106.52   11.51
   0  -2  -3   99.13   11.52
   0   2   3  101.16   11.47
  -1  -2  -3    4.05    0.57
  -1   2  -3    4.98    0.59
   2  -2   3    3.18    0.45
   2   2   3    2.64    0.37
  -3  -2  -3   25.58    2.98
  -3  -2  -3   25.19    2.94
  -3  -2  -3   26.75    2.94
   3  -2   3   24.85    3.00
   3   2   3   24.57    2.96
  -3   2  -3   24.39    2.95
  -3   2  -3   26.40    2.95
  -3   2  -3   25.73    2.98
  -3   2  -3   28.13    3.01
   4  -2   3    0.38    0.27
  -4  -2  -3    0.45    0.20
  -4  -2  -3    0.38    0.16
  -4  -2  -3    0.47    0.15
  -4  -2  -3    0.56    0.21
  -4   2  -3    0.45    0.15
  -4   2  -3    0.33    0.19
  -4   2  -3    0.38    0.19
  -4   2  -3    0.49    0.18
  -5  -2  -3    3.43    0.54
  -5  -2  -3    3.89    0.62
  -5  -2  -3    4.21    0.53
  -5  -2  -3    4.07    0.60
  -5   2  -3    2.80    0.60
  -5   2  -3    4.50    0.63
  -5   2  -3    4.41    0.58
  -5   2  -3    3.86    0.54
  -6  -2  -3    4.07    0.56
  -6  -2  -3    2.13    0.42
  -6  -2  -3    2.39    0.50
  -6   2  -3    2.08    0.48
  -6   2  -3    3.09    0.46
  -6   2  -3    3.26    0.48
  -7  -2  -3    0.64    0.29
  -7  -2  -3    0.59    0.24
  -7  -2  -3    0.40    0.20
  -7   2  -3    0.88    0.24
  -7   2  -3    0.36    0.24
  -8  -2  -3    0.48    0.20
  -8   2  -3    0.15    0.18
  -8   2  -3    0.26    0.22
  -9  -2  -3   -0.46    0.25
  -9   2  -3    0.04    0.20
 -11  -3   3    0.69    0.22
 -11   3   3    0.68    0.23
 -10  -3   3    0.95    0.24
 -10   3   3    0.92    0.25
  -9  -3   3    1.61    0.26
  -9   3   3    0.68    0.22
  -8  -3   3    8.05    1.02
  -8  -3   3    9.23    0.95
   8  -3  -3    7.49    1.22
   8   3  -3    7.55    1.21
  -8   3   3    6.09    0.94
  -7  -3   3    4.77    0.67
  -7  -3   3    4.12    0.55
   7  -3  -3    4.63    0.67
   7  -3  -3    4.31    0.74
   7   3  -3    4.06    0.71
   7   3  -3    4.69    0.68
  -7   3   3    4.26    0.60
  -6  -3   3    8.67    1.21
   6  -3  -3   10.93    1.28
   6  -3  -3   10.17    1.22
   6   3  -3   11.13    1.25
   6   3  -3    9.26    1.23
  -6   3   3    9.49    1.16
   5  -3  -3    5.17    0.64
   5  -3  -3    5.14    0.63
   5  -3  -3    5.25    0.67
   5   3  -3    5.24    0.64
  -5   3   3    4.63    0.57
   5   3  -3    3.08    0.67
   4  -3  -3    6.03    0.63
   4   3  -3    5.12    0.60
   4   3  -3    3.31    0.63
   3  -3  -3   59.63    6.17
   3   3  -3   45.51    6.20
   3   3  -3   58.15    6.15
   2  -3  -3   14.16    1.61
   2   3  -3   13.59    1.67
   2   3  -3   13.80    1.60
   1  -3  -3    5.76    0.64
  -1  -3   3    5.60    0.66
   1   3  -3    4.50    0.68
   0  -3   3   61.49    6.49
   0   3  -3   47.64    6.49
   0   3   3   62.46    6.44
   1  -3   3   49.67    5.61
   1   3   3   48.92    5.56
   2  -3   3    4.22    0.57
  -2   3  -3    3.90    0.54
   2   3   3    3.77    0.51
  -3  -3  -3    0.23    0.14
  -3  -3  -3    0.21    0.19
  -3  -3  -3    0.23    0.12
   3  -3   3    0.10    0.17
  -3   3  -3    0.11    0.15
  -3   3  -3   -0.29    0.17
  -3   3  -3    0.33    0.14
  -3   3  -3    0.29    0.16
  -3   3  -3    0.23    0.11
  -4  -3  -3   27.83    3.06
  -4  -3  -3   27.57    2.99
   4  -3   3   22.67    3.08
  -4  -3  -3   27.47    3.00
  -4   3  -3   26.55    3.05
  -4   3  -3   25.60    3.01
  -4   3  -3   24.82    3.06
  -4   3  -3   27.01    3.00
  -5  -3  -3   58.55    5.93
  -5  -3  -3   51.31    5.98
  -5  -3  -3   57.16    5.91
  -5   3  -3   43.45    5.98
  -5   3  -3   54.12    5.92
  -5   3  -3   49.47    5.97
  -5   3  -3   53.37    5.94
  -6  -3  -3   11.40    1.52
  -6  -3  -3   13.48    1.47
  -6   3  -3   11.35    1.52
  -7  -3  -3    1.32    0.35
  -7  -3  -3    2.48    0.36
  -7   3  -3    0.89    0.32
  -7   3  -3    2.04    0.38
  -7   3  -3    1.73    0.33
  -8  -3  -3    4.23    0.60
  -8   3  -3    3.89    0.64
  -8   3  -3    4.57    0.61
 -11  -4   3    1.50    0.31
 -11   4   3    1.52    0.30
 -11   4   3    1.75    0.34
 -10  -4   3    3.63    0.57
 -10   4   3    4.93    0.64
  -9  -4   3   19.87    2.25
  -9  -4   3   22.34    2.20
  -9   4   3   14.46    2.20
  -8  -4   3    0.01    0.13
  -8  -4   3    0.01    0.20
  -8   4   3    0.05    0.14
   7  -4  -3    1.51    0.42
   7  -4  -3    1.05    0.28
  -7  -4   3    1.04    0.31
  -7   4   3    1.13    0.24
   7   4  -3    0.93    0.35
   6  -4  -3   -0.02    0.14
   6  -4  -3   -0.04    0.18
  -6  -4   3    0.01    0.18
   6   4  -3   -0.05    0.20
   6   4  -3    0.03    0.17
  -6   4   3    0.01    0.11
   5  -4  -3   31.89    3.65
   5  -4  -3   31.23    3.61
  -5   4   3   29.82    3.57
   5   4  -3   29.50    3.62
   5   4  -3   35.17    3.65
   4  -4  -3   23.32    2.78
   4   4  -3   24.42    2.77
   3   4  -3  261.51   29.48
   2  -4  -3  144.65   16.37
   2   4  -3  146.00   16.35
  -1  -4   3   53.16    6.02
   1  -4  -3   52.81    6.00
   0  -4   3    9.24    1.08
   0   4   3    8.44    1.02
   1  -4   3    8.08    1.01
   1   4   3    7.89    0.94
   2  -4   3   11.92    1.57
  -2   4  -3   14.06    1.58
  -2   4  -3   11.92    1.51
  -2   4  -3   13.21    1.50
  -2   4  -3   12.38    1.52
   2   4   3   13.44    1.52
  -3  -4  -3    6.93    0.80
  -3  -4  -3    6.78    0.85
  -3  -4  -3    6.99    0.79
   3  -4   3    5.04    0.89
  -3   4  -3    5.48    0.83
  -3   4  -3    6.34    0.85
  -3   4  -3    7.06    0.80
  -3   4  -3    6.49    0.81
  -3   4  -3    6.84    0.84
  -4  -4  -3    1.42    0.25
  -4  -4  -3    1.28    0.32
   4  -4   3    1.26    0.40
  -4  -4  -3    1.61    0.29
  -4   4  -3    0.94    0.26
  -4   4  -3    1.31    0.30
  -4   4  -3    1.32    0.27
  -4   4  -3    1.37    0.34
  -5  -4  -3    4.12    0.68
  -5  -4  -3    4.84    0.59
  -5  -4  -3    4.91    0.62
  -5   4  -3    4.12    0.67
  -5   4  -3    3.93    0.59
  -5   4  -3    3.75    0.61
  -6  -4  -3    0.54    0.21
  -6  -4  -3    0.28    0.23
  -6   4  -3    0.43    0.21
  -6   4  -3    0.59    0.21
  -6   4  -3    0.37    0.24
  -7  -4  -3   -0.01    0.20
  -7  -4  -3    0.29    0.18
  -7   4  -3    0.22    0.19
  -7   4  -3   -0.35    0.17
  -7   4  -3   -0.01    0.19
  -8  -4  -3    0.19    0.20
  -8  -4  -3    0.18    0.18
  -8   4  -3    0.84    0.24
  -8   4  -3    0.30    0.21
  -8   4  -3    0.36    0.21
 -11  -5   3   -0.18    0.15
 -11   5   3    0.47    0.18
 -11   5   3    0.00    0.18
 -10   5   3    0.07    0.18
  -9  -5   3    2.70    0.38
  -9  -5   3    2.83    0.48
  -9   5   3    1.60    0.37
  -8  -5   3    9.70    1.11
  -8  -5   3    9.16    1.17
  -8   5   3    8.36    1.13
   7  -5  -3    8.41    1.30
  -7  -5   3    8.33    1.13
   7   5  -3    8.62    1.19
  -7   5   3    9.83    1.10
   6  -5  -3    0.21    0.26
  -6  -5   3    0.24    0.18
   6   5  -3   -0.19    0.18
   6   5  -3    0.21    0.21
  -6   5   3    0.06    0.12
   5  -5  -3    4.89    0.75
  -5  -5   3    5.87    0.74
   5  -5  -3    5.53    0.68
   5   5  -3    5.26    0.68
  -5   5   3    4.97    0.63
   5   5  -3    2.97    0.78
   5   5  -3    5.45    0.68
   5   5  -3    5.70    0.70
   4  -5  -3    0.27    0.18
   4  -5  -3    0.51    0.20
   4   5  -3    0.31    0.15
   4   5  -3    0.45    0.12
   4   5  -3    0.18    0.22
   3  -5  -3   47.97    5.54
   3   5  -3   48.72    5.51
   2  -5  -3    2.69    0.37
   2   5  -3    1.15    0.36
  -1  -5   3    1.77    0.33
   1  -5  -3    1.89    0.31
   1   5  -3    1.43    0.38
   0  -5   3    0.03    0.12
   0   5  -3    0.28    0.16
   0   5   3    0.30    0.11
   1  -5   3   52.47    5.73
  -1   5  -3   51.58    5.73
   1   5   3   48.56    5.64
  -1   5  -3   49.83    5.65
  -1   5  -3   46.93    5.65
  -2  -5  -3   78.47    9.42
   2  -5   3   79.14    9.48
  -2  -5  -3   82.71    9.38
  -2   5  -3   84.46    9.41
  -2   5  -3   83.12    9.42
  -2   5  -3   86.19    9.39
  -2   5  -3   79.54    9.41
  -2   5  -3   90.72    9.48
   2   5   3   83.76    9.41
  -3  -5  -3    2.07    0.36
   3  -5   3    1.24    0.38
  -3  -5  -3    1.41    0.24
  -3   5  -3    1.36    0.27
  -3   5  -3    1.60    0.31
  -3   5  -3    1.20    0.25
  -3   5  -3    1.33    0.30
  -3   5  -3    1.37    0.32
  -4  -5  -3    3.10    0.54
   4  -5   3    2.08    0.60
  -4  -5  -3    3.37    0.47
  -4  -5  -3    3.05    0.44
  -4   5  -3    2.97    0.50
  -4   5  -3    3.13    0.51
  -4   5  -3    3.01    0.54
  -4   5  -3    3.69    0.49
  -4   5  -3    2.59    0.44
  -5  -5  -3   15.86    2.27
  -5  -5  -3   19.34    2.36
  -5  -5  -3   21.87    2.31
  -5   5  -3   20.78    2.33
  -5   5  -3   21.63    2.30
  -5   5  -3   20.17    2.36
  -6  -5  -3    0.03    0.19
  -6  -5  -3   -0.09    0.13
  -6  -5  -3    0.39    0.24
  -6   5  -3   -0.43    0.16
  -6   5  -3    0.29    0.18
  -6   5  -3   -0.02    0.19
  -7  -5  -3    0.38    0.24
  -7  -5  -3    0.68    0.23
  -7   5  -3    0.53    0.25
  -7   5  -3    0.22    0.23
  -7   5  -3    0.57    0.23
  -8  -5  -3    1.00    0.26
  -8  -5  -3    1.23    0.30
  -8   5  -3    0.88    0.29
  -8   5  -3    0.95    0.26
  -8   5  -3    1.07    0.31
  11  -6  -3    0.36    0.17
 -11  -6   3    0.47    0.24
 -11   6   3    0.35    0.19
 -11   6   3    0.32    0.23
 -10  -6   3    0.25    0.22
 -10   6   3    0.16    0.17
  -9  -6   3   11.31    1.28
  -9   6   3    8.78    1.23
  -8  -6   3    4.51    0.59
  -8  -6   3    4.89    0.71
  -8   6   3    3.87    0.62
  -8   6   3    3.91    0.64
  -7  -6   3   12.51    1.63
   7  -6  -3   12.39    1.78
  -7   6   3   14.20    1.59
  -7   6   3   14.48    1.59
   7   6  -3   12.13    1.70
  -6  -6   3   68.67    8.13
   6  -6  -3   71.41    8.22
  -6   6   3   73.28    8.09
   6   6  -3   72.27    8.18
  -5  -6   3   94.02   11.03
   5  -6  -3  102.14   11.11
   5   6  -3   90.95   11.00
   5   6  -3   93.66   11.01
  -5   6   3   99.60   10.99
   5   6  -3  105.26   11.07
   4  -6  -3   86.99    9.77
   4  -6  -3   89.38    9.68
  -4  -6   3   86.09    9.71
   4   6  -3   86.32    9.65
   4   6  -3   81.24    9.69
   4   6  -3   79.85    9.68
   4   6  -3   91.09    9.73
   3  -6  -3   47.92    5.77
   3   6  -3   51.35    5.75
   3   6  -3   53.50    5.82
   2  -6  -3    9.37    1.07
  -2  -6   3    9.24    1.05
   2   6  -3    6.33    1.11
   1  -6  -3   68.36    7.67
  -1  -6   3   66.68    7.69
   0  -6   3   97.91   10.24
   0   6  -3   81.04   10.27
   0   6  -3   88.13   10.16
   0   6  -3   93.96   10.16
  -1  -6  -3    0.53    0.14
   1  -6   3    0.90    0.29
   1   6   3    0.32    0.16
  -1   6  -3    0.63    0.16
  -1   6  -3    0.71    0.26
  -1   6  -3    0.55    0.18
  -1   6  -3    0.79    0.22
  -1   6  -3    0.90    0.19
  -2  -6  -3    0.53    0.15
   2  -6   3    0.50    0.30
  -2  -6  -3    0.99    0.25
  -2   6  -3    0.87    0.25
  -2   6  -3    0.62    0.21
  -2   6  -3    0.92    0.19
  -2   6  -3    0.64    0.19
  -2   6  -3    0.90    0.24
  -2   6  -3    0.86    0.23
  -3  -6  -3   33.23    3.77
   3  -6   3   31.11    3.85
  -3  -6  -3   33.91    3.72
  -3   6  -3   33.63    3.71
  -3   6  -3   29.91    3.80
  -3   6  -3   31.85    3.75
  -3   6  -3   32.87    3.76
  -3   6  -3   34.36    3.75
  -4  -6  -3    7.38    0.83
   4  -6   3    4.70    0.98
  -4  -6  -3    5.75    0.87
  -4  -6  -3    6.12    0.77
  -4   6  -3    6.02    0.80
  -4   6  -3    6.45    0.87
  -4   6  -3    5.18    0.86
  -4   6  -3    7.18    0.88
  -4   6  -3    7.68    0.89
  -5  -6  -3    3.95    0.50
  -5  -6  -3    2.69    0.52
  -5  -6  -3    2.13    0.40
  -5   6  -3    2.63    0.47
  -5   6  -3    2.79    0.48
  -5   6  -3    3.11    0.45
  -6  -6  -3    0.09    0.14
  -6  -6  -3    0.04    0.22
  -6  -6  -3    0.66    0.26
  -6   6  -3    0.56    0.21
  -6   6  -3    0.57    0.24
  -6   6  -3    0.02    0.19
  -7  -6  -3    2.20    0.40
  -7  -6  -3    2.44    0.46
  -7   6  -3    1.91    0.38
  -7   6  -3    2.42    0.45
  -7   6  -3    2.24    0.41
  -8  -6  -3    0.16    0.20
  -8  -6  -3   -0.18    0.18
  -8   6  -3    0.24    0.20
  -8   6  -3    0.43    0.21
  10  -7  -3   -0.11    0.14
 -10  -7   3    0.01    0.20
 -10   7   3   -0.08    0.17
 -10   7   3   -0.07    0.22
  -9  -7   3    0.20    0.20
  -9   7   3    0.14    0.17
  -8  -7   3    1.25    0.33
  -8   7   3    1.04    0.35
  -8   7   3    1.02    0.27
  -7  -7   3    3.67    0.62
  -7   7   3    4.18    0.58
  -7   7   3    3.55    0.57
   6  -7  -3    1.10    0.45
  -6  -7   3    1.28    0.34
   6   7  -3    1.07    0.35
  -6   7   3    1.59    0.28
  -6   7   3    1.43    0.28
  -5  -7   3    0.85    0.27
   5  -7  -3    0.80    0.39
   5  -7  -3    0.98    0.23
   5   7  -3    0.73    0.24
   5   7  -3    1.05    0.25
  -5   7   3    0.94    0.22
   5   7  -3    0.51    0.42
  -5   7   3    1.44    0.25
   5   7  -3    1.59    0.33
  -4  -7   3   15.43    1.80
   4  -7  -3   14.64    1.76
   4  -7  -3   14.86    1.88
   4   7  -3   15.01    1.81
   4   7  -3   14.82    1.73
   4   7  -3   15.06    1.78
   4   7  -3   15.26    1.77
  -3  -7   3    9.77    1.17
   3  -7  -3    9.18    1.13
   3  -7  -3    8.96    1.24
   3   7  -3    8.65    1.14
   3   7  -3    9.64    1.10
   3   7  -3    9.71    1.18
   3   7  -3    9.08    1.14
  -3   7   3   11.91    1.14
   3   7  -3    7.93    1.14
  -2  -7   3    5.17    0.63
   2  -7  -3    4.21    0.53
   2  -7  -3    4.11    0.67
   2   7  -3    3.61    0.57
   2   7  -3    4.03    0.56
   2   7  -3    4.78    0.57
   2   7  -3    3.16    0.74
   2   7  -3    4.47    0.53
  -2   7   3    4.48    0.55
   1  -7  -3   10.86    1.22
  -1  -7   3    9.52    1.22
   1  -7  -3    9.51    1.13
   1   7  -3    9.10    1.15
   1   7  -3   10.02    1.12
   1   7  -3    9.52    1.15
   1   7  -3    8.62    1.31
   1   7  -3    9.21    1.15
   1   7  -3    9.56    1.15
   0  -7  -3    0.98    0.20
   0  -7   3    1.18    0.31
   0   7  -3    0.96    0.20
   0   7  -3    1.00    0.23
   0   7  -3    1.06    0.22
   0   7  -3    1.37    0.26
   0   7  -3    1.30    0.39
  -1  -7  -3   11.45    1.41
   1  -7   3   12.11    1.55
  -1   7  -3   12.77    1.45
  -1   7  -3   11.89    1.45
  -1   7  -3   13.66    1.59
   1   7   3   11.94    1.46
  -1   7  -3   11.15    1.44
  -1   7  -3   11.74    1.41
  -2  -7  -3   17.95    2.03
   2  -7   3   16.79    2.18
  -2  -7  -3   18.00    2.08
  -2   7  -3   15.84    2.01
  -2   7  -3   16.26    2.06
  -2   7  -3   17.13    2.06
  -2   7  -3   18.23    2.16
  -2   7  -3   17.68    2.07
  -2   7  -3   19.47    2.06
   3  -7   3    2.67    0.65
  -3  -7  -3    3.20    0.46
  -3  -7  -3    3.95    0.58
  -3   7  -3    3.40    0.53
  -3   7  -3    2.61    0.57
  -3   7  -3    3.46    0.48
  -3   7  -3    3.00    0.53
  -3   7  -3    3.44    0.53
  -3   7  -3    4.86    0.58
  -4  -7  -3    3.72    0.46
   4  -7   3    0.67    0.60
  -4  -7  -3    3.37    0.53
  -4  -7  -3    2.12    0.38
  -4   7  -3    3.05    0.49
  -4   7  -3    2.60    0.41
  -4   7  -3    3.25    0.49
  -4   7  -3    2.21    0.44
  -5  -7  -3    4.76    0.74
  -5  -7  -3    5.53    0.68
  -5   7  -3    4.26    0.69
  -5   7  -3    5.29    0.71
  -5   7  -3    3.52    0.66
  -5   7  -3    4.84    0.66
  -6  -7  -3    0.13    0.22
  -6  -7  -3    0.23    0.14
  -6  -7  -3    0.67    0.27
  -6   7  -3    0.62    0.23
  -6   7  -3    0.72    0.27
  -6   7  -3    0.98    0.24
  -7  -7  -3    0.02    0.20
  -7  -7  -3    0.04    0.21
  -7   7  -3    0.33    0.19
  -7   7  -3   -0.09    0.23
  -8  -7  -3    0.46    0.21
  -8   7  -3    0.40    0.23
  10  -8  -3    0.08    0.15
 -10  -8   3   -0.08    0.19
 -10   8   3   -0.25    0.25
 -10   8   3   -0.09    0.17
   9  -8  -3    1.79    0.34
  -9  -8   3    2.06    0.39
  -9   8   3    1.88    0.38
  -8  -8   3   11.35    1.49
  -8   8   3   11.63    1.44
  -8   8   3   12.65    1.51
  -7  -8   3   16.09    1.90
  -7   8   3   14.78    1.84
  -7   8   3   15.94    1.89
   6  -8  -3  145.10   17.32
  -6  -8   3  165.69   17.21
   6  -8  -3  126.24   17.14
  -6   8   3  156.72   17.17
  -6   8   3  167.11   17.15
   5  -8  -3   54.06    6.74
  -5  -8   3   57.88    6.63
   5  -8  -3   60.82    6.59
   5   8  -3   55.10    6.65
   5   8  -3   53.43    6.59
  -5   8   3   66.82    6.61
   4  -8  -3   14.61    1.69
   4  -8  -3   13.98    1.84
  -4  -8   3   14.32    1.73
  -4   8   3   15.79    1.70
   4   8  -3   13.30    1.69
   4   8  -3   14.48    1.76
   4   8  -3   13.65    1.70
   3  -8  -3    4.66    0.59
   3  -8  -3    4.28    0.77
  -3  -8   3    4.72    0.66
   3   8  -3    3.58    0.64
   3   8  -3    4.64    0.55
   3   8  -3    3.20    0.82
   3   8  -3    5.21    0.66
   3   8  -3    3.84    0.61
  -3   8   3    4.63    0.61
   3   8  -3    4.53    0.61
  -2  -8   3    0.50    0.19
   2  -8  -3    0.47    0.26
   2  -8  -3    0.41    0.13
   2   8  -3    0.16    0.28
  -2   8   3    0.44    0.18
  -2   8   3    0.33    0.28
   2   8  -3    0.31    0.17
   2   8  -3    0.55    0.14
   2   8  -3    0.47    0.16
   2   8  -3    0.60    0.17
   1  -8  -3   26.00    3.15
  -1  -8   3   27.46    3.18
   1  -8  -3   27.13    3.07
   1   8  -3   28.58    3.06
   1   8  -3   26.83    3.10
   1   8  -3   25.09    3.29
   1   8  -3   28.52    3.10
  -1   8   3   23.52    3.08
   1   8  -3   28.53    3.10
   1   8  -3   26.67    3.09
   0  -8   3   98.71   11.36
   0  -8  -3  102.00   11.25
   0   8  -3  101.06   11.46
   0   8  -3   95.66   11.23
   0   8   3   94.60   11.29
   0   8  -3  103.49   11.28
   0   8  -3  103.14   11.28
   0   8  -3  100.84   11.28
   1  -8   3    8.37    1.25
  -1  -8  -3    8.88    1.11
  -1   8  -3   10.90    1.18
  -1   8  -3    8.14    1.10
  -1   8  -3   10.49    1.17
  -1   8  -3   10.02    1.31
  -1   8  -3    9.23    1.14
  -2  -8  -3   26.05    3.01
  -2  -8  -3   26.20    2.96
   2  -8   3   23.38    3.10
  -2   8  -3   27.61    2.99
  -2   8  -3   26.84    2.99
  -2   8  -3   27.05    3.01
  -2   8  -3   23.96    2.94
  -2   8  -3   24.91    3.10
   3  -8   3   51.21    7.11
  -3  -8  -3   67.23    7.03
  -3   8  -3   60.26    6.95
  -3   8  -3   55.43    7.07
  -3   8  -3   66.55    7.02
  -3   8  -3   65.51    7.00
  -3   8  -3   65.38    7.01
  -4  -8  -3    0.78    0.28
  -4  -8  -3    0.30    0.14
  -4   8  -3    0.61    0.26
  -4   8  -3    0.35    0.20
  -4   8  -3    0.13    0.18
  -4   8  -3    0.79    0.29
  -5  -8  -3    0.78    0.30
  -5  -8  -3    0.38    0.15
  -5   8  -3    0.49    0.26
  -5   8  -3    0.12    0.25
  -5   8  -3    0.39    0.20
  -5   8  -3    0.62    0.27
  -6  -8  -3    3.92    0.60
  -6  -8  -3    3.21    0.48
  -6  -8  -3    2.87    0.45
  -6   8  -3    3.06    0.51
  -6   8  -3    2.62    0.53
  -7  -8  -3    0.57    0.25
  -7   8  -3    0.47    0.27
  -7   8  -3    0.47    0.21
  10  -9  -3   -0.04    0.12
   9  -9  -3    0.52    0.19
  -9  -9   3    0.48    0.22
  -9   9   3    0.25    0.39
  -9   9   3    0.04    0.21
   8  -9  -3    0.16    0.17
  -8  -9   3    0.28    0.22
  -8   9   3    0.08    0.30
  -8   9   3    0.28    0.19
   7  -9  -3    0.04    0.16
  -7  -9   3    0.10    0.18
  -7   9   3    0.51    0.30
  -7   9   3    0.30    0.20
  -6  -9   3    0.15    0.21
   6  -9  -3    0.14    0.15
  -6   9   3    0.13    0.19
  -6   9   3    0.04    0.17
   5  -9  -3   36.42    4.46
   5  -9  -3   37.84    4.26
  -5  -9   3   39.34    4.31
   5   9  -3   37.45    4.36
   5   9  -3   41.09    4.28
  -5   9   3   31.23    4.27
   4  -9  -3    0.71    0.20
   4  -9  -3    0.62    0.42
  -4  -9   3    0.64    0.24
   4   9  -3    0.61    0.21
  -4   9   3    0.64    0.24
   4   9  -3    0.53    0.28
   4   9  -3    0.13    0.40
   4   9  -3    0.86    0.25
   3  -9  -3    0.64    0.17
   3  -9  -3    0.33    0.35
  -3  -9   3    0.83    0.23
   3   9  -3    0.67    0.20
   3   9  -3    0.33    0.39
   3   9  -3    0.46    0.14
   3   9  -3    0.43    0.20
   3   9  -3    0.59    0.25
  -3   9   3    0.91    0.24
   2  -9  -3    0.40    0.14
  -2  -9   3    0.57    0.22
   2  -9  -3    0.46    0.29
   2   9  -3    0.46    0.36
  -2   9   3    0.10    0.33
   2   9  -3    0.39    0.14
   2   9  -3    0.65    0.19
   2   9  -3    0.12    0.17
  -2   9   3    0.24    0.18
   2   9  -3    0.43    0.16
   1  -9  -3    0.05    0.24
  -1  -9   3    0.09    0.21
   1  -9  -3   -0.10    0.11
  -1  -9   3   -0.05    0.13
   1   9  -3   -0.19    0.15
   1   9  -3   -0.13    0.12
   1   9  -3   -0.18    0.11
   1   9  -3    0.04    0.31
   1   9  -3   -0.05    0.15
  -1   9   3   -0.26    0.17
   1   9  -3   -0.02    0.13
  -1   9   3   -0.43    0.28
   0  -9  -3    2.37    0.34
   0  -9   3    1.38    0.44
   0   9  -3    1.99    0.31
   0   9  -3    2.25    0.39
   0   9  -3    2.01    0.37
   0   9  -3    2.23    0.38
   0   9   3    1.80    0.45
   0   9  -3    2.32    0.58
  -1  -9  -3    1.10    0.21
   1  -9   3    0.86    0.37
  -1   9  -3    0.91    0.25
  -1   9  -3    1.15    0.26
  -1   9  -3    0.75    0.19
  -1   9  -3    1.00    0.26
  -1   9  -3    1.29    0.42
  -2  -9  -3    0.06    0.24
   2  -9   3    0.51    0.38
  -2  -9  -3    0.06    0.12
  -2   9  -3    0.09    0.15
  -2   9  -3    0.49    0.21
  -2   9  -3    0.02    0.15
  -2   9  -3    0.12    0.29
  -2   9  -3    0.09    0.17
  -3  -9  -3    0.54    0.26
  -3  -9  -3    0.10    0.14
  -3   9  -3    0.43    0.23
  -3   9  -3    0.26    0.18
  -3   9  -3    0.08    0.18
  -4  -9  -3    0.89    0.21
  -4  -9  -3    1.09    0.33
  -4   9  -3    0.70    0.25
  -4   9  -3    1.18    0.33
  -5  -9  -3    3.24    0.60
  -5  -9  -3    5.59    0.77
  -5   9  -3    6.24    0.76
  -5   9  -3    6.93    0.77
  -5   9  -3    3.96    0.67
  -6  -9  -3    1.06    0.31
  -6  -9  -3    0.93    0.22
  -6   9  -3    0.64    0.30
  -6   9  -3    1.39    0.30
  -7  -9  -3    0.26    0.21
  -7   9  -3    0.38    0.30
  -7   9  -3    0.02    0.16
   9 -10  -3    5.85    0.71
  -9 -10   3    5.32    0.77
  -9  10   3    5.26    0.74
   8 -10  -3    2.86    0.43
  -8 -10   3    2.86    0.51
  -8  10   3    2.72    0.52
  -8  10   3    2.77    0.46
   7 -10  -3    0.44    0.18
  -7 -10   3    0.13    0.21
  -7  10   3    0.50    0.33
  -7  10   3    1.05    0.37
   6 -10  -3   14.71    1.53
  -6 -10   3   10.86    1.55
  -6  10   3   12.67    1.59
  -5 -10   3    0.23    0.20
   5 -10  -3    0.13    0.14
  -5  10   3    0.40    0.23
   5  10  -3    0.57    0.23
   4 -10  -3   13.95    1.56
   4 -10  -3   12.55    1.83
   4  10  -3   14.22    1.60
   4  10  -3   14.69    1.59
  -4  10   3    9.76    1.58
   3 -10  -3   25.41    2.72
  -3 -10   3   22.15    2.77
   3 -10  -3   20.83    2.87
   3  10  -3   25.11    2.76
   3  10  -3   24.57    2.75
  -3  10   3   24.13    2.77
   3  10  -3   21.93    2.81
  -2 -10   3    2.38    0.41
   2 -10  -3    1.31    0.47
   2 -10  -3    2.22    0.33
   2  10  -3    0.92    0.53
   2  10  -3    1.89    0.36
   2  10  -3    1.91    0.36
   2  10  -3    1.86    0.35
   2  10  -3    1.47    0.40
   2  10  -3    2.00    0.29
  -2  10   3    1.73    0.38
   1 -10  -3    2.38    0.57
  -1 -10   3    3.35    0.50
  -1 -10   3    2.78    0.59
   1 -10  -3    3.37    0.44
  -1  10   3    2.65    0.48
   1  10  -3    3.37    0.49
   1  10  -3    2.98    0.46
   1  10  -3    3.15    0.41
   1  10  -3    2.53    0.69
  -1  10   3    1.18    0.61
   1  10  -3    3.47    0.50
   0 -10  -3   13.83    1.64
   0 -10   3   11.54    1.77
   0  10  -3   14.38    1.68
   0  10  -3   14.71    1.69
   0  10  -3   13.05    1.61
   0  10  -3   17.32    1.70
   0  10  -3   13.07    1.67
  -1 -10  -3   10.10    1.11
   1 -10   3    6.52    1.28
  -1  10  -3   11.99    1.18
  -1  10  -3    7.09    1.14
  -1  10  -3   10.22    1.16
  -2 -10  -3    5.01    0.80
  -2  10  -3    8.18    0.89
  -3 -10  -3    6.39    0.76
  -3 -10  -3    2.69    0.57
  -3  10  -3    4.58    0.70
  -3  10  -3    4.03    0.65
  -3  10  -3    6.55    0.72
  -4 -10  -3    2.13    0.42
  -4 -10  -3    4.27    0.60
  -4  10  -3    4.12    0.67
  -4  10  -3    2.77    0.50
  -4  10  -3    3.84    0.56
  -5 -10  -3    4.71    0.70
  -5 -10  -3    4.11    0.57
  -5  10  -3    4.23    0.64
  -5  10  -3    4.03    0.64
  -6 -10  -3    0.19    0.22
  -6 -10  -3    0.15    0.13
  -6  10  -3    0.07    0.16
  -6  10  -3    0.21    0.20
  -9 -11   3    0.57    0.21
  -8 -11   3    0.58    0.21
   8 -11  -3    0.54    0.17
  -8  11   3    0.73    0.27
  -7 -11   3    0.23    0.20
   7 -11  -3    0.01    0.14
  -7  11   3    0.95    0.32
  -6 -11   3    0.51    0.24
   6 -11  -3    1.15    0.22
  -6  11   3    0.37    0.29
   5 -11  -3    2.07    0.36
  -5 -11   3    2.19    0.45
   5  11  -3    3.26    0.47
  -5  11   3    1.95    0.46
   4 -11  -3    3.47    0.59
  -4 -11   3    4.13    0.69
   4  11  -3    6.99    0.68
  -4  11   3    4.03    0.69
   3 -11  -3    9.73    1.08
  -3 -11   3    5.76    1.13
  -3  11   3    9.63    1.16
   3  11  -3    9.21    1.12
   3  11  -3    9.49    1.11
  -2 -11   3    0.31    0.22
   2 -11  -3   -0.14    0.13
   2  11  -3    0.16    0.22
   2  11  -3    0.21    0.13
   2  11  -3    0.33    0.19
   2  11  -3    0.01    0.16
  -2  11   3    0.34    0.24
  -1 -11   3    4.79    0.75
   1 -11  -3    5.05    0.69
   1  11  -3    5.47    0.75
   1  11  -3    4.11    0.71
  -1  11   3    5.55    0.77
   1  11  -3    6.17    0.77
   0 -11  -3    1.94    0.36
   0 -11   3    3.00    0.46
   0  11  -3    2.58    0.47
   0  11  -3    3.00    0.46
   0  11  -3    1.43    0.39
   0  11  -3    2.83    0.47
  -1 -11  -3    1.21    0.31
   1 -11   3    3.45    0.47
  -1  11  -3    4.40    0.52
  -1  11  -3    1.29    0.36
  -1  11  -3    1.83    0.39
  -1  11  -3    2.56    0.42
  -2 -11  -3    2.04    0.39
  -2  11  -3    2.91    0.47
  -2  11  -3    2.69    0.49
  -2  11  -3    3.47    0.51
  -3 -11  -3   -0.03    0.25
  -3 -11  -3    0.06    0.13
  -3  11  -3    0.05    0.20
  -3  11  -3    0.27    0.21
  -3  11  -3    0.15    0.22
  -4 -11  -3    0.65    0.30
  -4 -11  -3    1.17    0.24
  -4  11  -3    0.81    0.27
  -4  11  -3    1.42    0.33
  -4  11  -3    1.23    0.30
  -5 -11  -3    4.06    0.53
  -5 -11  -3    3.45    0.58
  -5  11  -3    4.69    0.62
  -5  11  -3    2.94    0.56
  -5  11  -3    3.74    0.60
  -6 -11  -3   -0.07    0.10
  -6 -11  -3    0.42    0.22
  -6  11  -3    0.04    0.18
  -6  11  -3    0.27    0.20
  -8 -12   3    0.75    0.22
   8 -12  -3    0.93    0.20
  -8  12   3    1.28    0.30
  -7 -12   3    0.17    0.20
   7 -12  -3    0.46    0.16
  -7  12   3    0.63    0.29
   6 -12  -3    1.01    0.22
  -6 -12   3    0.74    0.29
  -6  12   3    1.19    0.36
  -5 -12   3    0.31    0.22
   5 -12  -3    0.55    0.18
  -5  12   3    0.52    0.28
  -4 -12   3    0.20    0.20
   4 -12  -3    0.08    0.13
   4  12  -3    0.04    0.19
  -4  12   3    0.20    0.25
   3 -12  -3   17.56    2.14
   3  12  -3   19.76    2.19
  -3  12   3   16.42    2.20
   3  12  -3   19.29    2.18
   2 -12  -3    2.96    0.46
  -2 -12   3    2.59    0.53
   2  12  -3    3.85    0.56
   2  12  -3    2.95    0.51
  -2  12   3    3.17    0.54
   2  12  -3    3.07    0.52
  -1 -12   3    1.95    0.38
   1 -12  -3    1.44    0.30
  -1  12   3    1.61    0.37
   1  12  -3    0.82    0.30
   1  12  -3    2.38    0.39
   1  12  -3    2.05    0.38
   0 -12  -3    3.49    0.55
   0 -12   3    4.98    0.69
   0  12  -3    4.54    0.63
   0  12  -3    2.86    0.60
   0  12  -3    4.65    0.65
  -1 -12  -3    2.15    0.34
   1 -12   3    1.79    0.37
  -1  12  -3    1.45    0.37
  -1  12  -3    2.14    0.39
  -1  12  -3    2.43    0.41
  -1  12  -3    1.55    0.37
   2 -12   3    0.90    0.26
  -2  12  -3    0.66    0.24
  -2  12  -3    0.48    0.21
  -2  12  -3    0.99    0.27
  -2  12  -3    1.01    0.29
   3 -12   3    2.74    0.48
  -3 -12  -3    2.50    0.42
  -3  12  -3    3.09    0.51
  -3  12  -3    2.98    0.51
  -3  12  -3    3.22    0.52
  -3  12  -3    2.92    0.49
   4 -12   3    0.41    0.23
  -4 -12  -3    0.20    0.14
  -4  12  -3    0.35    0.22
  -4  12  -3    0.44    0.21
  -4  12  -3    0.45    0.23
  -4  12  -3    0.58    0.22
  -5 -12  -3    0.59    0.25
  -5 -12  -3    0.60    0.15
  -5  12  -3    0.24    0.20
  -5  12  -3    0.46    0.22
  -5  12  -3    0.75    0.26
   7 -13  -3    0.43    0.15
  -7 -13   3    0.23    0.19
  -7  13   3    0.64    0.24
   6 -13  -3   -0.11    0.13
  -6 -13   3    0.39    0.19
  -6  13   3   -0.32    0.20
   5 -13  -3    1.27    0.26
  -5 -13   3    1.49    0.33
  -5  13   3    1.65    0.38
   4 -13  -3    1.76    0.31
  -4 -13   3    1.61    0.38
  -4  13   3    1.76    0.41
   4  13  -3    2.12    0.37
  -3 -13   3    0.70    0.27
   3 -13  -3    0.69    0.20
   3  13  -3    0.81    0.26
  -3  13   3    0.96    0.31
   2 -13  -3    8.44    1.02
  -2 -13   3    8.87    1.10
  -2  13   3    7.98    1.11
   2  13  -3    8.22    1.07
   2  13  -3    8.07    1.07
  -1 -13   3    2.52    0.45
   1 -13  -3    2.51    0.36
   1  13  -3    2.11    0.43
   1  13  -3    1.24    0.35
  -1  13   3    2.09    0.49
   1  13  -3    2.27    0.42
   0 -13  -3    0.36    0.17
   0 -13   3    0.56    0.24
   0  13  -3    0.45    0.25
   0  13  -3    0.76    0.26
   0  13  -3    0.29    0.19
   1 -13   3    2.86    0.52
  -1 -13  -3    2.07    0.45
  -1  13  -3    4.03    0.56
  -1  13  -3    4.33    0.57
  -1  13  -3    4.15    0.58
   2 -13   3    9.88    1.47
  -2 -13  -3   12.40    1.44
  -2  13  -3   12.65    1.48
  -2  13  -3   12.96    1.50
  -2  13  -3   13.16    1.50
  -2  13  -3   11.78    1.48
   3 -13   3   -0.15    0.21
  -3 -13  -3    0.10    0.13
  -3  13  -3    0.36    0.19
  -3  13  -3    0.46    0.22
  -3  13  -3    0.05    0.17
  -3  13  -3    0.42    0.23
  -4 -13  -3    1.40    0.24
  -4  13  -3    1.82    0.32
  -4  13  -3    1.19    0.32
  -4  13  -3    1.07    0.30
  -4  13  -3    1.29    0.32
  -6 -14   3   -0.02    0.16
   6 -14  -3    0.01    0.14
  -6  14   3   -0.03    0.18
  -5 -14   3    0.80    0.26
   5 -14  -3    0.67    0.19
  -5  14   3    1.02    0.27
  -4 -14   3   -0.04    0.18
   4 -14  -3    0.19    0.14
   4  14  -3    0.11    0.22
  -4  14   3    0.13    0.20
   3 -14  -3    0.36    0.15
  -3 -14   3    0.33    0.20
   3  14  -3    0.45    0.23
  -3  14   3    0.52    0.22
  -2 -14   3    2.55    0.45
   2 -14  -3    2.04    0.35
  -2  14   3    2.06    0.40
   2  14  -3    2.86    0.45
  -1 -14   3    0.60    0.25
   1 -14  -3    0.93    0.20
   1  14  -3    0.92    0.32
   1  14  -3    0.47    0.25
   1  14  -3    0.88    0.26
   0 -14  -3    2.79    0.40
   0 -14   3    2.06    0.42
   0  14  -3    2.73    0.48
   0  14  -3    2.61    0.45
   0  14  -3    2.48    0.44
   1 -14   3   -0.02    0.18
  -1 -14  -3    0.01    0.13
  -1  14  -3    0.12    0.16
  -1  14  -3    0.20    0.24
  -1  14  -3    0.18    0.20
  -2 -14  -3    1.05    0.23
   2 -14   3    1.32    0.30
  -2  14  -3    1.09    0.26
  -2  14  -3    1.29    0.32
  -2  14  -3    1.51    0.32
  -3 -14  -3    0.46    0.15
  -3  14  -3    0.27    0.19
  -3  14  -3    0.46    0.22
  -3  14  -3    0.55    0.21
  -5 -15   3    3.58    0.54
  -5  15   3    3.60    0.53
   4 -15  -3    2.45    0.34
  -4 -15   3    1.88    0.37
  -4  15   3    2.60    0.40
   3 -15  -3    0.11    0.13
  -3 -15   3    0.06    0.17
   3  15  -3    0.16    0.19
  -3  15   3    0.00    0.17
   2 -15  -3    0.54    0.18
  -2 -15   3    0.74    0.23
   2  15  -3    0.87    0.23
  -2  15   3    0.74    0.22
  -1 -15   3    1.73    0.35
   1 -15  -3    2.14    0.30
   1  15  -3    2.13    0.35
   1  15  -3    1.52    0.36
   0 -15  -3    0.72    0.19
   0 -15   3    0.76    0.26
   0  15  -3    1.00    0.28
   0  15  -3    1.19    0.25
   0  15  -3    1.02    0.33
   1 -15   3    1.17    0.33
  -1 -15  -3    2.17    0.30
  -1  15  -3    1.86    0.33
  -1  15  -3    2.44    0.39
  -1  15  -3    1.98    0.39
  -2 -15  -3    9.19    1.13
  -2  15  -3    9.61    1.17
  -2  15  -3   10.36    1.19
  -2  15  -3    9.51    1.20
   1  16  -3   -0.27    0.14
   0  16  -3   -0.06    0.14
 -11   0   4    0.98    0.24
 -10   0   4    2.63    0.43
  -9   0   4    8.49    1.05
   8   0  -4   18.33    2.34
   8   0  -4   20.82    2.29
  -8   0   4   18.31    2.21
  -7   0   4    1.44    0.27
   7   0  -4    1.81    0.37
   7   0  -4    2.21    0.41
   6   0  -4    0.95    0.25
   6   0  -4    1.14    0.27
   6   0  -4    1.06    0.27
   5   0  -4   24.39    2.82
   4   0  -4   14.76    1.72
   3   0  -4    0.35    0.10
   3   0  -4    0.35    0.09
   2   0  -4  220.39   25.85
   2   0  -4  240.71   25.88
   1   0  -4    4.40    0.56
   0   0  -4    5.07    0.64
  -1   0  -4   57.99    6.59
  -2   0  -4    5.01    0.62
  -2   0  -4    4.14    0.58
  -2   0  -4    3.76    0.54
  -2   0  -4    3.55    0.57
  -3   0  -4  133.90   14.33
  -3   0  -4  126.44   14.37
  -3   0  -4  126.12   14.37
  -3   0  -4  128.62   14.41
  -3   0  -4  121.64   14.31
  -4   0  -4   10.23    1.17
  -4   0  -4    9.71    1.23
  -4   0  -4    9.05    1.22
  -5   0  -4    2.64    0.46
  -5   0  -4    1.42    0.33
  -6   0  -4   13.57    1.44
  -6   0  -4    9.16    1.32
  -7   0  -4    7.12    0.99
  -7   0  -4    7.12    0.95
  -8   0  -4    0.04    0.17
  -8   0  -4   -0.47    0.24
 -11  -1   4    0.08    0.15
 -11   1   4    0.02    0.16
 -10  -1   4    0.08    0.16
 -10   1   4    0.20    0.16
   9  -1  -4    0.10    0.23
  -9  -1   4    0.59    0.18
   9   1  -4    0.26    0.27
  -9   1   4    0.07    0.15
   8  -1  -4    3.14    0.50
  -8  -1   4    2.44    0.39
   8  -1  -4    2.78    0.60
  -8   1   4    1.96    0.38
   8   1  -4    3.63    0.54
   8   1  -4    2.52    0.54
   7  -1  -4    1.27    0.36
   7  -1  -4    1.51    0.31
  -7   1   4    1.20    0.22
   7   1  -4    1.44    0.32
   7   1  -4    1.00    0.31
   6  -1  -4   12.74    1.50
   6  -1  -4   11.93    1.49
   6  -1  -4   11.68    1.46
   6   1  -4   12.15    1.49
   6   1  -4   13.53    1.50
  -6   1   4   11.87    1.42
   5  -1  -4    3.57    0.55
   5  -1  -4    5.06    0.76
   5   1  -4    4.67    0.57
   4  -1  -4  105.18   12.08
   4   1  -4  107.22   12.06
   4   1  -4  109.30   12.08
   3  -1  -4    3.01    0.41
   3  -1  -4    3.14    0.40
   3   1  -4    3.26    0.41
   3   1  -4    3.10    0.41
   2   1  -4    2.27    0.31
   2   1  -4    2.73    0.34
   1  -1  -4    6.62    0.79
   1   1  -4    6.12    0.79
   0  -1  -4   42.42    4.92
   0   1  -4   44.04    4.93
  -1  -1  -4    4.13    0.60
  -1   1  -4    5.16    0.62
  -2  -1  -4   27.93    3.23
  -2  -1  -4   27.88    3.19
  -2  -1  -4   28.81    3.26
  -2  -1  -4   28.32    3.23
  -2   1  -4   29.07    3.19
  -2   1  -4   27.29    3.25
  -2   1  -4   26.27    3.22
  -3  -1  -4    1.77    0.27
  -3  -1  -4    1.55    0.25
  -3  -1  -4    1.17    0.29
  -3  -1  -4    1.21    0.28
  -3   1  -4    1.13    0.30
  -3   1  -4    1.06    0.28
  -3   1  -4    1.29    0.24
  -4  -1  -4   10.64    1.16
  -4  -1  -4    9.93    1.18
  -4  -1  -4    9.92    1.24
  -4  -1  -4   10.10    1.24
  -4   1  -4   10.38    1.24
  -4   1  -4   10.44    1.18
  -4   1  -4    8.01    1.25
  -5  -1  -4   22.19    2.64
  -5  -1  -4   21.33    2.70
  -5   1  -4   20.69    2.64
  -5   1  -4   28.17    2.74
  -6  -1  -4    3.27    0.51
  -6  -1  -4    1.93    0.38
  -6   1  -4    2.87    0.49
  -6   1  -4    1.65    0.37
  -7  -1  -4    0.42    0.20
  -7  -1  -4    0.38    0.26
  -7   1  -4    0.39    0.26
  -7   1  -4    0.75    0.22
  -8  -1  -4    0.18    0.18
  -8   1  -4    0.48    0.25
  -8   1  -4    0.21    0.17
 -12   2   4    3.94    0.66
 -11  -2   4    0.85    0.27
 -11  -2   4    1.04    0.26
 -11   2   4    1.77    0.31
 -10  -2   4    2.79    0.41
 -10   2   4    1.74    0.37
  -9  -2   4    3.96    0.58
   9  -2  -4    5.94    0.75
  -9   2   4    3.06    0.59
   9   2  -4    5.36    0.72
   8  -2  -4    1.79    0.52
   8  -2  -4    2.40    0.45
  -8  -2   4    2.13    0.35
   8   2  -4    1.61    0.47
  -8   2   4    2.56    0.38
   8   2  -4    3.03    0.48
   7  -2  -4    2.46    0.50
   7  -2  -4    2.83    0.46
  -7   2   4    2.31    0.36
   7   2  -4    2.04    0.44
   7   2  -4    2.43    0.47
   6  -2  -4    5.70    0.77
   6  -2  -4    5.94    0.76
   6  -2  -4    5.87    0.75
  -6   2   4    5.56    0.68
   6   2  -4    5.35    0.78
   6   2  -4    4.99    0.75
   5  -2  -4   20.91    2.40
   5  -2  -4   20.63    2.42
   5  -2  -4   20.89    2.42
   5   2  -4   20.42    2.41
   5   2  -4   20.77    2.42
   4  -2  -4    5.41    0.71
   4   2  -4    6.02    0.72
   4   2  -4    5.61    0.71
   3  -2  -4   36.40    4.23
   3   2  -4   39.32    4.26
   3   2  -4   36.03    4.23
   2  -2  -4   25.60    3.11
   2   2  -4   30.09    3.16
   2   2  -4   27.02    3.11
   1  -2  -4    8.07    0.95
   1   2  -4    7.69    0.91
   1   2  -4    7.89    0.97
   0  -2  -4   18.17    1.88
   0  -2   4   15.90    1.84
   0   2  -4   13.68    1.87
  -1  -2  -4    0.10    0.10
  -1   2  -4    0.11    0.10
  -2  -2  -4   12.69    1.60
  -2  -2  -4   12.94    1.56
  -2   2  -4   14.81    1.63
  -2   2  -4   12.03    1.59
  -2   2  -4   12.52    1.57
  -2   2  -4   14.86    1.57
  -3  -2  -4   17.25    2.10
  -3  -2  -4   18.69    2.04
  -3  -2  -4   19.22    2.05
  -3  -2  -4   17.52    2.08
  -3   2  -4   17.86    2.09
  -3   2  -4   17.82    2.05
  -3   2  -4   17.14    2.12
  -3   2  -4   16.00    2.06
  -4  -2  -4    3.57    0.46
  -4  -2  -4    2.93    0.52
  -4  -2  -4    3.34    0.53
  -4  -2  -4    4.12    0.50
  -4   2  -4    3.02    0.52
  -4   2  -4    2.52    0.54
  -4   2  -4    2.47    0.45
  -4   2  -4    3.61    0.51
  -5  -2  -4   18.93    1.76
  -5  -2  -4   12.37    1.72
  -5  -2  -4   15.24    1.68
  -5   2  -4   11.97    1.65
  -5   2  -4   12.78    1.72
  -6  -2  -4    8.46    1.31
  -6  -2  -4   10.99    1.27
  -6  -2  -4   12.78    1.35
  -6   2  -4    9.49    1.26
  -6   2  -4   10.54    1.34
  -7  -2  -4    6.28    0.77
  -7   2  -4    4.99    0.74
  -7   2  -4    5.29    0.82
  -8  -2  -4    0.15    0.18
  -8   2  -4    0.26    0.22
  -8   2  -4    0.15    0.16
 -11  -3   4    0.00    0.17
 -11   3   4    0.07    0.15
 -10  -3   4    2.32    0.37
 -10   3   4    1.97    0.38
  -9  -3   4    0.17    0.13
  -9   3   4    0.07    0.14
   9   3  -4    0.12    0.41
  -8  -3   4    8.58    0.93
   8  -3  -4    7.16    1.18
   8  -3  -4    7.70    1.01
  -8   3   4    6.72    0.93
   8   3  -4    6.62    1.09
   8   3  -4    8.00    1.07
   7  -3  -4    4.85    0.84
   7  -3  -4    5.84    0.77
   7   3  -4    5.43    0.77
  -7   3   4    5.20    0.65
   7   3  -4    4.44    0.78
   6  -3  -4    0.19    0.21
   6  -3  -4    0.00    0.14
   6  -3  -4    0.08    0.15
   6   3  -4    0.11    0.14
   6   3  -4    0.24    0.17
  -6   3   4    0.00    0.09
   5  -3  -4   39.17    4.29
   5  -3  -4   36.98    4.25
   5  -3  -4   38.43    4.25
   5   3  -4   40.02    4.28
  -5   3   4   35.76    4.21
   5   3  -4   34.21    4.24
   5   3  -4   35.95    4.26
   4  -3  -4  100.40   11.52
   4   3  -4  103.22   11.51
   4   3  -4  102.35   11.54
   3  -3  -4   27.75    3.25
   3   3  -4   30.30    3.29
   3   3  -4   27.04    3.23
   2  -3  -4  221.26   26.86
   2   3  -4  240.42   26.86
   2   3  -4  256.36   26.93
  -1  -3   4    4.09    0.49
   1   3  -4    3.45    0.51
   0  -3   4    4.61    0.50
   0   3  -4    2.89    0.48
   1  -3   4   14.76    1.78
  -1   3  -4   15.75    1.72
  -1   3  -4   14.38    1.78
  -2  -3  -4    3.69    0.50
  -2  -3  -4    3.67    0.48
  -2  -3  -4    4.26    0.57
  -2   3  -4    3.62    0.54
  -2   3  -4    3.83    0.51
  -2   3  -4    3.87    0.55
  -2   3  -4    3.27    0.51
  -2   3  -4    3.05    0.51
  -3  -3  -4    1.17    0.31
  -3  -3  -4    1.31    0.23
  -3  -3  -4    1.37    0.26
  -3  -3  -4    0.78    0.27
  -3   3  -4    1.16    0.31
  -3   3  -4    1.06    0.28
  -3   3  -4    1.38    0.29
  -3   3  -4    1.25    0.24
  -4  -3  -4   22.12    2.40
  -4  -3  -4   20.78    2.48
  -4  -3  -4   18.23    2.49
  -4  -3  -4   23.48    2.42
  -4   3  -4   19.97    2.43
  -4   3  -4   18.19    2.49
  -4   3  -4   21.81    2.47
  -4   3  -4   22.50    2.42
  -5  -3  -4   63.86    6.71
  -5   3  -4   53.79    6.61
  -5   3  -4   57.80    6.68
  -6  -3  -4    2.34    0.52
  -6  -3  -4    4.85    0.55
  -6   3  -4    2.38    0.54
  -6   3  -4    3.38    0.50
  -6   3  -4    3.40    0.53
  -7  -3  -4    0.44    0.20
  -7   3  -4    0.25    0.23
  -7   3  -4    0.18    0.19
  -8  -3  -4   -0.02    0.19
  -8   3  -4    0.28    0.21
  -8   3  -4    0.40    0.18
 -11  -4   4    1.17    0.28
 -11   4   4    1.39    0.29
 -10  -4   4    1.20    0.25
 -10   4   4    1.04    0.27
  -9  -4   4    5.79    0.64
  -9   4   4    3.47    0.65
  -8  -4   4   27.53    2.97
   8   4  -4   27.32    3.06
  -8   4   4   22.81    2.98
   7  -4  -4    0.67    0.37
   7  -4  -4    0.99    0.26
  -7  -4   4    0.65    0.27
   7   4  -4    1.64    0.33
  -7   4   4    0.80    0.20
   7   4  -4    0.97    0.33
  -6  -4   4   16.73    2.46
   6  -4  -4   22.95    2.49
   6  -4  -4   21.31    2.55
   6  -4  -4   22.18    2.47
   6   4  -4   23.85    2.53
  -6   4   4   20.80    2.43
   6   4  -4   20.33    2.47
   6   4  -4   22.45    2.50
   5  -4  -4    0.51    0.23
   5  -4  -4    0.92    0.21
   5  -4  -4    0.44    0.18
   5   4  -4    0.42    0.18
   5   4  -4    0.58    0.19
   5   4  -4    0.59    0.19
  -5   4   4    0.34    0.13
   4  -4  -4    7.34    0.87
   4  -4  -4    6.94    0.90
   4   4  -4    6.30    0.86
   4   4  -4    7.44    0.82
   4   4  -4    7.04    0.95
   4   4  -4    6.77    0.87
   3  -4  -4   38.96    4.58
   3   4  -4   39.90    4.56
   3   4  -4   41.37    4.65
   2  -4  -4    4.14    0.56
   2   4  -4    4.04    0.54
   2   4  -4    4.55    0.63
  -1  -4   4    8.50    0.92
   1   4  -4    6.38    0.93
   0  -4   4   66.39    6.89
   0   4  -4   52.57    6.90
   0   4  -4   63.96    6.86
   1  -4   4   13.47    1.67
  -1  -4  -4   13.00    1.59
  -1   4  -4   13.57    1.64
  -1   4  -4   12.75    1.61
  -1   4  -4   14.61    1.60
  -1   4  -4   15.99    1.70
  -1   4  -4   12.57    1.62
  -2  -4  -4    8.08    0.92
  -2  -4  -4    7.73    0.96
  -2  -4  -4    6.94    0.92
  -2   4  -4    7.48    0.94
  -2   4  -4    7.72    0.92
  -2   4  -4    7.51    0.95
  -2   4  -4    7.79    0.97
  -2   4  -4    7.25    0.99
  -3  -4  -4    5.58    0.76
  -3  -4  -4    5.55    0.83
  -3  -4  -4    6.33    0.74
  -3   4  -4    5.47    0.82
  -3   4  -4    6.66    0.75
  -3   4  -4    5.27    0.79
  -3   4  -4    6.30    0.81
  -3   4  -4    5.89    0.82
  -4  -4  -4    1.41    0.38
  -4  -4  -4    2.17    0.34
  -4  -4  -4    1.73    0.29
  -4   4  -4    1.17    0.38
  -4   4  -4    1.76    0.37
  -4   4  -4    1.45    0.30
  -4   4  -4    1.75    0.34
  -5  -4  -4    1.14    0.27
  -5  -4  -4    0.90    0.22
  -5  -4  -4    0.85    0.30
  -5   4  -4    0.75    0.23
  -5   4  -4    0.66    0.26
  -5   4  -4    0.87    0.30
  -6  -4  -4   12.71    1.46
  -6  -4  -4   11.91    1.52
  -6   4  -4   11.42    1.47
  -7  -4  -4    0.54    0.21
  -7   4  -4    0.61    0.25
  -7   4  -4    0.51    0.23
  -8   4  -4    0.45    0.23
 -11   5   4    1.55    0.31
 -10  -5   4    6.79    0.92
 -10   5   4    8.26    0.96
  -9  -5   4    0.49    0.18
  -9   5   4    0.93    0.26
  -9   5   4    0.90    0.25
  -8  -5   4   22.21    2.85
  -8  -5   4   25.50    2.79
  -8   5   4   24.64    2.82
  -7  -5   4   16.06    2.04
   7  -5  -4   16.33    2.17
  -7   5   4   18.50    2.01
   7   5  -4   16.65    2.08
   7   5  -4   17.91    2.12
   6  -5  -4    2.60    0.43
  -6  -5   4    2.76    0.45
   6  -5  -4    2.30    0.52
   6   5  -4    2.02    0.40
  -6   5   4    2.21    0.37
   6   5  -4    2.78    0.45
   6   5  -4    2.26    0.46
   5  -5  -4    0.32    0.15
  -5  -5   4    0.19    0.21
   5  -5  -4    0.50    0.25
   5  -5  -4    0.17    0.16
   5   5  -4    0.22    0.15
   5   5  -4    0.29    0.17
   5   5  -4    0.25    0.17
   5   5  -4    0.35    0.30
  -5   5   4    0.42    0.14
   4  -5  -4  110.03   11.98
   4  -5  -4  111.63   12.04
   4  -5  -4  114.51   11.97
  -4  -5   4  104.86   12.00
   4  -5  -4  101.94   11.98
   4   5  -4   94.95   12.10
   4   5  -4  108.78   11.98
   4   5  -4  112.96   12.01
   4   5  -4  106.14   11.98
   4   5  -4   90.97   12.01
   4   5  -4  110.38   11.94
   3  -5  -4   30.09    3.46
   3  -5  -4   30.44    3.51
   3   5  -4   31.69    3.44
   3   5  -4   31.38    3.48
   3   5  -4   30.66    3.60
   3   5  -4   28.50    3.46
   3   5  -4   28.84    3.46
   2  -5  -4   95.41   11.26
   2   5  -4  102.99   11.25
   2   5  -4   97.16   11.24
   2   5  -4   97.39   11.26
   2   5  -4  101.29   11.21
   2   5  -4  103.51   11.36
  -1  -5   4   90.94   10.43
   1   5  -4   93.01   10.40
   1   5  -4   95.83   10.38
   1   5  -4   92.97   10.40
   1   5  -4   92.93   10.49
   1   5  -4   87.39   10.39
   0  -5   4    5.61    0.75
   0  -5  -4    5.58    0.67
   0   5  -4    5.55    0.70
   0   5  -4    5.46    0.69
   0   5  -4    5.11    0.69
   0   5  -4    5.07    0.75
   0   5  -4    5.99    0.68
   1  -5   4    9.84    1.32
  -1  -5  -4   10.03    1.22
  -1   5  -4   10.62    1.23
  -1   5  -4   10.77    1.26
  -1   5  -4   10.09    1.25
  -1   5  -4    9.93    1.26
  -1   5  -4    9.98    1.27
  -1   5  -4   11.63    1.34
  -2  -5  -4   19.00    2.15
  -2  -5  -4   17.75    2.20
  -2   5  -4   18.32    2.16
  -2   5  -4   17.75    2.20
  -2   5  -4   18.90    2.26
  -2   5  -4   19.09    2.19
  -2   5  -4   19.37    2.19
  -3  -5  -4    4.33    0.68
  -3  -5  -4    5.68    0.68
  -3  -5  -4    5.94    0.78
  -3   5  -4    4.36    0.74
  -3   5  -4    6.12    0.76
  -3   5  -4    5.45    0.74
  -3   5  -4    5.44    0.76
  -3   5  -4    4.53    0.67
  -4  -5  -4    3.60    0.55
  -4  -5  -4    3.75    0.64
  -4  -5  -4    3.96    0.53
  -4   5  -4    3.42    0.58
  -4   5  -4    3.72    0.55
  -4   5  -4    3.63    0.61
  -5  -5  -4   13.00    1.70
  -5  -5  -4   13.39    1.60
  -5  -5  -4   13.92    1.63
  -5   5  -4   13.69    1.65
  -5   5  -4   13.72    1.62
  -6  -5  -4    0.08    0.21
  -6  -5  -4    0.34    0.21
  -6   5  -4   -0.24    0.17
  -6   5  -4    0.19    0.21
  -6   5  -4    0.11    0.21
  -7  -5  -4    4.35    0.65
  -7  -5  -4    4.79    0.60
  -7   5  -4    3.22    0.60
  -7   5  -4    4.33    0.58
  -7   5  -4    4.18    0.65
  11  -6  -4    0.14    0.15
 -11   6   4    0.21    0.20
 -11   6   4   -0.06    0.16
 -10   6   4    0.14    0.19
  -9  -6   4    5.40    0.86
  -9  -6   4    6.33    0.78
  -9   6   4    6.50    0.85
  -9   6   4    6.17    0.85
  -8  -6   4    6.86    1.01
  -8   6   4    7.43    0.94
  -8   6   4    7.32    0.93
  -7  -6   4    1.03    0.28
   7  -6  -4    0.65    0.43
  -7   6   4    0.74    0.21
   7   6  -4    1.01    0.40
   7   6  -4    0.76    0.32
  -6  -6   4    4.67    0.68
   6  -6  -4    4.96    0.82
   6   6  -4    4.22    0.65
   6   6  -4    4.64    0.74
  -6   6   4    4.41    0.61
   6   6  -4    4.42    0.68
  -5  -6   4    0.66    0.26
   5  -6  -4    1.16    0.37
   5  -6  -4    0.87    0.22
   5   6  -4    0.83    0.23
   5   6  -4    1.03    0.41
   5   6  -4    1.00    0.27
   5   6  -4    1.04    0.24
   4  -6  -4    3.68    0.62
   4  -6  -4    3.33    0.49
   4  -6  -4    3.69    0.50
  -4  -6   4    3.40    0.53
   4   6  -4    3.88    0.52
   4   6  -4    2.51    0.50
   4   6  -4    3.73    0.55
   4   6  -4    3.32    0.71
   4   6  -4    3.55    0.52
   4   6  -4    3.48    0.46
   3  -6  -4    0.95    0.23
  -3  -6   4    1.34    0.27
   3  -6  -4    1.25    0.24
   3  -6  -4    1.53    0.36
   3   6  -4    1.01    0.25
   3   6  -4    1.35    0.22
   3   6  -4    1.12    0.27
   3   6  -4    1.18    0.26
   3   6  -4    1.70    0.46
   3   6  -4    1.70    0.28
   2  -6  -4    2.25    0.41
   2  -6  -4    3.20    0.36
   2  -6  -4    2.38    0.37
   2   6  -4    2.24    0.37
   2   6  -4    2.16    0.37
   2   6  -4    2.19    0.36
   2   6  -4    2.12    0.50
   2   6  -4    1.96    0.32
  -1  -6   4    8.73    1.23
   1  -6  -4    9.53    1.16
   1   6  -4   10.01    1.19
   1   6  -4    9.40    1.19
   1   6  -4   10.03    1.18
   1   6  -4    9.88    1.16
   1   6  -4    9.55    1.18
   1   6  -4   11.57    1.33
   0  -6  -4   19.26    2.26
   0  -6   4   18.73    2.35
   0   6  -4   20.33    2.29
   0   6  -4   19.37    2.29
   0   6  -4   17.27    2.29
   0   6  -4   19.61    2.29
   0   6  -4   20.22    2.30
   0   6  -4   22.16    2.42
   0   6  -4   19.99    2.26
  -1  -6  -4   30.11    3.33
   1  -6   4   26.96    3.43
  -1   6  -4   30.81    3.37
  -1   6  -4   28.86    3.37
  -1   6  -4   29.42    3.33
  -1   6  -4   28.26    3.35
  -1   6  -4   27.00    3.37
  -1   6  -4   31.40    3.47
  -2  -6  -4    2.12    0.30
  -2  -6  -4    1.54    0.36
  -2   6  -4    1.20    0.27
  -2   6  -4    1.13    0.37
  -2   6  -4    1.68    0.33
  -2   6  -4    1.66    0.34
  -2   6  -4    1.75    0.34
  -3  -6  -4    0.55    0.26
  -3  -6  -4   -0.01    0.13
  -3   6  -4    0.22    0.24
  -3   6  -4    0.13    0.20
  -3   6  -4    0.07    0.14
  -3   6  -4    0.05    0.15
  -3   6  -4   -0.21    0.18
  -4  -6  -4   49.75    5.75
  -4  -6  -4   50.47    5.69
  -4   6  -4   53.23    5.69
  -4   6  -4   46.80    5.72
  -4   6  -4   49.59    5.72
  -4   6  -4   49.84    5.75
  -5  -6  -4    0.21    0.24
  -5  -6  -4    0.32    0.16
  -5  -6  -4    0.32    0.21
  -5   6  -4    0.14    0.22
  -5   6  -4    0.47    0.23
  -5   6  -4    0.12    0.19
  -6  -6  -4    0.19    0.20
  -6  -6  -4   -0.17    0.18
  -6   6  -4   -0.14    0.19
  -6   6  -4    0.23    0.21
  -6   6  -4    0.15    0.22
  -7  -6  -4    0.16    0.20
  -7  -6  -4    0.76    0.23
  -7   6  -4    0.16    0.21
  -7   6  -4    0.18    0.20
  -7   6  -4    0.43    0.23
  11  -7  -4    2.44    0.38
  10  -7  -4    1.98    0.35
 -10   7   4    2.20    0.39
   9  -7  -4    0.26    0.18
  -9  -7   4    0.29    0.23
  -9   7   4    0.24    0.29
  -9   7   4    0.20    0.20
   8  -7  -4    3.63    0.73
  -8  -7   4    6.42    0.71
  -8  -7   4    4.79    0.81
  -8   7   4    5.73    0.79
  -8   7   4    7.25    0.78
  -7  -7   4   -0.01    0.19
   7  -7  -4    0.23    0.16
  -7   7   4    0.02    0.13
  -7   7   4   -0.01    0.17
   6  -7  -4   -0.60    0.39
   6  -7  -4   -0.05    0.14
  -6  -7   4    0.15    0.20
   6   7  -4   -0.08    0.18
   6   7  -4    0.18    0.22
  -6   7   4   -0.06    0.15
   6   7  -4    0.07    0.25
   5  -7  -4   68.45    8.72
  -5  -7   4   73.59    8.64
   5  -7  -4   82.88    8.61
   5   7  -4   78.18    8.62
   5   7  -4   76.61    8.63
   5   7  -4   76.22    8.67
   4  -7  -4    3.14    0.47
   4  -7  -4    2.92    0.61
  -4  -7   4    3.83    0.53
   4   7  -4    2.57    0.55
   4   7  -4    3.27    0.44
   4   7  -4    3.93    0.51
   4   7  -4    3.59    0.51
   4   7  -4    3.61    0.57
   4   7  -4    2.32    0.64
   3  -7  -4    0.28    0.13
  -3  -7   4    0.07    0.16
   3  -7  -4    0.11    0.24
   3   7  -4   -0.13    0.15
   3   7  -4    0.05    0.13
   3   7  -4    0.16    0.10
   3   7  -4   -0.02    0.14
   3   7  -4    0.10    0.28
   3   7  -4    0.07    0.16
   2  -7  -4   20.24    2.37
   2   7  -4   20.76    2.39
   2   7  -4   19.06    2.55
  -2   7   4   20.74    2.36
   2   7  -4   21.16    2.36
   2   7  -4   20.47    2.40
   2   7  -4   21.28    2.40
  -1  -7   4   16.78    2.28
   1  -7  -4   19.35    2.20
   1   7  -4   18.35    2.23
   1   7  -4   19.24    2.23
   1   7  -4   18.46    2.22
   1   7  -4   19.90    2.23
   1   7  -4   20.87    2.39
   1   7  -4   19.68    2.19
   0  -7  -4   16.98    2.08
   0  -7   4   16.83    2.18
   0   7  -4   18.33    2.11
   0   7  -4   19.14    2.26
   0   7  -4   17.52    2.11
   0   7  -4   18.16    2.12
   0   7  -4   18.66    2.08
   0   7  -4   18.27    2.11
  -1  -7  -4   52.99    5.84
   1  -7   4   45.08    5.93
  -1   7  -4   53.62    5.88
  -1   7  -4   52.71    5.83
  -1   7  -4   49.80    5.87
  -1   7  -4   51.42    5.86
  -1   7  -4   53.18    5.99
  -1   7  -4   52.30    5.86
  -2  -7  -4   68.85    8.13
  -2  -7  -4   77.10    8.09
  -2   7  -4   71.94    8.13
  -2   7  -4   73.53    8.08
  -2   7  -4   69.04    8.11
  -2   7  -4   72.24    8.13
  -2   7  -4   68.82    8.22
  -2   7  -4   70.47    8.12
  -3  -7  -4    0.17    0.15
  -3  -7  -4    0.35    0.24
  -3   7  -4    0.44    0.23
  -3   7  -4    0.00    0.16
  -3   7  -4    0.47    0.19
  -3   7  -4    0.20    0.21
  -4  -7  -4    1.12    0.32
  -4  -7  -4    0.59    0.20
  -4   7  -4    0.80    0.29
  -4   7  -4    1.10    0.34
  -4   7  -4    0.93    0.28
  -4   7  -4    0.93    0.24
  -5  -7  -4    1.40    0.36
  -5  -7  -4    0.72    0.22
  -5   7  -4    0.78    0.29
  -5   7  -4    1.87    0.39
  -5   7  -4    1.19    0.28
  -6  -7  -4    0.37    0.26
  -6  -7  -4   -0.05    0.20
  -6   7  -4    0.01    0.20
  -6   7  -4    0.25    0.21
  -6   7  -4    0.19    0.24
  -7  -7  -4    1.75    0.34
  -7   7  -4    1.73    0.34
  -7   7  -4    1.05    0.34
  10  -8  -4    0.02    0.14
 -10   8   4   -0.22    0.33
 -10   8   4    0.05    0.18
   9  -8  -4    1.03    0.24
  -9  -8   4    0.63    0.25
  -9   8   4    0.40    0.23
  -9   8   4    1.06    0.34
   8  -8  -4    0.35    0.20
  -8  -8   4    0.55    0.26
  -8   8   4    0.80    0.23
  -8   8   4    0.56    0.30
   7  -8  -4    8.49    1.30
  -7  -8   4   11.07    1.36
  -7   8   4   11.41    1.34
  -7   8   4   11.96    1.31
  -6  -8   4   11.38    1.24
   6  -8  -4    7.47    1.16
   6  -8  -4    9.13    1.44
   6   8  -4   11.92    1.23
   6   8  -4   12.02    1.26
  -6   8   4    7.31    1.15
   5  -8  -4    3.03    0.45
   5  -8  -4    3.11    0.68
  -5  -8   4    3.12    0.51
   5   8  -4    2.50    0.73
   5   8  -4    2.04    0.49
  -5   8   4    2.91    0.43
   5   8  -4    3.90    0.51
   5   8  -4    2.48    0.45
   4  -8  -4    0.96    0.24
  -4  -8   4    1.00    0.28
   4  -8  -4    1.09    0.45
   4   8  -4    1.76    0.31
  -4   8   4    1.18    0.24
   4   8  -4    1.20    0.21
   4   8  -4    1.08    0.32
   4   8  -4    1.62    0.31
   4   8  -4    0.85    0.46
   3  -8  -4    6.06    0.75
  -3  -8   4    6.11    0.80
   3  -8  -4    6.45    1.03
  -3   8   4    6.02    0.75
   3   8  -4    5.54    0.82
   3   8  -4    5.28    1.04
   3   8  -4    6.14    0.72
   3   8  -4    6.21    0.82
   3   8  -4    6.15    0.78
   3   8  -4    5.40    0.79
  -2  -8   4    3.28    0.50
   2  -8  -4    2.46    0.41
   2   8  -4    3.42    0.73
   2   8  -4    2.66    0.46
   2   8  -4    3.45    0.43
  -2   8   4    2.43    0.42
   2   8  -4    3.72    0.50
   2   8  -4    2.91    0.47
   2   8  -4    2.60    0.49
   1  -8  -4    0.37    0.15
  -1  -8   4    0.06    0.22
   1   8  -4    0.46    0.18
   1   8  -4    0.52    0.18
   1   8  -4    0.41    0.14
   1   8  -4    0.56    0.17
   1   8  -4    0.41    0.30
   1   8  -4    0.28    0.17
   0  -8  -4   15.74    1.72
   0  -8   4   12.23    1.81
   0   8  -4   14.55    1.75
   0   8  -4   15.39    1.75
   0   8  -4   14.96    1.90
   0   8  -4   13.80    1.69
   0   8  -4   14.67    1.75
   0   8  -4   15.44    1.75
  -1  -8  -4    1.52    0.30
   1  -8   4    1.34    0.45
  -1   8  -4    2.31    0.38
  -1   8  -4    2.21    0.39
  -1   8  -4    1.68    0.30
  -1   8  -4    2.36    0.39
  -1   8  -4    1.71    0.46
  -2  -8  -4    0.41    0.17
  -2   8  -4    0.07    0.21
  -2   8  -4    0.34    0.30
  -2   8  -4    0.61    0.19
  -2   8  -4    0.50    0.28
  -2   8  -4    0.10    0.19
  -2   8  -4    0.57    0.23
  -3  -8  -4    7.58    0.97
  -3   8  -4    7.24    0.94
  -3   8  -4    7.05    0.94
  -3   8  -4    4.56    0.87
  -3   8  -4    6.52    0.84
  -4  -8  -4    2.12    0.42
  -4  -8  -4    3.66    0.57
  -4   8  -4    3.61    0.57
  -4   8  -4    3.71    0.57
  -4   8  -4    3.62    0.49
  -4   8  -4    2.25    0.47
  -5  -8  -4    2.62    0.44
  -5  -8  -4    2.79    0.55
  -5   8  -4    3.87    0.49
  -5   8  -4    3.04    0.51
  -5   8  -4    3.74    0.54
  -5   8  -4    2.43    0.51
  -6  -8  -4    0.34    0.23
  -6   8  -4   -0.22    0.26
  -6   8  -4    0.48    0.21
  10  -9  -4    0.49    0.16
  -9  -9   4    0.06    0.19
   9  -9  -4    0.05    0.16
  -9   9   4   -0.23    0.26
  -9   9   4    0.43    0.20
  -8  -9   4    2.42    0.48
   8  -9  -4    2.27    0.40
  -8   9   4    2.46    0.43
  -8   9   4    2.44    0.50
   7  -9  -4    7.56    1.12
  -7  -9   4   10.10    1.19
  -7   9   4   10.06    1.19
   6  -9  -4    0.88    0.21
  -6  -9   4    0.59    0.25
   6   9  -4    0.58    0.26
  -6   9   4    0.60    0.24
   5  -9  -4   10.50    1.72
  -5  -9   4   16.52    1.81
   5  -9  -4   13.78    1.99
   5   9  -4   16.71    1.79
   5   9  -4   17.10    1.78
  -4  -9   4   17.17    1.92
   4  -9  -4   13.73    1.85
   4   9  -4   16.55    1.91
   4   9  -4   16.25    1.83
   4   9  -4   16.95    1.89
  -4   9   4   17.72    1.89
   4   9  -4   12.91    2.12
   4   9  -4   15.27    1.95
   3  -9  -4    3.83    0.52
  -3  -9   4    3.24    0.57
   3   9  -4    3.63    0.48
   3   9  -4    2.98    0.54
   3   9  -4    3.51    0.86
   3   9  -4    2.91    0.53
   3   9  -4    3.89    0.63
   3   9  -4    4.10    0.57
  -3   9   4    4.03    0.55
   2  -9  -4    1.26    0.25
  -2  -9   4    1.23    0.30
   2   9  -4    1.40    0.30
   2   9  -4    0.90    0.32
   2   9  -4    1.26    0.49
   2   9  -4    2.37    0.36
   2   9  -4    1.07    0.26
   2   9  -4    1.31    0.23
  -2   9   4    1.04    0.28
  -1  -9   4   20.76    3.06
   1  -9  -4   26.55    2.96
   1   9  -4   24.01    3.17
   1   9  -4   27.83    3.00
   1   9  -4   26.23    2.94
   1   9  -4   27.89    3.01
   1   9  -4   27.30    3.00
   1   9  -4   25.54    2.99
   0  -9   4    1.21    0.42
   0  -9  -4    1.17    0.24
   0   9  -4    1.75    0.33
   0   9  -4    1.07    0.28
   0   9  -4    1.47    0.32
   0   9  -4    1.30    0.46
   0   9  -4    1.05    0.29
   0   9  -4    1.34    0.24
   1  -9   4   28.76    3.30
  -1  -9  -4   27.69    3.12
  -1   9  -4   28.23    3.17
  -1   9  -4   28.34    3.17
  -1   9  -4   23.12    3.15
  -2  -9  -4   20.95    3.06
  -2   9  -4   28.51    3.13
  -2   9  -4   33.37    3.16
  -3  -9  -4    0.57    0.29
  -3  -9  -4    0.29    0.15
  -3   9  -4    0.27    0.21
  -3   9  -4    0.37    0.20
  -3   9  -4    0.46    0.25
  -4  -9  -4    0.94    0.24
  -4  -9  -4    1.76    0.39
  -4   9  -4    0.88    0.27
  -4   9  -4    1.60    0.38
  -4   9  -4    1.92    0.32
  -4   9  -4    2.24    0.41
  -5  -9  -4    0.69    0.18
  -5  -9  -4    0.47    0.27
  -5   9  -4    0.16    0.24
  -5   9  -4    1.11    0.31
  -5   9  -4    0.76    0.24
  -5   9  -4    0.51    0.29
  -6  -9  -4   -0.02    0.21
  -6   9  -4    0.01    0.29
  -6   9  -4   -0.10    0.19
   9 -10  -4    0.62    0.19
  -9 -10   4    0.54    0.23
  -9  10   4    0.71    0.29
  -8 -10   4    2.17    0.45
   8 -10  -4    2.77    0.42
  -8  10   4    3.29    0.55
   7 -10  -4    0.06    0.16
  -7 -10   4    0.67    0.27
  -7  10   4    1.00    0.32
  -6 -10   4    0.29    0.22
   6 -10  -4    0.20    0.14
  -6  10   4    0.08    0.23
   6  10  -4   -0.12    0.22
   5 -10  -4    0.08    0.13
  -5 -10   4    0.21    0.19
   5  10  -4    0.25    0.21
   5  10  -4    0.21    0.20
  -5  10   4    0.10    0.18
   4 -10  -4    4.90    0.79
  -4 -10   4    4.27    0.84
  -4  10   4    7.80    0.91
   4  10  -4    7.80    0.87
   4  10  -4    7.08    0.84
   3 -10  -4    0.38    0.16
  -3 -10   4    0.34    0.21
   3  10  -4    0.46    0.16
   3  10  -4    0.44    0.25
  -3  10   4    0.81    0.26
   3  10  -4    0.91    0.24
   3  10  -4    0.72    0.48
   3  10  -4    0.26    0.18
   2 -10  -4    0.67    0.20
  -2 -10   4    0.64    0.24
   2  10  -4    1.31    0.30
  -2  10   4    1.04    0.29
   2  10  -4    0.83    0.35
   2  10  -4    1.17    0.28
   2  10  -4    1.28    0.29
   2  10  -4    1.32    0.22
  -1 -10   4    0.97    0.29
   1 -10  -4    0.59    0.19
   1  10  -4    0.84    0.23
   1  10  -4    0.98    0.26
   1  10  -4    1.29    0.21
   1  10  -4    1.10    0.30
  -1  10   4    0.12    0.50
   0 -10  -4    1.32    0.25
   0  10  -4    1.59    0.33
   0  10  -4    1.14    0.30
   0  10  -4    1.61    0.33
   0  10  -4    1.85    0.26
   0  10  -4    0.64    0.26
  -1 -10  -4   -0.01    0.13
  -1  10  -4    0.14    0.20
  -1  10  -4    0.15    0.14
  -1  10  -4    0.07    0.17
  -1  10  -4   -0.12    0.18
  -1  10  -4    0.04    0.17
  -2 -10  -4    0.66    0.19
  -2  10  -4    0.67    0.26
  -2  10  -4    0.89    0.26
  -2  10  -4    0.68    0.25
  -2  10  -4    0.76    0.26
  -2  10  -4    0.76    0.21
  -3 -10  -4    0.04    0.12
  -3  10  -4    0.47    0.22
  -3  10  -4    0.27    0.19
  -3  10  -4    0.05    0.19
  -3  10  -4    0.29    0.23
  -4 -10  -4    6.15    0.80
  -4 -10  -4    5.49    0.88
  -4  10  -4    5.95    0.88
  -4  10  -4    7.16    0.92
  -4  10  -4    7.15    0.93
  -5 -10  -4    0.31    0.23
  -5 -10  -4    0.12    0.13
  -5  10  -4    0.05    0.17
  -5  10  -4    0.24    0.20
  -5  10  -4   -0.13    0.26
  -6  10  -4    0.09    0.21
   9 -11  -4   -0.02    0.12
  -9 -11   4   -0.06    0.18
   8 -11  -4    7.15    0.86
  -8 -11   4    6.79    0.91
  -8  11   4    6.50    0.94
  -7 -11   4   16.70    2.00
   7 -11  -4   15.95    1.94
  -7  11   4   17.44    2.04
  -6 -11   4   -0.04    0.22
   6 -11  -4    0.26    0.15
  -6  11   4    0.29    0.26
  -5 -11   4    0.36    0.22
   5 -11  -4    0.38    0.16
   5  11  -4    0.59    0.24
  -5  11   4    0.91    0.31
  -4 -11   4    5.21    0.93
   4  11  -4    7.37    0.88
   4  11  -4    6.65    0.92
  -4  11   4    6.98    0.95
  -3 -11   4    0.18    0.21
   3 -11  -4    0.26    0.16
  -3  11   4    0.98    0.30
   3  11  -4    0.38    0.20
   3  11  -4    1.09    0.26
   3  11  -4    0.81    0.17
   2 -11  -4    8.35    1.38
  -2 -11   4    9.54    1.44
  -2  11   4   10.76    1.44
   2  11  -4   14.69    1.47
   2  11  -4   15.60    1.49
   2  11  -4   13.11    1.38
   1 -11  -4    6.32    1.02
  -1 -11   4    7.07    1.06
   1  11  -4    8.53    1.07
   1  11  -4    6.88    1.08
   1  11  -4    9.37    0.99
   1  11  -4   12.20    1.14
   0 -11   4    0.10    0.20
   0 -11  -4   -0.05    0.11
   0  11  -4    0.06    0.13
   0  11  -4   -0.28    0.14
   0  11  -4    0.01    0.17
   0  11  -4   -0.37    0.17
   0  11  -4    0.20    0.19
  -1 -11  -4   12.48    1.48
  -1  11  -4   11.42    1.53
  -1  11  -4   13.10    1.54
  -2 -11  -4    2.34    0.40
  -2  11  -4    2.30    0.47
  -2  11  -4    3.26    0.48
  -2  11  -4    3.19    0.51
  -2  11  -4    2.28    0.46
  -3 -11  -4    0.36    0.16
  -3  11  -4    0.04    0.20
  -3  11  -4    0.10    0.20
  -3  11  -4    0.24    0.21
  -3  11  -4    0.21    0.24
  -4 -11  -4    3.02    0.41
  -4  11  -4    2.76    0.48
  -4  11  -4    2.93    0.50
  -4  11  -4    2.55    0.45
  -5  11  -4    6.18    0.74
  -5  11  -4    4.25    0.66
   8 -12  -4    0.50    0.15
  -8 -12   4    0.32    0.20
  -8  12   4    0.58    0.26
  -7 -12   4    0.42    0.22
   7 -12  -4    0.77    0.19
  -7  12   4    0.99    0.32
  -6 -12   4    7.21    0.92
   6 -12  -4    6.55    0.85
  -6  12   4    6.77    0.99
   5 -12  -4    3.86    0.49
  -5 -12   4    2.24    0.50
   5  12  -4    3.24    0.52
  -5  12   4    3.81    0.62
   4 -12  -4    0.17    0.14
  -4 -12   4    0.36    0.22
   4  12  -4    0.32    0.24
   4  12  -4    0.09    0.19
  -4  12   4    0.29    0.27
  -3 -12   4    2.04    0.43
   3 -12  -4    1.62    0.35
   3  12  -4    3.09    0.47
   3  12  -4    2.63    0.45
  -3  12   4    2.39    0.46
  -2 -12   4    0.47    0.23
   2 -12  -4    0.31    0.15
   2  12  -4    0.19    0.26
  -2  12   4    0.15    0.24
   2  12  -4    0.33    0.19
   2  12  -4    0.51    0.15
   2  12  -4    0.42    0.24
  -1 -12   4   -0.02    0.18
   1 -12  -4    0.25    0.13
   1  12  -4    0.07    0.17
   1  12  -4   -0.14    0.23
   1  12  -4    0.15    0.19
   0 -12  -4    4.98    0.91
   0 -12   4    8.93    1.00
   0  12  -4    8.57    1.02
   0  12  -4    8.28    0.98
   1 -12   4    1.67    0.34
  -1 -12  -4    0.65    0.22
  -1  12  -4    1.51    0.33
  -1  12  -4    0.67    0.27
  -1  12  -4    1.48    0.31
  -1  12  -4    1.48    0.34
   2 -12   4    0.59    0.24
  -2 -12  -4    0.50    0.17
  -2  12  -4    0.44    0.22
  -2  12  -4    0.62    0.25
  -2  12  -4    0.40    0.22
  -2  12  -4    0.36    0.23
  -3 -12  -4    4.62    0.61
   3 -12   4    3.73    0.64
  -3  12  -4    6.62    0.75
  -3  12  -4    3.27    0.62
  -3  12  -4    5.16    0.68
  -3  12  -4    5.59    0.74
   4 -12   4    0.87    0.25
  -4 -12  -4    0.75    0.17
  -4  12  -4    0.82    0.25
  -4  12  -4    0.36    0.22
  -4  12  -4    0.90    0.28
   7 -13  -4    1.76    0.27
  -7 -13   4    1.29    0.31
  -7  13   4    1.80    0.38
  -6 -13   4    0.39    0.21
   6 -13  -4    0.47    0.15
  -6  13   4    0.56    0.27
   5 -13  -4    3.51    0.46
  -5 -13   4    2.81    0.53
  -5  13   4    3.71    0.57
   5  13  -4    2.48    0.48
   4 -13  -4    2.45    0.37
  -4 -13   4    1.89    0.41
  -4  13   4    2.32    0.45
   4  13  -4    2.15    0.40
  -3 -13   4    2.53    0.51
   3 -13  -4    2.98    0.43
   3  13  -4    2.83    0.48
  -3  13   4    3.04    0.51
   3  13  -4    3.21    0.52
   2 -13  -4    2.42    0.41
  -2 -13   4    2.84    0.49
  -2  13   4    2.47    0.48
   2  13  -4    3.16    0.50
   2  13  -4    2.88    0.48
   2  13  -4    2.67    0.50
   1 -13  -4    3.59    0.54
  -1 -13   4    3.66    0.61
   1  13  -4    4.21    0.65
   1  13  -4    4.55    0.64
   1  13  -4    3.53    0.60
   0 -13  -4   -0.06    0.12
   0 -13   4    0.29    0.21
   0  13  -4    0.23    0.24
   0  13  -4    0.04    0.19
   0  13  -4   -0.04    0.16
   1 -13   4    0.87    0.27
  -1 -13  -4    0.91    0.20
  -1  13  -4    0.94    0.30
  -1  13  -4    0.93    0.27
  -1  13  -4    1.22    0.29
  -2 -13  -4    0.25    0.14
   2 -13   4    0.38    0.22
  -2  13  -4    0.18    0.19
  -2  13  -4    0.20    0.19
  -2  13  -4    0.39    0.23
  -3 -13  -4   -0.07    0.11
   3 -13   4   -0.07    0.20
  -3  13  -4    0.14    0.21
  -3  13  -4   -0.16    0.20
  -3  13  -4    0.05    0.20
  -3  13  -4    0.34    0.18
  -4 -13  -4    2.58    0.39
  -6 -14   4    4.33    0.58
   6 -14  -4    3.30    0.49
  -5 -14   4    1.76    0.34
   5 -14  -4    1.42    0.26
  -5  14   4    1.34    0.31
  -4 -14   4    0.36    0.20
   4 -14  -4    0.45    0.14
  -4  14   4    0.01    0.21
   4  14  -4    0.13    0.20
   3 -14  -4    0.01    0.12
  -3 -14   4   -0.06    0.18
  -3  14   4   -0.05    0.19
   3  14  -4   -0.06    0.19
   2 -14  -4    0.11    0.13
  -2 -14   4    0.06    0.19
   2  14  -4    0.17    0.21
   2  14  -4    0.38    0.18
  -1 -14   4    0.32    0.20
   1 -14  -4   -0.04    0.12
   1  14  -4   -0.12    0.17
   1  14  -4    0.04    0.18
   1  14  -4    0.17    0.26
   0 -14   4    1.88    0.40
   0 -14  -4    2.64    0.38
   0  14  -4    2.96    0.45
   0  14  -4    2.60    0.47
   0  14  -4    1.92    0.39
   1 -14   4    2.83    0.46
  -1 -14  -4    2.65    0.41
  -1  14  -4    2.83    0.46
  -1  14  -4    2.83    0.48
  -1  14  -4    2.78    0.48
   2 -14   4    1.45    0.31
  -2 -14  -4    1.32    0.24
  -2  14  -4    1.93    0.33
  -2  14  -4    1.61    0.34
  -2  14  -4    0.93    0.27
  -5 -15   4   -0.01    0.17
  -4 -15   4    1.50    0.33
   4 -15  -4    1.65    0.27
   4  15  -4    1.69    0.42
  -4  15   4    1.97    0.33
   3 -15  -4   -0.01    0.11
  -3 -15   4    0.20    0.17
  -3  15   4   -0.26    0.20
   3  15  -4   -0.07    0.17
   2 -15  -4    0.08    0.12
  -2 -15   4    0.12    0.17
   2  15  -4   -0.04    0.17
  -1 -15   4    0.84    0.24
   1 -15  -4    1.45    0.22
   1  15  -4    0.99    0.27
   1  15  -4    0.93    0.29
   0 -15  -4    0.01    0.12
   0 -15   4    0.04    0.17
   0  15  -4    0.04    0.25
   0  15  -4    0.16    0.20
   0  15  -4   -0.01    0.15
  -1 -15  -4   -0.03    0.11
  -1  15  -4   -0.10    0.15
  -1  15  -4   -0.04    0.21
 -12   0   5    0.10    0.14
 -11   0   5    0.00    0.15
 -10   0   5   -0.04    0.13
  10   0  -5   -0.33    0.22
   9   0  -5   -0.05    0.21
  -9   0   5    0.03    0.12
   8   0  -5   -0.23    0.32
  -8   0   5    0.21    0.13
   8   0  -5    0.04    0.19
   7   0  -5    0.03    0.16
   7   0  -5    0.10    0.22
   7   0  -5    0.14    0.19
   6   0  -5   -0.06    0.16
   6   0  -5   -0.25    0.18
   6   0  -5    0.11    0.17
   5   0  -5   -0.04    0.16
   5   0  -5   -0.05    0.11
   5   0  -5   -0.12    0.15
   5   0  -5   -0.11    0.11
   4   0  -5   -0.09    0.14
   4   0  -5    0.07    0.09
   3   0  -5   -0.02    0.06
   2   0  -5   -0.03    0.06
   1   0  -5    0.02    0.08
   0   0  -5    0.05    0.09
  -1   0  -5   -0.01    0.15
  -1   0  -5    0.34    0.16
  -1   0  -5    0.09    0.13
  -2   0  -5    0.00    0.16
  -2   0  -5    0.07    0.13
  -2   0  -5    0.02    0.13
  -3   0  -5   -0.10    0.13
  -3   0  -5    0.24    0.20
  -3   0  -5    0.13    0.19
  -4   0  -5    0.11    0.22
  -4   0  -5    0.07    0.16
  -5   0  -5   -0.06    0.23
  -5   0  -5    0.03    0.17
  -6   0  -5    0.17    0.18
  -6   0  -5    0.23    0.25
  -7   0  -5   -0.08    0.23
  -7   0  -5    0.09    0.17
 -12   1   5   -0.04    0.14
 -11  -1   5   10.04    1.23
 -11   1   5   10.30    1.24
 -10  -1   5   18.09    2.05
  10  -1  -5   20.08    2.13
 -10   1   5   13.44    2.04
  10   1  -5   19.66    2.12
  -9  -1   5    0.71    0.21
   9  -1  -5    1.42    0.36
  -9   1   5    0.55    0.21
   9   1  -5    1.50    0.36
   8  -1  -5    6.58    0.87
   8  -1  -5    7.15    0.99
  -8  -1   5    4.54    0.72
   8   1  -5    4.65    0.87
   8   1  -5    7.37    0.90
  -8   1   5    6.78    0.75
   7  -1  -5    9.44    1.16
   7  -1  -5    8.48    1.22
   7  -1  -5    8.52    1.12
  -7   1   5    9.41    1.08
   7   1  -5    9.97    1.18
   7   1  -5    8.49    1.17
   6  -1  -5    8.35    0.95
   6  -1  -5    6.89    0.94
   6  -1  -5    7.47    0.92
   6   1  -5    6.30    0.91
   6   1  -5    6.64    0.93
   6   1  -5    7.06    0.92
   5  -1  -5   74.77    8.57
   5  -1  -5   79.89    8.56
   5  -1  -5   75.20    8.56
   5  -1  -5   75.13    8.54
   5   1  -5   76.17    8.56
   5   1  -5   73.68    8.54
   5   1  -5   74.35    8.55
   5   1  -5   75.58    8.55
   4  -1  -5  135.82   15.14
   4  -1  -5  131.37   15.13
   4   1  -5  136.62   15.12
   4   1  -5  133.70   15.14
   3  -1  -5   35.50    4.01
   3   1  -5   34.99    4.02
   2  -1  -5   39.72    4.53
   2   1  -5   39.74    4.53
   1  -1  -5   27.92    3.21
   1   1  -5   27.79    3.21
   0  -1  -5   10.98    1.34
   0   1  -5   10.27    1.29
   0   1  -5   11.17    1.35
   0   1  -5   11.60    1.35
  -1  -1  -5    9.58    1.17
  -1  -1  -5   10.15    1.23
  -1  -1  -5   10.19    1.24
  -1  -1  -5    9.23    1.21
  -1   1  -5   10.14    1.18
  -1   1  -5   10.53    1.23
  -1   1  -5    8.03    1.19
  -1   1  -5   10.69    1.25
  -2  -1  -5    9.33    1.09
  -2  -1  -5    8.75    1.16
  -2  -1  -5    8.54    1.13
  -2  -1  -5    8.20    1.13
  -2   1  -5    9.98    1.10
  -2   1  -5    8.38    1.13
  -2   1  -5    9.61    1.18
  -3  -1  -5    6.43    0.78
  -3  -1  -5    6.56    0.85
  -3  -1  -5    6.09    0.83
  -3   1  -5    4.89    0.74
  -3   1  -5    4.85    0.80
  -3   1  -5    6.63    0.87
  -4  -1  -5    0.38    0.24
  -4  -1  -5    0.70    0.21
  -4   1  -5    0.30    0.24
  -4   1  -5    0.09    0.16
  -5  -1  -5    6.48    0.93
  -5  -1  -5    7.54    1.02
  -5   1  -5    7.50    1.03
  -6  -1  -5    2.21    0.37
  -6  -1  -5    1.22    0.41
  -6   1  -5    1.90    0.35
  -6   1  -5    1.77    0.41
  -7  -1  -5    1.69    0.33
  -7  -1  -5    1.88    0.40
  -7   1  -5    1.73    0.39
  -7   1  -5    1.62    0.32
 -12   2   5    0.07    0.21
 -11  -2   5    0.03    0.15
 -11   2   5    0.15    0.15
 -10  -2   5   10.03    1.20
 -10   2   5    8.78    1.21
  10   2  -5   11.16    1.30
   9  -2  -5    1.87    0.40
  -9  -2   5    1.53    0.30
   9   2  -5    2.75    0.47
  -9   2   5    1.50    0.32
   8  -2  -5    3.69    0.72
   8  -2  -5    2.28    0.52
  -8  -2   5    3.24    0.47
   8   2  -5    5.26    0.68
  -8   2   5    3.43    0.48
   8   2  -5    3.21    0.62
   7  -2  -5    0.28    0.21
   7  -2  -5    0.62    0.23
   7  -2  -5    0.41    0.31
   7   2  -5    0.70    0.26
   7   2  -5    0.86    0.30
  -7   2   5    0.88    0.19
   6  -2  -5   14.20    1.70
   6  -2  -5   13.93    1.72
   6  -2  -5   15.04    1.69
   6   2  -5   14.42    1.70
  -6   2   5   14.33    1.63
   6   2  -5   13.32    1.68
   6   2  -5   13.46    1.70
   5  -2  -5   24.48    2.66
   5  -2  -5   23.96    2.65
   5  -2  -5   21.49    2.64
   5   2  -5   21.13    2.58
   5   2  -5   23.59    2.64
   5   2  -5   21.16    2.63
   5   2  -5   22.78    2.64
   5   2  -5   23.37    2.65
   5   2  -5   23.01    2.63
   4  -2  -5    2.95    0.47
   4   2  -5    3.11    0.48
   4   2  -5    3.27    0.49
   4   2  -5    3.29    0.44
   4   2  -5    3.39    0.45
   4   2  -5    3.17    0.48
   3   2  -5  112.13   12.60
   3   2  -5  117.74   12.61
   3   2  -5  102.77   12.68
   2   2  -5    0.01    0.09
   1  -2  -5   18.12    2.18
   1   2  -5   19.31    2.19
   1   2  -5   18.36    2.17
   0  -2  -5   71.11    8.16
   0   2  -5   67.26    8.12
   0   2  -5   72.06    8.14
   0   2  -5   76.55    8.18
   0   2  -5   71.54    8.10
  -1  -2  -5    6.42    0.85
  -1  -2  -5    6.78    0.80
  -1  -2  -5    6.57    0.84
  -1   2  -5    6.89    0.80
  -1   2  -5    6.23    0.84
  -1   2  -5    5.41    0.83
  -1   2  -5    6.68    0.86
  -1   2  -5    6.41    0.84
  -2  -2  -5    0.19    0.18
  -2  -2  -5   -0.21    0.18
  -2  -2  -5    0.12    0.14
  -2  -2  -5   -0.06    0.13
  -2   2  -5    0.07    0.19
  -2   2  -5    0.07    0.15
  -2   2  -5    0.04    0.13
  -2   2  -5    0.07    0.16
  -3  -2  -5    7.58    1.00
  -3  -2  -5    6.52    0.98
  -3  -2  -5    7.64    0.92
  -3  -2  -5    8.42    0.94
  -3   2  -5    7.51    1.04
  -3   2  -5    7.38    0.93
  -3   2  -5    7.25    1.03
  -4  -2  -5    1.80    0.37
  -4  -2  -5    1.23    0.32
  -4  -2  -5    1.25    0.28
  -4   2  -5    0.99    0.25
  -4   2  -5    0.43    0.28
  -5  -2  -5    5.42    0.81
  -5  -2  -5    6.06    0.76
  -5   2  -5    4.38    0.72
  -5   2  -5    5.51    0.84
  -6  -2  -5    0.64    0.23
  -6   2  -5    0.53    0.26
  -6   2  -5    0.84    0.23
  -7  -2  -5    0.44    0.20
  -7   2  -5    0.52    0.25
  -7   2  -5    0.44    0.20
 -11  -3   5    6.38    0.84
 -11   3   5    6.85    0.89
 -10  -3   5    8.98    1.01
 -10   3   5    7.43    1.03
  10   3  -5    7.83    1.11
  -9  -3   5    1.11    0.23
   9  -3  -5    0.69    0.28
   9   3  -5    1.01    0.33
  -9   3   5    0.62    0.22
   8  -3  -5    5.34    0.92
   8  -3  -5    6.54    1.11
  -8   3   5    7.52    0.85
   8   3  -5    6.07    1.00
   8   3  -5    7.70    0.99
   7  -3  -5   10.78    1.43
   7  -3  -5   12.17    1.41
   7  -3  -5   12.35    1.54
   7   3  -5    9.89    1.47
  -7   3   5   12.21    1.38
   7   3  -5   12.73    1.48
   6  -3  -5    0.12    0.17
   6  -3  -5    0.18    0.17
   6  -3  -5    0.07    0.23
   6   3  -5    0.07    0.18
   6   3  -5    0.00    0.16
   6   3  -5   -0.12    0.21
   6   3  -5    0.05    0.14
  -6   3   5    0.05    0.10
   5  -3  -5   25.64    2.93
   5  -3  -5   27.18    2.93
   5  -3  -5   24.56    2.94
   5   3  -5   25.17    2.87
   5   3  -5   25.09    2.92
   5   3  -5   24.18    2.92
   5   3  -5   24.77    2.91
   5   3  -5   26.94    2.94
  -5   3   5   23.26    2.87
   5   3  -5   26.63    2.94
   4  -3  -5   57.22    6.26
   4   3  -5   54.43    6.21
   4   3  -5   55.11    6.25
   4   3  -5   53.30    6.25
   4   3  -5   57.88    6.27
   4   3  -5   54.09    6.25
   4   3  -5   52.83    6.26
   3  -3  -5    0.21    0.15
   3   3  -5    0.34    0.14
   3   3  -5    0.16    0.11
   3   3  -5    0.33    0.12
   3   3  -5    0.67    0.18
   3   3  -5    0.07    0.16
   2   3  -5   43.08    4.97
   2   3  -5   46.81    5.00
   2   3  -5   40.36    4.93
   1   3  -5    1.77    0.28
   1   3  -5    1.78    0.33
   1   3  -5    1.40    0.28
   1   3  -5    1.34    0.28
   0   3  -5   12.46    1.50
   0   3  -5   12.61    1.48
   0   3  -5   13.51    1.54
   0   3  -5   12.08    1.46
   0   3  -5   11.29    1.48
  -1  -3  -5   15.46    2.04
  -1  -3  -5   15.58    2.00
  -1  -3  -5   16.44    2.05
  -1  -3  -5   16.29    2.00
  -1   3  -5   17.53    2.05
  -1   3  -5   18.60    2.07
  -1   3  -5   18.16    2.03
  -1   3  -5   19.69    2.03
  -1   3  -5   19.23    2.11
  -2  -3  -5    7.81    1.01
  -2  -3  -5    7.60    0.95
  -2  -3  -5    7.46    1.00
  -2  -3  -5    7.74    0.93
  -2   3  -5    7.72    0.95
  -2   3  -5    7.24    0.97
  -2   3  -5    8.23    1.05
  -2   3  -5    7.57    0.98
  -3  -3  -5    0.07    0.16
  -3  -3  -5   -0.11    0.20
  -3  -3  -5    0.10    0.12
  -3  -3  -5    0.06    0.22
  -3   3  -5    0.17    0.15
  -3   3  -5   -0.26    0.18
  -3   3  -5    0.09    0.19
  -3   3  -5    0.14    0.21
  -4  -3  -5    4.29    0.53
  -4  -3  -5    4.93    0.68
  -4  -3  -5    4.30    0.57
  -4   3  -5    2.79    0.53
  -4   3  -5    2.76    0.59
  -4   3  -5    3.55    0.58
  -5  -3  -5    9.81    0.99
  -5  -3  -5    9.02    1.05
  -5   3  -5    6.10    0.96
  -5   3  -5    5.44    1.01
  -6  -3  -5    0.14    0.21
  -6   3  -5    0.34    0.24
  -6   3  -5    0.12    0.17
  -7  -3  -5    0.17    0.19
  -7   3  -5    0.05    0.21
  -7   3  -5    0.02    0.16
 -11  -4   5    0.47    0.19
 -11   4   5    0.45    0.19
 -10  -4   5    0.08    0.15
 -10   4   5    0.35    0.19
 -10   4   5    0.50    0.23
  -9  -4   5    0.68    0.19
   9   4  -5    0.66    0.31
  -9   4   5    0.34    0.18
   8  -4  -5    0.44    0.23
   8   4  -5    0.92    0.31
  -8   4   5    0.90    0.22
   7  -4  -5    0.36    0.19
   7  -4  -5    0.11    0.38
  -7   4   5    0.17    0.13
   7   4  -5    0.32    0.23
   7   4  -5    0.72    0.28
   6  -4  -5    0.72    0.31
   6  -4  -5    0.82    0.23
   6  -4  -5    0.62    0.20
  -6   4   5    0.40    0.15
   6   4  -5    0.52    0.23
   6   4  -5    0.38    0.19
   6   4  -5    0.38    0.23
   5  -4  -5    3.56    0.66
   5  -4  -5    4.07    0.57
   5  -4  -5    3.84    0.57
   5  -4  -5    4.10    0.59
  -5  -4   5    3.53    0.63
  -5   4   5    3.50    0.50
   5   4  -5    4.45    0.61
   5   4  -5    4.31    0.57
   5   4  -5    4.19    0.51
   5   4  -5    3.99    0.58
   5   4  -5    4.28    0.60
   5   4  -5    4.30    0.61
   4  -4  -5    0.18    0.16
   4  -4  -5    0.14    0.16
   4  -4  -5    0.35    0.23
   4  -4  -5    0.30    0.17
   4   4  -5    0.23    0.14
   4   4  -5    0.03    0.10
   4   4  -5    0.10    0.13
   4   4  -5    0.34    0.15
   4   4  -5    0.09    0.15
   4   4  -5    0.05    0.17
   4   4  -5    0.21    0.15
   3  -4  -5   42.29    4.76
   3   4  -5   40.86    4.75
   3   4  -5   40.19    4.72
   3   4  -5   44.91    4.82
   3   4  -5   40.21    4.75
   3   4  -5   41.96    4.77
   3   4  -5   41.32    4.75
   2  -4  -5  144.17   17.15
   2   4  -5  144.28   17.15
   2   4  -5  151.58   17.16
   2   4  -5  152.84   17.17
   2   4  -5  167.87   17.23
   2   4  -5  153.07   17.13
   1   4  -5    3.18    0.48
   1   4  -5    3.08    0.45
   1   4  -5    3.09    0.50
   1   4  -5    2.99    0.50
   1   4  -5    3.95    0.61
   1   4  -5    3.38    0.49
   1   4  -5    3.55    0.52
   0  -4  -5   30.09    3.65
   0   4  -5   33.24    3.68
   0   4  -5   34.30    3.67
   0   4  -5   30.19    3.67
   0   4  -5   34.24    3.70
   0   4  -5   26.08    3.67
   0   4  -5   32.68    3.71
   0   4  -5   36.52    3.77
  -1  -4  -5    0.86    0.20
  -1   4  -5    0.97    0.28
  -1   4  -5    1.05    0.26
  -1   4  -5    0.60    0.21
  -1   4  -5    0.96    0.21
  -1   4  -5    0.79    0.26
  -1   4  -5    1.16    0.24
  -2  -4  -5    7.52    0.92
  -2  -4  -5    7.52    0.99
  -2  -4  -5    7.58    0.93
  -2   4  -5    7.77    0.98
  -2   4  -5    8.77    1.01
  -2   4  -5    7.62    0.93
  -2   4  -5    6.95    1.03
  -2   4  -5    7.17    0.95
  -3  -4  -5   61.86    6.88
  -3  -4  -5   64.65    6.81
  -3  -4  -5   61.72    6.81
  -3   4  -5   50.28    6.90
  -3   4  -5   61.90    6.85
  -3   4  -5   62.96    6.89
  -4  -4  -5   38.67    4.37
  -4  -4  -5   37.56    4.35
  -4  -4  -5   39.73    4.43
  -4   4  -5   36.74    4.39
  -5  -4  -5    2.74    0.44
  -5  -4  -5    3.34    0.53
  -5   4  -5    2.30    0.40
  -5   4  -5    2.36    0.45
  -5   4  -5    1.88    0.45
  -6  -4  -5    6.80    0.84
  -6   4  -5    5.91    0.91
  -6   4  -5    6.14    0.84
  -7  -4  -5    0.49    0.30
  -7   4  -5    0.66    0.25
  -7   4  -5    0.51    0.20
 -11  -5   5   -0.15    0.16
  11  -5  -5    0.03    0.17
 -11   5   5   -0.11    0.17
 -10  -5   5    0.39    0.17
 -10   5   5    0.83    0.24
 -10   5   5    0.28    0.24
  -9  -5   5    2.07    0.36
  -9   5   5    2.39    0.40
   9   5  -5    2.97    0.50
   8   5  -5   47.83    5.50
  -8   5   5   47.46    5.43
   7  -5  -5   23.87    3.09
   7  -5  -5   23.05    2.96
  -7   5   5   27.35    2.92
   7   5  -5   24.22    3.02
   7   5  -5   27.44    2.99
  -6  -5   5    8.23    1.17
   6  -5  -5   10.59    1.17
   6  -5  -5    8.85    1.35
   6  -5  -5    9.26    1.18
   6  -5  -5   10.76    1.18
   6   5  -5    8.94    1.22
   6   5  -5    9.12    1.18
  -6   5   5    9.34    1.13
   6   5  -5   10.03    1.21
   5  -5  -5    0.09    0.14
   5  -5  -5   -0.15    0.15
  -5  -5   5    0.05    0.20
   5  -5  -5    0.99    0.21
   5   5  -5    0.05    0.15
   5   5  -5    0.30    0.17
   5   5  -5   -0.06    0.17
   5   5  -5    0.25    0.21
   5   5  -5   -0.10    0.14
   5   5  -5   -0.15    0.09
   4  -5  -5    3.62    0.48
   4  -5  -5    2.97    0.49
   4  -5  -5    2.70    0.47
  -4  -5   5    4.45    0.56
   4   5  -5    3.69    0.52
   4   5  -5    3.01    0.50
   4   5  -5    3.70    0.53
   4   5  -5    3.27    0.44
   4   5  -5    3.37    0.61
   4   5  -5    2.84    0.47
   4   5  -5    2.81    0.47
   3  -5  -5    0.06    0.12
   3  -5  -5   -0.10    0.14
   3   5  -5    0.14    0.12
   3   5  -5    0.15    0.18
   3   5  -5   -0.05    0.10
   3   5  -5    0.20    0.13
   3   5  -5    0.13    0.15
   3   5  -5    0.24    0.17
   3   5  -5    0.13    0.14
   2  -5  -5    7.54    0.90
   2  -5  -5    7.37    0.92
   2   5  -5    8.30    1.02
   2   5  -5    7.51    0.89
   2   5  -5    6.41    0.93
   2   5  -5    7.86    0.93
   2   5  -5    7.37    0.92
   2   5  -5    7.12    0.92
   2   5  -5    6.93    0.93
   1  -5  -5   69.72    8.13
   1  -5  -5   67.59    8.14
   1   5  -5   75.92    8.14
   1   5  -5   69.68    8.15
   1   5  -5   79.01    8.26
   1   5  -5   72.56    8.17
   1   5  -5   73.27    8.16
   1   5  -5   69.33    8.16
   1   5  -5   71.15    8.16
   0  -5  -5    0.20    0.11
   0   5  -5    0.02    0.17
   0   5  -5    0.22    0.16
   0   5  -5    0.00    0.12
   0   5  -5    0.04    0.13
   0   5  -5   -0.10    0.15
   0   5  -5    0.15    0.14
   0   5  -5    0.03    0.19
  -1  -5  -5   39.51    4.52
  -1   5  -5   39.64    4.64
  -1   5  -5   40.48    4.55
  -1   5  -5   40.02    4.57
  -1   5  -5   40.31    4.52
  -1   5  -5   39.38    4.57
  -1   5  -5   38.64    4.55
  -2  -5  -5    4.60    0.72
  -2  -5  -5    4.81    0.64
  -2   5  -5    5.41    0.75
  -2   5  -5    4.26    0.69
  -2   5  -5    5.26    0.71
  -2   5  -5    4.60    0.79
  -2   5  -5    4.09    0.63
  -2   5  -5    4.82    0.70
  -3  -5  -5   12.38    1.32
  -3  -5  -5   12.75    1.41
  -3  -5  -5   10.67    1.35
  -3   5  -5   10.64    1.39
  -3   5  -5    7.62    1.30
  -3   5  -5   11.12    1.36
  -3   5  -5   12.87    1.41
  -4  -5  -5    4.95    0.60
  -4  -5  -5    3.60    0.64
  -4  -5  -5    4.69    0.55
  -4   5  -5    3.01    0.54
  -4   5  -5    2.27    0.58
  -4   5  -5    4.78    0.64
  -5  -5  -5    2.31    0.47
  -5  -5  -5    1.85    0.39
  -5  -5  -5    2.19    0.36
  -5   5  -5    2.16    0.39
  -5   5  -5    2.67    0.49
  -6  -5  -5    0.67    0.23
  -6   5  -5    0.00    0.24
  -6   5  -5    0.92    0.23
  -7   5  -5    0.64    0.25
  11  -6  -5    0.35    0.18
 -11   6   5    0.33    0.19
 -10  -6   5    0.07    0.14
  10  -6  -5    0.35    0.19
 -10   6   5    0.15    0.18
 -10   6   5    0.27    0.26
   9  -6  -5    0.26    0.19
  -9  -6   5    0.26    0.15
  -9   6   5    0.04    0.21
  -9   6   5    0.10    0.17
  -8  -6   5    1.13    0.34
   8  -6  -5    1.69    0.33
  -8   6   5    1.54    0.29
   8   6  -5    1.23    0.38
   7  -6  -5   -0.14    0.15
  -7  -6   5    0.13    0.22
  -7   6   5    0.07    0.15
   7   6  -5    0.24    0.22
   7   6  -5    0.33    0.23
  -6  -6   5   16.68    2.16
   6  -6  -5   19.07    2.14
   6  -6  -5   18.53    2.17
   6   6  -5   18.24    2.16
   6   6  -5   19.90    2.19
   6   6  -5   17.21    2.22
   5  -6  -5   24.73    2.82
   5  -6  -5   24.38    2.83
   5  -6  -5   25.40    2.85
  -5  -6   5   24.21    2.85
   5   6  -5   24.13    2.84
   5   6  -5   24.40    2.88
   5   6  -5   24.48    2.85
   5   6  -5   21.91    2.84
   5   6  -5   25.63    2.79
   4  -6  -5    1.47    0.28
   4  -6  -5    0.72    0.23
  -4  -6   5    0.73    0.27
   4  -6  -5    0.97    0.23
   4   6  -5    1.56    0.31
   4   6  -5    0.82    0.26
   4   6  -5    1.35    0.39
   4   6  -5    1.14    0.21
   4   6  -5    0.89    0.24
   4   6  -5    1.06    0.25
   3  -6  -5   39.47    4.47
  -3  -6   5   38.72    4.50
   3  -6  -5   40.10    4.49
   3   6  -5   40.64    4.51
   3   6  -5   40.03    4.63
   3   6  -5   34.30    4.48
   3   6  -5   40.73    4.51
   3   6  -5   38.65    4.49
   3   6  -5   39.00    4.51
   3   6  -5   41.60    4.46
   2  -6  -5   44.99    5.05
   2  -6  -5   43.44    5.06
   2   6  -5   44.94    5.08
   2   6  -5   45.88    5.04
   2   6  -5   46.53    5.08
   2   6  -5   40.80    5.06
   2   6  -5   43.04    5.08
   2   6  -5   46.46    5.20
   2   6  -5   44.35    5.08
   1  -6  -5    1.55    0.26
   1   6  -5    1.68    0.40
   1   6  -5    1.20    0.28
   1   6  -5    1.42    0.30
   1   6  -5    1.41    0.29
   1   6  -5    1.61    0.26
   1   6  -5    1.31    0.27
   1   6  -5    1.25    0.31
   0  -6  -5   12.24    1.51
   0   6  -5   13.66    1.57
   0   6  -5   13.15    1.54
   0   6  -5   13.55    1.55
   0   6  -5   12.49    1.51
   0   6  -5   12.77    1.65
   0   6  -5   12.93    1.55
   0   6  -5   12.45    1.56
  -1  -6  -5   24.94    2.82
  -1   6  -5   24.54    2.86
  -1   6  -5   27.71    2.89
  -1   6  -5   24.24    2.83
  -1   6  -5   23.30    2.86
  -1   6  -5   22.90    2.95
  -1   6  -5   25.11    2.89
  -2  -6  -5    2.40    0.38
  -2  -6  -5    2.26    0.56
  -2   6  -5    2.30    0.45
  -2   6  -5    2.43    0.44
  -2   6  -5    2.55    0.42
  -2   6  -5    2.62    0.41
  -2   6  -5    2.38    0.47
  -2   6  -5    1.97    0.53
  -3  -6  -5   72.22    7.56
  -3  -6  -5   65.59    7.62
  -3   6  -5   62.73    7.59
  -3   6  -5   59.85    7.55
  -3   6  -5   67.71    7.61
  -3   6  -5   71.67    7.64
  -3   6  -5   67.79    7.59
  -4  -6  -5   16.76    2.03
  -4  -6  -5   16.46    1.94
  -4   6  -5   16.00    2.03
  -4   6  -5   15.88    1.95
  -4   6  -5   17.74    2.00
  -5  -6  -5    1.50    0.30
  -5  -6  -5    1.85    0.39
  -5   6  -5    1.63    0.33
  -5   6  -5    1.92    0.41
  -5   6  -5    1.90    0.39
  -6   6  -5    9.47    1.17
  -6   6  -5   10.76    1.25
  -6   6  -5    8.79    1.20
  11  -7  -5   -0.05    0.15
  10  -7  -5   -0.06    0.15
 -10   7   5    0.13    0.18
 -10   7   5    0.10    0.26
   9  -7  -5    1.04    0.26
  -9  -7   5    0.89    0.21
  -9   7   5    0.93    0.27
  -9   7   5    0.93    0.31
   8  -7  -5    4.43    0.70
  -8  -7   5    5.25    0.75
  -8   7   5    4.52    0.69
   8   7  -5    4.96    0.78
  -8   7   5    5.67    0.71
   7  -7  -5    8.46    1.36
  -7  -7   5   11.63    1.42
   7   7  -5   12.83    1.45
   7   7  -5   13.32    1.43
   6  -7  -5    4.28    0.65
  -6  -7   5    5.81    0.76
   6   7  -5    4.15    0.76
   6   7  -5    4.77    0.72
   6   7  -5    4.90    0.70
  -5  -7   5    1.84    0.36
   5  -7  -5    1.23    0.27
   5   7  -5    1.12    0.35
   5   7  -5    1.86    0.33
   5   7  -5    0.87    0.27
   5   7  -5    1.22    0.23
  -4  -7   5    3.65    0.53
   4  -7  -5    2.73    0.43
   4   7  -5    2.95    0.42
   4   7  -5    2.70    0.52
   4   7  -5    3.03    0.50
   4   7  -5    2.73    0.64
   4   7  -5    3.12    0.49
   4   7  -5    3.04    0.48
   3  -7  -5   -0.03    0.11
  -3  -7   5    0.01    0.15
   3   7  -5    0.22    0.14
   3   7  -5   -0.05    0.15
   3   7  -5   -0.03    0.19
   3   7  -5    0.11    0.14
   3   7  -5   -0.07    0.11
   3   7  -5   -0.03    0.26
   2  -7  -5    0.19    0.13
   2   7  -5    0.20    0.16
   2   7  -5    0.34    0.18
   2   7  -5    0.17    0.15
   2   7  -5    0.27    0.11
  -2   7   5    0.57    0.14
   2   7  -5    0.20    0.25
   2   7  -5    0.06    0.20
   1  -7  -5   21.75    2.64
   1   7  -5   24.16    2.69
   1   7  -5   22.77    2.80
   1   7  -5   23.11    2.68
   1   7  -5   20.75    2.67
   1   7  -5   23.38    2.67
   1   7  -5   23.61    2.64
   1   7  -5   24.29    2.68
   0  -7  -5    0.10    0.11
   0   7  -5   -0.11    0.16
   0   7  -5    0.12    0.14
   0   7  -5    0.21    0.15
   0   7  -5    0.03    0.17
   0   7  -5    0.47    0.26
   0   7  -5    0.17    0.22
   0   7  -5    0.17    0.19
  -1  -7  -5   15.87    1.83
  -1   7  -5   17.12    1.90
  -1   7  -5   16.63    1.83
  -1   7  -5   17.24    1.91
  -1   7  -5   12.84    1.85
  -1   7  -5   14.27    1.97
  -1   7  -5   15.69    1.87
  -1   7  -5   15.81    1.86
  -2  -7  -5    0.86    0.22
  -2   7  -5    0.68    0.24
  -2   7  -5    0.97    0.30
  -2   7  -5    0.62    0.21
  -2   7  -5    0.64    0.27
  -2   7  -5    0.71    0.27
  -3  -7  -5    0.82    0.21
  -3  -7  -5    0.64    0.32
  -3   7  -5    0.42    0.29
  -3   7  -5    1.02    0.26
  -3   7  -5    0.73    0.24
  -3   7  -5    1.06    0.30
  -3   7  -5    0.90    0.32
  -4  -7  -5    0.29    0.17
  -4  -7  -5    0.16    0.25
  -4   7  -5    0.77    0.25
  -4   7  -5   -0.09    0.26
  -4   7  -5    0.24    0.19
  -5  -7  -5    0.07    0.15
  -5  -7  -5   -0.05    0.21
  -5   7  -5    0.34    0.24
  -5   7  -5   -0.20    0.17
  -5   7  -5    0.03    0.22
  -6   7  -5    0.30    0.20
  -6   7  -5    0.58    0.25
  -6   7  -5    0.24    0.22
  10  -8  -5    1.30    0.24
 -10   8   5    1.24    0.33
 -10   8   5    0.43    0.27
  -9  -8   5    1.93    0.30
   9  -8  -5    0.98    0.29
  -9  -8   5    1.57    0.35
  -9   8   5    2.00    0.42
  -9   8   5    1.80    0.33
   8  -8  -5    2.02    0.38
  -8  -8   5    2.19    0.44
  -8   8   5    1.98    0.41
   7  -8  -5    0.78    0.22
  -7  -8   5    0.98    0.28
   7   8  -5    0.93    0.31
   7   8  -5    0.94    0.30
  -7   8   5    0.42    0.19
   6  -8  -5    7.72    1.09
  -6  -8   5   10.72    1.18
  -6   8   5    6.75    1.08
   6   8  -5   10.89    1.19
   6   8  -5   10.55    1.16
  -5  -8   5   22.71    2.58
   5  -8  -5   22.43    2.53
   5   8  -5   16.81    2.58
   5   8  -5   23.38    2.58
   5   8  -5   22.18    2.56
  -5   8   5   23.79    2.54
  -4  -8   5    8.01    1.04
   4  -8  -5    8.08    0.99
  -4   8   5    8.32    0.98
   4   8  -5    8.14    1.08
   4   8  -5    7.64    1.24
   4   8  -5    7.85    1.03
   4   8  -5    6.86    1.10
   4   8  -5    8.46    0.96
   4   8  -5    8.35    1.03
  -3  -8   5    9.47    1.14
   3  -8  -5    9.93    1.11
   3   8  -5    9.64    1.14
   3   8  -5    9.49    1.08
   3   8  -5    8.41    1.13
   3   8  -5    8.22    1.18
   3   8  -5    8.08    1.32
   3   8  -5    9.33    1.14
  -3   8   5    8.75    1.09
   2  -8  -5    6.35    0.74
   2   8  -5    4.50    0.81
   2   8  -5    4.95    0.97
   2   8  -5    7.06    0.84
   2   8  -5    6.09    0.77
   2   8  -5    6.07    0.72
   2   8  -5    5.68    0.81
   1  -8  -5    2.40    0.35
   1   8  -5    1.86    0.33
   1   8  -5    2.39    0.43
   1   8  -5    2.18    0.40
   1   8  -5    2.32    0.56
   1   8  -5    1.94    0.38
   1   8  -5    1.93    0.39
   0  -8  -5   45.19    4.81
   0   8  -5   46.05    4.80
   0   8  -5   43.05    4.85
   0   8  -5   33.88    4.84
   0   8  -5   39.07    4.97
   0   8  -5   46.48    4.85
  -1  -8  -5   33.71    3.98
  -1   8  -5   34.38    4.01
  -1   8  -5   34.36    4.03
  -1   8  -5   34.88    4.02
  -1   8  -5   36.21    3.98
  -2  -8  -5    5.97    0.93
  -2   8  -5    8.43    1.00
  -2   8  -5    8.24    0.95
  -2   8  -5    7.62    1.03
  -2   8  -5    8.81    1.07
  -2   8  -5    5.65    0.99
  -3  -8  -5   42.64    4.89
  -3   8  -5   44.07    4.97
  -3   8  -5   43.63    4.90
  -3   8  -5   41.98    4.96
  -3   8  -5   42.36    4.94
  -4  -8  -5    0.01    0.14
  -4  -8  -5   -0.04    0.24
  -4   8  -5    0.20    0.21
  -4   8  -5   -0.19    0.20
  -4   8  -5   -0.06    0.27
  -4   8  -5   -0.02    0.23
  -4   8  -5    0.15    0.19
  -5  -8  -5    0.90    0.32
  -5  -8  -5    1.85    0.28
  -5   8  -5    1.24    0.32
  -5   8  -5    0.97    0.33
  -5   8  -5    1.51    0.28
  -6   8  -5    6.70    1.11
  10  -9  -5    0.09    0.13
  -9  -9   5    0.69    0.27
   9  -9  -5    0.99    0.23
  -9   9   5    1.21    0.35
  -8  -9   5    4.07    0.65
   8  -9  -5    4.34    0.62
  -8   9   5    4.21    0.68
   7  -9  -5    7.37    1.17
  -7  -9   5   11.41    1.26
   7   9  -5   11.18    1.25
   7   9  -5   11.85    1.28
  -7   9   5    7.94    1.21
   6  -9  -5    8.91    1.19
   6   9  -5   12.73    1.27
  -6   9   5    8.63    1.20
  -5  -9   5    9.44    1.17
   5   9  -5   10.12    1.14
  -5   9   5    6.38    1.08
   5   9  -5   10.74    1.16
  -4  -9   5    1.05    0.29
   4  -9  -5    0.85    0.22
   4   9  -5    0.82    0.19
   4   9  -5    1.05    0.28
  -4   9   5    0.67    0.21
   4   9  -5    0.92    0.38
   4   9  -5    0.88    0.31
   4   9  -5    1.28    0.29
   3  -9  -5    0.09    0.14
  -3  -9   5    0.25    0.21
   3   9  -5    0.10    0.30
  -3   9   5    0.20    0.17
   3   9  -5    0.21    0.17
   3   9  -5   -0.08    0.11
   3   9  -5    0.41    0.22
   3   9  -5    0.10    0.38
   3   9  -5    0.22    0.16
   2  -9  -5    0.09    0.14
  -2  -9   5   -0.01    0.15
   2   9  -5   -0.16    0.14
   2   9  -5   -0.10    0.11
   2   9  -5   -0.08    0.18
   2   9  -5   -0.25    0.31
   2   9  -5   -0.04    0.13
   1  -9  -5    0.43    0.15
   1   9  -5    0.15    0.17
   1   9  -5   -0.11    0.11
   1   9  -5   -0.15    0.16
   1   9  -5   -0.21    0.15
   1   9  -5    0.13    0.20
   0  -9  -5    0.15    0.14
   0   9  -5    0.17    0.15
   0   9  -5   -0.11    0.17
   0   9  -5    0.17    0.19
   0   9  -5   -0.01    0.17
   0   9  -5    0.07    0.19
  -1  -9  -5    0.10    0.14
  -1   9  -5   -0.11    0.14
  -1   9  -5    0.15    0.20
  -1   9  -5   -0.05    0.19
  -1   9  -5    0.19    0.21
  -1   9  -5    0.15    0.18
  -2  -9  -5   17.83    2.64
  -2   9  -5   25.93    2.75
  -2   9  -5   23.94    2.65
  -2   9  -5   25.46    2.71
  -3  -9  -5    6.73    0.86
  -3   9  -5    7.04    0.98
  -3   9  -5    7.26    0.90
  -3   9  -5    6.60    0.95
  -3   9  -5    6.68    0.92
  -3   9  -5    6.63    0.96
  -4  -9  -5   -0.06    0.13
  -4   9  -5   -0.15    0.26
  -4   9  -5   -0.01    0.19
  -4   9  -5    0.26    0.21
  -4   9  -5    0.22    0.27
  -4   9  -5    0.20    0.22
  -5  -9  -5    0.77    0.20
  -5   9  -5    1.26    0.35
  -5   9  -5    0.82    0.27
  -9 -10   5    2.53    0.46
   9 -10  -5    3.01    0.42
  -9  10   5    3.48    0.54
  -8 -10   5    6.16    0.92
   8 -10  -5    6.74    0.84
  -8  10   5    7.09    0.96
  -7 -10   5    0.81    0.28
   7 -10  -5    1.00    0.23
  -7  10   5    0.87    0.30
   7  10  -5    0.97    0.33
  -6 -10   5   11.69    1.29
   6 -10  -5    7.30    1.19
  -6  10   5    8.01    1.27
   6  10  -5   12.01    1.27
   6  10  -5   11.86    1.31
   5 -10  -5    0.47    0.18
  -5 -10   5    0.64    0.25
   5  10  -5    0.80    0.26
  -5  10   5    0.55    0.25
   5  10  -5    0.50    0.22
   4 -10  -5    1.37    0.30
  -4 -10   5    1.19    0.35
   4  10  -5    2.23    0.29
   4  10  -5    0.59    0.28
  -4  10   5    2.14    0.37
   4  10  -5    2.68    0.42
   3 -10  -5    1.76    0.38
  -3 -10   5    1.24    0.40
  -3  10   5    3.33    0.48
   3  10  -5    2.99    0.46
   3  10  -5    3.63    0.40
   3  10  -5    3.68    0.53
   3  10  -5    2.21    0.44
   2 -10  -5    6.47    0.83
  -2 -10   5    7.13    0.95
   2  10  -5    6.33    0.87
   2  10  -5    6.25    0.90
   1 -10  -5    1.33    0.29
  -1 -10   5    1.78    0.38
   1  10  -5    1.34    0.33
   1  10  -5    1.22    0.33
   1  10  -5    2.21    0.31
   1  10  -5    2.35    0.41
   0 -10  -5   21.03    2.51
   0  10  -5   20.82    2.56
   0  10  -5   23.09    2.58
   0  10  -5   21.43    2.58
  -1 -10  -5   20.87    2.86
  -1  10  -5   30.93    2.87
  -1  10  -5   21.63    2.92
  -1  10  -5   28.90    2.94
  -1  10  -5   21.71    2.91
  -2 -10  -5    6.05    0.95
  -2  10  -5    7.47    1.01
  -2  10  -5    5.65    1.00
  -2  10  -5    9.30    1.12
  -2  10  -5    8.21    1.01
  -2  10  -5    9.32    0.96
  -3 -10  -5    1.12    0.23
  -3  10  -5    1.10    0.31
  -3  10  -5    0.88    0.24
  -3  10  -5    1.13    0.35
  -3  10  -5    1.00    0.29
  -4 -10  -5    8.73    1.03
  -4  10  -5    8.43    1.10
  -4  10  -5    8.94    1.10
  -4  10  -5    7.88    1.08
  -5 -10  -5    1.13    0.22
  -5  10  -5    2.09    0.34
   9 -11  -5    0.44    0.16
  -9  11   5    0.36    0.37
   8 -11  -5    8.21    0.96
  -8 -11   5    7.60    1.01
  -8  11   5    7.34    1.04
   7 -11  -5    1.24    0.25
  -7 -11   5    0.86    0.29
  -7  11   5    1.41    0.38
   6 -11  -5    0.39    0.16
  -6 -11   5    0.28    0.24
   6  11  -5    0.47    0.24
  -6  11   5    0.35    0.27
   5 -11  -5    1.77    0.37
  -5 -11   5    3.82    0.56
  -5  11   5    3.18    0.51
   5  11  -5    2.28    0.46
  -4 -11   5    1.06    0.33
   4 -11  -5    0.93    0.24
   4  11  -5    1.27    0.30
  -4  11   5    1.54    0.35
   4  11  -5    1.53    0.33
  -3 -11   5    0.81    0.27
   3 -11  -5    0.72    0.22
   3  11  -5    0.93    0.32
   3  11  -5    0.83    0.19
   3  11  -5    1.25    0.29
  -3  11   5    0.76    0.30
   3  11  -5    0.66    0.23
  -2 -11   5    0.93    0.31
   2 -11  -5    1.14    0.24
   2  11  -5    1.39    0.24
   2  11  -5    0.81    0.27
   2  11  -5    1.37    0.34
   2  11  -5    1.33    0.35
  -1 -11   5    0.88    0.26
   1 -11  -5    0.72    0.21
   1  11  -5    0.54    0.23
   1  11  -5    0.51    0.23
   1  11  -5    1.64    0.36
   1  11  -5    0.88    0.20
   0 -11   5    0.06    0.19
   0 -11  -5   -0.03    0.13
   0  11  -5    0.12    0.19
   0  11  -5   -0.32    0.15
   0  11  -5   -0.13    0.19
   0  11  -5   -0.23    0.14
  -1 -11  -5    1.58    0.36
  -1  11  -5    2.60    0.50
  -1  11  -5    3.21    0.48
  -1  11  -5    3.58    0.52
  -1  11  -5    2.96    0.49
  -1  11  -5    2.51    0.38
  -2 -11  -5    1.10    0.24
  -2  11  -5    1.29    0.31
  -2  11  -5    0.90    0.29
  -2  11  -5    0.78    0.28
  -2  11  -5    0.73    0.29
  -3 -11  -5    0.29    0.15
  -3  11  -5    0.38    0.21
  -3  11  -5    0.36    0.22
  -3  11  -5    0.53    0.26
  -4 -11  -5    0.58    0.16
  -4  11  -5    0.37    0.27
  -4  11  -5    0.71    0.24
  -4  11  -5    0.64    0.22
   8 -12  -5    2.25    0.35
  -8  12   5    2.80    0.45
   7 -12  -5    2.64    0.40
  -7 -12   5    2.45    0.45
  -7  12   5    3.65    0.56
  -6 -12   5    3.88    0.61
   6 -12  -5    3.42    0.50
   6  12  -5    3.61    0.57
  -6  12   5    3.25    0.59
   5 -12  -5   -0.04    0.13
  -5 -12   5    0.32    0.20
  -5  12   5    0.37    0.26
   5  12  -5    0.16    0.23
   5  12  -5    0.03    0.21
   4 -12  -5   -0.14    0.13
  -4 -12   5   -0.17    0.17
   4  12  -5   -0.11    0.17
  -4  12   5   -0.19    0.21
   4  12  -5    0.21    0.19
  -3 -12   5    2.44    0.50
   3 -12  -5    2.30    0.43
   3  12  -5    2.41    0.48
   3  12  -5    3.60    0.57
   3  12  -5    4.37    0.58
  -3  12   5    3.51    0.54
  -2 -12   5    2.33    0.56
   2 -12  -5    3.77    0.55
   2  12  -5    4.06    0.52
   2  12  -5    3.26    0.58
   2  12  -5    5.46    0.67
   2  12  -5    5.45    0.68
  -1 -12   5    0.19    0.20
   1 -12  -5    0.09    0.13
   1  12  -5    0.20    0.19
   1  12  -5    0.20    0.20
   1  12  -5    0.01    0.12
   1  12  -5   -0.07    0.23
   0 -12  -5   20.56    2.60
   0 -12   5   24.06    2.67
   0  12  -5   25.02    2.66
   0  12  -5   20.10    2.59
   0  12  -5   25.73    2.70
   0  12  -5   21.66    2.66
  -1 -12  -5    0.22    0.14
   1 -12   5   -0.18    0.18
  -1  12  -5   -0.08    0.21
  -1  12  -5    0.29    0.21
  -1  12  -5    0.09    0.18
  -2 -12  -5    1.59    0.28
   2 -12   5    1.54    0.34
  -2  12  -5    1.15    0.29
  -2  12  -5    1.62    0.36
  -2  12  -5    1.49    0.32
  -3 -12  -5    2.23    0.34
   3 -12   5    2.20    0.40
  -3  12  -5    2.60    0.45
  -3  12  -5    2.77    0.43
  -3  12  -5    2.14    0.40
   7 -13  -5    2.85    0.42
  -7 -13   5    3.10    0.48
  -7  13   5    3.44    0.52
   6 -13  -5    0.33    0.14
  -6 -13   5    0.31    0.19
  -6  13   5    0.32    0.25
  -5 -13   5    0.44    0.21
   5 -13  -5    0.58    0.17
   5  13  -5    0.49    0.22
  -5  13   5    0.48    0.26
   4 -13  -5    2.87    0.41
  -4 -13   5    3.04    0.51
   4  13  -5    2.78    0.47
  -4  13   5    2.20    0.45
   4  13  -5    2.74    0.46
   3 -13  -5    1.51    0.28
  -3 -13   5    1.74    0.37
   3  13  -5    1.64    0.36
   3  13  -5    1.72    0.35
  -3  13   5    0.50    0.43
  -2 -13   5    0.15    0.19
   2 -13  -5    0.36    0.15
   2  13  -5    0.78    0.24
   2  13  -5    0.20    0.22
   2  13  -5    0.27    0.29
  -1 -13   5    0.97    0.29
   1 -13  -5    0.83    0.21
   1  13  -5    1.57    0.33
   1  13  -5    1.01    0.27
   1  13  -5    0.92    0.28
   0 -13   5    0.24    0.21
   0 -13  -5    0.31    0.16
   0  13  -5    0.14    0.20
   0  13  -5    0.27    0.25
   0  13  -5    0.29    0.20
   1 -13   5    1.08    0.30
  -1 -13  -5    1.18    0.24
  -1  13  -5    0.97    0.27
  -1  13  -5    1.54    0.35
  -1  13  -5    1.25    0.31
   2 -13   5    3.84    0.61
  -2 -13  -5    4.73    0.56
  -2  13  -5    3.43    0.60
  -2  13  -5    4.76    0.65
  -2  13  -5    4.56    0.65
   6 -14  -5    0.31    0.14
  -6 -14   5    0.41    0.19
  -6  14   5    0.38    0.21
  -5 -14   5   -0.15    0.18
   5 -14  -5    0.68    0.15
   5  14  -5    0.39    0.23
  -5  14   5    0.79    0.23
  -4 -14   5    0.68    0.22
   4 -14  -5    0.56    0.16
  -4  14   5    0.47    0.23
   4  14  -5    0.47    0.22
   3 -14  -5    4.29    0.54
  -3 -14   5    3.57    0.59
   3  14  -5    4.07    0.61
   3  14  -5    4.08    0.59
  -2 -14   5    0.17    0.18
   2 -14  -5    0.05    0.13
   2  14  -5    0.22    0.21
   2  14  -5    0.17    0.33
   2  14  -5    0.13    0.19
   1 -14  -5    0.40    0.15
  -1 -14   5    0.27    0.20
   1  14  -5    0.31    0.22
   1  14  -5    0.42    0.19
   1  14  -5    0.54    0.27
   0 -14  -5   -0.08    0.11
   0 -14   5    0.12    0.18
   0  14  -5    0.29    0.24
   0  14  -5    0.06    0.17
   0  14  -5    0.05    0.17
   1 -14   5    0.38    0.19
  -1 -14  -5    0.06    0.11
  -1  14  -5   -0.18    0.21
  -1  14  -5   -0.02    0.18
  -1  14  -5   -0.13    0.18
  -4 -15   5    0.87    0.24
   3 -15  -5   -0.01    0.10
  -3 -15   5    0.13    0.15
   3  15  -5    0.06    0.16
   2 -15  -5    0.63    0.16
  -2 -15   5    0.54    0.20
   2  15  -5    0.61    0.21
  -1 -15   5    0.43    0.20
   1 -15  -5    0.65    0.15
   1  15  -5    0.57    0.19
 -12   0   6   17.06    1.98
 -11   0   6   12.39    1.48
 -10   0   6    0.51    0.18
  10   0  -6    1.10    0.30
  -9   0   6    7.07    0.94
   9   0  -6    8.50    1.06
   8   0  -6    0.93    0.30
  -8   0   6    0.88    0.20
   8   0  -6    0.47    0.27
   7   0  -6   38.71    4.33
   7   0  -6   35.96    4.29
   6   0  -6  111.65   12.73
   6   0  -6  113.54   12.75
   5   0  -6   81.38    8.90
   5   0  -6   76.60    8.88
   5   0  -6   77.78    8.91
   4   0  -6  101.27   11.88
   4   0  -6  107.30   11.87
   4   0  -6  107.26   11.89
   3   0  -6   63.50    6.77
   3   0  -6   60.09    6.76
   3   0  -6   54.82    6.76
   3   0  -6   59.10    6.77
   2   0  -6  117.71   12.79
   2   0  -6  112.21   12.78
   2   0  -6  108.92   12.78
   1   0  -6    5.62    0.75
   1   0  -6    5.13    0.70
   1   0  -6    4.88    0.66
   1   0  -6    5.21    0.73
   0   0  -6    0.40    0.19
   0   0  -6    0.48    0.22
   0   0  -6    0.28    0.15
   0   0  -6    0.28    0.19
  -1   0  -6    2.33    0.45
  -1   0  -6    2.62    0.51
  -1   0  -6    2.67    0.41
  -2   0  -6    4.74    0.67
  -2   0  -6    4.03    0.57
  -2   0  -6    3.60    0.69
  -3   0  -6   59.29    6.95
  -3   0  -6   63.38    7.03
  -4   0  -6    0.01    0.17
  -4   0  -6   -0.04    0.24
  -5   0  -6    4.46    0.62
  -5   0  -6    3.82    0.67
  -6   0  -6    1.21    0.34
  -6   0  -6    1.47    0.30
 -12  -1   6    0.97    0.22
 -12   1   6    0.82    0.21
 -11  -1   6    0.49    0.17
  11   1  -6    0.29    0.25
 -11   1   6    0.29    0.17
 -10  -1   6    0.70    0.19
  10  -1  -6    0.64    0.28
  10   1  -6    0.95    0.32
 -10   1   6    0.73    0.21
  -9  -1   6    0.04    0.12
   9  -1  -6   -0.08    0.21
  -9   1   6    0.02    0.13
   9   1  -6   -0.02    0.22
   8  -1  -6    0.28    0.23
   8  -1  -6    0.78    0.26
  -8   1   6    1.02    0.21
   8   1  -6    0.73    0.29
   7  -1  -6    2.43    0.45
   7  -1  -6    2.84    0.49
   7   1  -6    2.37    0.47
   7   1  -6    2.15    0.45
  -7   1   6    2.41    0.36
   6  -1  -6    0.44    0.22
   6  -1  -6    0.38    0.21
   6   1  -6    0.33    0.21
   6   1  -6    0.45    0.21
   6   1  -6    0.45    0.16
   5  -1  -6    0.36    0.16
   5  -1  -6    0.06    0.16
   5  -1  -6    0.10    0.16
   5   1  -6   -0.01    0.16
   5   1  -6    0.10    0.12
   5   1  -6    0.41    0.12
   5   1  -6    0.13    0.17
   4  -1  -6   35.60    4.04
   4  -1  -6   34.70    4.06
   4  -1  -6   37.12    4.07
   4   1  -6   36.39    4.07
   4   1  -6   34.77    4.06
   4   1  -6   32.47    4.00
   4   1  -6   37.50    4.05
   4   1  -6   35.34    4.07
   3  -1  -6    3.60    0.49
   3  -1  -6    3.35    0.50
   3  -1  -6    3.01    0.45
   3   1  -6    3.27    0.46
   3   1  -6    3.11    0.47
   3   1  -6    2.83    0.42
   3   1  -6    3.02    0.48
   3   1  -6    2.85    0.47
   3   1  -6    3.58    0.49
   2  -1  -6    1.85    0.33
   2  -1  -6    1.44    0.31
   2  -1  -6    1.27    0.29
   2   1  -6    1.30    0.26
   2   1  -6    1.45    0.31
   2   1  -6    1.71    0.32
   2   1  -6    1.80    0.32
   1  -1  -6    4.65    0.65
   1  -1  -6    4.80    0.68
   1  -1  -6    4.16    0.60
   1  -1  -6    4.64    0.66
   1   1  -6    4.30    0.61
   1   1  -6    4.58    0.65
   1   1  -6    5.01    0.69
   1   1  -6    5.74    0.71
   0  -1  -6    0.96    0.27
   0  -1  -6    0.91    0.26
   0  -1  -6    0.72    0.27
   0  -1  -6    0.63    0.20
   0   1  -6    0.76    0.24
   0   1  -6    0.69    0.27
   0   1  -6    1.02    0.26
   0   1  -6    1.17    0.23
  -1  -1  -6    0.18    0.18
  -1  -1  -6    0.51    0.23
  -1  -1  -6    0.57    0.24
  -1   1  -6    0.54    0.19
  -1   1  -6    0.42    0.23
  -1   1  -6    0.68    0.24
  -2  -1  -6    2.09    0.34
  -2  -1  -6    1.77    0.40
  -2   1  -6    2.11    0.35
  -2   1  -6    1.74    0.40
  -2   1  -6    1.59    0.43
  -3  -1  -6    0.05    0.17
  -3  -1  -6    0.24    0.25
  -3   1  -6   -0.29    0.22
  -3   1  -6   -0.03    0.16
  -4  -1  -6    2.02    0.41
  -4  -1  -6    1.14    0.28
  -4   1  -6    1.07    0.35
  -4   1  -6    0.80    0.25
  -5  -1  -6   10.09    1.29
  -5  -1  -6    9.87    1.36
  -5   1  -6    9.98    1.29
  -5   1  -6   12.65    1.41
  -6  -1  -6    0.00    0.29
  -6  -1  -6    0.11    0.18
  -6   1  -6    0.14    0.24
  -6   1  -6    0.57    0.20
 -12   2   6    3.23    0.52
 -11  -2   6    2.25    0.37
  11   2  -6    2.20    0.44
 -11   2   6    2.64    0.42
  10  -2  -6   10.47    1.27
 -10  -2   6    8.40    1.16
  10   2  -6   11.14    1.28
 -10   2   6    9.47    1.19
  -9  -2   6   15.64    1.79
   9  -2  -6   12.42    1.86
  -9   2   6   17.23    1.81
   8  -2  -6    0.12    0.18
   8  -2  -6    0.18    0.21
  -8   2   6   -0.15    0.11
   8   2  -6    0.11    0.20
   7  -2  -6    4.66    0.62
   7  -2  -6    3.99    0.62
   7   2  -6    3.66    0.61
  -7   2   6    3.14    0.50
   7   2  -6    4.03    0.60
   6  -2  -6   69.00    7.77
   6  -2  -6   69.24    7.78
   6   2  -6   66.62    7.74
   6   2  -6   67.97    7.76
   6   2  -6   68.92    7.78
   5  -2  -6    1.47    0.33
   5  -2  -6    1.78    0.32
   5  -2  -6    1.43    0.28
   5   2  -6    1.47    0.24
   5   2  -6    1.18    0.29
   5   2  -6    1.31    0.30
   5   2  -6    1.22    0.29
   5   2  -6    1.80    0.30
   4  -2  -6    7.82    0.96
   4  -2  -6    7.36    0.94
   4  -2  -6    7.96    0.96
   4   2  -6    7.57    0.90
   4   2  -6    6.91    0.94
   4   2  -6    7.58    0.96
   4   2  -6    7.99    0.96
   4   2  -6    7.36    0.95
   3  -2  -6   69.18    7.73
   3  -2  -6   67.86    7.72
   3   2  -6   65.08    7.72
   3   2  -6   66.88    7.72
   3   2  -6   64.89    7.68
   3   2  -6   70.63    7.73
   3   2  -6   70.51    7.74
   3   2  -6   70.43    7.75
   2  -2  -6    8.33    1.02
   2  -2  -6    7.76    1.01
   2   2  -6    8.84    1.04
   2   2  -6    7.50    1.01
   2   2  -6    7.95    1.01
   2   2  -6    8.08    0.98
   2   2  -6    8.39    1.04
   2   2  -6    8.00    1.02
   1  -2  -6    6.75    0.85
   1  -2  -6    6.14    0.86
   1   2  -6    7.02    0.88
   1   2  -6    7.27    0.89
   1   2  -6    6.93    0.82
   1   2  -6    5.25    0.84
   1   2  -6    7.15    0.88
   0  -2  -6    3.04    0.50
   0   2  -6    2.65    0.49
   0   2  -6    3.15    0.46
   0   2  -6    3.34    0.56
   0   2  -6    3.08    0.48
   0   2  -6    2.94    0.51
  -1  -2  -6    3.00    0.41
  -1  -2  -6    2.57    0.46
  -1   2  -6    2.12    0.38
  -1   2  -6    2.94    0.49
  -1   2  -6    2.17    0.44
  -1   2  -6    2.18    0.48
  -2  -2  -6    0.07    0.17
  -2  -2  -6    0.05    0.21
  -2   2  -6    0.26    0.22
  -2   2  -6   -0.09    0.22
  -2   2  -6    0.07    0.15
  -3  -2  -6   16.89    1.70
  -3   2  -6   11.78    1.59
  -3   2  -6   12.24    1.68
  -4  -2  -6    2.84    0.43
  -4  -2  -6    3.52    0.53
  -4   2  -6    2.51    0.51
  -4   2  -6    1.46    0.36
  -5  -2  -6   -0.32    0.31
  -5  -2  -6    0.67    0.23
  -5   2  -6    0.36    0.26
  -5   2  -6    0.56    0.21
  -6  -2  -6    1.02    0.25
  -6   2  -6    1.12    0.25
  -6   2  -6    0.62    0.30
 -11  -3   6    0.71    0.21
  11  -3  -6    1.30    0.27
 -11   3   6    0.87    0.23
 -10  -3   6    4.24    0.62
 -10   3   6    5.30    0.66
  10   3  -6    4.13    0.70
   9  -3  -6    1.49    0.38
  -9  -3   6    1.12    0.26
   9   3  -6    2.03    0.43
  -9   3   6    2.36    0.35
   8  -3  -6    0.48    0.22
   8  -3  -6    0.10    0.20
  -8   3   6    0.24    0.16
   8   3  -6    0.64    0.26
   7  -3  -6    0.12    0.18
   7  -3  -6    0.14    0.19
   7   3  -6    0.01    0.18
  -7   3   6   -0.03    0.12
   6  -3  -6    2.53    0.37
   6  -3  -6    2.41    0.41
   6  -3  -6    1.92    0.39
   6   3  -6    2.09    0.39
   6   3  -6    1.97    0.35
  -6   3   6    2.13    0.32
   6   3  -6    1.57    0.37
   6   3  -6    2.15    0.43
   5  -3  -6   11.30    1.40
   5  -3  -6   12.95    1.42
   5  -3  -6   12.30    1.38
   5   3  -6   12.21    1.40
   5   3  -6   10.58    1.37
   5   3  -6   10.71    1.40
   5   3  -6   10.18    1.40
   5   3  -6   11.90    1.34
   4  -3  -6   47.64    5.60
   4  -3  -6   45.71    5.61
   4  -3  -6   50.38    5.62
   4   3  -6   50.11    5.62
   4   3  -6   51.80    5.62
   4   3  -6   50.46    5.63
   4   3  -6   48.89    5.61
   4   3  -6   48.54    5.63
   4   3  -6   50.78    5.57
   3  -3  -6    0.00    0.15
   3  -3  -6    0.18    0.16
   3   3  -6    0.30    0.18
   3   3  -6    0.41    0.18
   3   3  -6    0.21    0.14
   3   3  -6    0.09    0.15
   3   3  -6    0.54    0.17
   3   3  -6    0.12    0.11
   2  -3  -6    6.28    0.83
   2  -3  -6    6.26    0.83
   2   3  -6    6.11    0.82
   2   3  -6    5.71    0.82
   2   3  -6    6.73    0.85
   2   3  -6    6.50    0.85
   2   3  -6    7.40    0.79
   2   3  -6    6.63    0.86
   1  -3  -6    0.23    0.19
   1  -3  -6   -0.27    0.17
   1   3  -6    0.26    0.18
   1   3  -6    0.47    0.21
   1   3  -6    0.45    0.18
   1   3  -6    0.44    0.16
   1   3  -6    0.20    0.19
   1   3  -6    0.43    0.21
   1   3  -6    0.58    0.20
   0  -3  -6    9.46    1.21
   0   3  -6    9.74    1.22
   0   3  -6   10.30    1.24
   0   3  -6   10.51    1.18
   0   3  -6    9.47    1.25
   0   3  -6    9.32    1.20
  -1  -3  -6    1.18    0.32
  -1   3  -6    1.43    0.28
  -1   3  -6    1.26    0.31
  -1   3  -6    1.17    0.33
  -1   3  -6    1.53    0.34
  -1   3  -6    1.33    0.36
  -2  -3  -6    0.67    0.22
  -2  -3  -6    0.46    0.29
  -2   3  -6    0.48    0.20
  -2   3  -6    0.89    0.27
  -2   3  -6    0.63    0.27
  -3  -3  -6    1.20    0.29
  -3   3  -6    0.62    0.23
  -3   3  -6    1.24    0.36
  -4   3  -6    9.38    1.37
  -4   3  -6   10.49    1.24
  -5  -3  -6   19.23    2.19
  -5   3  -6   18.50    2.27
  -5   3  -6   18.11    2.18
  -6  -3  -6    0.32    0.20
  -6   3  -6    0.06    0.22
  -6   3  -6    0.23    0.19
  11  -4  -6    0.14    0.20
 -11  -4   6    0.01    0.14
 -11   4   6    0.11    0.15
  10  -4  -6    6.93    0.95
 -10  -4   6    6.94    0.89
 -10   4   6    8.05    0.93
  10   4  -6    6.87    1.00
  -9  -4   6    9.21    1.15
   9  -4  -6   12.29    1.23
   9  -4  -6    8.41    1.24
   8  -4  -6   22.54    2.69
  -8   4   6   23.16    2.68
   8   4  -6   23.63    2.77
   7  -4  -6    6.31    0.82
   7  -4  -6    6.92    0.82
   7  -4  -6    5.64    0.86
   7   4  -6    5.53    0.86
  -7   4   6    5.69    0.75
   6  -4  -6    3.04    0.52
   6  -4  -6    3.63    0.57
   6  -4  -6    4.83    0.62
   6   4  -6    4.36    0.62
   6   4  -6    3.07    0.55
  -6   4   6    3.40    0.49
   6   4  -6    3.54    0.57
   5  -4  -6    0.85    0.21
   5  -4  -6    0.63    0.22
   5  -4  -6    0.76    0.21
   5   4  -6    0.37    0.21
   5   4  -6    0.67    0.20
   5   4  -6    0.53    0.20
   5   4  -6    0.52    0.20
   5   4  -6    0.44    0.14
   4  -4  -6    0.26    0.16
   4  -4  -6    0.05    0.18
   4  -4  -6   -0.09    0.15
   4  -4  -6    0.07    0.15
   4   4  -6    0.21    0.17
   4   4  -6    0.38    0.20
   4   4  -6    0.23    0.16
   4   4  -6   -0.03    0.11
   4   4  -6    0.31    0.17
   4   4  -6    0.02    0.14
   3  -4  -6    2.25    0.37
   3  -4  -6    2.12    0.40
   3  -4  -6    1.91    0.40
   3   4  -6    3.05    0.39
   3   4  -6    2.30    0.42
   3   4  -6    3.04    0.44
   3   4  -6    2.91    0.49
   3   4  -6    3.12    0.46
   3   4  -6    2.75    0.43
   2  -4  -6    9.67    1.19
   2  -4  -6    8.99    1.15
   2  -4  -6    8.54    1.18
   2   4  -6   10.51    1.25
   2   4  -6    9.71    1.18
   2   4  -6   10.24    1.22
   2   4  -6    9.63    1.20
   2   4  -6    9.57    1.18
   2   4  -6    9.87    1.15
   1  -4  -6    6.13    0.84
   1  -4  -6    6.29    0.90
   1   4  -6    7.94    0.92
   1   4  -6    7.83    0.86
   1   4  -6    6.62    0.89
   1   4  -6    6.51    0.88
   1   4  -6    7.11    0.89
   1   4  -6    7.03    0.95
   1   4  -6    7.28    0.92
   0  -4  -6   31.57    3.96
   0   4  -6   35.31    4.09
   0   4  -6   35.20    4.00
   0   4  -6   32.94    3.99
   0   4  -6   37.44    3.98
   0   4  -6   37.20    4.04
   0   4  -6   35.33    4.02
  -1  -4  -6    0.65    0.18
  -1   4  -6    0.83    0.29
  -1   4  -6    0.31    0.25
  -1   4  -6    0.50    0.20
  -1   4  -6    0.74    0.31
  -1   4  -6    0.82    0.25
  -2  -4  -6    8.41    1.08
  -2  -4  -6    8.11    0.99
  -2   4  -6    6.55    1.02
  -2   4  -6    8.53    1.05
  -2   4  -6    9.46    1.11
  -2   4  -6    7.90    1.12
  -3  -4  -6   -0.43    0.21
  -3  -4  -6    0.21    0.16
  -3   4  -6   -0.14    0.21
  -3   4  -6    0.06    0.15
  -3   4  -6   -0.09    0.23
  -4  -4  -6    7.59    0.78
  -4   4  -6    3.82    0.70
  -4   4  -6    5.55    0.84
  -5  -4  -6    0.49    0.24
  -5   4  -6    0.50    0.26
  -5   4  -6    0.68    0.22
  -6   4  -6    1.20    0.30
  -6   4  -6    0.75    0.23
  11  -5  -6    0.16    0.18
 -11  -5   6   -0.05    0.14
 -11   5   6    0.05    0.16
 -10  -5   6    1.66    0.28
  10  -5  -6    1.95    0.34
 -10   5   6    1.11    0.30
  10   5  -6    0.89    0.40
 -10   5   6    1.36    0.31
  -9  -5   6    0.64    0.16
   9  -5  -6    0.39    0.22
  -9   5   6    0.65    0.22
   9   5  -6    0.76    0.32
   8  -5  -6    5.27    0.70
   8  -5  -6    3.36    0.68
   8   5  -6    5.30    0.78
  -8   5   6    6.01    0.69
   7  -5  -6    3.79    0.63
   7  -5  -6    4.39    0.60
   7   5  -6    4.73    0.68
  -7   5   6    3.62    0.56
   6  -5  -6    0.21    0.18
   6  -5  -6    0.29    0.19
   6  -5  -6    0.55    0.20
   6   5  -6    0.07    0.20
   6   5  -6    0.16    0.18
   6   5  -6    0.28    0.24
   5  -5  -6    4.79    0.74
   5  -5  -6    6.09    0.78
  -5  -5   6    4.93    0.74
   5  -5  -6    5.55    0.72
   5   5  -6    5.20    0.66
   5   5  -6    4.99    0.76
   5   5  -6    5.43    0.72
   5   5  -6    5.08    0.75
   5   5  -6    5.92    0.77
  -4  -5   6   30.00    3.86
   4  -5  -6   31.98    3.84
   4  -5  -6   32.74    3.87
   4   5  -6   36.02    3.83
   4   5  -6   35.94    3.90
   4   5  -6   32.86    3.86
   4   5  -6   35.11    3.89
   4   5  -6   34.11    3.94
   4   5  -6   34.69    3.88
   3  -5  -6    1.00    0.25
   3  -5  -6    0.72    0.22
   3   5  -6    1.20    0.27
   3   5  -6    0.89    0.25
   3   5  -6    0.76    0.27
   3   5  -6    1.51    0.30
   3   5  -6    1.30    0.22
   3   5  -6    1.18    0.31
   2  -5  -6    5.67    0.73
   2  -5  -6    5.51    0.76
   2   5  -6    5.84    0.73
   2   5  -6    5.81    0.84
   2   5  -6    6.15    0.76
   2   5  -6    6.37    0.78
   2   5  -6    5.72    0.81
   2   5  -6    5.34    0.79
   1  -5  -6   24.36    3.07
   1   5  -6   26.79    3.14
   1   5  -6   28.68    3.13
   1   5  -6   27.31    3.21
   1   5  -6   28.47    3.12
   1   5  -6   26.07    3.13
   1   5  -6   25.10    3.11
   1   5  -6   28.81    3.09
   0  -5  -6    8.85    1.08
   0   5  -6    8.96    1.12
   0   5  -6    8.60    1.21
   0   5  -6    9.15    1.14
   0   5  -6    7.90    1.17
   0   5  -6    9.32    1.09
   0   5  -6    9.63    1.13
  -1  -5  -6   10.80    1.38
  -1   5  -6   14.51    1.51
  -1   5  -6   12.40    1.44
  -1   5  -6   11.97    1.46
  -1   5  -6   10.72    1.52
  -1   5  -6   11.12    1.43
  -2  -5  -6   30.19    3.36
  -2   5  -6   29.98    3.43
  -2   5  -6   26.23    3.43
  -2   5  -6   30.26    3.41
  -3  -5  -6    0.46    0.18
  -3  -5  -6    0.39    0.26
  -3   5  -6    0.11    0.17
  -3   5  -6    0.59    0.25
  -3   5  -6    0.25    0.23
  -4  -5  -6    9.47    1.06
  -4   5  -6    8.85    1.08
  -4   5  -6    7.08    1.17
  -4   5  -6    8.56    1.13
  -5   5  -6    8.56    1.02
  -5   5  -6    7.61    1.10
  -6   5  -6    0.58    0.27
  -6   5  -6    1.01    0.30
  11  -6  -6   -0.21    0.16
 -11   6   6    0.01    0.19
 -10  -6   6    1.63    0.28
  10  -6  -6    1.65    0.32
 -10   6   6    1.48    0.31
 -10   6   6    1.22    0.34
  -9  -6   6    1.50    0.26
   9  -6  -6    1.83    0.34
   9   6  -6    1.67    0.40
  -9   6   6    1.13    0.29
   8  -6  -6   12.05    1.44
   8   6  -6   12.29    1.51
  -8   6   6   11.26    1.42
   7  -6  -6    1.36    0.31
   7   6  -6    1.59    0.38
   7   6  -6    1.85    0.38
   6  -6  -6    8.52    1.06
  -6  -6   6    7.86    1.13
   6  -6  -6    8.47    1.10
   6   6  -6    9.04    1.13
   6   6  -6    9.16    1.12
   5  -6  -6    3.03    0.52
   5  -6  -6    3.28    0.50
   5  -6  -6    3.40    0.54
  -5  -6   6    3.55    0.57
   5   6  -6    3.08    0.47
   5   6  -6    3.73    0.53
   5   6  -6    3.55    0.56
   5   6  -6    3.76    0.59
   5   6  -6    3.77    0.57
   4  -6  -6    0.14    0.17
  -4  -6   6    0.55    0.23
   4  -6  -6    0.63    0.19
   4   6  -6    0.45    0.20
   4   6  -6    0.87    0.18
   4   6  -6    0.86    0.23
   4   6  -6    0.70    0.21
   4   6  -6    0.83    0.32
   4   6  -6    0.62    0.23
   3  -6  -6    3.21    0.45
   3  -6  -6    2.79    0.47
   3   6  -6    3.51    0.52
   3   6  -6    3.04    0.60
   3   6  -6    2.70    0.48
   3   6  -6    2.83    0.42
   3   6  -6    2.99    0.52
   3   6  -6    3.19    0.49
   2  -6  -6    2.03    0.41
   2  -6  -6    3.05    0.42
   2   6  -6    2.32    0.42
   2   6  -6    2.86    0.42
   2   6  -6    2.46    0.44
   2   6  -6    2.65    0.46
   2   6  -6    3.33    0.60
   2   6  -6    2.61    0.46
   1  -6  -6    9.37    1.16
   1   6  -6    9.22    1.29
   1   6  -6    9.22    1.21
   1   6  -6    9.62    1.20
   1   6  -6   10.28    1.23
   1   6  -6    9.84    1.20
   1   6  -6    9.09    1.15
   1   6  -6   10.33    1.20
   0  -6  -6   25.57    2.92
   0   6  -6   27.60    3.00
   0   6  -6   26.33    2.99
   0   6  -6   26.72    2.97
   0   6  -6   23.83    3.07
   0   6  -6   27.20    2.98
   0   6  -6   22.15    2.92
   0   6  -6   24.93    2.96
  -1  -6  -6   10.05    1.27
  -1   6  -6   10.78    1.32
  -1   6  -6    7.12    1.27
  -1   6  -6   11.47    1.33
  -1   6  -6   11.98    1.36
  -1   6  -6   12.76    1.37
  -2  -6  -6    5.75    0.71
  -2   6  -6    6.20    0.82
  -2   6  -6    3.25    0.68
  -2   6  -6    5.82    0.83
  -2   6  -6    4.97    0.78
  -2   6  -6    6.23    0.81
  -3  -6  -6    5.78    0.75
  -3   6  -6    5.28    0.85
  -3   6  -6    4.88    0.80
  -3   6  -6    6.29    0.79
  -3   6  -6    5.75    0.90
  -4  -6  -6    1.17    0.24
  -4   6  -6    1.06    0.33
  -4   6  -6    1.08    0.25
  -4   6  -6    1.11    0.31
  -5   6  -6    0.18    0.17
  -5   6  -6   -0.03    0.23
  10  -7  -6    4.92    0.72
 -10   7   6    6.05    0.79
 -10   7   6    5.54    0.74
   9  -7  -6    2.22    0.39
  -9  -7   6    1.92    0.31
  -9   7   6    1.68    0.38
   9   7  -6    2.21    0.44
   8  -7  -6    4.97    0.74
   8   7  -6    5.83    0.84
   7  -7  -6    0.25    0.18
  -7  -7   6    0.03    0.23
   7   7  -6    0.07    0.22
   7   7  -6    0.28    0.23
   6  -7  -6   27.48    2.98
  -6  -7   6   23.26    3.00
   6   7  -6   26.47    3.02
   6   7  -6   25.83    3.03
  -5  -7   6    6.46    0.86
   5  -7  -6    5.71    0.77
   5   7  -6    5.24    0.83
   5   7  -6    5.77    0.84
   5   7  -6    5.70    0.82
   4  -7  -6   16.96    1.92
  -4  -7   6   15.81    1.97
   4  -7  -6   16.75    1.94
   4   7  -6   17.06    1.97
   4   7  -6   15.61    1.95
   4   7  -6   15.30    2.08
   4   7  -6   17.25    1.99
   3  -7  -6   12.58    1.45
  -3  -7   6   11.68    1.46
   3  -7  -6   12.01    1.43
   3   7  -6   10.91    1.58
   3   7  -6   13.67    1.51
   3   7  -6   11.49    1.46
   3   7  -6   12.05    1.46
   2  -7  -6   29.96    3.16
   2  -7  -6   26.10    3.16
   2   7  -6   24.53    3.30
   2   7  -6   29.40    3.22
   2   7  -6   29.63    3.21
   2   7  -6   29.76    3.20
   2   7  -6   25.40    3.18
   2   7  -6   26.43    3.14
   1  -7  -6   28.35    2.97
   1   7  -6   25.92    2.96
   1   7  -6   29.25    3.02
   1   7  -6   22.90    3.11
   1   7  -6   29.11    3.02
   1   7  -6   19.92    3.00
   1   7  -6   25.49    3.01
   1   7  -6   26.16    3.01
   0  -7  -6    0.04    0.14
   0   7  -6    0.32    0.25
   0   7  -6    0.05    0.16
   0   7  -6   -0.23    0.21
   0   7  -6    0.54    0.22
   0   7  -6    0.31    0.22
   0   7  -6    0.37    0.20
  -1  -7  -6   69.91    7.49
  -1   7  -6   66.37    7.56
  -1   7  -6   70.64    7.57
  -1   7  -6   59.62    7.52
  -1   7  -6   64.10    7.53
  -2  -7  -6  101.15   11.21
  -2   7  -6   93.08   11.21
  -2   7  -6  103.26   11.29
  -2   7  -6  104.75   11.29
  -2   7  -6   98.42   11.26
  -2   7  -6   95.92   11.25
  -3  -7  -6    1.80    0.31
  -3   7  -6    2.03    0.45
  -3   7  -6    2.06    0.44
  -3   7  -6    1.03    0.29
  -3   7  -6    1.89    0.39
  -4  -7  -6    6.48    0.88
  -4   7  -6    6.90    0.99
  -4   7  -6    7.54    0.91
  -4   7  -6    8.13    1.02
  -5   7  -6    4.59    0.62
  -5   7  -6    3.79    0.66
  -5   7  -6    6.10    0.73
  10  -8  -6    0.14    0.15
 -10   8   6    0.34    0.27
   9  -8  -6    0.23    0.18
  -9  -8   6    0.30    0.13
  -9   8   6    0.36    0.27
   8  -8  -6    0.09    0.16
  -8  -8   6    0.32    0.23
   8   8  -6    0.06    0.25
  -8   8   6    0.00    0.18
   7  -8  -6   -0.07    0.14
  -7  -8   6   -0.09    0.23
  -7   8   6    0.28    0.16
   7   8  -6   -0.04    0.22
   7   8  -6   -0.01    0.22
  -6  -8   6    0.35    0.24
   6  -8  -6    0.40    0.17
   6   8  -6    0.25    0.21
   6   8  -6    0.28    0.22
   5  -8  -6    0.78    0.21
  -5  -8   6    0.58    0.29
   5   8  -6    0.57    0.15
   5   8  -6    0.75    0.33
   5   8  -6    0.41    0.21
   5   8  -6    0.39    0.21
   4  -8  -6    0.45    0.18
  -4  -8   6    0.12    0.20
   4   8  -6    0.26    0.18
   4   8  -6    0.15    0.12
  -4   8   6    0.38    0.14
   4   8  -6    0.10    0.17
   4   8  -6   -0.02    0.23
   3  -8  -6    0.44    0.17
  -3  -8   6    0.35    0.20
   3   8  -6    0.15    0.14
   3   8  -6    0.28    0.22
  -3   8   6    0.02    0.14
   3   8  -6    0.13    0.15
   3   8  -6    0.19    0.56
   3   8  -6    0.11    0.17
   2  -8  -6    1.08    0.23
   2   8  -6    0.81    0.25
   2   8  -6    1.02    0.21
   2   8  -6    0.96    0.27
   2   8  -6    0.54    0.25
   1  -8  -6    0.22    0.15
   1   8  -6    0.26    0.19
   1   8  -6   -0.03    0.14
   1   8  -6   -0.10    0.19
   1   8  -6   -0.05    0.15
   0  -8  -6    6.67    0.82
   0   8  -6    4.00    0.82
   0   8  -6    6.97    0.85
   0   8  -6    6.07    0.88
   0   8  -6    6.55    0.87
  -1  -8  -6   -0.03    0.15
  -1   8  -6    0.25    0.27
  -1   8  -6   -0.16    0.14
  -1   8  -6    0.20    0.21
  -1   8  -6    0.14    0.24
  -1   8  -6    0.36    0.22
  -2  -8  -6    0.66    0.20
  -2   8  -6    0.29    0.25
  -2   8  -6    0.66    0.29
  -2   8  -6   -0.03    0.26
  -2   8  -6    0.23    0.22
  -2   8  -6    0.46    0.21
  -3  -8  -6    2.43    0.37
  -3   8  -6    2.06    0.46
  -3   8  -6    2.41    0.48
  -3   8  -6    1.93    0.38
  -3   8  -6    2.09    0.43
  -4  -8  -6    1.22    0.22
  -4   8  -6    0.41    0.28
  -4   8  -6    0.27    0.20
  -4   8  -6    0.97    0.28
  -5   8  -6   -0.32    0.32
  10  -9  -6    1.80    0.29
  -9  -9   6    0.01    0.14
   9  -9  -6    0.08    0.15
  -9   9   6    0.35    0.27
   8  -9  -6    2.38    0.37
  -8  -9   6    1.87    0.39
   8   9  -6    1.53    0.54
  -8   9   6    2.52    0.45
  -7  -9   6    7.13    1.08
   7  -9  -6    8.35    0.99
   7   9  -6    7.54    1.06
   7   9  -6    8.30    1.07
   6  -9  -6    0.48    0.20
  -6  -9   6    0.66    0.26
   6   9  -6    1.04    0.29
  -6   9   6    0.82    0.24
   6   9  -6    0.88    0.28
   5  -9  -6    0.41    0.18
  -5  -9   6    0.19    0.24
  -5   9   6    0.29    0.17
   5   9  -6    0.22    0.19
   5   9  -6    0.16    0.12
   5   9  -6    0.40    0.20
   4  -9  -6   13.92    1.34
   4   9  -6   10.04    1.35
   4   9  -6    9.23    1.33
   4   9  -6   14.61    1.43
   4   9  -6    8.31    1.27
  -4   9   6   11.93    1.32
   3  -9  -6    0.36    0.19
  -3  -9   6    1.06    0.30
   3   9  -6    0.63    0.17
   3   9  -6    0.06    0.18
  -3   9   6    0.25    0.21
   3   9  -6    0.26    0.19
   3   9  -6    0.60    0.28
   2  -9  -6   12.49    1.33
   2   9  -6   11.43    1.36
   2   9  -6    9.74    1.29
   2   9  -6    8.63    1.35
   2   9  -6   13.43    1.41
   1  -9  -6   44.13    4.04
   1   9  -6   30.44    4.07
   1   9  -6   35.14    4.01
   1   9  -6   31.46    4.06
   0  -9  -6    0.37    0.18
   0   9  -6    0.19    0.22
   0   9  -6    0.15    0.22
   0   9  -6    1.01    0.26
   0   9  -6    0.20    0.16
   0   9  -6    0.45    0.22
  -1  -9  -6   32.14    3.53
  -1   9  -6   29.08    3.59
  -1   9  -6   29.65    3.63
  -1   9  -6   30.87    3.52
  -1   9  -6   30.77    3.57
  -2  -9  -6   24.20    2.70
  -2   9  -6   25.85    2.78
  -2   9  -6   22.04    2.73
  -2   9  -6   24.79    2.75
  -2   9  -6   23.25    2.69
  -2   9  -6   19.95    2.74
  -3  -9  -6    0.16    0.16
  -3   9  -6    0.04    0.27
  -3   9  -6    0.32    0.23
  -3   9  -6    0.24    0.21
  -3   9  -6    0.09    0.17
  -3   9  -6    0.10    0.27
  -4  -9  -6    4.33    0.57
  -4   9  -6    4.59    0.59
  -4   9  -6    4.83    0.67
  -4   9  -6    3.80    0.64
   9 -10  -6    0.51    0.17
  -9  10   6    0.86    0.29
  -8 -10   6    2.83    0.50
   8 -10  -6    3.23    0.47
  -8  10   6    3.89    0.60
  -7 -10   6    0.35    0.22
   7 -10  -6    0.32    0.17
   7  10  -6    0.32    0.25
  -7  10   6    0.02    0.23
   7  10  -6    0.26    0.23
   6 -10  -6    2.85    0.45
  -6 -10   6    3.28    0.54
   6  10  -6    3.57    0.53
  -6  10   6    2.32    0.48
   6  10  -6    2.57    0.51
  -5 -10   6    1.54    0.38
   5 -10  -6    1.15    0.27
   5  10  -6    1.50    0.33
   5  10  -6    1.65    0.36
  -5  10   6    0.85    0.29
   4 -10  -6    0.16    0.16
  -4 -10   6    0.12    0.21
  -4  10   6    0.00    0.19
   4  10  -6    0.15    0.27
   4  10  -6    0.04    0.12
   4  10  -6    0.06    0.19
   4  10  -6    0.11    0.17
  -3 -10   6    0.47    0.25
   3 -10  -6    0.68    0.20
   3  10  -6    0.30    0.27
   3  10  -6    0.56    0.16
   3  10  -6    0.61    0.23
   3  10  -6    0.50    0.23
  -2 -10   6   -0.14    0.16
   2 -10  -6   -0.19    0.13
   2  10  -6   -0.03    0.17
   2  10  -6    0.18    0.19
   2  10  -6    0.02    0.21
   2  10  -6    0.00    0.12
  -1 -10   6    0.15    0.20
   1 -10  -6   -0.12    0.14
   1  10  -6    0.12    0.18
   1  10  -6   -0.01    0.16
   1  10  -6    0.29    0.20
   1  10  -6    0.20    0.15
   0 -10  -6    1.24    0.25
   0  10  -6    0.55    0.26
   0  10  -6    0.79    0.30
   0  10  -6    0.91    0.27
   0  10  -6    1.02    0.22
  -1 -10  -6    0.15    0.16
  -1  10  -6   -0.14    0.14
  -1  10  -6    0.01    0.20
  -1  10  -6    0.01    0.23
  -1  10  -6    0.03    0.19
  -1  10  -6    0.02    0.23
  -2 -10  -6    0.80    0.22
  -2  10  -6    1.06    0.29
  -2  10  -6    0.86    0.28
  -2  10  -6    1.45    0.36
  -2  10  -6    0.81    0.23
  -3 -10  -6    1.82    0.30
  -3  10  -6    2.00    0.37
  -3  10  -6    1.92    0.42
  -3  10  -6    2.24    0.40
  -3  10  -6    1.32    0.30
  -4 -10  -6   -0.06    0.13
  -8 -11   6    0.87    0.27
   8 -11  -6    1.12    0.23
  -8  11   6    0.96    0.31
   7 -11  -6    6.82    0.84
  -7 -11   6    6.26    0.93
  -7  11   6    7.19    0.96
   7  11  -6    6.57    0.92
  -6 -11   6    0.32    0.22
   6 -11  -6    0.34    0.15
   6  11  -6    0.09    0.20
   6  11  -6    0.09    0.21
  -6  11   6    0.13    0.24
   5 -11  -6    1.71    0.30
  -5 -11   6    1.07    0.33
   5  11  -6    1.57    0.35
  -5  11   6    1.34    0.34
   5  11  -6    1.53    0.35
   4 -11  -6    0.63    0.20
  -4 -11   6    0.34    0.22
   4  11  -6    0.90    0.33
   4  11  -6    0.28    0.21
   4  11  -6    0.51    0.22
  -4  11   6    0.21    0.24
  -3 -11   6    0.01    0.20
   3 -11  -6    0.52    0.17
   3  11  -6    0.21    0.27
   3  11  -6    0.28    0.14
   3  11  -6    0.33    0.22
   3  11  -6    0.20    0.18
   2 -11  -6    3.74    0.51
   2  11  -6    4.19    0.49
   2  11  -6    5.64    0.70
   2  11  -6    1.96    0.50
   2  11  -6    3.54    0.57
   1 -11  -6   24.84    2.68
   1  11  -6   24.81    2.65
   1  11  -6   24.60    2.75
   1  11  -6   24.64    2.73
   1  11  -6   17.38    2.70
   0 -11   6    8.88    1.16
   0 -11  -6    9.75    1.11
   0  11  -6    8.19    1.14
   0  11  -6    8.83    1.18
   0  11  -6    8.43    1.09
   0  11  -6    9.78    1.17
  -1 -11  -6    4.65    0.60
  -1  11  -6    5.17    0.72
  -1  11  -6    4.16    0.58
  -1  11  -6    3.26    0.61
  -1  11  -6    4.68    0.68
  -2 -11  -6   -0.04    0.13
  -2  11  -6    0.32    0.17
  -2  11  -6    0.42    0.19
  -2  11  -6    0.03    0.24
  -3 -11  -6    0.26    0.14
   8 -12  -6    0.82    0.19
  -8  12   6    1.04    0.27
   7 -12  -6    0.89    0.19
  -7 -12   6    0.64    0.25
  -7  12   6    0.90    0.30
   6 -12  -6    0.96    0.21
  -6 -12   6    0.69    0.25
  -6  12   6    0.58    0.28
   6  12  -6    0.96    0.30
   6  12  -6    0.86    0.27
   5 -12  -6    0.19    0.15
  -5 -12   6    0.18    0.20
   5  12  -6    0.19    0.21
  -5  12   6   -0.25    0.22
   5  12  -6    0.05    0.20
  -4 -12   6   -0.07    0.18
   4 -12  -6    0.12    0.13
   4  12  -6    0.31    0.21
  -4  12   6   -0.33    0.21
   4  12  -6    0.03    0.20
  -3 -12   6    0.35    0.21
   3 -12  -6    0.38    0.17
   3  12  -6    0.43    0.33
   3  12  -6    0.43    0.22
   3  12  -6    0.53    0.24
   3  12  -6    0.38    0.14
   2 -12  -6    0.35    0.17
  -2 -12   6    0.62    0.24
   2  12  -6    0.82    0.31
   2  12  -6    0.60    0.22
   2  12  -6    0.21    0.23
   2  12  -6    0.44    0.15
  -1 -12   6    0.06    0.21
   1 -12  -6    0.00    0.14
   1  12  -6    0.32    0.26
   1  12  -6   -0.05    0.13
   1  12  -6    0.29    0.21
   1  12  -6   -0.03    0.17
   0 -12   6    0.96    0.29
   0 -12  -6    0.66    0.21
   0  12  -6    0.91    0.21
   0  12  -6    0.73    0.29
   0  12  -6    0.96    0.31
   0  12  -6    1.09    0.27
   1 -12   6    0.17    0.20
  -1 -12  -6    0.14    0.14
  -1  12  -6    0.04    0.23
  -1  12  -6   -0.21    0.20
  -1  12  -6   -0.21    0.19
   2 -12   6    1.30    0.28
  -2 -12  -6    1.10    0.22
  -2  12  -6    0.80    0.30
  -2  12  -6    1.10    0.30
   7 -13  -6    1.80    0.31
   6 -13  -6    0.07    0.12
  -6 -13   6    0.00    0.15
  -6  13   6   -0.08    0.22
   6  13  -6   -0.20    0.19
   5 -13  -6    1.24    0.25
  -5 -13   6    1.98    0.35
   5  13  -6    1.51    0.32
  -5  13   6    1.78    0.34
   5  13  -6    1.30    0.34
   4 -13  -6    2.36    0.33
  -4 -13   6    1.70    0.36
   4  13  -6    1.69    0.36
   4  13  -6    1.85    0.38
  -3 -13   6    0.55    0.23
   3 -13  -6    0.37    0.15
   3  13  -6    0.66    0.25
   3  13  -6    0.45    0.22
   3  13  -6    0.58    0.32
   2 -13  -6    0.29    0.15
  -2 -13   6    0.52    0.23
   2  13  -6    0.54    0.21
   2  13  -6    0.50    0.24
   2  13  -6    0.56    0.31
  -1 -13   6    3.77    0.56
   1 -13  -6    3.27    0.46
   1  13  -6    2.68    0.49
   1  13  -6    2.73    0.47
   1  13  -6    2.93    0.53
   0 -13  -6    0.11    0.14
   0 -13   6    0.20    0.20
   0  13  -6   -0.01    0.19
   0  13  -6    0.27    0.24
   0  13  -6    0.37    0.19
  -1 -13  -6    0.04    0.12
   1 -13   6    0.49    0.21
  -1  13  -6    0.18    0.23
  -1  13  -6    0.52    0.19
  -5 -14   6    0.66    0.23
   5 -14  -6    0.93    0.18
  -4 -14   6    0.48    0.20
   4 -14  -6    0.61    0.15
   4  14  -6    0.54    0.22
   3 -14  -6    1.10    0.20
  -3 -14   6    0.77    0.24
   3  14  -6    0.98    0.27
   3  14  -6    0.69    0.22
   2 -14  -6    2.91    0.43
  -2 -14   6    3.31    0.52
   2  14  -6    3.27    0.51
   2  14  -6    3.41    0.50
  -1 -14   6    1.52    0.31
   1 -14  -6    1.49    0.25
   1  14  -6    1.98    0.33
   1  14  -6    1.50    0.32
  11   0  -7   -0.06    0.20
 -11   0   7   -0.01    0.13
  10   0  -7   -0.27    0.20
 -10   0   7    0.11    0.13
   9   0  -7   -0.10    0.19
  -9   0   7   -0.18    0.10
  -8   0   7    0.00    0.10
   8   0  -7   -0.18    0.21
   8   0  -7   -0.03    0.19
   7   0  -7    0.12    0.20
   7   0  -7   -0.03    0.21
   6   0  -7   -0.12    0.18
   6   0  -7    0.03    0.13
   6   0  -7   -0.02    0.18
   5   0  -7   -0.10    0.14
   5   0  -7    0.00    0.19
   5   0  -7    0.04    0.16
   4   0  -7   -0.05    0.14
   4   0  -7   -0.26    0.17
   4   0  -7   -0.07    0.16
   3   0  -7   -0.16    0.13
   3   0  -7    0.27    0.20
   3   0  -7   -0.13    0.16
   2   0  -7   -0.12    0.15
   2   0  -7    0.20    0.16
   2   0  -7    0.07    0.14
   2   0  -7    0.13    0.19
   1   0  -7   -0.27    0.15
   1   0  -7    0.08    0.21
   1   0  -7   -0.14    0.15
   1   0  -7    0.00    0.17
   0   0  -7   -0.02    0.19
   0   0  -7    0.08    0.20
   0   0  -7    0.23    0.24
   0   0  -7   -0.04    0.15
  -1   0  -7   -0.01    0.17
  -1   0  -7    0.17    0.21
  -2   0  -7   -0.02    0.22
  -2   0  -7    0.14    0.18
  -3   0  -7   -0.04    0.26
  -3   0  -7   -0.17    0.17
  -4   0  -7    0.17    0.20
  -4   0  -7   -0.52    0.23
  -5   0  -7    0.00    0.18
  -5   0  -7    0.02    0.25
  11  -1  -7    6.95    0.91
 -11  -1   7    6.74    0.85
  11   1  -7    6.28    0.93
 -11   1   7    6.99    0.86
  10  -1  -7    6.37    0.93
 -10  -1   7    6.93    0.81
 -10   1   7    5.94    0.81
  10   1  -7    6.34    0.93
  -9  -1   7    0.75    0.19
   9  -1  -7    0.63    0.29
   9  -1  -7    1.02    0.29
   9   1  -7    1.32    0.34
  -9   1   7    1.10    0.22
   8  -1  -7    2.67    0.52
   8  -1  -7    3.28    0.52
   8   1  -7    2.65    0.49
  -8   1   7    3.59    0.45
   8   1  -7    2.11    0.51
   7  -1  -7   10.00    1.41
   7  -1  -7   13.16    1.42
   7   1  -7   12.07    1.41
   7   1  -7    9.92    1.41
   6  -1  -7   11.81    1.41
   6  -1  -7   12.00    1.43
   6  -1  -7   10.61    1.37
   6   1  -7   10.73    1.37
   6   1  -7   11.47    1.43
   6   1  -7   11.63    1.41
   5  -1  -7   71.73    8.09
   5  -1  -7   71.46    8.09
   5  -1  -7   71.34    8.06
   5   1  -7   71.90    8.09
   5   1  -7   71.71    8.09
   5   1  -7   68.46    8.06
   4  -1  -7  106.44   11.93
   4  -1  -7  101.99   11.95
   4  -1  -7  107.29   11.96
   4   1  -7  114.83   11.97
   4   1  -7  105.64   11.95
   4   1  -7  108.21   11.94
   4   1  -7   96.99   11.88
   3  -1  -7    1.15    0.28
   3  -1  -7    0.91    0.24
   3   1  -7    0.63    0.25
   3   1  -7    1.09    0.27
   3   1  -7    0.86    0.20
   3   1  -7    1.02    0.26
   3   1  -7    0.95    0.25
   2  -1  -7    6.04    0.86
   2  -1  -7    7.02    0.89
   2  -1  -7    6.07    0.86
   2   1  -7    6.20    0.88
   2   1  -7    6.24    0.79
   2   1  -7    6.60    0.88
   2   1  -7    6.45    0.86
   1  -1  -7    9.76    1.26
   1  -1  -7    9.59    1.25
   1  -1  -7    9.71    1.29
   1   1  -7   10.05    1.27
   1   1  -7   11.11    1.28
   1   1  -7   10.37    1.20
   1   1  -7   10.00    1.29
   0  -1  -7   -0.14    0.19
   0  -1  -7    0.35    0.17
   0   1  -7    0.22    0.22
   0   1  -7    0.07    0.22
   0   1  -7   -0.02    0.18
   0   1  -7    0.07    0.15
  -1  -1  -7   11.98    1.49
  -1  -1  -7   13.23    1.57
  -1   1  -7   10.69    1.56
  -1   1  -7   14.04    1.51
  -2  -1  -7   46.08    5.17
  -2  -1  -7   44.31    5.10
  -2   1  -7   41.21    5.17
  -2   1  -7   46.77    5.10
  -3  -1  -7    5.51    0.79
  -3  -1  -7    6.08    0.88
  -3   1  -7    7.14    0.95
  -3   1  -7    5.34    0.79
  -4  -1  -7    3.92    0.64
  -4  -1  -7    3.25    0.54
  -4   1  -7    4.00    0.56
  -4   1  -7    3.27    0.61
  -5  -1  -7    2.56    0.50
  -5  -1  -7    3.04    0.45
  -5   1  -7    3.16    0.46
  -5   1  -7    3.03    0.53
 -11  -2   7    0.10    0.13
 -11   2   7   -0.07    0.14
  11   2  -7    0.18    0.21
  10  -2  -7    0.15    0.21
 -10  -2   7    0.58    0.17
  10   2  -7    0.01    0.22
 -10   2   7    0.38    0.17
   9  -2  -7    0.03    0.21
  -9  -2   7    0.18    0.12
  -9   2   7   -0.14    0.13
   9   2  -7    0.05    0.23
   8  -2  -7    0.86    0.31
   8  -2  -7    1.69    0.35
  -8   2   7    1.62    0.26
   8   2  -7    0.80    0.32
   8   2  -7    1.11    0.45
   7  -2  -7    1.22    0.31
   7  -2  -7    1.44    0.33
  -7   2   7    1.08    0.23
   7   2  -7    0.72    0.30
   7   2  -7    1.13    0.32
   6  -2  -7   11.08    1.40
   6  -2  -7   11.45    1.41
   6   2  -7   11.05    1.40
   6   2  -7   10.64    1.40
   6   2  -7   11.85    1.37
   5  -2  -7    0.59    0.20
   5  -2  -7    0.67    0.24
   5  -2  -7    0.49    0.22
   5   2  -7    0.50    0.22
   5   2  -7    0.24    0.20
   5   2  -7    0.40    0.14
   5   2  -7    0.49    0.20
   4  -2  -7   18.48    2.37
   4  -2  -7   20.53    2.38
   4  -2  -7   20.62    2.37
   4   2  -7   19.66    2.38
   4   2  -7   22.20    2.41
   4   2  -7   19.84    2.37
   4   2  -7   20.82    2.32
   4   2  -7   19.90    2.38
   3  -2  -7    1.49    0.32
   3  -2  -7    1.91    0.31
   3   2  -7    1.29    0.24
   3   2  -7    1.36    0.31
   3   2  -7    1.62    0.31
   3   2  -7    0.83    0.27
   3   2  -7    1.03    0.28
   3   2  -7    1.24    0.31
   2  -2  -7    2.67    0.42
   2  -2  -7    2.47    0.44
   2   2  -7    2.55    0.46
   2   2  -7    2.49    0.44
   2   2  -7    2.33    0.45
   2   2  -7    2.33    0.40
   2   2  -7    2.43    0.42
   2   2  -7    2.15    0.37
   1  -2  -7    8.67    1.23
   1  -2  -7   10.59    1.25
   1   2  -7    9.77    1.29
   1   2  -7   10.18    1.27
   1   2  -7   10.52    1.20
   1   2  -7   10.52    1.28
   0  -2  -7   10.37    1.32
   0   2  -7    9.79    1.36
   0   2  -7   10.90    1.34
   0   2  -7   10.49    1.32
   0   2  -7   11.08    1.27
  -1  -2  -7   -0.02    0.19
  -1  -2  -7   -0.03    0.22
  -1   2  -7    0.23    0.21
  -1   2  -7    0.04    0.17
  -2  -2  -7    3.73    0.63
  -2  -2  -7    3.78    0.56
  -2   2  -7    4.56    0.60
  -2   2  -7    3.01    0.63
  -3  -2  -7   17.56    2.14
  -3  -2  -7   18.78    2.09
  -3   2  -7   20.14    2.10
  -3   2  -7   13.89    2.14
  -4  -2  -7    7.60    1.19
  -4  -2  -7    8.38    1.07
  -4   2  -7    8.51    1.04
  -4   2  -7    8.20    1.16
  -5  -2  -7    0.15    0.21
  -5   2  -7    0.11    0.24
  -5   2  -7    0.22    0.18
 -11  -3   7    1.04    0.21
 -11   3   7    0.82    0.22
  11   3  -7    1.45    0.31
  10  -3  -7    2.55    0.49
 -10  -3   7    2.45    0.39
  10   3  -7    2.87    0.52
 -10   3   7    2.55    0.41
   9  -3  -7    0.09    0.20
  -9  -3   7    0.21    0.12
  -9   3   7    0.01    0.14
   9   3  -7    0.35    0.27
   8  -3  -7   17.28    2.01
   8   3  -7   15.38    2.01
   7  -3  -7   15.93    1.73
   7  -3  -7   15.26    1.73
   7   3  -7   13.88    1.72
   7   3  -7   10.47    1.70
  -7   3   7   14.67    1.64
   6  -3  -7    0.45    0.21
   6  -3  -7   -0.05    0.18
   6   3  -7    0.29    0.23
   6   3  -7    0.39    0.23
   6   3  -7    0.24    0.12
   6   3  -7    0.19    0.17
   5  -3  -7   18.59    2.09
   5  -3  -7   18.71    2.13
   5  -3  -7   17.39    2.11
   5   3  -7   17.68    2.10
   5   3  -7   17.48    2.13
   5   3  -7   17.42    2.12
   5   3  -7   18.42    2.13
   5   3  -7   16.90    2.05
   4  -3  -7   37.77    4.69
   4  -3  -7   41.23    4.67
   4   3  -7   41.77    4.64
   4   3  -7   42.64    4.69
   4   3  -7   41.33    4.71
   4   3  -7   39.81    4.69
   4   3  -7   41.44    4.69
   3  -3  -7    5.03    0.71
   3  -3  -7    4.65    0.71
   3   3  -7    4.41    0.70
   3   3  -7    4.99    0.71
   3   3  -7    5.61    0.76
   3   3  -7    5.19    0.64
   3   3  -7    5.79    0.75
   3   3  -7    6.31    0.76
   2  -3  -7   10.92    1.31
   2  -3  -7   10.85    1.30
   2   3  -7   10.75    1.27
   2   3  -7   11.48    1.33
   2   3  -7    9.97    1.30
   2   3  -7   10.71    1.31
   2   3  -7   10.06    1.35
   2   3  -7   10.89    1.35
   1  -3  -7   50.42    6.13
   1  -3  -7   55.14    6.12
   1   3  -7   55.22    6.09
   1   3  -7   55.91    6.15
   1   3  -7   50.47    6.17
   1   3  -7   56.14    6.15
   1   3  -7   53.31    6.15
   0  -3  -7    1.25    0.31
   0   3  -7    0.87    0.32
   0   3  -7    1.17    0.26
   0   3  -7    1.38    0.33
   0   3  -7    0.77    0.29
  -1  -3  -7   10.45    1.24
  -1   3  -7   11.15    1.28
  -1   3  -7    7.86    1.28
  -1   3  -7    8.81    1.17
  -2  -3  -7    6.08    0.85
  -2   3  -7    4.40    0.61
  -2   3  -7    2.90    0.63
  -3  -3  -7    0.39    0.24
  -3   3  -7    0.41    0.20
  -3   3  -7    0.75    0.30
  -4  -3  -7    1.91    0.40
  -4   3  -7    2.32    0.39
  -4   3  -7    2.16    0.47
  -5  -3  -7    6.18    0.88
  -5   3  -7    6.21    0.80
  -5   3  -7    5.80    0.86
 -11  -4   7    1.57    0.26
 -11   4   7    0.84    0.25
  11   4  -7    1.55    0.34
 -11   4   7    1.40    0.27
  10  -4  -7    0.06    0.21
 -10  -4   7    0.25    0.13
  10   4  -7    0.30    0.24
 -10   4   7   -0.03    0.16
   9  -4  -7    0.12    0.21
   9  -4  -7    0.51    0.24
  -9   4   7    0.39    0.19
   9   4  -7    0.80    0.29
   8  -4  -7    8.39    1.12
   8  -4  -7    8.81    1.10
   8   4  -7    9.20    1.17
  -8   4   7    8.28    1.06
   7  -4  -7    0.38    0.21
   7  -4  -7    0.77    0.24
   7  -4  -7    0.49    0.26
   7   4  -7    0.34    0.22
   7   4  -7    0.67    0.27
   6  -4  -7    8.94    1.33
   6  -4  -7   12.12    1.36
   6   4  -7   12.46    1.33
   6   4  -7   12.84    1.37
   6   4  -7    9.91    1.35
   6   4  -7   12.12    1.27
   6   4  -7    7.03    1.35
   5  -4  -7   21.83    2.56
   5  -4  -7   18.92    2.54
   5   4  -7   22.29    2.58
   5   4  -7   24.32    2.58
   5   4  -7   22.86    2.59
   5   4  -7   22.10    2.54
   5   4  -7   21.30    2.50
   4  -4  -7    1.45    0.35
   4  -4  -7    1.55    0.32
   4   4  -7    1.84    0.34
   4   4  -7    1.30    0.27
   4   4  -7    1.98    0.39
   4   4  -7    1.83    0.36
   4   4  -7    1.61    0.33
   3  -4  -7   -0.05    0.17
   3  -4  -7    0.14    0.18
   3   4  -7   -0.04    0.16
   3   4  -7    0.15    0.19
   3   4  -7    0.11    0.19
   3   4  -7    0.00    0.17
   3   4  -7    0.05    0.16
   3   4  -7   -0.05    0.11
   2  -4  -7   -0.19    0.19
   2  -4  -7    0.00    0.18
   2   4  -7    0.15    0.18
   2   4  -7    0.07    0.17
   2   4  -7    0.09    0.17
   2   4  -7    0.04    0.12
   2   4  -7   -0.04    0.19
   2   4  -7    0.17    0.20
   1   4  -7    2.97    0.45
   1   4  -7    2.56    0.50
   1   4  -7    2.78    0.55
   1   4  -7    2.77    0.48
   1   4  -7    3.73    0.57
   0   4  -7   12.33    1.72
   0   4  -7   15.62    1.82
   0   4  -7   17.06    1.83
  -1   4  -7    5.73    1.18
  -1   4  -7   14.94    1.30
  -1   4  -7    9.41    1.15
  -2   4  -7    4.54    0.74
  -2   4  -7    3.86    0.59
  -3   4  -7   24.62    2.52
  -3   4  -7   18.06    2.57
  -4   4  -7    2.26    0.39
  -4   4  -7    2.51    0.49
  -5   4  -7    0.37    0.19
  -5   4  -7    0.08    0.20
 -11  -5   7    0.21    0.15
  11  -5  -7    0.06    0.23
 -11   5   7    0.15    0.20
 -11   5   7    0.68    0.21
 -10  -5   7    1.40    0.27
  10  -5  -7    1.56    0.31
  10   5  -7    1.56    0.38
 -10   5   7    1.54    0.32
   9  -5  -7    2.33    0.43
  -9   5   7    2.70    0.43
   9   5  -7    2.46    0.52
   8  -5  -7    3.32    0.59
   8  -5  -7    3.62    0.55
   8   5  -7    4.12    0.65
   7  -5  -7    9.15    1.06
   7  -5  -7    9.24    1.01
   7  -5  -7    7.07    1.05
   7   5  -7    6.07    1.05
   6  -5  -7    2.43    0.38
   6  -5  -7    2.89    0.44
   6  -5  -7    1.47    0.38
   6   5  -7    1.32    0.36
   6   5  -7    2.72    0.34
   6   5  -7    2.75    0.46
   6   5  -7    1.30    0.39
   6   5  -7    2.48    0.39
   5  -5  -7    0.99    0.26
   5  -5  -7    1.15    0.29
   5  -5  -7    1.44    0.40
   5   5  -7    1.34    0.28
   5   5  -7    0.83    0.26
   5   5  -7    1.10    0.32
   5   5  -7    0.55    0.25
   5   5  -7    1.08    0.21
   4  -5  -7    1.12    0.30
   4  -5  -7    1.26    0.25
   4  -5  -7    0.92    0.26
   4   5  -7    1.26    0.28
   4   5  -7    1.00    0.27
   4   5  -7    0.57    0.26
   4   5  -7    1.08    0.28
   4   5  -7    1.42    0.25
   3  -5  -7    0.53    0.27
   3  -5  -7    0.20    0.18
   3   5  -7    0.16    0.17
   3   5  -7    0.20    0.18
   3   5  -7    0.25    0.12
   3   5  -7   -0.01    0.23
   3   5  -7    0.15    0.16
   3   5  -7    0.39    0.20
   2  -5  -7   10.92    1.31
   2   5  -7   10.90    1.27
   2   5  -7   10.01    1.39
   2   5  -7   11.23    1.32
   2   5  -7   10.87    1.33
   2   5  -7    8.46    1.33
   2   5  -7   12.28    1.34
   1   5  -7   82.95   10.30
   1   5  -7   91.21   10.22
   1   5  -7   90.53   10.21
   1   5  -7   97.82   10.25
   1   5  -7   90.02   10.25
   0   5  -7   46.73    4.90
   0   5  -7   41.78    4.87
   0   5  -7   38.98    4.83
   0   5  -7   42.12    4.84
  -1   5  -7   14.81    1.93
  -1   5  -7   15.65    1.89
  -1   5  -7   16.32    1.94
  -2   5  -7    2.27    0.41
  -2   5  -7    1.74    0.43
  -2   5  -7    1.36    0.38
  -2   5  -7    1.44    0.31
  -3   5  -7    0.37    0.18
  -3   5  -7    0.23    0.26
  -4   5  -7    2.98    0.52
  -4   5  -7    2.24    0.39
  -5   5  -7    1.23    0.32
  10  -6  -7   -0.23    0.17
 -10  -6   7    0.02    0.12
 -10   6   7    0.21    0.20
  10   6  -7    0.19    0.26
   9  -6  -7    4.21    0.61
   9   6  -7    4.38    0.70
   8  -6  -7    0.12    0.20
   8   6  -7    0.11    0.26
   7  -6  -7    6.70    0.80
   7   6  -7    4.94    0.84
   6  -6  -7    9.50    1.01
   6  -6  -7    5.06    1.00
   6  -6  -7    8.32    1.04
   6   6  -7    8.38    0.96
   6   6  -7    9.58    1.09
   5  -6  -7    0.40    0.20
   5  -6  -7    0.80    0.21
  -5  -6   7    0.50    0.27
   5   6  -7    0.21    0.13
   5   6  -7    0.35    0.26
   5   6  -7    0.19    0.20
   5   6  -7    0.21    0.20
   5   6  -7    0.42    0.22
   4  -6  -7    8.03    0.94
  -4  -6   7    7.96    0.98
   4  -6  -7    8.13    0.96
   4   6  -7    5.92    0.98
   4   6  -7    8.71    1.03
   4   6  -7    7.75    0.96
   4   6  -7    7.12    0.91
   4   6  -7    5.77    0.97
   3  -6  -7   16.13    1.92
   3  -6  -7   16.68    1.90
   3   6  -7   18.32    1.95
   3   6  -7   16.47    2.04
   3   6  -7   15.87    1.95
   3   6  -7   12.62    1.87
   3   6  -7   18.18    1.94
   3   6  -7   16.32    1.97
   2  -6  -7    6.51    0.76
   2  -6  -7    4.97    0.76
   2   6  -7    5.21    1.01
   2   6  -7    7.48    0.85
   2   6  -7    6.83    0.84
   2   6  -7    4.70    0.83
   2   6  -7    6.60    0.81
   2   6  -7    4.32    0.73
   1  -6  -7   16.37    1.88
   1   6  -7   16.63    1.94
   1   6  -7   11.67    1.93
   1   6  -7   17.56    1.93
   1   6  -7   17.72    1.94
   0  -6  -7    0.08    0.16
   0   6  -7   -0.05    0.15
   0   6  -7    0.21    0.21
   0   6  -7    0.37    0.25
   0   6  -7    0.36    0.28
  -1  -6  -7    4.88    0.60
  -1   6  -7    2.50    0.57
  -1   6  -7    4.99    0.69
  -1   6  -7    5.07    0.73
  -1   6  -7    5.06    0.74
  -2  -6  -7   -0.23    0.15
  -2   6  -7    0.26    0.22
  -2   6  -7    0.19    0.17
  -2   6  -7   -0.34    0.30
  -2   6  -7   -0.18    0.22
  -3  -6  -7   12.96    1.68
  -3   6  -7   14.38    1.76
  -3   6  -7   15.27    1.80
  -3   6  -7   16.09    1.73
  -4   6  -7    0.69    0.29
  -4   6  -7    1.08    0.25
 -10  -7   7    1.46    0.26
  10  -7  -7    1.39    0.28
 -10   7   7    1.56    0.33
   9  -7  -7    0.18    0.17
   9   7  -7   -0.37    0.23
  -9   7   7   -0.09    0.17
   8  -7  -7    0.15    0.17
   8   7  -7   -0.28    0.23
   7  -7  -7    1.26    0.28
   7   7  -7    0.85    0.30
   7   7  -7    1.46    0.35
  -6  -7   7    0.57    0.26
   6  -7  -7    0.66    0.21
   6   7  -7    0.39    0.23
   6   7  -7    0.25    0.22
   6   7  -7    0.30    0.28
  -5  -7   7    0.45    0.26
   5  -7  -7    0.41    0.18
   5   7  -7    0.60    0.28
   5   7  -7    0.05    0.18
   5   7  -7    0.44    0.14
   5   7  -7    0.40    0.20
   4  -7  -7    3.48    0.43
  -4  -7   7    3.61    0.53
   4  -7  -7    2.93    0.43
   4   7  -7    3.09    0.46
   4   7  -7    1.42    0.38
   4   7  -7    1.75    0.35
   4   7  -7    1.43    0.39
   4   7  -7    3.17    0.52
   3  -7  -7    0.48    0.19
  -3  -7   7    0.36    0.21
   3  -7  -7    0.15    0.18
   3   7  -7    0.28    0.22
   3   7  -7   -0.07    0.19
   3   7  -7    0.08    0.13
   3   7  -7    0.25    0.19
   3   7  -7    0.34    0.21
   2  -7  -7    5.59    0.65
   2   7  -7    2.95    0.58
   2   7  -7    5.00    0.69
   2   7  -7    5.27    0.69
   2   7  -7    3.14    0.66
   2   7  -7    6.00    0.75
   1  -7  -7   21.63    2.39
   1   7  -7   22.23    2.45
   1   7  -7   14.71    2.43
   1   7  -7   23.25    2.45
   1   7  -7   20.90    2.44
   0  -7  -7    0.17    0.17
   0   7  -7   -0.19    0.20
   0   7  -7   -0.05    0.23
   0   7  -7    0.48    0.26
   0   7  -7    0.16    0.15
  -1  -7  -7    0.25    0.19
  -1   7  -7    0.36    0.24
  -1   7  -7    0.51    0.32
  -1   7  -7    0.00    0.25
  -1   7  -7    0.17    0.18
  -1   7  -7    0.43    0.29
  -2  -7  -7    1.40    0.28
  -2   7  -7    2.12    0.44
  -2   7  -7    0.96    0.33
  -2   7  -7    1.86    0.33
  -2   7  -7    1.58    0.43
  -3  -7  -7    0.65    0.18
  -3   7  -7    0.39    0.26
  -3   7  -7    0.13    0.19
  -3   7  -7    0.25    0.25
  -4   7  -7   -0.22    0.16
  -4   7  -7    0.36    0.24
  10  -8  -7   -0.12    0.15
 -10   8   7    0.18    0.22
   9  -8  -7    3.12    0.43
  -9   8   7    2.61    0.46
   9   8  -7    2.30    0.48
   8  -8  -7    0.65    0.20
   8   8  -7    0.15    0.27
  -8   8   7    0.50    0.21
   7  -8  -7    1.31    0.28
  -7   8   7    1.27    0.28
   7   8  -7    1.60    0.38
   7   8  -7    1.54    0.37
   6  -8  -7    0.30    0.16
  -6  -8   7    0.36    0.24
   6   8  -7    0.00    0.18
   6   8  -7    0.00    0.18
   5  -8  -7    0.15    0.17
  -5  -8   7    0.08    0.22
   5   8  -7   -0.05    0.17
  -5   8   7    0.16    0.14
   5   8  -7    0.31    0.26
   5   8  -7   -0.10    0.11
   5   8  -7   -0.12    0.16
  -4  -8   7    1.50    0.35
   4  -8  -7    1.49    0.29
   4   8  -7    0.49    0.19
   4   8  -7    0.96    0.30
  -4   8   7    1.53    0.26
   4   8  -7    0.67    0.26
   4   8  -7    1.88    0.40
  -3  -8   7   31.31    3.06
   3   8  -7   23.26    2.98
   3   8  -7   25.69    3.08
   3   8  -7   29.63    3.06
   3   8  -7   21.42    3.04
   2  -8  -7    7.43    0.81
   2   8  -7    4.99    0.90
   2   8  -7    4.85    0.78
   2   8  -7    6.57    0.91
   2   8  -7    7.52    0.91
   1  -8  -7    2.89    0.39
   1   8  -7    2.37    0.44
   1   8  -7    1.49    0.33
   1   8  -7    2.69    0.46
   1   8  -7    1.39    0.42
   1   8  -7    2.03    0.44
   0  -8  -7    3.87    0.52
   0   8  -7    3.31    0.58
   0   8  -7    2.67    0.49
   0   8  -7    3.30    0.61
   0   8  -7    3.76    0.59
  -1  -8  -7    0.10    0.18
  -1   8  -7    0.18    0.28
  -1   8  -7    0.07    0.16
  -1   8  -7    0.25    0.25
  -1   8  -7   -0.10    0.23
  -2  -8  -7    0.81    0.22
  -2   8  -7    0.84    0.34
  -2   8  -7    0.78    0.30
  -2   8  -7    0.79    0.22
  -3  -8  -7    3.43    0.44
  -3   8  -7    2.65    0.44
  -3   8  -7    2.93    0.51
   9  -9  -7   -0.28    0.13
  -9  -9   7    0.23    0.12
  -9   9   7    0.01    0.23
   8  -9  -7    0.54    0.19
   8   9  -7    0.70    0.28
  -8   9   7    0.69    0.27
  -7  -9   7    1.21    0.36
   7  -9  -7    1.61    0.29
  -7   9   7    1.63    0.33
   7   9  -7    1.24    0.35
   7   9  -7    1.62    0.37
  -6  -9   7   -0.01    0.23
   6  -9  -7    0.27    0.18
   6   9  -7    0.24    0.21
   6   9  -7    0.18    0.23
  -6   9   7    0.43    0.20
  -5  -9   7   -0.02    0.21
   5  -9  -7   -0.10    0.16
  -5   9   7   -0.07    0.17
   5   9  -7    0.23    0.27
   5   9  -7   -0.02    0.18
   5   9  -7   -0.03    0.11
   5   9  -7   -0.06    0.18
  -4  -9   7    0.26    0.23
   4  -9  -7    0.57    0.21
   4   9  -7    0.34    0.20
   4   9  -7    0.20    0.28
   4   9  -7    0.19    0.21
   4   9  -7    0.19    0.14
  -4   9   7    0.13    0.19
  -3  -9   7    0.84    0.28
   3  -9  -7    0.85    0.23
   3   9  -7    1.54    0.37
   3   9  -7    0.44    0.24
   3   9  -7    0.93    0.28
   3   9  -7    0.65    0.20
   2  -9  -7    1.01    0.24
  -2  -9   7    1.00    0.29
   2   9  -7    0.37    0.29
   2   9  -7    0.92    0.30
   2   9  -7    0.66    0.21
   2   9  -7    0.94    0.29
   1  -9  -7    8.23    0.91
   1   9  -7    8.12    0.89
   1   9  -7    6.96    0.96
   1   9  -7    7.78    0.97
   1   9  -7    4.06    0.93
   0  -9  -7   17.02    1.98
   0   9  -7   17.45    1.97
   0   9  -7   15.99    2.03
   0   9  -7   16.74    2.03
   0   9  -7   16.92    2.07
  -1  -9  -7    0.24    0.18
  -1   9  -7    0.22    0.29
  -1   9  -7   -0.28    0.21
  -1   9  -7    0.07    0.17
  -2  -9  -7    0.22    0.17
  -2   9  -7    0.32    0.27
  -2   9  -7    0.15    0.16
  -2   9  -7    0.16    0.28
  -3  -9  -7    0.11    0.15
  -3   9  -7    0.05    0.15
   9 -10  -7    3.64    0.52
  -9  10   7    4.47    0.63
   8 -10  -7    2.77    0.39
   8  10  -7    2.10    0.47
  -8  10   7    2.35    0.45
   7 -10  -7    0.92    0.22
  -7 -10   7    0.77    0.29
  -7  10   7    0.68    0.28
   7  10  -7    0.59    0.26
   7  10  -7    0.81    0.28
  -6 -10   7    4.16    0.66
   6 -10  -7    4.35    0.61
  -6  10   7    4.73    0.68
   6  10  -7    3.77    0.67
   6  10  -7    5.30    0.71
   5 -10  -7    0.85    0.22
  -5 -10   7    0.83    0.28
  -5  10   7    0.52    0.24
   5  10  -7    0.40    0.30
   5  10  -7    0.52    0.25
   5  10  -7    0.41    0.21
   4 -10  -7    0.85    0.23
  -4 -10   7    1.06    0.31
   4  10  -7    0.77    0.19
   4  10  -7    1.14    0.29
   4  10  -7    0.38    0.23
   4  10  -7    0.93    0.35
  -3 -10   7    2.49    0.46
   3 -10  -7    2.74    0.37
   3  10  -7    1.39    0.36
   3  10  -7    2.19    0.48
   3  10  -7    1.58    0.30
   3  10  -7    1.65    0.36
   2 -10  -7    5.41    0.71
  -2 -10   7    5.83    0.80
   2  10  -7    4.97    0.67
   2  10  -7    3.87    0.73
   2  10  -7    5.60    0.84
   2  10  -7    5.82    0.79
   1 -10  -7    7.42    0.83
  -1 -10   7    4.99    0.82
   1  10  -7    7.19    0.93
   1  10  -7    6.66    0.88
   1  10  -7    6.40    0.80
   1  10  -7    4.29    0.80
   0 -10  -7   14.26    1.71
   0  10  -7   12.01    1.72
   0  10  -7   14.94    1.76
   0  10  -7   15.81    1.81
   0  10  -7   15.21    1.69
  -1 -10  -7    7.92    1.01
  -1  10  -7    8.37    1.07
  -1  10  -7    8.35    1.01
  -1  10  -7    8.45    1.15
  -2 -10  -7    0.31    0.16
  -2  10  -7    0.06    0.28
  -2  10  -7    0.17    0.15
  -2  10  -7    0.36    0.25
   8 -11  -7    3.57    0.48
  -8  11   7    3.47    0.56
   7 -11  -7    0.81    0.20
  -7 -11   7    0.32    0.23
  -7  11   7    0.81    0.28
   7  11  -7    0.83    0.27
   6 -11  -7    0.26    0.17
  -6 -11   7    0.38    0.21
  -6  11   7    0.49    0.25
   6  11  -7    0.20    0.22
   6  11  -7    0.15    0.21
   5 -11  -7    0.31    0.16
  -5 -11   7   -0.08    0.18
   5  11  -7    0.37    0.21
  -5  11   7    0.12    0.22
   5  11  -7    0.45    0.23
   4 -11  -7    1.66    0.30
  -4 -11   7    1.41    0.36
   4  11  -7    1.71    0.42
   4  11  -7    1.42    0.36
   4  11  -7    2.05    0.39
   4  11  -7    1.55    0.27
  -3 -11   7    0.97    0.31
   3 -11  -7    1.07    0.26
   3  11  -7    1.40    0.33
   3  11  -7    1.12    0.35
   3  11  -7    1.33    0.33
   3  11  -7    0.99    0.22
  -2 -11   7    1.89    0.42
   2 -11  -7    2.09    0.36
   2  11  -7    2.17    0.33
   2  11  -7    2.51    0.45
   2  11  -7    1.85    0.39
   2  11  -7    1.78    0.44
   1 -11  -7   13.79    1.62
  -1 -11   7   13.69    1.66
   1  11  -7   13.91    1.68
   1  11  -7   13.95    1.71
   1  11  -7   13.17    1.60
   1  11  -7   13.37    1.65
   0 -11   7    4.70    0.72
   0 -11  -7    5.20    0.68
   0  11  -7    5.44    0.80
   0  11  -7    4.54    0.64
   0  11  -7    5.19    0.73
   0  11  -7    5.32    0.74
   1 -11   7    2.52    0.42
  -1 -11  -7    1.87    0.34
  -1  11  -7    2.69    0.48
  -1  11  -7    2.11    0.35
  -1  11  -7    2.29    0.42
   2 -11   7   -0.08    0.16
   7 -12  -7    1.81    0.26
  -7 -12   7    0.79    0.35
  -7  12   7    1.47    0.34
   6 -12  -7    1.81    0.31
   6  12  -7    2.19    0.39
  -6  12   7    1.50    0.38
   6  12  -7    2.24    0.39
  -5 -12   7    1.38    0.33
   5 -12  -7    2.18    0.30
   5  12  -7    1.77    0.35
   5  12  -7    1.34    0.34
  -5  12   7    1.18    0.36
  -4 -12   7    0.17    0.20
   4 -12  -7    0.15    0.13
   4  12  -7    0.02    0.19
   4  12  -7    0.24    0.34
   4  12  -7    0.10    0.19
   3 -12  -7    2.28    0.34
  -3 -12   7    2.20    0.41
   3  12  -7    2.17    0.47
   3  12  -7    2.39    0.40
   3  12  -7    2.40    0.42
   3  12  -7    1.60    0.29
  -2 -12   7    0.36    0.24
   2 -12  -7    0.65    0.19
   2  12  -7    0.60    0.25
   2  12  -7    0.49    0.22
   2  12  -7    0.36    0.15
   2  12  -7    0.13    0.29
   1 -12  -7    0.62    0.18
  -1 -12   7    0.14    0.21
   1  12  -7    0.36    0.15
   1  12  -7    0.87    0.30
   1  12  -7    0.66    0.25
   1  12  -7    0.42    0.21
   0 -12  -7   14.77    1.62
   0  12  -7   13.76    1.60
   0  12  -7   14.69    1.68
   0  12  -7   15.44    1.71
   0  12  -7   11.06    1.64
  -1 -12  -7    0.71    0.28
   1 -12   7    1.21    0.27
  -5 -13   7    0.37    0.19
   5 -13  -7    0.57    0.15
   5  13  -7    0.36    0.20
   5  13  -7    0.47    0.24
   4 -13  -7    2.67    0.37
  -4 -13   7    2.36    0.41
   4  13  -7    2.46    0.43
   4  13  -7    2.26    0.41
  -3 -13   7    1.85    0.35
   3 -13  -7    1.82    0.28
   3  13  -7    2.05    0.36
   3  13  -7    1.34    0.32
   3  13  -7    1.17    0.43
  -2 -13   7    2.67    0.44
   2 -13  -7    2.33    0.37
   2  13  -7    2.57    0.44
   2  13  -7    2.58    0.45
   2  13  -7    2.44    0.49
  -1 -13   7    5.43    0.71
   1 -13  -7    5.64    0.67
   1  13  -7    5.03    0.92
   1  13  -7    4.65    0.72
   1  13  -7    5.15    0.73
 -11   0   8    4.78    0.65
  11   0  -8    5.09    0.73
  10   0  -8    4.30    0.70
 -10   0   8    4.50    0.61
   9   0  -8    1.54    0.40
   9   0  -8    1.42    0.38
  -9   0   8    2.99    0.37
   8   0  -8    4.81    0.84
  -8   0   8    5.85    0.71
   8   0  -8    6.08    0.84
   7   0  -8    2.44    0.49
   7   0  -8    2.48    0.49
   6   0  -8   19.00    2.15
   6   0  -8   17.16    2.18
   5   0  -8   49.39    5.72
   5   0  -8   50.68    5.75
   4   0  -8   -0.07    0.23
   4   0  -8   -0.05    0.16
   4   0  -8    0.09    0.19
   3   0  -8   53.92    6.08
   3   0  -8   52.08    6.06
   2   0  -8   31.44    3.50
   2   0  -8   34.69    3.52
   2   0  -8   26.46    3.53
   1   0  -8   15.88    1.94
   1   0  -8   16.19    2.00
   1   0  -8   17.97    2.02
   0   0  -8   16.17    1.97
   0   0  -8   16.06    1.90
  -1   0  -8   50.34    5.51
  -1   0  -8   45.47    5.43
  -2   0  -8    1.56    0.39
  -2   0  -8    1.45    0.33
  -3   0  -8   33.96    4.00
  -3   0  -8   36.05    4.07
  -4   0  -8    0.17    0.20
  -4   0  -8    0.02    0.23
  11  -1  -8    0.15    0.20
 -11  -1   8    0.29    0.14
 -11   1   8    0.00    0.14
  11   1  -8    0.34    0.20
  10  -1  -8    0.82    0.29
 -10  -1   8    0.93    0.20
 -10   1   8    0.77    0.20
  10   1  -8    0.91    0.29
  -9  -1   8    0.60    0.18
   9  -1  -8    0.64    0.25
   9  -1  -8    0.56    0.25
  -9   1   8    0.60    0.18
   9   1  -8    0.56    0.27
   8  -1  -8    1.81    0.38
   8  -1  -8    1.28    0.34
   8   1  -8    0.72    0.32
  -8   1   8    1.42    0.26
   8   1  -8    1.58    0.38
   7  -1  -8    4.02    0.64
   7  -1  -8    3.59    0.62
   7   1  -8    3.29    0.62
   7   1  -8    3.83    0.62
   6  -1  -8    0.15    0.20
   6  -1  -8    0.24    0.17
   6  -1  -8    0.26    0.24
   6   1  -8    0.33    0.25
   6   1  -8    0.69    0.25
   6   1  -8    0.39    0.17
   5  -1  -8    2.41    0.46
   5  -1  -8    3.26    0.52
   5  -1  -8    2.75    0.44
   5   1  -8    2.71    0.48
   5   1  -8    1.93    0.44
   5   1  -8    2.58    0.44
   4  -1  -8    0.57    0.25
   4  -1  -8    0.73    0.23
   4   1  -8    0.44    0.26
   4   1  -8    0.71    0.23
   4   1  -8    0.59    0.25
   3  -1  -8   37.66    4.15
   3  -1  -8   37.44    4.14
   3   1  -8   37.63    4.16
   3   1  -8   36.50    4.14
   3   1  -8   31.44    4.06
   2  -1  -8    0.77    0.28
   2  -1  -8    0.63    0.25
   2   1  -8    1.04    0.31
   2   1  -8    0.58    0.29
   2   1  -8    0.61    0.24
   2   1  -8    0.72    0.20
   1  -1  -8    9.61    1.28
   1  -1  -8   11.32    1.31
   1   1  -8   10.04    1.29
   1   1  -8    9.74    1.23
   1   1  -8   10.12    1.30
   0  -1  -8    0.44    0.25
   0  -1  -8   -0.16    0.32
   0   1  -8    0.39    0.22
   0   1  -8    0.55    0.20
   0   1  -8    0.03    0.27
  -1  -1  -8    1.23    0.32
  -1  -1  -8    0.18    0.22
  -1   1  -8    0.27    0.20
  -1   1  -8    0.08    0.22
  -2  -1  -8    0.02    0.24
  -2  -1  -8    0.08    0.20
  -2   1  -8   -0.06    0.19
  -2   1  -8    0.24    0.26
  -3  -1  -8    0.74    0.26
  -3  -1  -8    0.40    0.28
  -3   1  -8    0.61    0.29
  -3   1  -8    0.35    0.22
  -4  -1  -8   -0.26    0.25
  -4  -1  -8   -0.06    0.21
  -4   1  -8    0.24    0.23
  -4   1  -8    0.25    0.20
 -11  -2   8    0.30    0.14
 -11   2   8    0.71    0.19
  11   2  -8    0.48    0.24
 -10  -2   8    1.16    0.23
  10  -2  -8    1.06    0.31
  10   2  -8    1.07    0.32
 -10   2   8    1.00    0.24
   9  -2  -8    8.03    0.98
   9  -2  -8    7.08    0.92
  -9  -2   8    7.31    0.85
  -9   2   8    6.52    0.86
   9   2  -8    5.41    0.97
   8  -2  -8    1.65    0.38
   8  -2  -8    1.84    0.40
   8   2  -8    1.86    0.41
  -8   2   8    1.67    0.30
   8   2  -8    1.60    0.41
   7  -2  -8    0.67    0.28
   7  -2  -8    0.95    0.29
   7   2  -8    0.43    0.25
  -7   2   8    0.55    0.18
   7   2  -8    0.73    0.28
   6  -2  -8   47.16    5.28
   6  -2  -8   48.22    5.32
   6   2  -8   42.96    5.28
   6   2  -8   46.30    5.32
   6   2  -8   46.14    5.33
   5  -2  -8   14.91    1.74
   5  -2  -8   14.00    1.77
   5   2  -8   16.08    1.79
   5   2  -8   14.85    1.75
   5   2  -8   13.52    1.76
   5   2  -8   13.72    1.68
   4  -2  -8    0.33    0.22
   4  -2  -8    0.46    0.21
   4   2  -8    1.39    0.29
   4   2  -8    0.47    0.23
   4   2  -8    0.36    0.24
   4   2  -8    0.66    0.18
   3  -2  -8   48.24    5.30
   3  -2  -8   47.43    5.31
   3   2  -8   46.69    5.24
   3   2  -8   43.38    5.30
   3   2  -8   46.12    5.33
   3   2  -8   45.43    5.30
   2  -2  -8   48.59    5.22
   2  -2  -8   44.59    5.22
   2   2  -8   39.87    5.26
   2   2  -8   51.20    5.26
   2   2  -8   46.10    5.17
   1  -2  -8    4.64    0.62
   1   2  -8    4.13    0.61
   1   2  -8    2.07    0.51
   1   2  -8    3.97    0.53
   0  -2  -8   32.63    3.76
   0   2  -8   30.77    3.76
   0   2  -8   33.57    3.72
  -1  -2  -8   14.54    1.82
  -1   2  -8   15.11    1.77
  -2  -2  -8    1.62    0.38
  -2   2  -8    1.93    0.44
  -2   2  -8    1.81    0.35
  -3  -2  -8   20.10    2.35
  -3   2  -8   18.40    2.29
  -3   2  -8   20.73    2.38
  -4   2  -8    1.56    0.35
  -4   2  -8    1.19    0.28
 -11  -3   8    1.05    0.22
 -11   3   8    1.26    0.25
  11   3  -8    1.22    0.32
  10  -3  -8    0.86    0.28
 -10  -3   8    1.09    0.22
 -10   3   8    0.93    0.24
  10   3  -8    1.25    0.34
   9  -3  -8    0.67    0.28
   9   3  -8    1.14    0.35
  -9   3   8    0.77    0.23
   8  -3  -8    0.73    0.26
   8  -3  -8    0.72    0.25
   8   3  -8    0.80    0.32
  -8   3   8    0.60    0.21
   8   3  -8    0.47    0.27
   7  -3  -8   11.98    1.30
   7  -3  -8    7.27    1.27
   7   3  -8   12.06    1.31
   7   3  -8    8.23    1.32
   6  -3  -8    0.13    0.19
   6  -3  -8   -0.16    0.22
   6   3  -8   -0.09    0.18
   6   3  -8    0.03    0.11
   6   3  -8   -0.11    0.15
   6   3  -8    0.15    0.20
   5  -3  -8   11.71    1.34
   5  -3  -8    9.22    1.35
   5   3  -8   10.96    1.29
   5   3  -8   12.59    1.40
   5   3  -8   10.69    1.35
   5   3  -8   10.07    1.37
   4  -3  -8    0.03    0.21
   4  -3  -8    0.11    0.16
   4   3  -8   -0.04    0.19
   4   3  -8    0.08    0.14
   4   3  -8    0.05    0.16
   4   3  -8   -0.05    0.19
   4   3  -8    0.09    0.19
   3  -3  -8   27.47    3.24
   3  -3  -8   28.02    3.22
   3   3  -8   26.80    3.23
   3   3  -8   29.69    3.24
   3   3  -8   28.60    3.18
   3   3  -8   25.51    3.23
   2  -3  -8    0.20    0.21
   2  -3  -8    0.32    0.24
   2   3  -8    0.29    0.15
   2   3  -8    0.04    0.18
   2   3  -8    0.11    0.22
   2   3  -8   -0.02    0.20
   1  -3  -8    2.40    0.42
   1   3  -8    1.57    0.35
   1   3  -8    2.01    0.43
   1   3  -8    2.44    0.46
   0  -3  -8    9.34    1.26
   0   3  -8   10.71    1.22
   0   3  -8    9.52    1.30
  -1  -3  -8    6.31    0.78
  -1   3  -8    2.96    0.69
  -1   3  -8    5.64    0.69
  -2   3  -8    0.22    0.24
  -2   3  -8   -0.04    0.18
  -3   3  -8    1.50    0.38
  -3   3  -8    1.04    0.28
  -4   3  -8    0.09    0.18
  -4   3  -8    0.44    0.23
 -11  -4   8    0.15    0.12
  11   4  -8    0.02    0.25
 -11   4   8    0.26    0.16
 -10  -4   8    0.38    0.15
 -10   4   8    0.50    0.20
  10   4  -8    0.08    0.22
   9  -4  -8    0.19    0.22
   9   4  -8    0.45    0.25
   8  -4  -8   15.44    1.80
   8  -4  -8   17.53    1.83
   8   4  -8   11.63    1.82
   7  -4  -8    4.27    0.59
   7  -4  -8    2.35    0.48
   7   4  -8    4.55    0.62
   7   4  -8    2.10    0.51
   6  -4  -8   15.59    1.97
   6   4  -8   17.64    1.97
   6   4  -8   12.83    1.98
   6   4  -8   18.68    2.02
   6   4  -8   17.74    1.90
   5  -4  -8   10.86    1.15
   5  -4  -8    8.57    1.18
   5   4  -8    5.57    1.18
   5   4  -8    9.32    1.20
   5   4  -8   10.29    1.17
   5   4  -8    9.53    1.19
   5   4  -8    9.53    1.10
   4  -4  -8    3.07    0.48
   4  -4  -8    2.21    0.40
   4   4  -8    2.57    0.45
   4   4  -8    2.25    0.37
   4   4  -8    1.30    0.40
   4   4  -8    3.01    0.49
   4   4  -8    3.07    0.47
   3  -4  -8   32.81    4.04
   3  -4  -8   35.14    4.07
   3   4  -8   35.76    4.08
   3   4  -8   34.93    4.07
   3   4  -8   35.43    4.08
   3   4  -8   37.32    4.02
   2  -4  -8    5.82    0.78
   2  -4  -8    5.96    0.76
   2   4  -8    4.69    0.69
   2   4  -8    6.16    0.80
   2   4  -8    4.70    0.76
   2   4  -8    5.74    0.78
   2   4  -8    3.70    0.75
   1   4  -8    2.62    0.49
   1   4  -8    1.94    0.34
   1   4  -8    1.08    0.37
   0   4  -8   34.66    4.05
   0   4  -8   35.85    4.12
  -1   4  -8    0.10    0.23
  -1   4  -8    0.51    0.32
  -1   4  -8    0.10    0.18
  -2   4  -8    3.27    0.53
  -2   4  -8    4.17    0.67
  -3   4  -8    2.80    0.45
  -3   4  -8    3.26    0.54
  -4   4  -8    0.94    0.25
  -4   4  -8    0.46    0.24
 -11  -5   8    0.78    0.20
 -11   5   8    0.53    0.32
 -10  -5   8    2.85    0.43
  10   5  -8    3.67    0.55
   9   5  -8    0.71    0.30
   8  -5  -8    0.75    0.26
   8   5  -8    0.28    0.26
   7  -5  -8    1.40    0.35
   7  -5  -8    1.37    0.31
   7   5  -8    0.92    0.32
   7   5  -8    1.59    0.39
   6  -5  -8    1.10    0.36
   6  -5  -8    0.85    0.28
   6   5  -8    0.61    0.25
   6   5  -8    1.32    0.33
   6   5  -8    0.35    0.26
   6   5  -8    1.38    0.29
   6   5  -8    1.13    0.21
   5  -5  -8    5.99    0.84
   5   5  -8    6.30    0.72
   5   5  -8    6.00    0.86
   5   5  -8    6.18    0.80
   5   5  -8    4.36    0.81
   5   5  -8    5.08    0.82
   4  -5  -8    7.02    0.89
   4   5  -8    6.24    0.90
   4   5  -8    6.03    0.77
   4   5  -8    6.46    0.87
   4   5  -8    4.77    0.83
   3  -5  -8    0.10    0.21
   3   5  -8    0.23    0.21
   3   5  -8    0.11    0.14
   3   5  -8   -0.14    0.17
   3   5  -8   -0.07    0.19
   3   5  -8   -0.03    0.22
   2   5  -8    5.50    0.75
   2   5  -8    5.94    0.75
   2   5  -8    3.04    0.68
   2   5  -8    4.89    0.64
   2   5  -8    4.37    0.70
   1   5  -8    2.22    0.45
   1   5  -8    2.26    0.44
   1   5  -8    1.81    0.37
   1   5  -8    3.31    0.55
   0   5  -8    0.34    0.19
   0   5  -8    0.20    0.22
   0   5  -8    0.38    0.29
  -1   5  -8    2.15    0.53
  -1   5  -8    2.43    0.42
  -1   5  -8    2.85    0.51
  -2   5  -8   15.40    1.93
  -2   5  -8   15.96    1.86
  -3   5  -8    4.10    0.53
  -3   5  -8    3.10    0.56
 -10  -6   8    1.44    0.25
  10   6  -8    1.41    0.35
 -10   6   8    1.21    0.29
   9   6  -8    3.99    0.67
   8   6  -8    1.73    0.42
   7   6  -8    0.93    0.34
   7   6  -8    0.31    0.23
   6  -6  -8    1.24    0.33
   6   6  -8    0.94    0.32
   6   6  -8    2.29    0.45
   6   6  -8    1.87    0.28
   6   6  -8    1.92    0.34
   6   6  -8    1.50    0.38
   5  -6  -8    4.90    0.65
   5   6  -8    3.34    0.64
   5   6  -8    4.52    0.57
   5   6  -8    3.03    0.64
   5   6  -8    4.45    0.63
   5   6  -8    4.37    0.68
   4  -6  -8    2.55    0.46
   4   6  -8    2.74    0.41
   4   6  -8    2.78    0.46
   4   6  -8    2.89    0.50
   4   6  -8    2.52    0.47
   4   6  -8    1.92    0.48
  -3  -6   8    3.48    0.54
   3  -6  -8    2.96    0.49
   3   6  -8    2.78    0.57
   3   6  -8    2.53    0.43
   3   6  -8    3.61    0.54
   3   6  -8    3.17    0.54
   3   6  -8    2.86    0.53
   2   6  -8    0.30    0.20
   2   6  -8    0.19    0.25
   2   6  -8    0.13    0.14
   2   6  -8    0.14    0.21
   2   6  -8   -0.01    0.24
   1   6  -8   10.70    1.42
   1   6  -8   11.27    1.42
   1   6  -8   11.51    1.46
   0   6  -8    1.29    0.30
   0   6  -8    2.06    0.41
   0   6  -8    2.47    0.49
  -1   6  -8    0.27    0.32
  -1   6  -8    0.54    0.27
  -1   6  -8    0.30    0.19
  -2   6  -8    0.22    0.23
  -2   6  -8    0.23    0.19
  -3   6  -8    0.40    0.23
  -3   6  -8    0.07    0.17
 -10  -7   8    6.08    0.72
 -10   7   8    6.13    0.79
  10   7  -8    5.17    0.80
   9  -7  -8    0.16    0.18
   9   7  -8   -0.09    0.21
  -9   7   8   -0.10    0.15
   8  -7  -8    6.99    0.86
   8   7  -8    6.19    0.96
   7  -7  -8    0.14    0.19
   7   7  -8    0.02    0.20
   6  -7  -8    0.33    0.21
   6   7  -8   -0.12    0.18
   6   7  -8    0.35    0.22
   6   7  -8    0.37    0.28
   5  -7  -8    0.71    0.23
   5   7  -8    0.43    0.23
   5   7  -8    0.65    0.26
   5   7  -8    0.26    0.15
   5   7  -8    0.24    0.22
  -4  -7   8    0.67    0.31
   4  -7  -8    0.59    0.23
   4  -7  -8    0.94    0.24
   4   7  -8    1.06    0.29
   4   7  -8    0.75    0.27
   4   7  -8    0.72    0.19
   4   7  -8    0.53    0.24
   4   7  -8    0.84    0.33
   3  -7  -8    6.51    0.81
  -3  -7   8    6.35    0.90
   3   7  -8    6.12    0.90
   3   7  -8    8.17    0.96
   3   7  -8    6.82    0.90
   3   7  -8    4.20    0.89
   2  -7  -8    0.00    0.21
   2   7  -8    0.17    0.23
   2   7  -8    0.13    0.15
   2   7  -8    0.00    0.23
   2   7  -8    0.12    0.22
   2   7  -8    0.52    0.25
   1   7  -8    2.88    0.55
   1   7  -8    2.85    0.50
   1   7  -8    2.17    0.42
   1   7  -8    2.70    0.50
   0   7  -8    0.13    0.28
   0   7  -8    0.68    0.28
   0   7  -8    0.68    0.20
   0   7  -8    0.50    0.27
  -1   7  -8    1.02    0.30
  -1   7  -8    0.29    0.35
  -1   7  -8    1.12    0.24
  -2   7  -8    4.52    0.64
  -2   7  -8    5.21    0.72
  -3   7  -8    0.32    0.22
  -3   7  -8    0.32    0.18
 -10   8   8    0.15    0.31
   9  -8  -8    1.03    0.25
  -9   8   8    1.07    0.28
   9   8  -8    1.30    0.33
   8  -8  -8    0.01    0.18
   8   8  -8    0.07    0.23
  -8   8   8   -0.17    0.15
   7  -8  -8    0.40    0.18
   7   8  -8   -0.05    0.20
  -7   8   8    0.17    0.16
   6  -8  -8    2.85    0.44
  -6   8   8    3.30    0.46
   6   8  -8    3.17    0.55
   6   8  -8    2.12    0.48
   6   8  -8    2.57    0.51
  -5  -8   8    3.44    0.56
   5  -8  -8    4.50    0.52
   5   8  -8    3.17    0.46
   5   8  -8    2.08    0.51
  -5   8   8    3.17    0.48
   5   8  -8    2.51    0.52
   5   8  -8    3.48    0.58
  -4  -8   8    0.15    0.22
   4  -8  -8    0.31    0.19
   4   8  -8   -0.03    0.26
   4   8  -8    0.15    0.13
   4   8  -8    0.01    0.18
   4   8  -8    0.34    0.21
  -3  -8   8    0.75    0.28
   3  -8  -8    0.90    0.24
   3   8  -8    0.55    0.21
   3   8  -8    1.03    0.35
   3   8  -8    1.07    0.31
   3   8  -8    1.27    0.32
  -2  -8   8    1.08    0.30
   2  -8  -8    0.88    0.25
   2   8  -8    1.25    0.32
   2   8  -8    0.58    0.20
   2   8  -8    1.10    0.32
   2   8  -8    0.60    0.28
   2   8  -8    1.02    0.32
   1  -8  -8    0.11    0.19
   1   8  -8    0.58    0.29
   1   8  -8    0.49    0.18
   1   8  -8    0.43    0.25
   1   8  -8    0.08    0.25
   0  -8  -8    0.48    0.21
   0   8  -8    0.10    0.25
   0   8  -8    0.38    0.16
   0   8  -8    0.83    0.28
   0   8  -8    0.55    0.30
  -1   8  -8    0.54    0.33
  -1   8  -8    0.41    0.18
  -1   8  -8    0.22    0.24
  -2   8  -8    0.03    0.21
  -2   8  -8   -0.03    0.15
  -9   9   8   -0.16    0.21
   8  -9  -8    1.56    0.29
  -8   9   8    1.79    0.34
   8   9  -8    1.35    0.34
   7  -9  -8    0.38    0.20
   7   9  -8    0.66    0.26
  -7   9   8    0.60    0.24
   6  -9  -8    0.13    0.17
  -6   9   8   -0.13    0.17
   6   9  -8    0.36    0.23
   6   9  -8    0.24    0.21
   5  -9  -8   -0.27    0.16
  -5  -9   8   -0.16    0.22
   5   9  -8    0.36    0.27
   5   9  -8   -0.07    0.19
   5   9  -8    0.08    0.11
   5   9  -8    0.15    0.21
  -5   9   8    0.11    0.21
   4  -9  -8    2.03    0.36
  -4  -9   8    2.04    0.41
   4   9  -8    1.56    0.41
   4   9  -8    2.27    0.43
   4   9  -8    2.08    0.33
   4   9  -8    2.21    0.49
   3  -9  -8    0.95    0.25
  -3  -9   8    0.92    0.30
   3   9  -8    1.06    0.30
   3   9  -8    1.12    0.23
   3   9  -8    1.00    0.30
   3   9  -8    1.02    0.35
  -2  -9   8    3.40    0.57
   2  -9  -8    3.76    0.54
   2   9  -8    4.24    0.55
   2   9  -8    4.18    0.63
   2   9  -8    3.54    0.64
   2   9  -8    2.86    0.57
   1  -9  -8   11.32    1.42
  -1  -9   8   10.65    1.45
   1   9  -8   12.00    1.49
   1   9  -8   12.56    1.53
   1   9  -8   13.04    1.42
   0  -9  -8    1.28    0.28
   0   9  -8    1.59    0.36
   0   9  -8    1.29    0.27
   0   9  -8    1.73    0.41
  -1  -9  -8   -0.18    0.16
  -1   9  -8    0.18    0.15
  -1   9  -8    0.25    0.30
   8 -10  -8    0.63    0.20
   8  10  -8    0.82    0.28
  -8  10   8    1.07    0.31
   7 -10  -8    0.60    0.19
   7  10  -8    0.52    0.23
  -7  10   8    0.52    0.25
   6 -10  -8    3.56    0.50
  -6 -10   8    2.65    0.53
   6  10  -8    3.81    0.59
   6  10  -8    4.45    0.61
  -6  10   8    3.20    0.54
  -5 -10   8    2.75    0.57
   5 -10  -8    3.35    0.51
   5  10  -8    4.46    0.62
   5  10  -8    3.70    0.62
   5  10  -8    4.23    0.62
   4 -10  -8    1.14    0.26
  -4 -10   8    1.32    0.33
   4  10  -8    0.89    0.29
   4  10  -8    0.98    0.23
   4  10  -8    1.39    0.36
   4  10  -8    1.28    0.33
   3 -10  -8    3.00    0.45
  -3 -10   8    3.43    0.54
   3  10  -8    2.70    0.55
   3  10  -8    3.48    0.56
   3  10  -8    2.28    0.40
   3  10  -8    2.95    0.51
  -2 -10   8   -0.06    0.19
   2 -10  -8    0.05    0.18
   2  10  -8    0.03    0.25
   2  10  -8   -0.06    0.21
   2  10  -8    0.03    0.19
   2  10  -8    0.18    0.15
  -1 -10   8    0.55    0.23
   1 -10  -8    0.35    0.21
   1  10  -8    0.62    0.19
   1  10  -8    0.68    0.31
   1  10  -8    0.73    0.27
   1  10  -8    0.71    0.30
   0 -10   8    2.95    0.44
   0 -10  -8    1.96    0.35
   0  10  -8    2.30    0.37
   0  10  -8    3.08    0.51
   0  10  -8    2.08    0.42
   1 -10   8   -0.07    0.16
  -1  10  -8   -0.10    0.16
   7 -11  -8    1.43    0.24
   7  11  -8    0.82    0.29
  -7  11   8    1.09    0.32
   6 -11  -8    0.27    0.16
  -6 -11   8   -0.01    0.21
   6  11  -8   -0.05    0.18
   6  11  -8    0.47    0.21
  -6  11   8    0.41    0.28
  -5 -11   8    0.97    0.27
   5 -11  -8    1.32    0.24
   5  11  -8    1.09    0.30
   5  11  -8    1.19    0.30
  -4 -11   8    3.41    0.61
   4 -11  -8    4.45    0.56
   4  11  -8    3.56    0.60
   4  11  -8    3.74    0.62
   4  11  -8    4.30    0.54
   4  11  -8    4.97    0.69
   3 -11  -8    0.06    0.16
  -3 -11   8    0.42    0.23
   3  11  -8    0.47    0.22
   3  11  -8    0.08    0.21
   3  11  -8    0.37    0.15
   3  11  -8    0.13    0.28
  -2 -11   8    4.77    0.70
   2 -11  -8    4.77    0.63
   2  11  -8    4.47    0.61
   2  11  -8    5.38    0.76
   2  11  -8    4.10    0.67
   2  11  -8    4.57    0.70
  -1 -11   8    5.43    0.81
   1 -11  -8    5.88    0.74
   1  11  -8    6.00    0.74
   1  11  -8    5.07    0.83
   1  11  -8    6.72    0.82
   1  11  -8    5.76    0.93
   0 -11   8    0.97    0.25
   0  11  -8    0.42    0.32
   6  12  -8    1.65    0.33
  -5 -12   8    0.49    0.20
   5 -12  -8    0.08    0.13
   5  12  -8   -0.14    0.17
   5  12  -8    0.21    0.21
   4 -12  -8    0.14    0.14
  -4 -12   8    0.18    0.18
   4  12  -8    0.02    0.19
   4  12  -8    0.03    0.19
   3 -12  -8    9.54    1.19
   3  12  -8    9.89    1.23
   3  12  -8   10.83    1.29
   3  12  -8    9.98    1.24
  -2 -12   8    8.27    1.00
   2 -12  -8    7.83    0.95
   2  12  -8    6.82    1.04
   2  12  -8    8.28    1.00
  -1 -12   8   -0.03    0.20
  11   0  -9   -0.22    0.18
 -11   0   9    0.14    0.15
 -10   0   9    0.06    0.13
  10   0  -9    0.01    0.20
  -9   0   9    0.08    0.14
   9   0  -9   -0.02    0.21
   9   0  -9   -0.09    0.21
  -8   0   9    0.06    0.12
   8   0  -9   -0.11    0.20
   8   0  -9    0.15    0.21
   7   0  -9    0.03    0.22
   7   0  -9    0.12    0.20
   6   0  -9    0.15    0.16
   6   0  -9   -0.25    0.23
   6   0  -9    0.01    0.20
   5   0  -9   -0.19    0.19
   5   0  -9    0.44    0.28
   5   0  -9    0.02    0.17
   4   0  -9    0.00    0.21
   4   0  -9    0.12    0.18
   3   0  -9   -0.05    0.18
   3   0  -9   -0.10    0.21
   2   0  -9    0.11    0.19
   2   0  -9    0.16    0.24
   1   0  -9    0.01    0.20
   1   0  -9    0.12    0.26
   0   0  -9    0.05    0.22
   0   0  -9    0.24    0.21
  -1   0  -9    0.00    0.21
  -1   0  -9    0.10    0.23
  -2   0  -9   -0.04    0.22
  -2   0  -9   -0.27    0.21
 -11  -1   9    0.02    0.13
  11  -1  -9    0.00    0.17
  11   1  -9    0.35    0.19
 -11   1   9    0.17    0.16
 -10  -1   9    6.36    0.78
  10  -1  -9    6.83    0.87
  10   1  -9    6.27    0.88
 -10   1   9    5.58    0.78
   9  -1  -9    0.33    0.23
   9  -1  -9    0.32    0.24
  -9  -1   9    0.64    0.17
  -9   1   9    0.49    0.18
   9   1  -9    0.01    0.24
   9   1  -9    1.14    0.30
   8  -1  -9    7.22    0.99
   8  -1  -9    7.35    0.99
   8   1  -9    8.08    1.04
  -8   1   9    6.51    0.85
   8   1  -9    5.90    0.95
   7  -1  -9   24.59    2.87
   7   1  -9   23.49    2.87
   7   1  -9   24.40    2.89
   6  -1  -9    2.50    0.45
   6  -1  -9    1.33    0.39
   6  -1  -9    1.67    0.34
   6   1  -9    1.17    0.36
   6   1  -9    1.16    0.30
   6   1  -9    1.98    0.44
   5  -1  -9   35.22    4.20
   5   1  -9   36.67    4.21
   5   1  -9   36.33    4.17
   4  -1  -9   61.90    5.90
   4  -1  -9   62.24    5.94
   4   1  -9   45.18    5.90
   4   1  -9   39.70    5.86
   3  -1  -9    5.69    0.80
   3  -1  -9    5.34    0.76
   3   1  -9    5.08    0.79
   3   1  -9    4.16    0.73
   2  -1  -9   25.54    3.06
   2  -1  -9   27.80    3.07
   2   1  -9   24.52    2.99
   2   1  -9   26.90    3.08
   1  -1  -9    8.61    0.99
   1   1  -9    7.70    1.02
   1   1  -9    5.06    0.95
   1   1  -9    7.29    0.92
   0  -1  -9    0.73    0.28
   0   1  -9    0.89    0.28
   0   1  -9    0.56    0.24
  -1  -1  -9   26.34    3.11
  -1   1  -9   28.02    3.14
  -1   1  -9   25.37    3.06
  -2  -1  -9   13.93    1.78
  -2   1  -9   15.59    1.81
  -3   1  -9    1.03    0.30
 -11  -2   9    1.05    0.21
  11   2  -9    0.98    0.28
 -10  -2   9    0.31    0.14
  10  -2  -9    0.16    0.21
 -10   2   9   -0.04    0.17
  10   2  -9   -0.02    0.20
   9  -2  -9    0.91    0.24
   9  -2  -9    0.66    0.27
  -9  -2   9    0.58    0.16
   9   2  -9    0.40    0.26
   9   2  -9    0.73    0.29
  -9   2   9    0.17    0.18
   8  -2  -9    0.49    0.25
   8  -2  -9    0.47    0.27
   8   2  -9    0.40    0.27
   8   2  -9    0.81    0.28
   7  -2  -9    0.77    0.30
   7  -2  -9    1.00    0.33
   7   2  -9    0.91    0.34
   7   2  -9    1.27    0.36
   6  -2  -9   13.63    1.33
   6  -2  -9   12.24    1.38
   6  -2  -9    8.89    1.34
   6   2  -9   14.04    1.44
   6   2  -9    7.12    1.32
   6   2  -9    8.82    1.39
   5  -2  -9    3.19    0.50
   5  -2  -9    2.71    0.54
   5   2  -9    2.75    0.53
   5   2  -9    1.89    0.44
   5   2  -9    3.98    0.57
   4  -2  -9    5.52    0.71
   4  -2  -9    4.22    0.60
   4   2  -9    4.24    0.64
   4   2  -9    2.08    0.56
   4   2  -9    3.05    0.57
   4   2  -9    4.54    0.54
   3  -2  -9   29.23    3.16
   3  -2  -9   28.09    3.14
   3   2  -9   24.50    3.15
   3   2  -9   25.84    3.07
   2  -2  -9    1.80    0.37
   2  -2  -9    1.55    0.34
   2   2  -9    1.71    0.40
   2   2  -9    0.80    0.31
   2   2  -9    2.16    0.32
   1  -2  -9   11.48    1.34
   1   2  -9    8.38    1.36
   1   2  -9   10.87    1.36
   1   2  -9   10.92    1.28
   0  -2  -9    8.12    1.04
   0   2  -9    8.33    1.00
   0   2  -9    6.86    1.07
  -1  -2  -9    6.84    0.93
  -1   2  -9    6.30    0.96
  -1   2  -9    7.37    0.90
  -2   2  -9    2.25    0.46
  -2   2  -9    2.55    0.40
  -3   2  -9    2.68    0.47
 -11  -3   9    1.30    0.25
  11   3  -9    1.32    0.33
 -10  -3   9    0.26    0.14
  10  -3  -9    0.25    0.20
  10   3  -9    0.22    0.21
   9  -3  -9    1.41    0.34
   9   3  -9    1.62    0.39
   8  -3  -9    4.08    0.63
   8  -3  -9    4.07    0.65
   8   3  -9    3.48    0.63
   8   3  -9    4.70    0.72
   7  -3  -9   15.87    2.06
   7   3  -9   18.34    2.10
   7   3  -9   16.98    2.07
   6  -3  -9    2.04    0.43
   6   3  -9    1.58    0.37
   6   3  -9    2.18    0.46
   6   3  -9    2.24    0.45
   6   3  -9    2.60    0.34
   5  -3  -9    3.85    0.67
   5  -3  -9    4.97    0.65
   5   3  -9    2.77    0.66
   5   3  -9    4.46    0.58
   5   3  -9    4.97    0.71
   4  -3  -9    7.42    0.84
   4  -3  -9    7.41    0.94
   4   3  -9    4.47    0.82
   4   3  -9    4.62    0.86
   4   3  -9    6.91    0.90
   4   3  -9    6.18    0.79
   3  -3  -9   17.25    1.82
   3  -3  -9   14.93    1.78
   3   3  -9   15.42    1.73
   3   3  -9   11.45    1.80
   2  -3  -9    1.99    0.45
   2  -3  -9    2.09    0.40
   2   3  -9    2.62    0.50
   2   3  -9    1.35    0.39
   2   3  -9    2.49    0.37
   1  -3  -9   40.05    4.69
   1   3  -9   41.26    4.65
   1   3  -9   41.03    4.73
   0  -3  -9    2.77    0.58
   0   3  -9    2.37    0.51
   0   3  -9    2.98    0.46
   0   3  -9    2.60    0.51
  -1   3  -9    8.72    1.05
  -1   3  -9    7.44    1.10
  -2   3  -9    7.15    0.99
  -2   3  -9    8.84    1.07
  -3   3  -9   -0.24    0.19
 -10  -4   9    3.38    0.44
  10   4  -9    2.40    0.47
   9  -4  -9    0.20    0.21
   9   4  -9    0.22    0.22
   8  -4  -9    0.77    0.30
   8  -4  -9    1.06    0.28
   8   4  -9    0.81    0.30
   8   4  -9    0.75    0.34
   7  -4  -9    1.94    0.47
   7  -4  -9    3.08    0.52
   7   4  -9    3.49    0.56
   7   4  -9    3.78    0.63
   6  -4  -9    2.16    0.47
   6   4  -9    2.74    0.39
   6   4  -9    2.68    0.46
   6   4  -9    3.05    0.55
   6   4  -9    3.34    0.57
   5  -4  -9    1.76    0.39
   5  -4  -9    1.68    0.32
   5   4  -9    1.35    0.27
   5   4  -9    1.43    0.38
   5   4  -9    1.99    0.41
   5   4  -9    1.55    0.33
   4  -4  -9    4.24    0.61
   4  -4  -9    2.84    0.50
   4   4  -9    3.30    0.48
   4   4  -9    3.17    0.54
   4   4  -9    4.06    0.62
   4   4  -9    2.24    0.55
   3  -4  -9    5.03    0.73
   3  -4  -9    5.04    0.70
   3   4  -9    4.37    0.73
   3   4  -9    3.41    0.73
   3   4  -9    5.51    0.67
   3   4  -9    6.25    0.81
   2   4  -9    1.00    0.24
   2   4  -9    1.20    0.34
   2   4  -9    0.62    0.25
   1   4  -9    1.19    0.39
   1   4  -9    1.38    0.29
   1   4  -9    0.67    0.29
   0   4  -9    0.29    0.18
   0   4  -9    0.19    0.32
   0   4  -9    0.52    0.24
  -1   4  -9    4.80    0.74
  -1   4  -9    4.94    0.67
  -2   4  -9    0.15    0.20
  -2   4  -9    0.23    0.18
 -10  -5   9    0.78    0.17
  10   5  -9    0.58    0.26
   9   5  -9    0.15    0.22
   8   5  -9   -0.21    0.23
   7  -5  -9    0.79    0.25
   7   5  -9    0.45    0.28
   7   5  -9    0.72    0.30
   6  -5  -9    0.70    0.25
   6   5  -9    0.59    0.22
   6   5  -9    0.72    0.33
   6   5  -9    0.73    0.17
   6   5  -9    0.52    0.27
   5  -5  -9    0.73    0.28
   5   5  -9    0.48    0.26
   5   5  -9    0.79    0.19
   5   5  -9    0.66    0.29
   5   5  -9    0.76    0.24
   4  -5  -9    1.06    0.32
   4   5  -9    0.99    0.35
   4   5  -9    1.11    0.24
   4   5  -9    0.77    0.32
   4   5  -9    1.23    0.30
   3  -5  -9    0.50    0.26
   3   5  -9    0.80    0.20
   3   5  -9    0.66    0.29
   3   5  -9    0.30    0.26
   3   5  -9    0.75    0.26
   2   5  -9    5.58    0.85
   2   5  -9    6.94    1.05
   2   5  -9    5.08    0.76
   2   5  -9    6.90    0.94
   1   5  -9   12.37    1.67
   1   5  -9   14.07    1.62
   1   5  -9   14.34    1.73
   0   5  -9    8.25    1.09
   0   5  -9    7.39    0.98
   0   5  -9    7.38    1.09
  -1   5  -9    2.69    0.41
  -1   5  -9    2.45    0.46
  -2   5  -9    0.53    0.21
  -2   5  -9    0.69    0.24
 -10  -6   9    0.00    0.11
 -10   6   9    0.04    0.15
  10   6  -9    0.11    0.22
   9   6  -9    7.68    1.07
   8   6  -9    1.41    0.36
   7   6  -9    0.10    0.27
   7   6  -9    0.12    0.22
   6  -6  -9    1.94    0.39
   6   6  -9    1.90    0.30
   6   6  -9    1.76    0.36
   6   6  -9    2.21    0.45
   6   6  -9    1.69    0.43
   5  -6  -9   -0.02    0.17
   5   6  -9    0.30    0.14
   5   6  -9    0.06    0.22
   5   6  -9    0.45    0.23
   5   6  -9   -0.01    0.25
   5   6  -9    0.01    0.19
   4  -6  -9    0.17    0.20
   4   6  -9    0.20    0.25
   4   6  -9    0.03    0.21
   4   6  -9   -0.02    0.22
   4   6  -9    0.05    0.19
   4   6  -9   -0.28    0.13
   3   6  -9   12.12    1.53
   3   6  -9   11.87    1.50
   3   6  -9   12.71    1.54
   3   6  -9   11.82    1.45
   2   6  -9    6.26    0.99
   2   6  -9    6.91    0.99
   2   6  -9    6.12    0.95
   2   6  -9    8.26    0.89
   1   6  -9    0.85    0.30
   1   6  -9    1.44    0.42
   1   6  -9    1.11    0.25
   0   6  -9    0.54    0.33
   0   6  -9    0.26    0.24
   0   6  -9    0.64    0.20
  -1   6  -9    3.39    0.56
  -2   6  -9   -0.02    0.20
  -2   6  -9   -0.13    0.21
   9   7  -9   -0.11    0.21
  -9   7   9   -0.13    0.14
   8   7  -9    0.00    0.20
  -8   7   9    0.25    0.17
   7   7  -9    1.63    0.41
   7   7  -9    1.70    0.39
   6   7  -9   -0.18    0.28
   6   7  -9   -0.03    0.20
   5   7  -9   -0.01    0.24
   5   7  -9    0.21    0.14
   5   7  -9    0.19    0.21
   5   7  -9    0.23    0.25
   5   7  -9    0.28    0.22
   4   7  -9    4.77    0.73
   4   7  -9    4.40    0.61
   4   7  -9    4.11    0.66
   4   7  -9    4.97    0.75
   4   7  -9    4.99    0.74
  -3  -7   9    2.75    0.65
   3   7  -9    3.60    0.48
   3   7  -9    2.73    0.53
   3   7  -9    2.71    0.55
   3   7  -9    3.37    0.57
   3   7  -9    2.95    0.51
  -2  -7   9    0.24    0.24
   2   7  -9    1.24    0.34
   2   7  -9    0.55    0.20
   2   7  -9    0.65    0.28
   2   7  -9    0.52    0.27
   1   7  -9    2.23    0.45
   1   7  -9    2.66    0.54
   1   7  -9    2.82    0.41
   0   7  -9    0.93    0.33
   0   7  -9    0.34    0.18
   0   7  -9    0.57    0.25
  -1   7  -9    0.65    0.22
  -1   7  -9    0.13    0.16
   9   8  -9    3.54    0.63
  -9   8   9    4.72    0.62
  -8   8   9    2.39    0.42
   8   8  -9    2.52    0.46
   7   8  -9   -0.02    0.19
  -7   8   9    0.05    0.18
  -6   8   9    2.81    0.52
   6   8  -9    4.01    0.64
   6   8  -9    4.47    0.64
   5   8  -9    0.35    0.15
   5   8  -9    0.72    0.32
   5   8  -9    0.54    0.24
   5   8  -9    0.35    0.26
   4   8  -9    0.61    0.27
   4   8  -9    0.09    0.14
   4   8  -9    0.14    0.23
   4   8  -9    0.36    0.23
  -3  -8   9   13.10    1.95
   3   8  -9   18.62    2.03
   3   8  -9   17.49    1.91
   3   8  -9   17.28    1.99
   3   8  -9   15.55    1.95
   3   8  -9   16.93    1.99
  -2  -8   9    5.27    0.80
   2   8  -9    5.24    0.79
   2   8  -9    6.07    0.85
   2   8  -9    7.00    0.93
   2   8  -9    5.99    0.76
  -1  -8   9    4.13    0.61
   1   8  -9    4.76    0.57
   1   8  -9    3.86    0.61
   1   8  -9    3.16    0.63
   1   8  -9    4.07    0.63
   0   8  -9    0.68    0.19
   0   8  -9    0.75    0.30
   0   8  -9    0.64    0.26
   8   9  -9    0.07    0.22
  -8   9   9    0.33    0.23
   7   9  -9    0.23    0.21
  -7   9   9   -0.25    0.21
   6   9  -9   -0.12    0.29
   6   9  -9   -0.11    0.18
   5   9  -9    0.43    0.24
   5   9  -9    0.79    0.32
   5   9  -9    0.51    0.25
   5   9  -9    0.61    0.16
  -4  -9   9    0.79    0.32
   4   9  -9    0.94    0.22
   4   9  -9    1.21    0.32
   4   9  -9    1.56    0.36
   4   9  -9    1.68    0.38
  -3  -9   9    1.67    0.39
   3   9  -9    2.06    0.41
   3   9  -9    2.37    0.32
   3   9  -9    2.09    0.43
   3   9  -9    1.04    0.36
  -2  -9   9    0.02    0.20
   2   9  -9    0.64    0.19
   2   9  -9    0.67    0.28
   2   9  -9    0.50    0.25
  -1  -9   9    2.50    0.43
   1   9  -9    1.93    0.44
   1   9  -9    2.94    0.40
   1   9  -9    2.89    0.50
   0  -9   9    0.35    0.21
   0   9  -9    0.57    0.18
   7  10  -9    1.64    0.34
   6  10  -9    0.26    0.21
   5  10  -9    3.98    0.59
   5  10  -9    3.00    0.55
   5  10  -9    3.70    0.59
  -4 -10   9    0.58    0.27
   4  10  -9    0.71    0.26
   4  10  -9    0.81    0.32
   4  10  -9    0.88    0.18
   4  10  -9    0.74    0.27
  -3 -10   9    4.83    0.71
   3  10  -9    3.77    0.67
   3  10  -9    4.98    0.71
   3  10  -9    4.98    0.74
   3  10  -9    5.94    0.64
  -2 -10   9    1.66    0.37
   2  10  -9    1.44    0.36
   2  10  -9    2.10    0.29
   2  10  -9    1.82    0.40
  -1 -10   9    0.05    0.22
   1  10  -9    0.12    0.17
   5  11  -9    0.88    0.29
   5  11  -9    1.06    0.27
   4  11  -9    0.29    0.24
   4  11  -9    0.46    0.23
   3  11  -9    0.12    0.23
  10   0 -10    1.88    0.38
 -10   0  10    1.62    0.29
   9   0 -10    7.04    0.87
  -9   0  10    4.60    0.76
   9   0 -10    8.12    0.88
   8   0 -10    8.24    1.12
   8   0 -10    8.69    1.12
   7   0 -10    2.39    0.47
   7   0 -10    2.15    0.46
   6   0 -10    0.13    0.16
   6   0 -10    0.11    0.23
   6   0 -10    0.37    0.28
   5   0 -10   17.10    2.03
   5   0 -10   16.74    2.07
   4   0 -10    0.43    0.26
   4   0 -10    0.34    0.22
   3   0 -10    2.00    0.41
   3   0 -10    1.96    0.42
   2   0 -10   20.44    2.32
   2   0 -10   18.26    2.30
   1   0 -10    3.05    0.53
   0   0 -10   18.84    2.24
  -1   0 -10   15.30    1.83
  10  -1 -10    0.82    0.25
 -10  -1  10    0.94    0.20
  10   1 -10    0.56    0.24
   9  -1 -10    0.08    0.20
  -9  -1  10    0.33    0.16
   9  -1 -10    0.34    0.22
   9   1 -10    0.16    0.21
   9   1 -10    0.07    0.24
   8  -1 -10    0.06    0.22
   8  -1 -10    0.05    0.22
  -8  -1  10    0.07    0.13
   8   1 -10    0.04    0.21
   8   1 -10   -0.05    0.23
   7  -1 -10    6.30    0.93
   7  -1 -10    8.21    1.00
   7   1 -10    6.47    0.95
   7   1 -10    5.80    0.93
   6  -1 -10    5.17    0.69
   6  -1 -10    5.69    0.79
   6   1 -10    3.29    0.69
   6   1 -10    4.39    0.68
   6   1 -10    5.21    0.77
   5  -1 -10    0.32    0.27
   5  -1 -10    0.58    0.22
   5   1 -10    0.60    0.28
   5   1 -10    0.40    0.21
   4  -1 -10    4.58    0.62
   4  -1 -10    5.81    0.72
   4   1 -10    2.48    0.56
   4   1 -10    3.91    0.65
   3  -1 -10   12.56    1.50
   3  -1 -10   13.02    1.53
   3   1 -10   10.24    1.49
   3   1 -10   13.04    1.54
   2  -1 -10    2.24    0.52
   2  -1 -10    2.47    0.43
   2   1 -10    1.97    0.44
   2   1 -10    2.39    0.46
   1  -1 -10    1.52    0.36
   1   1 -10    2.32    0.42
   0  -1 -10    0.17    0.22
   0   1 -10    0.18    0.21
  -1  -1 -10   -0.08    0.22
  -1   1 -10    0.26    0.21
 -10  -2  10    0.11    0.14
  10  -2 -10   -0.05    0.19
  10   2 -10   -0.04    0.19
   9  -2 -10    3.03    0.47
   9  -2 -10    3.18    0.50
  -9  -2  10    2.45    0.40
   9   2 -10    3.29    0.51
   9   2 -10    2.07    0.44
   8  -2 -10    1.05    0.30
   8  -2 -10    1.06    0.31
   8   2 -10    0.62    0.30
   8   2 -10    1.01    0.33
   7  -2 -10    2.07    0.41
   7  -2 -10    1.83    0.40
   7   2 -10    1.66    0.41
   7   2 -10    1.41    0.39
   6  -2 -10    7.61    1.10
   6   2 -10    7.06    1.10
   6   2 -10    9.66    1.14
   5  -2 -10    0.60    0.22
   5  -2 -10    0.48    0.26
   5   2 -10    0.26    0.20
   5   2 -10    0.55    0.31
   5   2 -10    0.60    0.27
   4  -2 -10    0.30    0.24
   4  -2 -10    0.42    0.21
   4   2 -10    0.39    0.25
   4   2 -10    0.00    0.17
   3  -2 -10    7.06    0.84
   3  -2 -10    6.62    0.86
   3   2 -10    6.16    0.85
   3   2 -10    3.65    0.77
   2  -2 -10    2.83    0.46
   2   2 -10    2.93    0.48
   2   2 -10    2.03    0.38
   2   2 -10    2.49    0.50
   1  -2 -10    0.75    0.26
   1   2 -10    0.59    0.23
   1   2 -10    0.94    0.28
   0  -2 -10   10.71    1.46
   0   2 -10   13.91    1.51
   0   2 -10   11.99    1.43
  -1   2 -10   16.04    1.92
 -10  -3  10    0.33    0.15
  10   3 -10    0.28    0.21
  -9  -3  10    1.06    0.21
   9  -3 -10    0.84    0.28
   9   3 -10    0.98    0.31
   8  -3 -10    1.46    0.35
   8  -3 -10    1.62    0.35
   8   3 -10    1.57    0.38
   8   3 -10    1.75    0.39
   7  -3 -10   19.88    2.42
   7   3 -10   20.66    2.44
   7   3 -10   20.35    2.45
   6  -3 -10   21.95    2.38
   6   3 -10   18.59    2.38
   6   3 -10   18.35    2.32
   6   3 -10   20.67    2.39
   5  -3 -10    7.19    0.96
   5  -3 -10    6.59    0.89
   5   3 -10    6.98    0.98
   5   3 -10    6.48    0.96
   5   3 -10    5.92    0.90
   4  -3 -10    1.34    0.33
   4  -3 -10    1.06    0.27
   4   3 -10    1.51    0.36
   4   3 -10    0.47    0.23
   4   3 -10    0.65    0.22
   3  -3 -10    2.07    0.42
   3  -3 -10    2.32    0.40
   3   3 -10    2.50    0.37
   3   3 -10    1.89    0.45
   3   3 -10    1.87    0.41
   2  -3 -10    0.39    0.24
   2   3 -10    0.41    0.20
   2   3 -10    0.87    0.25
   2   3 -10    0.19    0.28
   1   3 -10    3.19    0.64
   1   3 -10    4.42    0.56
   1   3 -10    4.15    0.63
   0   3 -10    1.53    0.34
   0   3 -10    1.16    0.27
  -1   3 -10    3.35    0.54
 -10  -4  10   -0.07    0.16
  10   4 -10   -0.05    0.19
  -9  -4  10    0.34    0.14
   9   4 -10    0.76    0.26
   8  -4 -10    0.11    0.18
   8   4 -10    0.12    0.24
   8   4 -10    0.12    0.22
   7  -4 -10    0.58    0.25
   7   4 -10    0.81    0.31
   7   4 -10    0.65    0.30
   6  -4 -10   12.82    1.59
   6   4 -10   12.48    1.55
   6   4 -10   12.24    1.62
   6   4 -10   13.94    1.63
   5  -4 -10   25.55    2.93
   5   4 -10   25.33    2.95
   5   4 -10   23.08    2.85
   5   4 -10   26.58    2.97
   5   4 -10   24.94    2.91
   4  -4 -10    3.03    0.47
   4  -4 -10    2.05    0.39
   4   4 -10    2.24    0.43
   4   4 -10    2.27    0.50
   4   4 -10    2.25    0.36
   4   4 -10    2.01    0.46
   3   4 -10    8.36    1.07
   3   4 -10    9.17    1.17
   3   4 -10    8.70    1.13
   2   4 -10    3.04    0.54
   2   4 -10    2.68    0.43
   2   4 -10    3.08    0.52
   1   4 -10    0.03    0.29
   1   4 -10    0.32    0.18
   1   4 -10    0.09    0.19
   0   4 -10    2.04    0.34
   0   4 -10    2.17    0.40
  -1   4 -10    2.81    0.46
   9   5 -10    2.63    0.48
   8   5 -10    4.32    0.76
   8   5 -10    7.38    0.88
   7  -5 -10   12.38    1.50
   7   5 -10   11.41    1.54
   7   5 -10   13.13    1.58
   6  -5 -10    0.45    0.25
   6   5 -10    0.46    0.28
   6   5 -10    0.12    0.19
   6   5 -10    0.62    0.29
   5  -5 -10    4.68    0.74
   5   5 -10    6.00    0.83
   5   5 -10    5.32    0.82
   5   5 -10    5.66    0.76
   5   5 -10    5.05    0.67
   4  -5 -10    4.13    0.64
   4   5 -10    4.26    0.70
   4   5 -10    4.66    0.71
   4   5 -10    4.44    0.65
   4   5 -10    4.07    0.58
   3   5 -10    0.40    0.23
   3   5 -10    0.35    0.18
   3   5 -10    0.51    0.28
   2   5 -10    1.23    0.30
   2   5 -10    1.65    0.39
   2   5 -10    0.92    0.24
   1   5 -10    6.87    1.01
   1   5 -10    7.29    0.93
   1   5 -10    8.31    1.00
   0   5 -10    0.02    0.18
   0   5 -10   -0.04    0.14
  -9   6  10   -0.11    0.14
   9   6 -10    0.28    0.22
   8   6 -10    0.89    0.29
   7   6 -10   -0.22    0.23
   7   6 -10   -0.32    0.28
   6   6 -10   -0.18    0.26
   6   6 -10    0.48    0.27
   5   6 -10    4.15    0.63
   5   6 -10    2.72    0.54
   5   6 -10    3.92    0.50
   5   6 -10    4.35    0.67
   4   6 -10    2.37    0.45
   4   6 -10    1.79    0.31
   4   6 -10    1.87    0.37
   4   6 -10    2.12    0.45
   3   6 -10   11.79    1.35
   3   6 -10   11.91    1.54
   3   6 -10   11.05    1.46
   3   6 -10   10.75    1.39
   2   6 -10    3.42    0.55
   2   6 -10    3.31    0.48
   2   6 -10    3.19    0.60
   1   6 -10    0.12    0.22
   1   6 -10    0.59    0.32
   1   6 -10    0.63    0.19
   0   6 -10    0.43    0.22
   0   6 -10    0.72    0.19
  -8   7  10    0.68    0.24
   8   7 -10    1.62    0.33
   7   7 -10    2.87    0.58
   7   7 -10    4.36    0.63
   6   7 -10    0.25    0.22
   6   7 -10    0.17    0.26
   5   7 -10    3.53    0.55
   5   7 -10    3.48    0.50
   5   7 -10    3.88    0.64
   5   7 -10    4.47    0.65
   4   7 -10    7.33    1.00
   4   7 -10    7.82    0.96
   4   7 -10    7.91    1.07
   4   7 -10    9.15    1.12
   3   7 -10    4.25    0.72
   3   7 -10    4.79    0.62
   3   7 -10    4.61    0.71
   3   7 -10    4.87    0.68
   2   7 -10    1.36    0.25
   2   7 -10    1.06    0.29
   2   7 -10    1.04    0.35
   1   7 -10    2.23    0.43
   1   7 -10    1.94    0.32
   1   7 -10    1.49    0.33
   7   8 -10   -0.15    0.22
   6   8 -10    0.58    0.27
   6   8 -10    0.10    0.21
   5   8 -10    0.08    0.12
   5   8 -10   -0.22    0.24
   5   8 -10    0.27    0.24
   4   8 -10    0.52    0.26
   4   8 -10   -0.12    0.12
   4   8 -10   -0.13    0.23
   3   8 -10    1.18    0.21
   3   8 -10    0.72    0.31
   3   8 -10    0.57    0.30
   2   8 -10    0.14    0.15
   2   8 -10    0.03    0.26
   6   9 -10    0.07    0.21
   5   9 -10    2.82    0.48
   5   9 -10    2.46    0.52
   4   9 -10   10.72    1.38
   4   9 -10   10.84    1.29
   4   9 -10   11.67    1.38
   3   9 -10    1.80    0.49
   3   9 -10    1.98    0.31
   9   0 -11    0.16    0.21
   9   0 -11   -0.13    0.20
   8   0 -11    0.04    0.21
   8   0 -11   -0.23    0.22
   7   0 -11    0.06    0.22
   6   0 -11   -0.06    0.20
   6   0 -11    0.02    0.15
   5   0 -11    0.10    0.24
   5   0 -11   -0.26    0.16
   4   0 -11   -0.42    0.23
   4   0 -11    0.06    0.17
   3   0 -11    0.13    0.19
   3   0 -11    0.18    0.27
   2   0 -11    0.17    0.19
   1   0 -11    0.00    0.18
   9  -1 -11    0.75    0.24
   9  -1 -11    1.12    0.33
   9   1 -11    0.99    0.28
   9   1 -11    1.09    0.30
   8  -1 -11    0.70    0.26
   8   1 -11    0.47    0.25
   8   1 -11    0.17    0.23
   7  -1 -11    4.48    0.66
   7   1 -11    4.26    0.64
   7   1 -11    3.53    0.61
   6  -1 -11    1.16    0.31
   6   1 -11    0.68    0.29
   6   1 -11    0.83    0.24
   5  -1 -11    0.42    0.19
   5  -1 -11    0.05    0.26
   5   1 -11    0.42    0.21
   5   1 -11    0.72    0.26
   4  -1 -11    0.04    0.18
   4  -1 -11    0.13    0.26
   4   1 -11    0.38    0.19
   4   1 -11    0.57    0.27
   3  -1 -11    4.24    0.72
   3  -1 -11    5.02    0.69
   3   1 -11    5.09    0.73
   3   1 -11    5.37    0.72
   2  -1 -11    1.24    0.30
   2   1 -11    1.61    0.32
   1  -1 -11   15.83    2.00
   1   1 -11   18.46    2.03
   9   2 -11    2.05    0.39
   8  -2 -11    0.54    0.24
   8   2 -11    0.74    0.26
   8   2 -11    0.37    0.23
   7  -2 -11    5.80    0.78
   7   2 -11    5.20    0.78
   7   2 -11    5.06    0.77
   6  -2 -11    5.00    0.72
   6   2 -11    4.49    0.69
   6   2 -11    4.27    0.65
   5  -2 -11    1.62    0.36
   5  -2 -11    1.32    0.30
   5   2 -11    1.46    0.31
   5   2 -11    1.28    0.35
   4  -2 -11    2.35    0.40
   4  -2 -11    2.05    0.42
   4   2 -11    2.09    0.39
   4   2 -11    1.88    0.42
   3  -2 -11    0.35    0.20
   3   2 -11    0.35    0.19
   3   2 -11    0.32    0.28
   2  -2 -11    0.00    0.19
   2   2 -11    0.37    0.38
   2   2 -11    0.30    0.20
   1   2 -11    0.40    0.21
   9   3 -11    0.14    0.22
   8  -3 -11    0.06    0.17
  -8  -3  11   -0.07    0.14
   8   3 -11   -0.06    0.22
   8   3 -11    0.00    0.24
   7  -3 -11    0.24    0.21
   7   3 -11   -0.04    0.22
   7   3 -11    0.16    0.25
   6  -3 -11    0.46    0.25
   6   3 -11   -0.09    0.27
   6   3 -11    0.65    0.28
   6   3 -11    0.07    0.16
   5  -3 -11    0.42    0.24
   5   3 -11    0.33    0.19
   5   3 -11    0.41    0.26
   4  -3 -11    6.95    0.99
   4  -3 -11    7.75    1.05
   4   3 -11    8.50    1.07
   4   3 -11    8.91    1.03
   3   3 -11    0.38    0.20
   3   3 -11    0.23    0.26
   2   3 -11    0.10    0.18
   2   3 -11   -0.23    0.29
   1   3 -11    9.29    1.16
   8   4 -11    4.09    0.70
   8   4 -11    5.78    0.75
   7  -4 -11    2.15    0.37
   7   4 -11    2.05    0.44
   7   4 -11    2.17    0.43
   6  -4 -11    7.59    1.04
   6   4 -11    8.64    1.02
   6   4 -11    8.16    1.11
   5  -4 -11    0.77    0.29
   5   4 -11    0.62    0.28
   5   4 -11    1.13    0.26
   4   4 -11    1.01    0.31
   4   4 -11    0.96    0.26
   3   4 -11    0.77    0.31
   3   4 -11    0.74    0.24
   2   4 -11    1.73    0.56
   2   4 -11    2.06    0.37
   1   4 -11    0.14    0.19
   8   5 -11    1.83    0.37
   7   5 -11   -0.03    0.21
   7   5 -11    0.29    0.24
   6   5 -11    2.27    0.47
   6   5 -11    2.24    0.45
   5  -5 -11    2.86    0.48
   5   5 -11    2.70    0.52
   5   5 -11    3.93    0.69
   5   5 -11    3.51    0.50
   4   5 -11    0.42    0.19
   4   5 -11    0.31    0.17
   4   5 -11    0.75    0.28
   3   5 -11   -0.21    0.17
   3   5 -11   -0.01    0.26
   3   5 -11    0.03    0.15
   2   5 -11    0.03    0.16
   7   6 -11    0.49    0.25
   6   6 -11   10.76    1.35
   5   6 -11    0.91    0.25
   5   6 -11    1.40    0.26
   5   6 -11    1.24    0.33
   5   6 -11    0.56    0.40
   4   6 -11    0.42    0.25
   4   6 -11    0.48    0.18
   4   6 -11    0.32    0.20
   3   6 -11   10.88    1.32
   7   0 -12    1.64    0.49
   6   0 -12    1.83    0.36
   5   0 -12   -0.06    0.14
   5   0 -12    0.07    0.30
   4   0 -12    0.85    0.22
   6  -1 -12    0.48    0.23
   6   1 -12    0.11    0.21
   5   1 -12    0.42    0.18
   5   1 -12    0.17    0.30
   4   1 -12    0.48    0.20
   6   2 -12    0.40    0.28
   5   2 -12   -0.09    0.15
   4   2 -12    1.02    0.26
   5   3 -12    0.92    0.23
   0   0   0    0.00    0.00
;
_shelx_hkl_checksum              71219
_shelx_res_file
;
TITL msa1 in P2(1)/c
 shelx.res created by SHELXL-2016/4 at 13:16:12 on 09-Feb-2017
CELL  1.54178  10.4328  14.3157  10.4869   90.000  117.064   90.000
ZERR     4.00   0.0012   0.0015   0.0012    0.000    0.006    0.000
LATT   1
SYMM  - X, 1/2 + Y, 1/2 - Z
SFAC  C    H    N    O    S
UNIT  56 60 4 16 4
MERG   2
OMIT     0.00 180.00
OMIT     0   2   0
OMIT     1   0   0
SIZE 0.17 0.22 0.28
DFIX 0.86 0.02 N1 H1
FMAP   2
PLAN   50
ACTA
BOND
BOND   $H
CONF
L.S.  50
TEMP    23.00
WGHT    0.136400
EXTI    0.010575
FVAR       0.21804
C1    1    0.376318    0.954150    0.144947    11.00000    0.04687    0.05117 =
         0.03596    0.00324    0.01905    0.00142
C2    1    0.492617    0.892825    0.205559    11.00000    0.04954    0.07044 =
         0.04671    0.00764    0.02229    0.00834
C3    1    0.521470    0.836291    0.113831    11.00000    0.06399    0.08680 =
         0.06847    0.00302    0.03064    0.02479
AFIX  43
H3    2    0.598056    0.794521    0.151637    11.00000   -1.20000
AFIX   0
C4    1    0.438734    0.841337   -0.031115    11.00000    0.07698    0.10047 =
         0.06180   -0.01332    0.03884    0.01761
AFIX  43
H4    2    0.460099    0.803009   -0.090500    11.00000   -1.20000
AFIX   0
C5    1    0.324342    0.902137   -0.090775    11.00000    0.07033    0.08049 =
         0.04140   -0.00402    0.02849    0.00473
C6    1    0.292217    0.959331   -0.002061    11.00000    0.05588    0.06043 =
         0.03722    0.00334    0.01988    0.00382
AFIX  43
H6    2    0.215095    1.000645   -0.040936    11.00000   -1.20000
AFIX   0
C7    1    0.188636    0.897415    0.325899    11.00000    0.04400    0.04732 =
         0.03344   -0.00049    0.01955    0.00671
C8    1    0.195922    0.841119    0.436032    11.00000    0.05772    0.06809 =
         0.04009    0.00670    0.02037    0.00024
AFIX  43
H8    2    0.272972    0.846112    0.527111    11.00000   -1.20000
AFIX   0
C9    1    0.086763    0.777058    0.408909    11.00000    0.07977    0.07321 =
         0.06034    0.01319    0.03720   -0.00541
AFIX  43
H9    2    0.090240    0.739609    0.482882    11.00000   -1.20000
AFIX   0
C10   1   -0.025415    0.768268    0.275432    11.00000    0.06103    0.06267 =
         0.07068   -0.00602    0.03161   -0.01152
AFIX  43
H10   2   -0.097532    0.724621    0.258041    11.00000   -1.20000
AFIX   0
C11   1   -0.031192    0.824069    0.167261    11.00000    0.05611    0.06538 =
         0.04981   -0.00976    0.01860   -0.00632
AFIX  43
H11   2   -0.108127    0.818391    0.076232    11.00000   -1.20000
AFIX   0
C12   1    0.074938    0.888428    0.190963    11.00000    0.05089    0.05777 =
         0.03452   -0.00226    0.01612   -0.00509
AFIX  43
H12   2    0.070090    0.925756    0.116314    11.00000   -1.20000
AFIX   0
C13   1    0.691857    0.836085    0.416088    11.00000    0.05504    0.10740 =
         0.07228    0.02223    0.01964    0.02659
AFIX 137
H13A  2    0.666377    0.771490    0.394795    11.00000   -1.50000
H13B  2    0.736012    0.845323    0.517872    11.00000   -1.50000
H13C  2    0.758229    0.853612    0.380173    11.00000   -1.50000
AFIX   0
C14   1    0.118158    0.953242   -0.300150    11.00000    0.11019    0.10157 =
         0.03856    0.00027    0.01752    0.03158
AFIX 137
H14A  2    0.056384    0.935813   -0.258691    11.00000   -1.50000
H14B  2    0.070058    0.941372   -0.401306    11.00000   -1.50000
H14C  2    0.140914    1.018497   -0.283666    11.00000   -1.50000
AFIX   0
N1    3    0.301453    0.963703    0.362793    11.00000    0.04438    0.06418 =
         0.02549    0.00276    0.00790   -0.00427
O1    4    0.206847    1.077756    0.163207    11.00000    0.06303    0.05816 =
         0.03603    0.00457    0.01695    0.01370
O2    4    0.458803    1.082219    0.345848    11.00000    0.06254    0.06007 =
         0.04300   -0.00121    0.01600   -0.01436
O3    4    0.567178    0.891541    0.350737    11.00000    0.06173    0.09880 =
         0.04411    0.01375    0.01514    0.03098
O4    4    0.246616    0.900220   -0.236433    11.00000    0.09565    0.12158 =
         0.04039   -0.01335    0.02783    0.02289
S1    5    0.334450    1.028545    0.254831    11.00000    0.04808    0.04840 =
         0.02947    0.00200    0.01304    0.00050
H1    2    0.374882    0.956424    0.443268    11.00000    0.04994
HKLF 4  1.0  1.00  0.00  0.00  0.00  1.00  0.00  0.00  0.00  1.00
REM  msa1 in P2(1)/c
REM R1 =  0.0666 for    1943 Fo > 4sig(Fo)  and  0.0756 for all    2305 data
REM    188 parameters refined using      1 restraints
END
WGHT      0.1360      0.0000
REM Highest difference peak  0.420,  deepest hole -0.332,  1-sigma level  0.109
Q1    1   0.2025  1.1163  0.1130  11.00000  0.05    0.41
Q2    1   0.1636  1.0371  0.1279  11.00000  0.05    0.38
Q3    1   0.0444  0.8947 -0.3990  11.00000  0.05    0.32
Q4    1   0.5105  0.7887  0.3097  11.00000  0.05    0.31
Q5    1   0.3332  1.1692  0.2439  11.00000  0.05    0.30
Q6    1   0.0652  0.9204  0.2587  11.00000  0.05    0.30
Q7    1  -0.0048  0.8819  0.1959  11.00000  0.05    0.30
Q8    1   0.2592  1.0224  0.3573  11.00000  0.05    0.29
Q9    1   0.4439  0.9644  0.1577  11.00000  0.05    0.29
Q10   1   0.4011  1.1213  0.3139  11.00000  0.05    0.27
Q11   1   0.4411  0.7577 -0.2038  11.00000  0.05    0.27
Q12   1   0.3376  0.8189  0.0772  11.00000  0.05    0.27
Q13   1   0.5618  0.7612 -0.0250  11.00000  0.05    0.27
Q14   1   0.7753  0.9235  0.4240  11.00000  0.05    0.26
Q15   1   0.2927  0.9480 -0.1960  11.00000  0.05    0.26
Q16   1   0.3656  0.8442 -0.0217  11.00000  0.05    0.26
Q17   1   0.2556  0.8718 -0.1759  11.00000  0.05    0.25
Q18   1   0.6156  0.7696  0.0192  11.00000  0.05    0.25
Q19   1  -0.1421  0.8796  0.0663  11.00000  0.05    0.24
Q20   1   0.6999  0.9333  0.2835  11.00000  0.05    0.24
Q21   1   0.6175  0.9372  0.2198  11.00000  0.05    0.24
Q22   1   0.0825  0.8333  0.5470  11.00000  0.05    0.23
Q23   1   0.0788  0.9144  0.3371  11.00000  0.05    0.23
Q24   1   0.0681  0.7477  0.3544  11.00000  0.05    0.23
Q25   1   0.5022  1.0063  0.3790  11.00000  0.05    0.23
Q26   1   0.4995  0.9064  0.0436  11.00000  0.05    0.22
Q27   1   0.6960  0.9343  0.3343  11.00000  0.05    0.22
Q28   1   0.3409  0.7461  0.5943  11.00000  0.05    0.22
Q29   1   0.3084  0.9714  0.5362  11.00000  0.05    0.22
Q30   1   0.3822  0.9564 -0.0275  11.00000  0.05    0.22
Q31   1   0.6746  0.7797  0.4620  11.00000  0.05    0.21
Q32   1  -0.1355  0.7719  0.2692  11.00000  0.05    0.21
Q33   1   0.0532  0.9836  0.1139  11.00000  0.05    0.21
Q34   1   0.1140  0.9759 -0.3984  11.00000  0.05    0.20
Q35   1   0.4155  0.7942  0.1176  11.00000  0.05    0.20
Q36   1  -0.0659  0.8805 -0.4839  11.00000  0.05    0.20
Q37   1   0.7579  0.9370  0.4984  11.00000  0.05    0.20
Q38   1   0.0181  0.8320  0.1472  11.00000  0.05    0.20
Q39   1   0.4840  0.9521  0.0574  11.00000  0.05    0.20
Q40   1   0.2241  0.9904  0.4603  11.00000  0.05    0.20
Q41   1  -0.0583  0.8214 -0.0365  11.00000  0.05    0.19
Q42   1   0.4683  0.9722  0.4691  11.00000  0.05    0.18
Q43   1   0.0034  0.8052  0.0568  11.00000  0.05    0.18
Q44   1   0.0985  1.0265 -0.0378  11.00000  0.05    0.18
Q45   1  -0.1349  0.8153  0.2755  11.00000  0.05    0.18
Q46   1   0.1423  0.9088 -0.2542  11.00000  0.05    0.18
Q47   1   0.3473  0.9703  0.2071  11.00000  0.05    0.17
Q48   1   0.1956  0.8012  0.6388  11.00000  0.05    0.17
Q49   1   0.2199  0.9254  0.1413  11.00000  0.05    0.16
Q50   1   0.6024  0.7505  0.1036  11.00000  0.05    0.16
;
_shelx_res_checksum              26205
loop_
_space_group_symop_operation_xyz
'x, y, z'
'-x, y+1/2, -z+1/2'
'-x, -y, -z'
'x, -y-1/2, z-1/2'
loop_
_atom_site_type_symbol
_atom_site_label
_atom_site_fract_x
_atom_site_fract_y
_atom_site_fract_z
_atom_site_U_iso_or_equiv
_atom_site_adp_type
_atom_site_calc_flag
_atom_site_occupancy
C C1 0.3763(3) 0.95415(17) 0.1449(3) 0.0446(6) Uani d 1
C C2 0.4926(3) 0.8928(2) 0.2056(3) 0.0554(7) Uani d 1
C C3 0.5215(4) 0.8363(2) 0.1138(4) 0.0729(9) Uani d 1
H H3 0.598056 0.794521 0.151637 0.087 Uiso calc 1
C C4 0.4387(4) 0.8413(3) -0.0311(4) 0.0770(10) Uani d 1
H H4 0.460099 0.803009 -0.090500 0.092 Uiso calc 1
C C5 0.3243(3) 0.9021(2) -0.0908(3) 0.0629(8) Uani d 1
C C6 0.2922(3) 0.95933(18) -0.0021(3) 0.0517(7) Uani d 1
H H6 0.215095 1.000645 -0.040936 0.062 Uiso calc 1
C C7 0.1886(3) 0.89741(16) 0.3259(3) 0.0408(6) Uani d 1
C C8 0.1959(3) 0.8411(2) 0.4360(3) 0.0560(7) Uani d 1
H H8 0.272972 0.846112 0.527111 0.067 Uiso calc 1
C C9 0.0868(4) 0.7771(2) 0.4089(4) 0.0691(9) Uani d 1
H H9 0.090240 0.739609 0.482882 0.083 Uiso calc 1
C C10 -0.0254(3) 0.7683(2) 0.2754(3) 0.0642(8) Uani d 1
H H10 -0.097532 0.724621 0.258041 0.077 Uiso calc 1
C C11 -0.0312(3) 0.8241(2) 0.1673(3) 0.0592(7) Uani d 1
H H11 -0.108127 0.818391 0.076232 0.071 Uiso calc 1
C C12 0.0749(3) 0.88843(18) 0.1910(3) 0.0490(7) Uani d 1
H H12 0.070090 0.925756 0.116314 0.059 Uiso calc 1
C C13 0.6919(3) 0.8361(3) 0.4161(4) 0.0818(10) Uani d 1
H H13A 0.666377 0.771490 0.394795 0.123 Uiso calc 1
H H13B 0.736012 0.845323 0.517872 0.123 Uiso calc 1
H H13C 0.758229 0.853612 0.380173 0.123 Uiso calc 1
C C14 0.1182(5) 0.9532(3) -0.3002(4) 0.0897(12) Uani d 1
H H14A 0.056384 0.935813 -0.258691 0.135 Uiso calc 1
H H14B 0.070058 0.941372 -0.401306 0.135 Uiso calc 1
H H14C 0.140914 1.018497 -0.283666 0.135 Uiso calc 1
N N1 0.3015(3) 0.96370(15) 0.3628(2) 0.0477(6) Uani d 1
O O1 0.2068(2) 1.07776(12) 0.16321(19) 0.0545(6) Uani d 1
O O2 0.4588(2) 1.08222(13) 0.3458(2) 0.0583(6) Uani d 1
O O3 0.5672(2) 0.89154(16) 0.3507(2) 0.0716(7) Uani d 1
O O4 0.2466(3) 0.90022(19) -0.2364(2) 0.0871(8) Uani d 1
S S1 0.33445(6) 1.02855(4) 0.25483(6) 0.0437(3) Uani d 1
H H1 0.375(2) 0.9564(18) 0.443(2) 0.050(8) Uiso d 1
loop_
_atom_site_aniso_label
_atom_site_aniso_U_11
_atom_site_aniso_U_22
_atom_site_aniso_U_33
_atom_site_aniso_U_12
_atom_site_aniso_U_13
_atom_site_aniso_U_23
C1 0.0469(15) 0.0512(13) 0.0360(14) 0.0014(11) 0.0191(12) 0.0032(10)
C2 0.0495(15) 0.0704(17) 0.0467(16) 0.0083(13) 0.0223(13) 0.0076(13)
C3 0.0640(19) 0.087(2) 0.068(2) 0.0248(17) 0.0306(17) 0.0030(16)
C4 0.077(2) 0.100(2) 0.062(2) 0.0176(19) 0.0388(18) -0.0133(17)
C5 0.070(2) 0.0805(19) 0.0414(17) 0.0047(16) 0.0285(15) -0.0040(13)
C6 0.0559(17) 0.0604(15) 0.0372(15) 0.0038(12) 0.0199(13) 0.0033(11)
C7 0.0440(13) 0.0473(13) 0.0334(13) 0.0067(10) 0.0196(10) -0.0005(10)
C8 0.0577(16) 0.0681(17) 0.0401(15) 0.0002(13) 0.0204(13) 0.0067(12)
C9 0.080(2) 0.0732(19) 0.0603(19) -0.0054(16) 0.0372(17) 0.0132(15)
C10 0.0610(18) 0.0627(17) 0.071(2) -0.0115(14) 0.0316(16) -0.0060(14)
C11 0.0561(16) 0.0654(17) 0.0498(17) -0.0063(13) 0.0186(13) -0.0098(13)
C12 0.0509(15) 0.0578(15) 0.0345(14) -0.0051(12) 0.0161(11) -0.0023(11)
C13 0.0550(19) 0.107(3) 0.072(2) 0.0266(18) 0.0196(16) 0.0222(19)
C14 0.110(3) 0.102(3) 0.0386(18) 0.032(2) 0.018(2) 0.0003(18)
N1 0.0444(13) 0.0642(14) 0.0255(12) -0.0043(10) 0.0079(10) 0.0028(9)
O1 0.0630(12) 0.0582(11) 0.0360(10) 0.0137(9) 0.0170(9) 0.0046(7)
O2 0.0625(12) 0.0601(11) 0.0430(11) -0.0144(9) 0.0160(9) -0.0012(8)
O3 0.0617(13) 0.0988(16) 0.0441(12) 0.0310(11) 0.0151(10) 0.0137(10)
O4 0.0956(18) 0.122(2) 0.0404(12) 0.0229(15) 0.0278(12) -0.0134(12)
S1 0.0481(5) 0.0484(5) 0.0295(5) 0.0005(2) 0.0130(3) 0.0020(2)
loop_
_atom_type_symbol
_atom_type_description
_atom_type_scat_dispersion_real
_atom_type_scat_dispersion_imag
_atom_type_scat_source
C C 0.0181 0.0091 'International Tables Vol C Tables 4.2.6.8 and 6.1.1.4'
H H 0.0000 0.0000 'International Tables Vol C Tables 4.2.6.8 and 6.1.1.4'
N N 0.0311 0.0180 'International Tables Vol C Tables 4.2.6.8 and 6.1.1.4'
O O 0.0492 0.0322 'International Tables Vol C Tables 4.2.6.8 and 6.1.1.4'
S S 0.3331 0.5567 'International Tables Vol C Tables 4.2.6.8 and 6.1.1.4'
loop_
_geom_angle_atom_site_label_1
_geom_angle_atom_site_label_2
_geom_angle_atom_site_label_3
_geom_angle
C6 C1 C2 121.3(2)
C6 C1 S1 118.3(2)
C2 C1 S1 120.3(2)
O3 C2 C3 125.0(3)
O3 C2 C1 117.1(2)
C3 C2 C1 117.9(3)
C4 C3 C2 120.8(3)
C4 C3 H3 119.6
C2 C3 H3 119.6
C3 C4 C5 121.2(3)
C3 C4 H4 119.4
C5 C4 H4 119.4
O4 C5 C4 116.5(3)
O4 C5 C6 124.0(3)
C4 C5 C6 119.4(3)
C1 C6 C5 119.3(3)
C1 C6 H6 120.3
C5 C6 H6 120.3
C12 C7 C8 119.9(2)
C12 C7 N1 124.1(2)
C8 C7 N1 116.0(2)
C7 C8 C9 119.1(3)
C7 C8 H8 120.4
C9 C8 H8 120.4
C10 C9 C8 120.9(3)
C10 C9 H9 119.6
C8 C9 H9 119.6
C9 C10 C11 119.5(3)
C9 C10 H10 120.3
C11 C10 H10 120.3
C10 C11 C12 121.0(3)
C10 C11 H11 119.5
C12 C11 H11 119.5
C11 C12 C7 119.7(2)
C11 C12 H12 120.2
C7 C12 H12 120.2
O3 C13 H13A 109.5
O3 C13 H13B 109.5
H13A C13 H13B 109.5
O3 C13 H13C 109.5
H13A C13 H13C 109.5
H13B C13 H13C 109.5
O4 C14 H14A 109.5
O4 C14 H14B 109.5
H14A C14 H14B 109.5
O4 C14 H14C 109.5
H14A C14 H14C 109.5
H14B C14 H14C 109.5
C7 N1 S1 127.30(18)
C7 N1 H1 116.7(19)
S1 N1 H1 113(2)
C2 O3 C13 119.0(2)
C5 O4 C14 118.0(2)
O1 S1 O2 117.96(12)
O1 S1 N1 108.95(12)
O2 S1 N1 104.93(11)
O1 S1 C1 106.93(11)
O2 S1 C1 109.90(12)
N1 S1 C1 107.79(13)
loop_
_geom_bond_atom_site_label_1
_geom_bond_atom_site_label_2
_geom_bond_distance
C1 C6 1.386(4)
C1 C2 1.395(4)
C1 S1 1.764(3)
C2 O3 1.359(3)
C2 C3 1.391(4)
C3 C4 1.366(5)
C3 H3 0.9300
C4 C5 1.376(4)
C4 H4 0.9300
C5 O4 1.365(4)
C5 C6 1.390(4)
C6 H6 0.9300
C7 C12 1.378(4)
C7 C8 1.382(4)
C7 N1 1.422(3)
C8 C9 1.387(4)
C8 H8 0.9300
C9 C10 1.362(4)
C9 H9 0.9300
C10 C11 1.366(4)
C10 H10 0.9300
C11 C12 1.373(4)
C11 H11 0.9300
C12 H12 0.9300
C13 O3 1.407(4)
C13 H13A 0.9600
C13 H13B 0.9600
C13 H13C 0.9600
C14 O4 1.416(4)
C14 H14A 0.9600
C14 H14B 0.9600
C14 H14C 0.9600
N1 S1 1.618(2)
N1 H1 0.849(18)
O1 S1 1.4240(19)
O2 S1 1.4345(19)
loop_
_geom_hbond_atom_site_label_D
_geom_hbond_atom_site_label_H
_geom_hbond_atom_site_label_A
_geom_hbond_site_symmetry_A
_geom_hbond_distance_DH
_geom_hbond_distance_HA
_geom_hbond_distance_DA
_geom_hbond_angle_DHA
_geom_hbond_publ_flag
C12 H12 O1 5_555 0.93 2.52 3.1128 121 yes
N1 H1 O2 3_676 0.85 2.17 3.0116(10) 170 yes
loop_
_geom_torsion_atom_site_label_1
_geom_torsion_atom_site_label_2
_geom_torsion_atom_site_label_3
_geom_torsion_atom_site_label_4
_geom_torsion
C6 C1 C2 O3 -178.9(3)
S1 C1 C2 O3 2.0(3)
C6 C1 C2 C3 -0.4(4)
S1 C1 C2 C3 -179.5(2)
O3 C2 C3 C4 178.8(3)
C1 C2 C3 C4 0.4(5)
C2 C3 C4 C5 -0.2(6)
C3 C4 C5 O4 -178.6(3)
C3 C4 C5 C6 -0.1(5)
C2 C1 C6 C5 0.1(4)
S1 C1 C6 C5 179.2(2)
O4 C5 C6 C1 178.5(3)
C4 C5 C6 C1 0.1(4)
C12 C7 C8 C9 -0.9(4)
N1 C7 C8 C9 177.8(2)
C7 C8 C9 C10 1.0(5)
C8 C9 C10 C11 -0.7(5)
C9 C10 C11 C12 0.4(5)
C10 C11 C12 C7 -0.4(4)
C8 C7 C12 C11 0.6(4)
N1 C7 C12 C11 -177.9(2)
C12 C7 N1 S1 -10.5(4)
C8 C7 N1 S1 170.9(2)
C3 C2 O3 C13 6.4(5)
C1 C2 O3 C13 -175.2(3)
C4 C5 O4 C14 172.4(3)
C6 C5 O4 C14 -6.0(5)
C7 N1 S1 O1 52.9(2)
C7 N1 S1 O2 -179.9(2)
C7 N1 S1 C1 -62.9(2)
C6 C1 S1 O1 4.3(2)
C2 C1 S1 O1 -176.6(2)
C6 C1 S1 O2 -124.9(2)
C2 C1 S1 O2 54.3(2)
C6 C1 S1 N1 121.3(2)
C2 C1 S1 N1 -59.5(2)

_cod_database_fobs_code 1545384
