#------------------------------------------------------------------------------
#$Date: 2017-03-05 09:41:37 +0200 (Sun, 05 Mar 2017) $
#$Revision: 193966 $
#$URL: file:///home/coder/svn-repositories/cod/cif/1/54/55/1545502.cif $
#------------------------------------------------------------------------------
#
# This file is available in the Crystallography Open Database (COD),
# http://www.crystallography.net/. The original data for this entry
# were provided by IUCr Journals, http://journals.iucr.org/.
#
# The file may be used within the scientific community so long as
# proper attribution is given to the journal article from which the
# data were obtained.
#
data_1545502
loop_
_publ_author_name
'Yadav, C. Suresh'
'Viswanathan, Vijayan'
'Kannadasan, Sathananthan'
'Velmurugan, Devadasan'
_publ_section_title
;
 <i>N</i>-[(3-Bromo-1-phenylsulfonyl-1<i>H</i>-indol-2-yl)methyl]-4-fluoroaniline
;
_journal_coeditor_code           SU4110
_journal_issue                   2
_journal_name_full               IUCrData
_journal_page_first              x170147
_journal_paper_doi               10.1107/S241431461700147X
_journal_volume                  2
_journal_year                    2017
_chemical_formula_iupac          'C21 H16 Br F N2 O2 S'
_chemical_formula_moiety         'C21 H16 Br F N2 O2 S'
_chemical_formula_sum            'C21 H16 Br F N2 O2 S'
_chemical_formula_weight         459.33
_chemical_name_systematic
;
<i>N</i>-[(3-Bromo-1-phenylsulfonyl-1<i>H</i>-indol-2-yl)methyl]-4-fluoroaniline
;
_space_group_crystal_system      triclinic
_space_group_IT_number           2
_space_group_name_Hall           '-P 1'
_space_group_name_H-M_alt        'P -1'
_symmetry_space_group_name_Hall  '-P 1'
_symmetry_space_group_name_H-M   'P -1'
_atom_sites_solution_hydrogens   geom
_atom_sites_solution_primary     direct
_atom_sites_solution_secondary   difmap
_audit_creation_method           SHELXL-2016/4
_cell_angle_alpha                113.6990(10)
_cell_angle_beta                 94.6170(10)
_cell_angle_gamma                99.2030(10)
_cell_formula_units_Z            2
_cell_length_a                   8.1732(5)
_cell_length_b                   10.5828(7)
_cell_length_c                   12.1781(8)
_cell_measurement_reflns_used    4427
_cell_measurement_temperature    293(2)
_cell_measurement_theta_max      28.263
_cell_measurement_theta_min      2.150
_cell_volume                     939.81(11)
_computing_cell_refinement
;
SAINT (Bruker, 2008)
;
_computing_data_collection
;
APEX2 (Bruker, 2008)
;
_computing_data_reduction
;
SAINT (Bruker, 2008)
;
_computing_molecular_graphics
;
ORTEP-3 for Windows (Farrugia, 2012) and Mercury (Macrae <i>et al.</i>,
2008)
;
_computing_publication_material
;
PLATON (Spek, 2009) and SHELXL2016 (Sheldrick, 2015)
;
_computing_structure_refinement
;
SHELXL2016 (Sheldrick, 2015)
;
_computing_structure_solution
;
SHELXS97 (Sheldrick, 2008)
;
_diffrn_ambient_temperature      293(2)
_diffrn_measured_fraction_theta_full 0.997
_diffrn_measured_fraction_theta_max 0.951
_diffrn_measurement_device_type  'Bruker SMART APEXII area-detector'
_diffrn_measurement_method       '\w and \f scans'
_diffrn_radiation_type           MoK\a
_diffrn_radiation_wavelength     0.71073
_diffrn_reflns_av_R_equivalents  0.0183
_diffrn_reflns_limit_h_max       10
_diffrn_reflns_limit_h_min       -10
_diffrn_reflns_limit_k_max       13
_diffrn_reflns_limit_k_min       -13
_diffrn_reflns_limit_l_max       15
_diffrn_reflns_limit_l_min       -15
_diffrn_reflns_number            11107
_diffrn_reflns_theta_full        25.242
_diffrn_reflns_theta_max         28.263
_diffrn_reflns_theta_min         2.150
_exptl_absorpt_coefficient_mu    2.328
_exptl_absorpt_correction_T_max  0.856
_exptl_absorpt_correction_T_min  0.753
_exptl_absorpt_correction_type   multi-scan
_exptl_absorpt_process_details
;
(<i>SADABS</i>; Bruker, 2008)
;
_exptl_crystal_colour            colourless
_exptl_crystal_density_diffrn    1.623
_exptl_crystal_description       block
_exptl_crystal_F_000             464
_exptl_crystal_size_max          0.240
_exptl_crystal_size_mid          0.190
_exptl_crystal_size_min          0.120
_refine_diff_density_max         0.445
_refine_diff_density_min         -0.398
_refine_ls_extinction_method     none
_refine_ls_goodness_of_fit_ref   1.046
_refine_ls_hydrogen_treatment    constr
_refine_ls_matrix_type           full
_refine_ls_number_parameters     253
_refine_ls_number_reflns         4427
_refine_ls_number_restraints     0
_refine_ls_restrained_S_all      1.046
_refine_ls_R_factor_all          0.0382
_refine_ls_R_factor_gt           0.0316
_refine_ls_shift/su_max          0.001
_refine_ls_shift/su_mean         0.000
_refine_ls_structure_factor_coef Fsqd
_refine_ls_weighting_details
'w=1/[\s^2^(Fo^2^)+(0.0594P)^2^+0.1305P] where P=(Fo^2^+2Fc^2^)/3'
_refine_ls_weighting_scheme      calc
_refine_ls_wR_factor_gt          0.0922
_refine_ls_wR_factor_ref         0.0958
_reflns_number_gt                3778
_reflns_number_total             4427
_reflns_threshold_expression     'I > 2\s(I)'
_cod_data_source_file            su4110sup1.cif
_cod_data_source_block           I
_cod_database_code               1545502
_shelx_space_group_comment
;
The symmetry employed for this shelxl refinement is uniquely defined
by the following loop, which should always be used as a source of
symmetry information in preference to the above space-group names.
They are only intended as comments.
;
_shelx_estimated_absorpt_t_min   0.605
_shelx_estimated_absorpt_t_max   0.768
_shelx_hkl_file
;
   1   0   0 1412.84   31.42
   1   0   0 1426.19   33.05
  -1   0   0 1404.66   31.75
   2   0   0   56.14    1.37
  -2   0   0   56.81    1.51
   2   0   0   56.18    1.52
   3   0   0  755.04   16.86
   3   0   0  753.27   17.71
   3   0   0  795.72   17.09
  -3   0   0  754.92   17.04
  -4   0   0  515.01   11.79
   4   0   0  515.48   12.31
   4   0   0  525.55   11.60
   4   0   0  512.17   11.69
  -5   0   0  510.86   11.79
   5   0   0  501.99   12.32
   5   0   0  519.10   11.74
  -6   0   0    5.54    0.74
   6   0   0    3.18    0.70
   6   0   0    4.94    0.82
   7   0   0   24.11    1.55
  -7   0   0   25.30    1.41
  -8   0   0   37.24    2.11
  -8   0   0   32.46    1.74
   8   0   0   34.45    1.87
   9   0   0   19.32    1.68
  -9   0   0   17.75    1.65
 -10   0   0    0.79    1.26
  10   0   0    0.09    1.15
 -10   1   0    0.09    1.14
  10  -1   0    0.65    1.20
  -9   1   0   10.31    1.45
   9  -1   0    7.80    1.32
   8  -1   0  208.80    5.68
  -8   1   0  198.16    5.93
  -7   1   0    5.26    1.00
  -7   1   0    8.34    0.87
   7  -1   0    7.83    1.02
  -6   1   0  128.66    3.56
   6  -1   0  135.00    3.75
  -6   1   0  130.15    3.89
  -5   1   0   15.46    1.13
  -5   1   0   14.77    0.87
   5  -1   0   16.94    0.74
   5  -1   0   15.54    0.99
   4  -1   0  143.00    3.39
  -4   1   0  140.32    3.48
  -4   1   0  137.63    3.75
   4  -1   0  137.34    3.58
   3  -1   0   26.79    0.87
   3  -1   0   26.81    1.00
  -3   1   0   26.76    1.05
  -3   1   0   27.55    0.92
  -2   1   0 4363.24  100.23
   2  -1   0 4376.99   97.53
  -2   1   0 4215.53   95.73
   1  -1   0  527.15   11.79
   1  -1   0  522.54   11.49
  -1   1   0  515.80   12.03
   0  -1   0  135.45    3.10
   0   1   0  132.42    3.22
   0   1   0  136.06    3.06
   0  -1   0  129.61    3.04
   1   1   0 1250.34   27.47
  -1  -1   0 1334.52   29.00
  -1  -1   0 1232.47   27.83
   1   1   0 1253.67   28.82
   2   1   0  677.34   15.76
  -2  -1   0  674.88   15.23
   2   1   0  696.51   15.00
   3   1   0  945.96   20.87
  -3  -1   0  942.65   21.16
   3   1   0  960.62   21.95
   4   1   0  390.70    9.06
  -4  -1   0  394.46    9.21
   4   1   0  396.29    9.58
   5   1   0    8.70    0.80
  -5  -1   0    7.68    0.79
   5   1   0    7.88    0.89
   6   1   0  232.88    6.46
   6   1   0  245.17    6.13
  -6  -1   0  243.70    6.18
  -7  -1   0  293.80    7.46
   7   1   0  291.86    7.44
   7   1   0  293.67    7.87
   8   1   0   65.88    2.68
   8   1   0   65.29    2.84
  -8  -1   0   68.32    2.63
  -9  -1   0   13.79    1.41
  -9  -1   0   13.05    1.51
   9   1   0   13.97    1.52
  10   1   0    3.91    1.33
 -10  -1   0    5.96    1.43
 -10   2   0   38.63    2.43
  10  -2   0   38.18    2.42
   9  -2   0  103.17    3.73
  -9   2   0  104.15    3.89
  -8   2   0   47.00    2.29
   8  -2   0   39.67    2.04
  -7   2   0   91.45    3.25
   7  -2   0   98.89    3.17
  -6   2   0  455.16   10.35
   6  -2   0  437.79   10.54
  -6   2   0  451.57   11.07
   5  -2   0  515.43   11.69
  -5   2   0  512.39   12.25
  -5   2   0  515.16   11.54
   5  -2   0  491.69   11.67
  -4   2   0    6.22    0.60
   4  -2   0    6.00    0.62
  -4   2   0    7.03    0.52
   4  -2   0    6.57    0.51
  -3   2   0  319.24    7.71
   3  -2   0  324.21    7.47
  -3   2   0  324.33    7.21
   3  -2   0  316.61    7.38
  -2   2   0 2208.11   50.61
   2  -2   0 2178.00   48.27
   2  -2   0 2305.88   49.53
   1  -2   0 1708.31   37.24
  -1   2   0 1659.59   38.05
   1  -2   0 1649.61   36.29
   1  -2   0 1682.31   37.69
   0   2   0  369.82    8.90
   0  -2   0  377.00    8.48
   0   2   0  384.04    8.48
   0  -2   0  381.43    8.62
   1   2   0  343.25    7.66
   1   2   0  338.92    8.06
  -1  -2   0  344.18    7.79
  -1  -2   0  338.62    7.77
  -2  -2   0    0.87    0.32
  -2  -2   0    1.10    0.19
   2   2   0    1.04    0.32
   2   2   0    1.87    0.32
  -3  -2   0  228.89    5.61
   3   2   0  226.02    5.44
   3   2   0  235.52    5.80
  -4  -2   0   19.45    1.08
   4   2   0   19.40    1.20
   4   2   0   21.16    1.06
   5   2   0  179.27    4.54
  -5  -2   0  177.03    4.67
   5   2   0  163.74    4.83
  -6  -2   0   64.74    2.41
   6   2   0   68.57    2.59
   6   2   0   63.51    2.32
   7   2   0    0.68    0.77
  -7  -2   0    1.43    0.72
   7   2   0    0.42    0.84
   8   2   0    1.72    1.00
  -8  -2   0   -0.05    0.79
   8   2   0    0.41    0.89
   9   2   0   -0.08    1.00
   9   2   0    1.59    1.07
  -9  -2   0    0.51    1.01
  10   2   0    8.07    1.49
  10  -3   0    3.43    1.31
 -10   3   0    4.28    1.38
   9  -3   0    1.05    1.09
  -9   3   0    1.28    1.12
  -8   3   0   37.13    2.09
   8  -3   0   34.72    1.91
  -7   3   0   72.61    2.71
   7  -3   0   71.92    2.59
  -6   3   0  114.81    3.50
   6  -3   0  107.00    3.32
   6  -3   0  119.83    3.18
   5  -3   0   57.30    2.03
  -5   3   0   59.02    1.67
  -5   3   0   62.54    2.15
   5  -3   0   62.87    1.93
   4  -3   0  180.12    4.66
   4  -3   0  192.67    4.72
  -4   3   0  189.25    4.88
  -4   3   0  189.29    4.30
  -3   3   0 1533.11   35.12
   3  -3   0 1520.43   34.36
   3  -3   0 1553.81   33.55
   2  -3   0 1562.58   33.89
   2  -3   0 1568.80   34.77
  -2   3   0 1538.64   35.49
   1  -3   0  461.83   10.32
   1  -3   0  464.19   10.67
  -1   3   0  471.05   10.40
  -1   3   0  462.99   10.89
   0  -3   0   79.60    2.08
   0  -3   0   81.53    2.17
   0   3   0   82.78    2.21
   0   3   0   81.23    2.34
   1   3   0  479.04   10.79
   1   3   0  478.23   11.35
  -1  -3   0  478.77   10.92
  -1  -3   0  490.64   10.96
   2   3   0 1160.18   25.67
  -2  -3   0 1212.60   26.16
  -2  -3   0 1151.81   26.07
   2   3   0 1164.97   26.98
   3   3   0  358.40    8.67
  -3  -3   0  350.07    8.40
   3   3   0  347.60    8.15
  -3  -3   0  356.12    8.01
  -4  -3   0   11.59    0.90
   4   3   0   10.75    0.94
   4   3   0   10.10    0.78
   5   3   0  303.28    7.86
   5   3   0  306.69    7.38
  -5  -3   0  298.76    7.58
   6   3   0  225.81    5.76
  -6  -3   0  215.72    5.93
   6   3   0  219.33    6.17
   7   3   0   50.11    2.13
  -7  -3   0   49.45    2.20
   7   3   0   40.06    2.17
  -8  -3   0   -0.28    0.90
   8   3   0   -0.76    0.94
   8   3   0   -0.05    0.89
   9   3   0    3.31    1.16
  -9  -3   0    3.00    1.18
   9   3   0    2.68    1.26
  10  -4   0   16.68    1.70
 -10   4   0   20.33    1.97
   9  -4   0    1.25    1.08
  -9   4   0    1.38    1.04
   8  -4   0   -0.81    0.76
  -8   4   0    1.16    0.91
   7  -4   0    7.73    1.06
  -7   4   0    8.78    1.12
   6  -4   0  119.66    3.61
   6  -4   0  126.19    3.55
  -6   4   0  129.51    3.83
   5  -4   0   32.53    1.40
   5  -4   0   29.42    1.49
  -5   4   0   33.84    1.56
  -4   4   0   47.61    1.78
   4  -4   0   48.16    1.74
   4  -4   0   48.70    1.75
  -3   4   0  143.32    3.86
   3  -4   0  145.31    3.75
   3  -4   0  146.43    3.85
   2  -4   0    3.32    0.22
   2  -4   0    2.76    0.47
  -2   4   0    2.03    0.44
   2  -4   0    2.82    0.46
   1  -4   0  506.96   11.33
  -1   4   0  503.08   12.03
  -1   4   0  503.99   11.45
   1  -4   0  517.53   11.75
   0   4   0  893.85   19.73
   0  -4   0  893.43   20.09
   0  -4   0  885.87   19.75
   0   4   0  884.00   20.68
  -1  -4   0    7.90    0.56
   1   4   0    7.32    0.61
   1   4   0    6.85    0.66
  -1  -4   0    6.03    0.57
  -2  -4   0  763.15   17.15
  -2  -4   0  752.15   17.07
   2   4   0  752.83   17.74
   2   4   0  758.11   16.86
  -3  -4   0  309.82    7.57
   3   4   0  303.53    7.81
   3   4   0  310.85    7.33
  -3  -4   0  313.94    7.17
  -4  -4   0  197.31    5.33
   4   4   0  202.55    5.49
   4   4   0  204.96    5.12
   5   4   0  328.83    8.06
  -5  -4   0  334.98    8.36
   5   4   0  332.11    8.59
   6   4   0   19.87    1.50
   6   4   0   18.88    1.39
  -6  -4   0   18.85    1.43
  -7  -4   0    4.27    1.07
   7   4   0    3.82    0.96
   7   4   0    3.57    1.09
   8   4   0    7.70    1.17
   8   4   0    7.20    1.35
  -8  -4   0    6.99    1.31
   9   4   0   12.59    1.64
  -9  -4   0   12.12    1.55
  10  -5   0   -0.17    1.22
 -10   5   0    1.52    1.25
   9  -5   0   22.74    1.85
  -9   5   0   27.06    1.98
  -8   5   0  107.57    3.84
   8  -5   0  110.42    3.69
  -7   5   0   12.03    1.28
   7  -5   0   13.76    1.27
   7  -5   0   12.51    1.11
   6  -5   0  138.62    3.91
   6  -5   0  136.69    3.97
  -6   5   0  130.95    4.02
   5  -5   0   51.54    1.89
   5  -5   0   47.22    1.91
  -5   5   0   44.61    1.91
   4  -5   0  448.00   10.59
  -4   5   0  436.74   10.74
   4  -5   0  442.68   10.34
  -3   5   0  321.62    7.89
   3  -5   0  318.74    7.79
   3  -5   0  314.94    7.58
  -2   5   0   48.87    1.66
   2  -5   0   47.35    1.72
   2  -5   0   45.85    1.27
  -2   5   0   49.20    1.77
  -1   5   0  435.76   10.11
   1  -5   0  449.20   10.35
   1  -5   0  435.21    9.91
  -1   5   0  434.30   10.63
   0   5   0  268.95    6.57
   0  -5   0  270.98    6.43
   0  -5   0  275.97    6.61
   0   5   0  271.08    6.90
  -1  -5   0  150.35    3.86
  -1  -5   0  144.67    3.88
   1   5   0  144.79    3.93
   1   5   0  156.30    4.19
   2   5   0  220.38    5.39
  -2  -5   0  208.09    5.44
  -2  -5   0  216.30    5.27
   2   5   0  215.14    5.71
  -3  -5   0   63.65    2.24
   3   5   0   61.35    2.11
   3   5   0   62.27    2.37
   4   5   0    3.17    0.81
   4   5   0    1.99    0.65
  -4  -5   0    2.76    0.80
   5   5   0    1.54    0.73
  -5  -5   0    1.32    0.83
   5   5   0    3.03    0.85
   6   5   0   -0.33    0.84
  -6  -5   0   -1.02    0.71
   6   5   0    1.20    0.79
   7   5   0   15.69    1.38
   7   5   0   16.65    1.65
  -7  -5   0   17.17    1.61
  -8  -5   0   19.73    1.79
   8   5   0   18.68    1.89
 -10   6   0   21.00    1.95
  10  -6   0   21.48    1.98
   9  -6   0   25.47    1.87
  -9   6   0   25.94    2.00
  -8   6   0    1.51    0.96
   8  -6   0    2.10    0.94
  -7   6   0   -0.30    0.73
   7  -6   0    0.39    0.72
   7  -6   0    0.67    0.89
   6  -6   0  374.70    9.43
  -6   6   0  388.82    9.80
   6  -6   0  395.31    9.61
  -5   6   0  125.07    3.75
   5  -6   0  121.56    3.72
   5  -6   0  124.08    3.66
  -4   6   0   14.15    1.08
   4  -6   0   11.89    1.05
   4  -6   0   12.22    1.03
   3  -6   0  137.12    3.93
  -3   6   0  140.48    3.83
  -3   6   0  138.56    3.96
  -2   6   0  310.84    7.51
   2  -6   0  312.48    7.10
  -2   6   0  311.96    7.89
   2  -6   0  312.21    7.73
   1  -6   0   95.01    2.56
   1  -6   0   97.88    2.92
  -1   6   0   96.84    3.07
  -1   6   0   94.01    2.88
   0   6   0  160.48    4.29
   0  -6   0  160.60    4.08
   0  -6   0  155.86    4.24
   0   6   0  158.98    4.50
   1   6   0  139.21    4.07
   1   6   0  136.19    3.84
  -1  -6   0  137.29    3.77
  -1  -6   0  139.90    3.76
   2   6   0    9.16    0.87
  -2  -6   0   12.71    0.87
  -2  -6   0    9.71    0.94
   2   6   0    8.91    1.00
   3   6   0  202.11    5.27
   3   6   0  205.23    5.66
  -3  -6   0  197.36    5.39
   4   6   0  175.95    4.76
   4   6   0  175.04    5.17
  -4  -6   0  174.19    5.01
   5   6   0   21.89    1.64
   5   6   0   22.83    1.46
  -5  -6   0   20.13    1.53
  -6  -6   0   -0.53    0.90
   6   6   0    0.91    0.83
   6   6   0    0.77    0.98
  -7  -6   0    5.19    1.31
   7   6   0    4.14    1.27
   8   6   0    7.31    1.52
   9  -7   0    4.45    1.31
  -9   7   0    4.13    1.27
   8  -7   0    2.15    1.00
   8  -7   0    1.91    0.95
  -8   7   0    0.95    1.04
   7  -7   0    1.75    0.87
   7  -7   0    1.12    0.87
  -7   7   0    2.41    1.02
  -6   7   0   58.02    2.47
   6  -7   0   61.38    2.46
   6  -7   0   57.60    2.44
   5  -7   0    4.24    0.87
   5  -7   0    3.25    0.84
  -5   7   0    3.63    0.90
  -4   7   0   19.33    1.35
   4  -7   0   21.28    1.40
  -4   7   0   19.03    1.42
  -3   7   0   49.41    2.10
   3  -7   0   49.72    2.04
  -3   7   0   49.91    1.96
  -2   7   0   38.73    1.72
   2  -7   0   36.47    1.76
  -2   7   0   41.27    1.92
  -1   7   0   16.49    1.15
   1  -7   0   15.64    1.16
  -1   7   0   19.80    1.33
   1  -7   0   18.86    0.99
   0  -7   0    2.72    0.60
   0  -7   0    3.17    0.72
   0   7   0    2.56    0.77
   0   7   0    3.37    0.73
  -1  -7   0   79.36    2.59
   1   7   0   78.82    2.87
  -1  -7   0   78.93    2.60
   1   7   0   83.62    2.72
   2   7   0  204.51    5.72
  -2  -7   0  206.20    5.43
  -2  -7   0  199.77    5.24
   2   7   0  198.45    5.37
  -3  -7   0  145.52    4.34
   3   7   0  149.40    4.60
   3   7   0  149.97    4.25
   4   7   0   22.46    1.70
  -4  -7   0   22.37    1.57
   4   7   0   21.29    1.49
   5   7   0   23.87    1.83
  -5  -7   0   20.96    1.71
  -6  -7   0   11.95    1.48
   6   7   0   12.14    1.52
  -7  -7   0   17.37    1.84
   7   7   0   17.39    1.82
  -9   8   0   -0.49    1.06
   9  -8   0    0.64    1.21
   8  -8   0   15.89    1.56
   8  -8   0   16.89    1.59
  -8   8   0   15.33    1.63
   7  -8   0   36.70    2.05
   7  -8   0   33.24    2.05
  -7   8   0   38.65    2.20
   6  -8   0   39.84    2.13
  -6   8   0   40.28    2.13
   6  -8   0   40.01    2.09
  -5   8   0  106.28    3.42
  -5   8   0   98.65    3.50
   5  -8   0   99.21    3.44
   4  -8   0   25.12    1.70
  -4   8   0   26.10    1.71
  -4   8   0   30.90    1.72
  -3   8   0   77.15    2.88
   3  -8   0   73.58    2.80
  -3   8   0   76.64    2.76
  -2   8   0  109.79    3.63
   2  -8   0  103.57    3.42
  -2   8   0  109.04    3.43
  -1   8   0   73.58    2.66
   1  -8   0   72.59    2.67
  -1   8   0   74.84    2.78
   0   8   0    2.68    0.84
   0  -8   0    3.22    0.83
   0   8   0    2.57    0.76
   0  -8   0    2.74    0.72
  -1  -8   0   22.87    1.48
  -1  -8   0   25.26    1.53
   1   8   0   25.55    1.70
  -2  -8   0   17.42    1.36
   2   8   0   18.54    1.38
   2   8   0   16.04    1.40
   3   8   0   17.63    1.51
  -3  -8   0   16.31    1.46
   3   8   0   18.44    1.37
  -4  -8   0   10.69    1.31
   4   8   0   10.25    1.38
   5   8   0   24.07    1.88
  -5  -8   0   23.48    1.84
  -6  -8   0    5.36    1.39
   6   8   0    5.62    1.36
  -9   9   0   -1.02    1.17
   8  -9   0   24.01    1.98
  -8   9   0   25.65    2.02
   8  -9   0   26.19    1.97
  -7   9   0   42.35    2.40
   7  -9   0   44.20    2.42
  -6   9   0    0.15    0.87
   6  -9   0    0.05    0.97
  -6   9   0    1.12    0.99
   5  -9   0   -0.48    0.93
  -5   9   0    1.50    0.96
  -5   9   0   -0.52    0.82
  -4   9   0  107.15    3.79
  -4   9   0  106.09    3.58
   4  -9   0  102.86    3.65
   3  -9   0   86.73    3.19
  -3   9   0   90.76    3.35
  -3   9   0   91.55    3.21
   2  -9   0   38.23    1.99
  -2   9   0   42.08    2.03
  -2   9   0   38.52    2.07
  -1   9   0    6.54    1.03
   1  -9   0    4.81    1.03
  -1   9   0    7.29    1.09
   0  -9   0   13.03    1.26
   0   9   0   13.06    1.25
   0   9   0   14.80    1.35
   1   9   0   88.04    3.15
  -1  -9   0   95.35    3.15
   1   9   0   93.15    3.37
  -1  -9   0   87.16    3.08
  -2  -9   0   17.13    1.41
   2   9   0   15.93    1.52
   3   9   0   10.35    1.40
  -3  -9   0   10.60    1.36
   4   9   0    3.08    1.17
  -4  -9   0    0.61    0.99
   5   9   0    9.04    1.52
  -5  -9   0    9.33    1.56
   8 -10   0   -0.54    1.16
  -8  10   0    0.85    1.24
  -8  10   0   -0.04    1.23
   7 -10   0   16.52    1.75
  -7  10   0   14.50    1.68
  -7  10   0   14.01    1.69
   6 -10   0    1.36    1.15
  -6  10   0    0.91    1.11
  -6  10   0    1.08    1.12
  -5  10   0    2.66    1.17
   5 -10   0    2.17    1.06
  -5  10   0    3.07    1.05
   4 -10   0   53.87    2.57
  -4  10   0   62.56    2.72
  -4  10   0   57.00    2.81
  -3  10   0   19.40    1.68
  -3  10   0   18.18    1.57
   3 -10   0   15.35    1.54
  -2  10   0    3.07    1.03
  -2  10   0    2.18    1.01
   2 -10   0    1.08    1.03
   1 -10   0   51.12    2.47
  -1  10   0   54.08    2.63
  -1  10   0   56.76    2.47
   0  10   0   30.57    2.08
   0 -10   0   32.41    1.93
   1  10   0   10.17    1.33
  -2 -10   0    7.88    1.26
  -3 -10   0    6.46    1.34
  -4 -10   0    1.18    1.25
  -7  11   0    1.39    1.32
  -6  11   0    3.32    1.32
   6 -11   0    0.56    1.26
  -5  11   0    3.66    1.26
   5 -11   0    3.33    1.26
  -4  11   0   -0.37    1.06
   4 -11   0    1.31    1.06
   3 -11   0   14.42    1.59
  -3  11   0   13.80    1.53
  -2  11   0    0.93    1.04
   2 -11   0    1.03    1.08
   1 -11   0    2.95    1.13
   0 -11   0    2.96    1.13
  -3 -11   0   -1.28    1.09
  -6  12   0   10.54    1.73
  -5  12   0   64.26    3.23
   4 -12   0    2.02    1.33
   3 -12   0    4.02    1.39
   2 -12   0   19.20    1.86
   1 -12   0   15.98    1.70
   1 -13   1    0.80    1.27
   2 -13   1    8.26    1.58
   0 -12   1   18.94    1.78
   1 -12   1    0.97    1.20
   2 -12   1    9.81    1.55
   3 -12   1   28.44    2.14
   4 -12   1    3.84    1.29
   5 -12   1   10.97    1.60
  -6  12  -1    1.64    1.35
  -4 -11   1   -0.18    1.25
  -3 -11   1    2.81    1.24
   2  11  -1    4.84    1.31
   1  11  -1    0.36    1.08
   0 -11   1   -0.21    0.98
   0  11  -1    1.06    1.03
  -1  11  -1    2.38    1.15
   1 -11   1    3.48    1.14
  -2  11  -1   10.83    1.46
   2 -11   1   13.11    1.47
  -3  11  -1   12.29    1.41
  -3  11  -1   12.04    1.55
   3 -11   1    8.14    1.40
   4 -11   1    7.73    1.41
  -4  11  -1    7.94    1.31
  -4  11  -1    6.47    1.44
   5 -11   1   -0.09    1.12
  -5  11  -1    1.43    1.28
  -5  11  -1    0.93    1.12
  -6  11  -1   31.74    2.24
   6 -11   1   29.04    2.09
  -6  11  -1   30.84    2.30
   7 -11   1   25.58    2.15
  -7  11  -1   30.65    2.17
  -7  11  -1   23.55    2.11
   5  10  -1    0.30    1.20
  -5 -10   1    0.79    1.27
  -4 -10   1   11.82    1.59
   4  10  -1   11.63    1.67
  -3 -10   1   18.04    1.67
   3  10  -1   18.74    1.78
  -2 -10   1   20.85    1.64
   2  10  -1   22.11    1.80
   1  10  -1   12.63    1.44
  -1 -10   1   11.67    1.29
   0 -10   1    2.61    1.00
   0  10  -1    2.61    1.02
  -1  10  -1   10.24    1.32
   1 -10   1   11.99    1.26
  -2  10  -1    2.62    0.91
  -2  10  -1    3.20    1.04
   2 -10   1    1.84    0.95
   3 -10   1    0.19    0.96
  -3  10  -1   -0.87    0.92
  -3  10  -1    0.52    0.90
  -4  10  -1    9.74    1.35
  -4  10  -1    7.74    1.23
   4 -10   1    9.94    1.35
   5 -10   1    1.11    1.04
  -5  10  -1   -0.18    1.07
  -5  10  -1    0.65    0.99
   6 -10   1    0.32    1.07
  -6  10  -1    1.85    1.20
  -6  10  -1    0.90    1.04
  -7  10  -1    5.32    1.40
   7 -10   1    4.85    1.31
  -7  10  -1    5.84    1.28
   8 -10   1    4.17    1.30
  -8  10  -1    1.61    1.19
   8 -10   1    1.56    1.09
   6   9  -1    1.12    1.31
   5   9  -1    6.51    1.42
  -5  -9   1    7.77    1.46
   4   9  -1   21.34    1.87
  -4  -9   1   23.96    1.81
   3   9  -1   49.14    2.59
  -3  -9   1   50.83    2.39
   2   9  -1    8.42    1.23
  -2  -9   1    5.31    1.01
   1   9  -1   59.69    2.68
  -1  -9   1   59.82    2.34
  -1  -9   1   59.50    2.37
   0  -9   1  166.84    4.85
   0   9  -1  169.40    5.16
   0   9  -1  170.31    4.77
  -1   9  -1  162.61    4.53
   1  -9   1  151.71    4.56
  -1   9  -1  153.35    4.80
  -2   9  -1   35.38    1.80
  -2   9  -1   32.16    1.89
   2  -9   1   31.84    1.77
  -3   9  -1    1.16    0.81
  -3   9  -1    2.20    0.97
   3  -9   1    0.91    0.88
   4  -9   1    1.96    0.86
  -4   9  -1    0.51    0.84
  -4   9  -1    1.81    0.96
   5  -9   1  211.24    6.18
  -5   9  -1  218.23    6.33
  -5   9  -1  222.43    6.07
   6  -9   1   17.10    1.42
   6  -9   1   18.46    1.61
  -6   9  -1   16.57    1.59
  -7   9  -1   -0.08    1.07
   7  -9   1   -0.31    0.96
   7  -9   1    0.35    1.06
   8  -9   1    2.04    1.14
  -8   9  -1    2.37    1.24
   8  -9   1    2.71    1.22
  -9   9  -1    5.60    1.41
   7   8  -1    2.70    1.40
  -6  -8   1    0.65    1.07
   6   8  -1   -0.08    1.13
   5   8  -1    5.42    1.27
  -5  -8   1    4.78    1.17
  -4  -8   1    7.34    1.21
   4   8  -1    9.38    1.36
   3   8  -1   21.38    1.66
  -3  -8   1   22.25    1.59
  -2  -8   1    2.68    0.85
   2   8  -1    2.52    0.78
  -2  -8   1    3.63    0.82
   2   8  -1    5.43    1.05
   1   8  -1   74.40    2.60
  -1  -8   1   76.05    2.55
   1   8  -1   75.72    2.90
  -1  -8   1   73.54    2.56
   0  -8   1    3.50    0.72
   0   8  -1    2.14    0.70
   0   8  -1    1.99    0.85
   0  -8   1    1.81    0.74
   1  -8   1    3.92    0.78
  -1   8  -1    4.07    0.79
  -1   8  -1    1.66    0.80
   2  -8   1   40.83    1.96
  -2   8  -1   43.70    2.15
  -2   8  -1   47.55    1.92
   3  -8   1   73.47    2.70
  -3   8  -1   77.30    2.91
  -3   8  -1   77.02    2.63
   4  -8   1  196.68    5.64
  -4   8  -1  210.41    5.85
  -4   8  -1  203.90    5.50
  -5   8  -1  259.30    7.00
   5  -8   1  253.49    6.87
   5  -8   1  247.07    6.61
   6  -8   1   10.40    1.26
  -6   8  -1    9.98    1.28
   6  -8   1   10.64    1.27
   7  -8   1   56.45    2.54
  -7   8  -1   56.85    2.59
   7  -8   1   54.67    2.51
   8  -8   1   76.67    3.13
  -8   8  -1   72.43    3.15
   8  -8   1   71.97    2.97
   9  -8   1   12.65    1.59
  -9   8  -1   15.33    1.76
   7   7  -1    0.89    1.12
  -7  -7   1    1.32    1.12
   6   7  -1   25.90    1.99
  -6  -7   1   26.32    1.93
  -5  -7   1   23.99    1.77
   5   7  -1   25.13    1.87
  -4  -7   1    6.35    1.07
   4   7  -1    6.00    1.08
   3   7  -1    1.18    0.76
  -3  -7   1    1.22    0.81
   3   7  -1    0.82    0.63
  -2  -7   1    8.60    0.96
   2   7  -1   10.11    1.13
   2   7  -1    7.82    0.87
  -2  -7   1    7.71    0.81
   1   7  -1  172.53    5.05
   1   7  -1  174.69    4.61
  -1  -7   1  175.29    4.63
  -1  -7   1  174.39    4.65
   0   7  -1  134.71    3.71
   0   7  -1  130.82    4.05
   0  -7   1  136.27    3.57
   0  -7   1  125.32    3.73
  -1   7  -1   33.59    1.75
  -1   7  -1   32.51    1.49
   1  -7   1   32.31    1.26
   1  -7   1   30.97    1.54
   2  -7   1   25.87    1.43
  -2   7  -1   22.78    1.50
  -2   7  -1   22.48    1.27
  -3   7  -1    1.55    0.73
  -3   7  -1    2.35    0.64
   3  -7   1    2.05    0.67
   4  -7   1   31.22    1.69
  -4   7  -1   32.15    1.73
   4  -7   1   34.14    1.63
   5  -7   1   56.75    2.20
  -5   7  -1   49.88    2.19
   5  -7   1   51.67    2.21
   6  -7   1    9.17    1.10
  -6   7  -1    9.36    1.16
   6  -7   1    6.58    1.05
   7  -7   1   12.98    1.25
  -7   7  -1    9.71    1.22
   7  -7   1    9.38    1.23
  -8   7  -1    0.47    1.02
   8  -7   1    0.11    0.89
   9  -7   1    2.77    1.16
  -9   7  -1    1.75    1.11
  -8  -6   1    0.11    1.19
   8   6  -1   -0.23    1.19
  -7  -6   1   13.14    1.56
   7   6  -1   16.03    1.64
  -6  -6   1   27.86    1.88
   6   6  -1   29.62    1.92
  -5  -6   1   11.68    1.22
   5   6  -1   13.12    1.36
   5   6  -1   13.91    1.14
  -4  -6   1  164.02    4.74
   4   6  -1  166.11    4.99
   4   6  -1  164.67    4.43
  -3  -6   1  563.76   13.37
   3   6  -1  576.01   13.01
   3   6  -1  566.13   13.96
  -2  -6   1  650.96   14.84
  -2  -6   1  636.68   14.87
   2   6  -1  641.09   15.57
   2   6  -1  646.30   14.57
   1   6  -1  540.35   13.34
  -1  -6   1  552.98   12.65
   1   6  -1  547.48   12.53
  -1  -6   1  551.43   12.77
   0   6  -1  265.79    6.36
   0  -6   1  264.00    6.25
   0  -6   1  260.16    6.47
   0   6  -1  251.92    6.79
   1  -6   1   82.14    2.58
   1  -6   1   86.55    2.27
  -1   6  -1   82.25    2.77
  -1   6  -1   82.42    2.48
   2  -6   1  197.19    5.19
  -2   6  -1  200.02    4.98
  -2   6  -1  200.62    5.37
   2  -6   1  199.67    4.61
   3  -6   1  452.96   10.95
   3  -6   1  456.41   10.61
  -3   6  -1  463.10   11.18
  -4   6  -1   30.15    1.54
   4  -6   1   24.94    1.36
   4  -6   1   23.79    1.33
   5  -6   1    6.52    0.83
  -5   6  -1    8.06    0.97
   5  -6   1    6.41    0.84
   6  -6   1   69.15    2.46
  -6   6  -1   60.63    2.43
   6  -6   1   63.67    2.44
   7  -6   1   30.10    1.78
   7  -6   1   28.76    1.62
  -7   6  -1   25.59    1.77
  -8   6  -1    2.02    1.05
   8  -6   1    2.67    1.05
  -9   6  -1    3.58    1.21
   9  -6   1    5.15    1.20
  10  -6   1    0.92    1.26
 -10   6  -1   -0.07    1.29
   8   5  -1    0.57    1.02
  -8  -5   1   -0.66    1.04
   7   5  -1    5.08    1.13
  -7  -5   1    4.82    1.07
   6   5  -1    0.80    0.90
   6   5  -1    0.35    0.75
  -6  -5   1   -0.17    0.76
  -5  -5   1   10.76    1.14
   5   5  -1   10.61    0.95
   5   5  -1   11.01    1.20
  -4  -5   1   78.39    2.74
   4   5  -1   80.14    2.45
   4   5  -1   79.16    2.81
  -3  -5   1  102.61    3.08
   3   5  -1   97.81    3.24
   3   5  -1  102.29    2.86
  -3  -5   1  104.46    2.74
   2   5  -1    0.74    0.58
   2   5  -1    0.85    0.40
  -2  -5   1    0.60    0.42
  -2  -5   1    0.98    0.52
  -1  -5   1   15.85    0.89
   1   5  -1   17.05    0.90
   1   5  -1   14.60    1.11
  -1  -5   1   15.77    0.91
   0   5  -1   23.31    1.31
   0  -5   1   24.24    0.99
   0  -5   1   24.39    1.08
   0   5  -1   26.95    1.12
  -1   5  -1  187.87    4.67
   1  -5   1  199.10    4.53
  -1   5  -1  189.40    5.09
   1  -5   1  191.13    4.87
  -2   5  -1  270.33    6.64
   2  -5   1  260.25    6.46
   2  -5   1  260.78    5.90
   2  -5   1  258.65    6.20
   3  -5   1  189.01    4.98
   3  -5   1  194.45    4.83
  -3   5  -1  196.55    5.09
  -4   5  -1  151.51    4.25
   4  -5   1  153.24    4.05
   4  -5   1  155.41    4.15
   5  -5   1  440.80   10.52
   5  -5   1  436.00   10.34
  -5   5  -1  440.26   10.81
   6  -5   1   93.16    2.96
   6  -5   1   87.20    2.83
  -6   5  -1   88.00    3.00
   7  -5   1  108.65    3.32
   7  -5   1  109.03    3.50
  -7   5  -1  105.39    3.57
   8  -5   1   28.25    1.78
  -8   5  -1   36.06    2.04
   9  -5   1   15.97    1.51
  -9   5  -1   13.02    1.56
  10  -5   1   35.35    2.39
 -10   5  -1   38.95    2.50
  -9  -4   1   14.99    1.66
   9   4  -1   15.09    1.73
   8   4  -1   16.25    1.48
   8   4  -1   13.92    1.54
  -8  -4   1   12.12    1.45
  -7  -4   1   31.70    1.84
   7   4  -1   35.41    1.79
   7   4  -1   29.70    2.01
   6   4  -1   25.41    1.44
  -6  -4   1   24.02    1.61
   6   4  -1   23.21    1.60
   5   4  -1   70.13    2.67
   5   4  -1   71.15    2.35
  -5  -4   1   70.52    2.53
   4   4  -1  193.02    4.84
  -4  -4   1  186.67    5.09
   4   4  -1  200.50    5.36
   3   4  -1  928.45   20.76
  -3  -4   1  926.74   21.24
  -3  -4   1  964.79   21.11
   3   4  -1  941.68   22.05
  -2  -4   1   63.67    1.82
   2   4  -1   67.39    2.20
   2   4  -1   63.01    1.83
  -2  -4   1   63.69    2.02
  -1  -4   1   56.45    1.67
   1   4  -1   55.91    1.65
   1   4  -1   54.39    1.92
  -1  -4   1   56.09    1.72
   0  -4   1   97.10    2.58
   0  -4   1   95.01    2.45
   0   4  -1   97.09    2.52
   0   4  -1   91.82    2.79
   1  -4   1    1.94    0.26
  -1   4  -1    0.96    0.30
   1  -4   1    0.22    0.32
  -1   4  -1    0.79    0.37
   2  -4   1    7.59    0.59
  -2   4  -1    7.49    0.60
   2  -4   1    8.25    0.57
  -3   4  -1  156.02    4.14
   3  -4   1  160.27    4.08
   3  -4   1  154.73    3.95
   4  -4   1  291.50    7.05
   4  -4   1  286.80    6.93
  -4   4  -1  293.06    7.28
   5  -4   1  132.04    3.62
  -5   4  -1  125.47    3.72
   5  -4   1  127.66    3.53
  -6   4  -1  114.54    3.61
   6  -4   1  118.90    3.34
   6  -4   1  117.75    3.48
   7  -4   1  168.36    4.74
  -7   4  -1  165.89    4.90
   8  -4   1   35.80    2.05
  -8   4  -1   37.79    2.13
   9  -4   1   16.58    1.57
  -9   4  -1   18.98    1.76
  10  -4   1    4.24    1.37
 -10   4  -1    4.86    1.44
   9   3  -1   19.15    1.63
   9   3  -1   17.70    1.82
  -9  -3   1   19.36    1.72
  -8  -3   1    3.59    1.03
   8   3  -1    1.74    0.96
   8   3  -1    1.32    1.03
   7   3  -1   21.18    1.43
  -7  -3   1   18.33    1.44
   7   3  -1   18.02    1.52
   6   3  -1   58.18    2.15
   6   3  -1   56.85    2.37
  -6  -3   1   59.76    2.34
  -5  -3   1  453.98   10.70
   5   3  -1  443.60   10.36
   5   3  -1  440.88   11.06
   4   3  -1  358.00    8.25
  -4  -3   1  359.70    8.57
   4   3  -1  346.74    8.83
   3   3  -1   36.55    1.50
  -3  -3   1   34.72    1.42
   3   3  -1   35.28    1.24
  -3  -3   1   36.32    1.06
  -2  -3   1  130.72    3.16
   2   3  -1  130.74    3.52
  -2  -3   1  127.65    3.37
   2   3  -1  131.69    3.17
  -1  -3   1 3974.94   86.96
  -1  -3   1 4148.69   89.98
   1   3  -1 3817.57   87.14
   0  -3   1 1042.98   23.05
   0   3  -1 1001.43   23.73
   0   3  -1 1032.38   22.47
   0  -3   1 1037.02   22.68
   1  -3   1 1009.52   21.52
   1  -3   1  978.92   22.14
   1  -3   1  985.93   21.71
  -1   3  -1  970.40   22.65
   2  -3   1    4.65    0.46
  -2   3  -1    3.57    0.45
   2  -3   1    4.38    0.40
   3  -3   1 2499.52   55.58
  -3   3  -1 2597.64   55.22
   3  -3   1 2452.94   54.20
  -3   3  -1 2451.82   56.85
   4  -3   1 2518.87   55.64
  -4   3  -1 2523.61   54.71
   4  -3   1 2484.23   54.36
  -4   3  -1 2478.59   56.99
   5  -3   1   61.59    1.90
  -5   3  -1   56.79    2.09
   5  -3   1   58.89    2.02
  -5   3  -1   59.98    1.69
   6  -3   1   37.69    1.71
  -6   3  -1   37.68    1.77
   6  -3   1   34.57    1.39
   7  -3   1   71.41    2.66
  -7   3  -1   72.42    2.71
   8  -3   1   61.22    2.57
  -8   3  -1   57.23    2.55
   9  -3   1   20.57    1.68
  -9   3  -1   21.02    1.74
  10  -3   1    5.59    1.42
 -10   3  -1    5.45    1.48
  10   2  -1    8.75    1.48
   9   2  -1    9.95    1.42
  -9  -2   1    8.92    1.30
   9   2  -1   12.02    1.43
  -8  -2   1   15.09    1.37
   8   2  -1   11.10    1.39
   8   2  -1   14.86    1.36
   7   2  -1    1.11    0.87
  -7  -2   1    1.01    0.69
   7   2  -1    0.58    0.77
   6   2  -1   46.06    1.81
   6   2  -1   41.15    1.93
  -6  -2   1   41.21    1.86
   5   2  -1   33.93    1.68
  -5  -2   1   45.36    1.72
   5   2  -1   43.35    1.62
   4   2  -1   22.50    1.04
   4   2  -1   20.39    1.14
  -4  -2   1   22.90    0.68
  -4  -2   1   20.46    1.09
   3   2  -1  468.04   11.42
  -3  -2   1  483.66   10.81
  -3  -2   1  484.85   11.05
   3   2  -1  487.62   10.78
   2   2  -1  127.31    3.36
  -2  -2   1  127.87    3.04
   2   2  -1  132.72    3.08
  -2  -2   1  129.24    3.25
   1   2  -1 3901.16   85.45
   1   2  -1 3742.40   88.53
  -1  -2   1 3892.55   86.00
  -1  -2   1 4003.84   87.23
   0   2  -1   84.77    1.94
   0  -2   1   81.93    1.96
   0  -2   1   79.88    2.04
   0   2  -1   82.00    2.24
   1  -2   1 1118.70   24.87
  -1   2  -1 1076.70   25.41
   1  -2   1 1106.53   24.20
  -1   2  -1 1158.12   24.96
  -2   2  -1 9569.31  215.70
  -2   2  -1 9691.77  224.67
   2  -2   1 9898.19  219.48
   2  -2   1 9998.14  213.97
  -3   2  -1  527.29   12.54
  -3   2  -1  539.82   11.91
   3  -2   1  526.67   11.98
   3  -2   1  549.25   12.18
   4  -2   1   14.19    0.73
   4  -2   1   14.43    0.85
  -4   2  -1   14.27    0.94
  -4   2  -1   14.06    0.68
  -5   2  -1   79.73    2.24
  -5   2  -1   75.13    2.52
   5  -2   1   79.35    2.49
   5  -2   1   81.40    2.18
  -6   2  -1   50.80    2.12
   6  -2   1   52.85    2.04
  -6   2  -1   52.81    1.78
   7  -2   1   30.01    1.63
  -7   2  -1   30.33    1.77
  -8   2  -1   52.24    2.43
   8  -2   1   52.57    2.36
  -9   2  -1    0.79    1.02
   9  -2   1    2.38    1.05
  10  -2   1    8.64    1.43
 -10   2  -1   12.69    1.64
  10   1  -1    2.73    1.29
 -10  -1   1    6.85    1.45
   9   1  -1   27.79    1.93
  -9  -1   1   24.89    1.77
   8   1  -1   46.36    2.37
  -8  -1   1   44.14    2.10
   8   1  -1   48.06    2.21
  -7  -1   1   51.12    2.09
   7   1  -1   51.02    2.11
   7   1  -1   49.12    2.24
  -6  -1   1  600.39   14.03
   6   1  -1  606.37   13.87
   6   1  -1  602.36   14.65
   5   1  -1  355.65    8.36
  -5  -1   1  355.47    8.51
   5   1  -1  354.75    8.86
  -4  -1   1    5.07    0.58
  -4  -1   1    5.98    0.37
   4   1  -1    4.44    0.59
   4   1  -1    5.31    0.55
  -3  -1   1 1297.14   28.50
   3   1  -1 1293.01   27.95
   3   1  -1 1258.50   29.39
  -3  -1   1 1278.43   28.35
  -2  -1   1  534.83   11.96
  -2  -1   1  531.45   11.96
   2   1  -1  538.88   11.75
   2   1  -1  529.50   12.40
   1   1  -1   56.00    1.33
  -1  -1   1   57.34    1.37
   1   1  -1   54.54    1.49
   0   1  -1   55.30    1.50
   0  -1   1   56.24    1.41
  -1   1  -1  331.75    7.75
  -1   1  -1  335.95    7.45
   1  -1   1  327.98    7.55
   1  -1   1  326.64    7.37
   2  -1   1 1994.80   44.43
  -2   1  -1 1922.74   42.85
  -2   1  -1 1956.08   44.43
   2  -1   1 1950.06   42.37
  -3   1  -1  234.99    5.35
  -3   1  -1  221.32    5.62
   3  -1   1  229.18    5.40
   3  -1   1  232.07    5.30
   4  -1   1    0.85    0.40
  -4   1  -1    1.00    0.33
  -4   1  -1    0.20    0.41
   4  -1   1    0.83    0.24
   5  -1   1  212.74    5.44
  -5   1  -1  221.54    5.73
   5  -1   1  221.52    5.07
  -5   1  -1  213.55    5.33
  -6   1  -1  435.69   10.67
  -6   1  -1  424.63   10.08
   6  -1   1  424.50   10.17
  -7   1  -1   19.25    1.26
   7  -1   1   20.17    1.47
  -7   1  -1   19.91    1.46
  -8   1  -1   33.02    1.98
   8  -1   1   28.54    1.87
   9  -1   1   41.63    2.24
  -9   1  -1   44.64    2.47
 -10   1  -1   37.34    2.42
  10  -1   1   39.86    2.46
  10   0  -1   14.03    1.65
 -10   0   1   11.43    1.57
   9   0  -1    1.10    0.93
  -9   0   1    0.19    1.06
  -8   0   1   31.65    2.00
  -8   0   1   33.04    1.70
   8   0  -1   33.34    1.79
  -7   0   1  311.22    7.89
   7   0  -1  326.91    7.98
   7   0  -1  322.01    8.42
   6   0  -1  116.07    3.42
  -6   0   1  122.49    3.43
  -5   0   1   81.72    2.41
   5   0  -1   83.31    2.09
   5   0  -1   78.68    2.63
   5   0  -1   76.73    2.42
   4   0  -1   55.93    1.79
  -4   0   1   58.68    1.78
   4   0  -1   58.79    1.93
   4   0  -1   58.90    1.56
   3   0  -1 2340.73   53.38
  -3   0   1 2275.70   51.45
   3   0  -1 2447.50   52.76
   3   0  -1 2325.95   50.86
  -2   0   1  658.38   14.87
   2   0  -1  685.92   15.46
   2   0  -1  661.81   14.71
   2   0  -1  678.77   15.03
   1   0  -1  724.05   16.05
   1   0  -1  726.89   16.25
   1   0  -1  754.05   16.85
   1   0  -1  742.59   16.47
   1   0   1 2184.53   48.71
   1   0   1 2158.84   48.92
   1   0   1 2120.43   47.62
  -1   0  -1 2079.36   47.75
   2   0   1 2309.02   51.51
  -2   0  -1 2218.93   49.49
   2   0   1 2254.39   51.28
   3   0   1  649.27   15.16
  -3   0  -1  643.52   14.60
   3   0   1  659.30   14.48
   4   0   1    6.23    0.64
   4   0   1    4.73    0.56
  -4   0  -1    6.15    0.59
   5   0   1  198.05    5.13
  -5   0  -1  206.24    5.15
   5   0   1  203.63    5.42
   6   0   1  289.57    7.69
   6   0   1  302.27    7.37
  -6   0  -1  300.55    7.36
  -7   0  -1   40.26    2.06
  -7   0  -1   37.22    1.80
   7   0   1   44.16    1.94
   8   0   1    0.69    0.92
  -8   0  -1    0.47    0.88
  -8   0  -1   -0.44    0.75
  -9   0  -1    1.32    1.14
   9   0   1    0.57    0.95
 -10   0  -1    5.17    1.41
  10   0   1    2.21    1.27
  10  -1  -1   25.75    1.99
 -10   1   1   22.01    1.92
   9  -1  -1   35.66    2.13
  -9   1   1   31.81    2.04
  -8   1   1   19.00    1.60
   8  -1  -1   25.39    1.69
  -7   1   1   39.27    1.68
  -7   1   1   39.55    1.93
   7  -1  -1   38.34    1.80
   6  -1  -1   85.01    2.71
  -6   1   1   83.50    2.81
  -6   1   1   84.03    2.53
  -5   1   1    2.58    0.47
  -5   1   1    3.40    0.65
   5  -1  -1    3.49    0.42
   5  -1  -1    2.79    0.59
   4  -1  -1  304.48    7.08
   4  -1  -1  303.69    7.03
  -4   1   1  298.51    6.99
   3  -1  -1  538.96   11.96
   3  -1  -1  528.41   12.12
  -3   1   1  535.04   11.94
  -3   1   1  539.76   12.51
   2  -1  -1    1.77    0.24
   2  -1  -1    1.95    0.19
  -2   1   1    1.60    0.26
   2  -1  -1    1.24    0.26
   1  -1  -1 1279.26   28.34
  -1   1   1 1298.81   29.40
   1  -1  -1 1252.95   28.40
   0  -1  -1 1527.84   33.94
   0  -1  -1 1504.61   34.29
   0   1   1 1463.56   32.76
   0   1   1 1538.15   35.40
  -1  -1  -1 4917.00  104.43
   1   1   1 4354.25  101.32
   1   1   1 4733.06  106.58
  -1  -1  -1 4534.69  103.53
   2   1   1  139.41    3.42
   2   1   1  143.21    3.57
  -2  -1  -1  139.74    3.48
   3   1   1  106.98    2.88
   3   1   1  110.19    3.04
  -3  -1  -1  113.31    2.96
   4   1   1  462.97   10.50
  -4  -1  -1  456.05   10.63
   4   1   1  451.74   10.99
  -5  -1  -1  275.02    6.84
   5   1   1  273.88    6.72
   5   1   1  276.87    7.09
   6   1   1   34.00    1.66
  -6  -1  -1   34.10    1.59
   7   1   1   32.11    1.92
   7   1   1   36.30    1.84
  -7  -1  -1   37.09    1.85
   8   1   1  120.38    4.00
  -8  -1  -1  135.17    4.11
  -9  -1  -1   22.37    1.93
   9   1   1   22.08    1.72
  -9  -1  -1   30.02    1.95
  10   1   1    0.11    1.23
  10  -2  -1    6.50    1.41
 -10   2   1    8.79    1.55
   9  -2  -1   49.27    2.48
  -9   2   1   51.77    2.62
   8  -2  -1  279.07    7.30
  -8   2   1  278.05    7.61
   7  -2  -1  114.62    3.51
  -7   2   1  110.54    3.61
  -6   2   1   35.45    1.66
   6  -2  -1   34.76    1.64
   6  -2  -1   36.94    1.38
  -6   2   1   35.21    1.39
   5  -2  -1  201.78    4.96
  -5   2   1  206.08    4.84
  -5   2   1  194.90    5.26
   5  -2  -1  200.20    5.08
  -4   2   1  989.52   21.60
   4  -2  -1  961.79   21.61
   4  -2  -1  983.49   22.02
  -4   2   1  974.71   22.61
   3  -2  -1 1128.06   24.58
   3  -2  -1 1112.34   25.11
  -3   2   1 1120.05   25.68
   2  -2  -1   19.14    0.77
  -2   2   1   18.55    0.76
   2  -2  -1   18.80    0.57
   2  -2  -1   17.60    0.80
  -1   2   1  247.99    5.75
   1  -2  -1  248.75    5.85
  -1   2   1  244.81    5.88
   1  -2  -1  258.62    5.64
   0  -2  -1 3157.42   69.06
   0   2   1 3119.79   70.37
   0   2   1 2796.41   65.78
   0  -2  -1 3099.94   67.71
   1   2   1 1082.16   24.33
  -1  -2  -1 1109.60   24.80
  -1  -2  -1 1131.30   24.62
   1   2   1 1129.45   25.43
  -2  -2  -1   73.19    2.11
   2   2   1   73.55    2.11
   2   2   1   70.35    2.04
  -2  -2  -1   76.91    1.82
  -3  -2  -1    1.75    0.48
   3   2   1    1.29    0.42
   3   2   1    0.82    0.42
  -4  -2  -1  114.16    3.18
   4   2   1  110.19    3.24
   4   2   1  105.09    3.04
   5   2   1   13.79    0.98
  -5  -2  -1   12.40    0.99
   5   2   1   14.86    1.12
  -6  -2  -1   42.71    1.91
   6   2   1   45.94    2.08
   6   2   1   45.14    1.93
   7   2   1   74.20    2.74
   7   2   1   70.79    2.90
  -7  -2  -1   76.60    2.84
   8   2   1   16.25    1.41
   8   2   1   16.49    1.51
  -8  -2  -1   15.61    1.46
  -9  -2  -1    1.19    1.11
   9   2   1    2.05    1.17
 -10   3   1   66.20    3.13
  10  -3  -1   72.55    3.10
   9  -3  -1   66.90    2.87
  -9   3   1   66.22    2.95
   8  -3  -1    0.90    0.91
  -8   3   1    1.47    0.90
   7  -3  -1   25.22    1.50
  -7   3   1   25.25    1.55
   6  -3  -1  343.11    8.18
  -6   3   1  341.55    8.60
   6  -3  -1  332.57    8.23
   5  -3  -1  360.65    8.67
   5  -3  -1  368.53    8.72
  -5   3   1  365.33    9.01
  -5   3   1  369.48    8.32
   4  -3  -1  167.62    4.39
  -4   3   1  176.97    4.02
  -4   3   1  171.41    4.52
   4  -3  -1  177.50    4.43
   3  -3  -1   19.76    0.62
  -3   3   1   19.40    0.96
   3  -3  -1   20.27    0.98
   3  -3  -1   20.18    0.98
   2  -3  -1  476.13   11.03
  -2   3   1  498.51   11.45
   2  -3  -1  486.57   10.86
   2  -3  -1  500.47   11.33
   1  -3  -1 1801.03   39.77
  -1   3   1 1786.16   38.85
  -1   3   1 1772.79   40.59
   1  -3  -1 1772.16   39.08
   0   3   1 2965.91   68.06
   0   3   1 2922.85   64.45
   0  -3  -1 2987.56   65.92
   0  -3  -1 3013.27   66.14
   1   3   1   18.58    0.91
  -1  -3  -1   16.06    0.76
   1   3   1   16.90    0.94
  -1  -3  -1   17.32    0.85
   2   3   1  594.81   13.61
  -2  -3  -1  607.56   13.66
  -2  -3  -1  610.66   13.82
   2   3   1  611.37   14.22
   3   3   1  179.02    4.52
  -3  -3  -1  177.62    4.16
   3   3   1  177.66    4.71
  -3  -3  -1  179.69    4.66
   4   3   1   96.09    2.84
  -4  -3  -1   93.62    2.96
   4   3   1  100.18    3.02
  -5  -3  -1    2.14    0.69
   5   3   1    1.96    0.68
   5   3   1    2.23    0.74
  -6  -3  -1    2.18    0.84
   6   3   1    1.40    0.83
   6   3   1    1.28    0.78
   7   3   1   19.47    1.45
   7   3   1   17.38    1.52
  -7  -3  -1   19.84    1.57
  -8  -3  -1   18.01    1.62
   8   3   1   14.22    1.46
   8   3   1   18.58    1.70
   9   3   1   -0.01    1.16
   9   3   1    0.97    1.09
  -9  -3  -1    2.67    1.13
  10  -4  -1   10.69    1.51
 -10   4   1    9.81    1.61
  -9   4   1   76.14    3.16
   9  -4  -1   75.86    3.08
   8  -4  -1    0.32    0.84
  -8   4   1   -0.26    0.93
  -7   4   1   73.61    2.75
   7  -4  -1   75.42    2.50
   7  -4  -1   69.60    2.69
  -6   4   1    9.13    1.00
   6  -4  -1    9.91    0.98
   6  -4  -1   10.48    0.89
   5  -4  -1    0.42    0.50
  -5   4   1   -0.07    0.55
   5  -4  -1    0.63    0.59
   4  -4  -1   73.01    2.39
  -4   4   1   79.82    2.43
   4  -4  -1   78.20    2.42
   3  -4  -1  492.42   11.67
   3  -4  -1  497.94   11.44
  -3   4   1  498.32   11.82
   3  -4  -1  508.37   11.07
   2  -4  -1   47.55    1.24
  -2   4   1   45.12    1.53
   2  -4  -1   41.46    1.55
  -2   4   1   44.74    1.57
  -1   4   1   74.62    2.22
   1  -4  -1   72.43    2.17
  -1   4   1   69.78    2.21
   1  -4  -1   71.09    1.91
   0  -4  -1  475.83   11.02
   0  -4  -1  486.59   11.23
   0   4   1  482.18   11.16
   0   4   1  495.74   11.55
  -1  -4  -1  126.45    3.37
   1   4   1  128.96    3.47
   1   4   1  125.58    3.46
  -1  -4  -1  126.46    3.29
   2   4   1  791.98   17.53
   2   4   1  774.90   18.23
  -2  -4  -1  765.57   17.59
  -2  -4  -1  785.34   17.70
   3   4   1  189.39    4.91
   3   4   1  189.44    5.09
  -3  -4  -1  192.77    5.03
   4   4   1   20.47    1.27
  -4  -4  -1   20.41    1.37
   4   4   1   17.60    1.32
  -5  -4  -1  193.86    5.32
   5   4   1  185.46    5.09
   5   4   1  192.09    5.45
   6   4   1  300.29    7.78
  -6  -4  -1  315.57    8.11
   6   4   1  308.48    8.30
   7   4   1   57.05    2.48
   7   4   1   55.44    2.66
  -7  -4  -1   62.53    2.72
   8   4   1   -0.63    0.94
   8   4   1    0.72    1.09
  -8  -4  -1    0.15    1.05
   9   4   1    0.31    1.22
   9   4   1   -0.04    1.10
  -9  -4  -1   -0.39    1.20
  10  -5  -1    0.94    1.24
 -10   5   1    0.07    1.27
  -9   5   1   -0.24    1.09
   9  -5  -1    1.80    1.02
  -8   5   1   18.21    1.57
   8  -5  -1   18.76    1.56
   7  -5  -1   41.30    2.08
   7  -5  -1   48.70    2.02
  -7   5   1   47.65    2.18
   6  -5  -1  121.74    3.74
  -6   5   1  118.08    3.74
   6  -5  -1  129.30    3.73
   5  -5  -1   15.92    1.11
   5  -5  -1   13.34    1.10
  -5   5   1   13.75    1.06
   4  -5  -1    1.66    0.63
  -4   5   1    1.96    0.61
   4  -5  -1    1.82    0.63
   3  -5  -1  220.58    5.63
  -3   5   1  216.46    5.50
  -3   5   1  216.38    5.58
  -2   5   1  439.20   10.25
  -2   5   1  439.32   10.58
   2  -5  -1  440.08    9.89
   2  -5  -1  441.79   10.47
   1  -5  -1   -0.03    0.31
  -1   5   1    0.02    0.41
  -1   5   1    0.03    0.49
   1  -5  -1    0.28    0.45
   0   5   1  124.44    3.52
   0   5   1  122.20    3.50
   0  -5  -1  124.54    3.39
   0  -5  -1  122.57    3.26
  -1  -5  -1   58.75    1.90
  -1  -5  -1   55.49    1.94
   1   5   1   55.70    2.00
   1   5   1   59.12    2.11
  -2  -5  -1  123.64    3.61
   2   5   1  129.06    3.72
  -2  -5  -1  132.19    3.39
   2   5   1  128.35    3.66
   3   5   1    0.80    0.64
  -3  -5  -1    2.66    0.75
   3   5   1    1.73    0.66
   4   5   1  254.47    6.39
   4   5   1  242.67    6.65
  -4  -5  -1  248.37    6.57
   5   5   1   44.04    2.05
  -5  -5  -1   42.27    2.14
   5   5   1   45.95    2.02
   6   5   1    1.05    0.91
  -6  -5  -1    0.14    0.83
   6   5   1    1.33    0.87
  -7  -5  -1   -0.13    0.94
   7   5   1   -0.08    0.94
   7   5   1   -0.99    0.95
   8   5   1    9.82    1.56
   8   5   1    9.47    1.38
  -8  -5  -1   10.76    1.60
 -10   6   1    9.43    1.65
   9  -6  -1   51.63    2.59
  -9   6   1   50.80    2.66
  -8   6   1   57.33    2.61
   8  -6  -1   54.45    2.51
  -7   6   1   23.97    1.67
   7  -6  -1   24.59    1.72
   7  -6  -1   25.67    1.62
   6  -6  -1   25.55    1.58
  -6   6   1   27.61    1.63
   6  -6  -1   27.05    1.63
   5  -6  -1  150.57    4.38
   5  -6  -1  151.80    4.35
  -5   6   1  150.01    4.33
   4  -6  -1  777.47   18.16
  -4   6   1  779.15   18.41
   3  -6  -1  701.53   16.39
  -3   6   1  698.48   15.99
  -3   6   1  698.54   16.59
  -2   6   1   73.12    2.48
   2  -6  -1   72.95    2.01
   2  -6  -1   72.74    2.50
  -2   6   1   74.17    2.45
  -1   6   1   99.22    3.07
   1  -6  -1  100.94    3.06
  -1   6   1  106.07    3.18
   1  -6  -1   98.00    2.73
   0   6   1  295.54    7.35
   0  -6  -1  288.09    7.28
   0   6   1  303.05    7.57
   0  -6  -1  292.88    7.09
  -1  -6  -1  245.79    6.16
   1   6   1  244.50    6.30
  -1  -6  -1  244.82    6.18
   1   6   1  247.90    6.44
  -2  -6  -1   12.79    0.96
   2   6   1   12.99    1.10
   2   6   1   12.20    1.06
  -2  -6  -1   12.83    1.04
   3   6   1   59.11    2.30
  -3  -6  -1   57.81    2.37
   3   6   1   58.66    2.37
   4   6   1   14.13    1.23
  -4  -6  -1   13.12    1.27
   4   6   1   15.04    1.30
  -5  -6  -1   64.38    2.71
   5   6   1   62.80    2.52
   5   6   1   55.94    2.57
  -6  -6  -1    0.30    1.00
   6   6   1    1.14    0.99
   6   6   1    0.13    0.94
   7   6   1   -0.45    1.06
  -7  -6  -1   -0.56    1.12
   7   6   1    1.14    1.04
   8   6   1    1.13    1.19
   9  -7  -1    3.73    1.22
  -9   7   1    2.46    1.21
   8  -7  -1    4.47    1.21
  -8   7   1    5.34    1.16
   8  -7  -1    6.48    1.17
  -7   7   1   12.32    1.35
   7  -7  -1   10.23    1.32
   7  -7  -1   14.49    1.32
   6  -7  -1    1.31    0.81
   6  -7  -1    0.28    0.86
  -6   7   1    0.77    0.86
   5  -7  -1   74.45    2.77
  -5   7   1   76.84    2.76
  -5   7   1   73.72    2.73
  -4   7   1   11.97    1.15
   4  -7  -1   12.55    1.18
  -4   7   1   12.47    1.16
  -3   7   1    6.59    0.97
  -3   7   1    7.76    0.94
   3  -7  -1    8.28    1.01
  -2   7   1   67.25    2.53
  -2   7   1   69.74    2.57
   2  -7  -1   68.84    2.52
  -1   7   1  131.92    3.99
   1  -7  -1  145.69    3.98
   1  -7  -1  134.30    3.56
  -1   7   1  121.14    3.90
   0   7   1  185.24    4.88
   0  -7  -1  142.63    4.50
   0   7   1  169.58    4.73
   0  -7  -1  172.34    4.45
  -1  -7  -1   25.11    1.35
   1   7   1   23.61    1.52
  -1  -7  -1   23.91    1.42
   1   7   1   23.30    1.53
  -2  -7  -1  163.16    4.68
   2   7   1  163.99    4.72
   2   7   1  167.75    4.84
  -3  -7  -1   86.70    3.06
   3   7   1   91.71    3.22
   3   7   1   86.81    3.07
  -4  -7  -1   34.08    1.91
   4   7   1   32.41    1.88
   4   7   1   31.35    1.91
  -5  -7  -1   33.72    2.13
   5   7   1   32.95    2.08
   5   7   1   36.96    2.07
   6   7   1    3.48    1.22
  -6  -7  -1    2.47    1.17
   7   7   1   10.06    1.60
   9  -8  -1   29.59    2.21
  -9   8   1   28.75    2.19
   8  -8  -1   23.43    1.92
   8  -8  -1   15.54    1.64
  -8   8   1   18.14    1.71
  -7   8   1    7.79    1.28
   7  -8  -1    8.01    1.27
   7  -8  -1    8.60    1.30
   6  -8  -1   14.29    1.39
  -6   8   1   11.17    1.35
  -6   8   1   14.88    1.41
  -5   8   1    5.75    1.10
   5  -8  -1    5.39    1.05
  -5   8   1    6.05    1.06
  -4   8   1    2.73    0.94
   4  -8  -1    4.42    0.97
  -4   8   1    3.07    0.96
   3  -8  -1   -0.23    0.71
  -3   8   1    0.07    0.74
  -3   8   1    0.86    0.75
   2  -8  -1   24.77    1.59
  -2   8   1   21.35    1.54
  -2   8   1   25.26    1.62
  -1   8   1    1.79    0.78
  -1   8   1    3.59    0.87
   1  -8  -1    2.48    0.80
   0  -8  -1   76.97    2.79
   0   8   1   84.74    2.99
   0   8   1   84.08    2.97
   0  -8  -1   85.45    2.72
   1   8   1    1.11    0.82
   1   8   1    2.36    0.89
  -1  -8  -1    1.57    0.79
  -1  -8  -1    1.14    0.79
   2   8   1   51.98    2.35
   2   8   1   47.40    2.32
  -2  -8  -1   54.94    2.31
   3   8   1    4.57    1.02
  -3  -8  -1    3.45    1.00
   3   8   1    2.17    1.04
   4   8   1    0.54    0.97
   4   8   1    0.50    0.99
  -4  -8  -1    0.18    1.04
  -5  -8  -1   -0.13    1.11
  -6  -8  -1    1.83    1.24
  -9   9   1    2.88    1.35
  -8   9   1    4.28    1.31
   8  -9  -1    4.17    1.30
  -8   9   1    3.25    1.25
  -7   9   1   18.30    1.76
   7  -9  -1   20.37    1.80
  -7   9   1   19.43    1.74
  -6   9   1  143.93    4.65
  -6   9   1  141.20    4.67
   6  -9  -1  139.77    4.67
   5  -9  -1    3.35    1.12
  -5   9   1    4.14    1.14
  -5   9   1    3.39    1.06
   4  -9  -1    4.95    1.16
  -4   9   1    3.81    1.10
  -4   9   1    5.80    1.13
  -3   9   1    0.79    0.84
  -3   9   1    0.67    0.89
   3  -9  -1    1.11    0.95
  -2   9   1  129.33    4.14
   2  -9  -1  129.16    4.16
  -2   9   1  133.20    4.23
  -1   9   1  145.23    4.49
  -1   9   1  143.51    4.42
   1  -9  -1  140.25    4.37
   0  -9  -1   12.87    1.27
   0   9   1   11.68    1.33
   1   9   1   18.06    1.47
  -1  -9  -1   13.73    1.29
  -1  -9  -1   12.86    1.26
  -2  -9  -1    4.15    1.08
   2   9   1    5.95    1.19
  -3  -9  -1   45.33    2.39
  -4  -9  -1    2.87    1.16
  -5  -9  -1    3.08    1.36
   8 -10  -1    1.22    1.25
   7 -10  -1    1.46    1.12
  -7  10   1    1.01    1.27
   6 -10  -1    1.20    1.20
  -6  10   1    2.18    1.20
  -5  10   1   33.22    2.22
   5 -10  -1   30.65    2.06
  -4  10   1   32.62    2.18
   4 -10  -1   30.38    1.98
  -3  10   1  104.36    3.74
   3 -10  -1  101.30    3.69
   2 -10  -1    2.51    1.09
  -2  10   1    1.80    1.03
   1 -10  -1    0.46    0.91
  -1  10   1    1.41    0.98
   0  10   1   17.41    1.54
   0 -10  -1   15.68    1.46
  -2 -10  -1    4.54    1.18
  -3 -10  -1    2.72    1.21
  -4 -10  -1    7.62    1.52
  -6  11   1    0.22    1.24
   6 -11  -1   -0.85    1.24
  -5  11   1   -0.68    1.19
   5 -11  -1   -0.57    1.18
  -4  11   1   11.24    1.59
   4 -11  -1   11.36    1.60
  -3  11   1   11.48    1.56
   3 -11  -1   12.41    1.54
   2 -11  -1    0.43    1.12
  -2  11   1    1.08    1.06
   1 -11  -1    0.38    1.11
  -5  12   1   10.74    1.76
  -4  12   1    7.53    1.56
   3 -12  -1    0.22    1.27
   2 -12  -1   -0.20    1.20
   1 -12  -1    3.70    1.37
   1 -13   2    2.60    1.33
   2 -13   2   -0.03    1.12
   3 -13   2   -0.34    1.23
  -3  13  -2   -0.38    1.22
  -4  13  -2    1.22    1.40
   3  12  -2    2.52    1.36
   2  12  -2   14.19    1.74
   1  12  -2    4.04    1.34
   0  12  -2   24.14    1.98
   0 -12   2   22.75    1.88
  -1  12  -2   13.84    1.71
   1 -12   2   12.66    1.63
   2 -12   2    1.37    1.15
  -2  12  -2   -0.81    1.08
  -3  12  -2   -0.24    1.15
   3 -12   2   -0.65    1.05
   4 -12   2    4.48    1.36
  -4  12  -2    2.16    1.34
   5 -12   2    6.83    1.43
  -5  12  -2   10.89    1.77
   6 -12   2    3.44    1.45
  -6  12  -2    4.93    1.59
   4  11  -2   -0.78    1.24
  -4 -11   2    0.86    1.10
  -3 -11   2    2.86    1.21
   3  11  -2    4.00    1.33
   2  11  -2    1.42    1.17
   1  11  -2    6.35    1.34
   0  11  -2    3.55    1.16
   0 -11   2    5.17    1.18
  -1  11  -2   10.45    1.42
   1 -11   2   10.60    1.40
  -2  11  -2   12.79    1.57
   2 -11   2   12.22    1.47
  -3  11  -2   30.97    2.23
   3 -11   2   27.80    1.92
   4 -11   2   63.20    2.82
  -4  11  -2   61.33    3.10
  -5  11  -2    2.54    1.12
   5 -11   2    5.19    1.23
  -5  11  -2    4.11    1.35
  -6  11  -2    1.14    1.29
  -6  11  -2    0.35    1.11
   6 -11   2    0.83    1.22
  -7  11  -2    7.76    1.59
  -7  11  -2    4.40    1.33
   7 -11   2    4.49    1.41
   5  10  -2    9.25    1.57
  -5 -10   2    8.40    1.55
   4  10  -2    4.51    1.37
  -4 -10   2    3.48    1.28
  -3 -10   2    7.48    1.29
   3  10  -2    6.60    1.39
   2  10  -2    2.39    1.12
  -2 -10   2    4.40    1.04
  -1 -10   2    2.87    0.95
   1  10  -2    4.69    1.20
  -1 -10   2    7.48    1.09
   0 -10   2    4.10    1.02
   0  10  -2    4.06    1.13
   1 -10   2    2.04    0.95
  -1  10  -2    5.79    1.16
  -2  10  -2    9.14    1.30
   2 -10   2   11.03    1.30
  -3  10  -2    0.55    1.01
   3 -10   2    1.99    0.89
  -3  10  -2    0.43    0.79
  -4  10  -2    9.16    1.20
   4 -10   2    5.53    1.12
  -4  10  -2    8.87    1.39
  -5  10  -2    1.24    0.94
   5 -10   2    1.53    0.97
  -5  10  -2    0.99    1.02
   6 -10   2   42.86    2.42
  -6  10  -2   42.82    2.56
  -6  10  -2   49.20    2.29
  -7  10  -2   44.94    2.66
   7 -10   2   47.33    2.58
   7 -10   2   41.64    2.27
   8 -10   2   -0.58    1.10
   8 -10   2   -0.44    1.11
  -8  10  -2   -1.45    1.17
   6   9  -2    3.95    1.34
  -6  -9   2    5.17    1.49
  -5  -9   2    2.41    1.19
   5   9  -2    3.37    1.20
  -4  -9   2    9.98    1.31
   4   9  -2   12.51    1.59
  -3  -9   2   31.19    1.84
   3   9  -2   34.25    2.20
  -2  -9   2   38.84    1.94
   2   9  -2   35.89    2.08
  -1  -9   2   86.99    2.86
  -1  -9   2   83.26    2.88
   1   9  -2   81.15    3.23
   0   9  -2   82.84    3.16
   0  -9   2   83.30    2.90
   0  -9   2   81.27    2.66
   1  -9   2   22.79    1.57
  -1   9  -2   26.67    1.72
  -1   9  -2   26.74    1.55
  -2   9  -2  276.31    6.95
  -2   9  -2  280.67    7.65
   2  -9   2  260.27    7.15
  -3   9  -2  180.64    5.47
  -3   9  -2  180.87    4.93
   3  -9   2  174.04    5.15
  -4   9  -2   14.48    1.25
  -4   9  -2   14.99    1.49
   4  -9   2   16.85    1.42
   5  -9   2    2.53    0.85
  -5   9  -2    2.48    1.05
   5  -9   2    1.78    0.86
   6  -9   2    6.85    1.09
   6  -9   2    5.70    1.11
  -6   9  -2    7.84    1.25
   7  -9   2   45.68    2.42
  -7   9  -2   46.16    2.55
   7  -9   2   46.04    2.28
   8  -9   2    2.49    1.16
  -8   9  -2    1.75    1.13
   8  -9   2    1.27    1.09
  -9   9  -2    5.40    1.51
   9  -9   2    4.53    1.42
   7   8  -2    0.53    1.32
  -7  -8   2    2.28    1.26
  -6  -8   2   -0.47    1.00
   6   8  -2    0.76    1.10
   5   8  -2    1.34    1.10
  -5  -8   2    0.09    1.00
  -4  -8   2   10.46    1.32
   4   8  -2   11.69    1.46
  -3  -8   2  125.13    3.90
   3   8  -2  122.18    4.22
   2   8  -2  166.57    5.20
  -2  -8   2  171.16    4.75
  -2  -8   2  173.59    4.69
  -1  -8   2   31.91    1.58
   1   8  -2   33.49    1.85
   1   8  -2   34.47    1.56
  -1  -8   2   33.82    1.62
   0   8  -2  126.81    3.51
   0  -8   2  117.57    3.60
   0   8  -2  116.52    3.93
   0  -8   2  122.55    3.40
   1  -8   2  166.18    4.66
  -1   8  -2  168.03    4.44
  -1   8  -2  161.51    4.94
   2  -8   2  190.18    5.39
  -2   8  -2  203.76    5.18
  -2   8  -2  200.61    5.74
   3  -8   2   70.26    2.62
  -3   8  -2   71.25    2.43
  -3   8  -2   69.24    2.76
   4  -8   2    9.96    1.00
  -4   8  -2    8.90    1.11
   4  -8   2   10.31    1.09
   5  -8   2   83.80    2.84
   5  -8   2   83.78    2.97
  -5   8  -2   85.02    3.14
   6  -8   2  105.65    3.58
   6  -8   2  107.20    3.50
  -6   8  -2  115.14    3.84
   7  -8   2    8.22    1.21
   7  -8   2    9.12    1.25
  -7   8  -2    8.65    1.32
  -8   8  -2    1.09    1.10
   8  -8   2    2.62    1.15
  -9   8  -2   22.91    1.95
   9  -8   2   28.93    2.07
   7   7  -2   16.35    1.87
  -7  -7   2   22.96    1.91
   6   7  -2   33.91    2.29
  -6  -7   2   34.38    2.16
  -5  -7   2    6.48    1.18
   5   7  -2    8.08    1.23
  -4  -7   2   12.66    1.21
   4   7  -2   13.23    1.39
   3   7  -2  160.51    4.97
  -3  -7   2  164.06    4.63
   2   7  -2   57.58    1.94
  -2  -7   2   55.63    2.14
   2   7  -2   58.46    2.48
  -2  -7   2   58.26    2.03
   1   7  -2    6.89    0.71
  -1  -7   2    7.21    0.79
   1   7  -2    9.50    1.06
  -1  -7   2    8.23    0.83
   0   7  -2    5.90    0.69
   0  -7   2    5.36    0.77
   0  -7   2    4.89    0.63
   1  -7   2  184.00    4.97
  -1   7  -2  183.58    5.31
  -1   7  -2  186.00    4.74
   1  -7   2  187.15    4.55
  -2   7  -2   -0.21    0.41
   2  -7   2    0.36    0.54
  -2   7  -2    0.38    0.67
  -3   7  -2   84.29    3.09
   3  -7   2   98.80    3.06
   3  -7   2   97.53    2.81
   4  -7   2  241.87    6.13
  -4   7  -2  232.93    6.26
   4  -7   2  219.08    5.83
   5  -7   2    4.69    0.81
  -5   7  -2    3.00    0.88
   5  -7   2    3.51    0.82
   6  -7   2   27.25    1.65
  -6   7  -2   30.93    1.81
   6  -7   2   28.39    1.65
  -7   7  -2   45.82    2.29
   7  -7   2   38.45    1.99
   7  -7   2   37.89    2.03
  -8   7  -2   41.23    2.34
   8  -7   2   40.20    2.23
  -9   7  -2    7.47    1.46
   9  -7   2    6.29    1.40
   8   6  -2   10.21    1.73
  -8  -6   2    7.83    1.38
   7   6  -2    0.98    1.16
  -7  -6   2    0.65    1.05
   6   6  -2   10.09    1.31
  -6  -6   2   10.65    1.26
   5   6  -2   46.04    2.33
  -5  -6   2   48.44    2.24
   4   6  -2  114.00    3.18
   4   6  -2  114.09    3.85
  -4  -6   2  113.91    3.58
  -3  -6   2   43.72    1.91
  -3  -6   2   46.64    1.63
   3   6  -2   45.71    1.63
   3   6  -2   47.84    2.10
   2   6  -2   52.69    1.67
  -2  -6   2   52.36    1.92
   2   6  -2   48.22    2.18
  -2  -6   2   51.92    1.78
   1   6  -2 1256.49   29.67
  -1  -6   2 1284.47   28.69
   1   6  -2 1265.28   27.88
  -1  -6   2 1276.93   28.33
   0  -6   2  519.78   12.25
   0   6  -2  517.66   12.79
   0   6  -2  530.34   11.89
   0  -6   2  525.23   11.94
   1  -6   2   95.58    2.90
   1  -6   2  100.27    2.60
  -1   6  -2  101.71    2.75
  -1   6  -2  101.01    3.20
   2  -6   2  193.64    5.11
  -2   6  -2  191.16    5.27
   2  -6   2  201.37    4.55
  -3   6  -2   80.47    2.62
   3  -6   2   74.22    2.33
   3  -6   2   78.05    2.50
  -4   6  -2  287.68    7.68
   4  -6   2  305.62    7.26
   4  -6   2  307.33    7.52
  -5   6  -2  217.38    5.95
   5  -6   2  218.68    5.77
   5  -6   2  224.56    5.68
   6  -6   2  126.11    3.67
  -6   6  -2  121.72    3.85
   6  -6   2  114.67    3.60
  -7   6  -2   67.74    2.78
   7  -6   2   71.78    2.74
   7  -6   2   77.54    2.67
   8  -6   2   38.23    2.11
  -8   6  -2   38.05    2.22
   9  -6   2    2.47    1.10
  -9   6  -2    1.75    1.14
 -10   6  -2    2.87    1.43
  10  -6   2    2.70    1.32
  -9  -5   2   18.58    1.87
  -8  -5   2    1.78    1.11
   8   5  -2    3.47    1.22
  -7  -5   2    0.26    0.81
   7   5  -2    0.27    1.02
  -6  -5   2    7.15    1.05
   6   5  -2    7.79    0.96
   6   5  -2    6.01    1.12
  -5  -5   2   34.81    1.79
   5   5  -2   31.73    1.49
   5   5  -2   28.14    1.73
   4   5  -2    8.16    0.96
   4   5  -2    8.59    0.74
  -4  -5   2    6.58    0.87
   3   5  -2  204.77    5.67
  -3  -5   2  213.35    5.10
   3   5  -2  205.55    5.01
  -3  -5   2  209.05    5.41
   2   5  -2  383.69    8.75
  -2  -5   2  399.24    9.07
   2   5  -2  379.52    9.61
  -2  -5   2  383.06    9.13
   1   5  -2   20.76    1.30
   1   5  -2   24.07    0.95
  -1  -5   2   23.18    1.05
  -1  -5   2   23.88    1.06
   0   5  -2  184.19    4.34
   0  -5   2  175.92    4.52
   0   5  -2  180.63    4.91
   0  -5   2  175.50    4.34
   1  -5   2  724.09   16.39
  -1   5  -2  704.82   16.89
   1  -5   2  731.39   15.88
  -1   5  -2  698.11   15.78
  -2   5  -2  687.06   16.26
   2  -5   2  688.12   15.32
   2  -5   2  696.73   15.23
   2  -5   2  686.24   15.87
  -3   5  -2  480.81   11.70
   3  -5   2  490.18   11.04
   3  -5   2  484.97   11.42
   4  -5   2  110.79    3.12
   4  -5   2  116.70    3.25
  -4   5  -2  111.37    3.34
   5  -5   2  538.05   12.78
  -5   5  -2  570.18   13.48
   5  -5   2  557.14   13.04
  -6   5  -2  151.49    4.42
   6  -5   2  143.36    4.16
  -7   5  -2  104.40    3.63
   7  -5   2  108.35    3.51
   8  -5   2    3.00    1.06
  -8   5  -2    3.01    1.04
   9  -5   2    8.79    1.38
  -9   5  -2    6.79    1.33
 -10   5  -2   -0.06    1.19
  10  -5   2   -0.95    1.11
  -9  -4   2   22.52    1.85
   9   4  -2   18.93    1.88
   8   4  -2   34.14    2.24
  -8  -4   2   31.74    2.06
   7   4  -2   49.84    2.13
  -7  -4   2   49.61    2.28
   7   4  -2   47.30    2.37
  -6  -4   2   82.90    2.92
   6   4  -2   78.10    3.09
   6   4  -2   86.99    2.70
  -5  -4   2   64.55    2.44
   5   4  -2   67.58    2.19
   5   4  -2   66.34    2.57
   4   4  -2   24.96    1.40
   4   4  -2   23.75    1.10
  -4  -4   2   23.17    1.29
   3   4  -2  153.70    3.77
  -3  -4   2  154.73    3.79
   3   4  -2  155.70    4.32
  -3  -4   2  150.95    4.08
  -2  -4   2  183.52    4.57
   2   4  -2  183.36    4.85
  -2  -4   2  178.34    4.41
   2   4  -2  181.19    4.24
  -1  -4   2   89.24    2.45
   1   4  -2   93.49    2.77
   1   4  -2   91.03    2.25
  -1  -4   2   92.84    2.46
   0   4  -2    1.03    0.28
   0  -4   2    0.87    0.28
   0  -4   2    0.95    0.35
   0   4  -2    0.74    0.45
  -1   4  -2  167.11    3.87
  -1   4  -2  161.79    4.35
   1  -4   2  168.42    3.92
   1  -4   2  168.37    4.18
   2  -4   2   69.18    2.07
   2  -4   2   71.03    1.95
  -2   4  -2   68.45    2.15
  -2   4  -2   71.48    1.70
  -3   4  -2  451.24   10.75
  -3   4  -2  450.14    9.93
   3  -4   2  443.32   10.47
   3  -4   2  448.30   10.18
   4  -4   2 1227.68   27.76
  -4   4  -2 1259.60   27.03
   4  -4   2 1219.11   27.12
  -4   4  -2 1217.55   28.48
  -5   4  -2  150.36    4.34
   5  -4   2  157.39    4.17
   5  -4   2  154.85    4.06
  -6   4  -2   69.54    2.61
   6  -4   2   65.59    2.41
   6  -4   2   73.42    2.29
  -7   4  -2   13.79    1.26
   7  -4   2   15.35    1.30
   8  -4   2    0.81    0.85
  -8   4  -2   -0.84    0.91
   9  -4   2   71.58    3.05
  -9   4  -2   80.00    3.32
  10  -4   2   38.87    2.37
 -10   4  -2   39.20    2.52
 -10  -3   2    1.08    1.14
  -9  -3   2    7.27    1.30
   9   3  -2    7.63    1.44
  -8  -3   2   11.78    1.33
   8   3  -2   13.72    1.44
   8   3  -2   13.28    1.30
  -7  -3   2  117.84    3.84
   7   3  -2  122.59    3.63
   7   3  -2  116.33    4.02
   6   3  -2  148.05    4.03
   6   3  -2  144.24    4.44
  -5  -3   2    6.93    0.81
   5   3  -2    7.00    0.71
   5   3  -2    4.91    0.82
   4   3  -2 1846.34   40.20
  -4  -3   2 1880.35   41.00
   4   3  -2 1826.13   42.43
  -4  -3   2 1829.45   40.94
  -3  -3   2 1336.65   30.12
  -3  -3   2 1358.28   30.19
   3   3  -2 1351.13   31.26
   3   3  -2 1375.31   29.54
  -2  -3   2  329.62    7.78
  -2  -3   2  335.20    7.68
   2   3  -2  337.25    7.45
   2   3  -2  332.90    8.12
   1   3  -2  595.26   14.19
  -1  -3   2  614.33   13.68
   1   3  -2  607.78   13.22
  -1  -3   2  598.16   13.55
   0  -3   2  216.25    5.15
   0   3  -2  207.81    5.47
   0   3  -2  222.63    4.89
   0   3  -2  222.06    5.03
  -1   3  -2 1820.23   39.80
  -1   3  -2 1729.78   40.90
   1  -3   2 1848.36   38.88
   1  -3   2 1783.92   39.96
  -2   3  -2   11.78    0.41
   2  -3   2    8.50    0.55
  -2   3  -2    8.53    0.63
   2  -3   2    8.72    0.57
  -3   3  -2   75.06    1.83
   3  -3   2   72.84    2.08
   3  -3   2   70.80    2.05
  -3   3  -2   72.68    2.21
   4  -3   2  218.99    5.39
  -4   3  -2  222.06    5.14
   4  -3   2  221.33    5.38
  -4   3  -2  222.57    5.66
  -5   3  -2  241.62    6.39
   5  -3   2  250.73    6.00
  -5   3  -2  247.29    5.83
   5  -3   2  250.04    6.14
  -6   3  -2  173.29    4.91
   6  -3   2  173.71    4.72
  -7   3  -2   -0.12    0.69
   7  -3   2   -0.70    0.75
   8  -3   2   49.36    2.32
  -8   3  -2   48.08    2.40
   9  -3   2    0.61    1.02
  -9   3  -2    2.43    1.20
  10  -3   2    7.30    1.39
 -10   3  -2    5.21    1.48
  10   2  -2    1.37    1.19
  -9  -2   2    4.14    1.09
   9   2  -2    4.25    1.17
   9   2  -2    4.47    1.17
   8   2  -2   12.49    1.37
   8   2  -2   14.69    1.34
  -8  -2   2   13.80    1.34
   7   2  -2   55.81    2.18
   7   2  -2   48.85    2.30
  -7  -2   2   50.75    2.19
   6   2  -2    2.33    0.80
  -6  -2   2    1.57    0.67
   6   2  -2    1.43    0.63
   5   2  -2  194.12    5.40
   5   2  -2  199.22    4.99
  -5  -2   2  205.31    5.21
   4   2  -2  218.23    5.65
  -4  -2   2  219.89    5.45
   4   2  -2  212.48    5.20
  -4  -2   2  220.25    5.07
   3   2  -2  123.78    3.05
   3   2  -2  121.30    3.39
  -3  -2   2  127.55    3.01
  -3  -2   2  123.99    3.27
  -2  -2   2    9.90    0.49
   2   2  -2    9.16    0.45
   2   2  -2   10.36    0.64
  -2  -2   2    9.49    0.58
   1   2  -2 1087.96   23.39
   1   2  -2 1057.03   23.49
   1   2  -2 1017.80   24.39
  -1  -2   2 1095.88   23.76
   0  -2   2 1313.14   28.92
   0   2  -2 1326.94   28.53
   0   2  -2 1256.48   29.70
  -1   2  -2  212.32    5.03
  -1   2  -2  208.28    4.72
   1  -2   2  206.48    4.69
   1  -2   2  206.74    4.88
   2  -2   2 2527.48   55.56
  -2   2  -2 2519.43   58.29
  -2   2  -2 2624.60   56.66
   2  -2   2 2606.87   58.44
  -3   2  -2 1983.49   43.21
  -3   2  -2 1956.63   44.91
   3  -2   2 1981.70   43.81
   3  -2   2 1962.97   42.83
  -4   2  -2  891.39   20.00
  -4   2  -2  899.51   20.93
   4  -2   2  897.29   19.98
   4  -2   2  911.54   20.22
   5  -2   2  463.27   10.75
  -5   2  -2  443.34   11.19
  -5   2  -2  468.44   10.60
   5  -2   2  469.11   10.58
  -6   2  -2   53.72    2.13
  -6   2  -2   52.34    1.82
   6  -2   2   55.83    2.09
   7  -2   2  171.02    4.87
  -7   2  -2  174.37    5.11
   8  -2   2   42.20    2.08
  -8   2  -2   39.58    2.22
   9  -2   2   12.74    1.50
  -9   2  -2   14.19    1.63
 -10   2  -2    0.75    1.30
  10  -2   2    3.15    1.22
 -10  -1   2    2.80    1.36
  10   1  -2    1.02    1.13
   9   1  -2   81.63    3.19
  -8  -1   2   57.39    2.43
   8   1  -2   67.02    2.56
   8   1  -2   59.60    2.67
  -7  -1   2    9.47    0.99
   7   1  -2    7.38    0.97
   7   1  -2    6.43    1.02
  -6  -1   2    4.56    0.74
   6   1  -2    1.81    0.70
   6   1  -2    1.80    0.64
   5   1  -2  555.24   12.62
  -5  -1   2  553.73   12.84
   5   1  -2  549.50   13.37
  -5  -1   2  562.64   12.56
   4   1  -2  383.88    9.32
  -4  -1   2  389.65    8.74
   4   1  -2  382.42    8.77
  -4  -1   2  376.56    8.93
   3   1  -2  309.29    7.54
  -3  -1   2  304.76    7.24
   3   1  -2  320.15    7.08
   2   1  -2    3.99    0.30
   2   1  -2    3.13    0.36
   2   1  -2    2.88    0.32
  -2  -1   2    3.63    0.30
  -1  -1   2 1118.75   24.94
   1   1  -2 1091.66   25.52
   1   1  -2 1148.02   24.93
   0  -1   2   79.29    1.99
   0   1  -2   76.51    2.07
   0   1  -2   79.78    2.19
   0  -1   2   79.27    2.11
  -1   1  -2  228.46    5.31
  -1   1  -2  224.12    5.13
   1  -1   2  220.29    5.17
   1  -1   2  226.52    5.08
  -2   1  -2  278.07    6.31
   2  -1   2  276.38    6.30
  -2   1  -2  273.05    6.56
   2  -1   2  273.20    6.31
   3  -1   2  230.95    5.33
   3  -1   2  232.75    5.48
  -3   1  -2  228.26    5.43
  -3   1  -2  231.69    5.69
  -4   1  -2   56.74    1.79
  -4   1  -2   58.71    1.97
   4  -1   2   60.38    1.55
   4  -1   2   54.81    1.88
  -5   1  -2   19.41    1.18
   5  -1   2   18.96    1.12
  -5   1  -2   19.00    1.04
  -6   1  -2    2.75    0.65
  -6   1  -2    2.68    0.80
   6  -1   2    4.11    0.76
   7  -1   2  104.80    3.45
  -7   1  -2  105.79    3.54
  -7   1  -2  106.94    3.25
   8  -1   2    0.70    0.92
  -8   1  -2    0.71    0.99
  -9   1  -2   16.04    1.67
   9  -1   2   16.49    1.56
 -10   1  -2   25.06    2.18
  10  -1   2   25.80    1.99
  10   0  -2   47.25    2.58
 -10   0   2   45.93    2.73
  -9   0   2   23.52    1.88
   9   0  -2   27.95    1.92
  -8   0   2    1.66    0.74
  -8   0   2    0.40    0.84
   8   0  -2    1.30    0.91
  -7   0   2  319.69    7.89
   7   0  -2  316.66    7.89
   7   0  -2  318.75    8.39
  -6   0   2 1013.79   22.10
   6   0  -2  904.62   21.81
   6   0  -2 1014.18   23.06
   5   0  -2  908.82   21.37
   5   0  -2  904.82   20.30
  -5   0   2  911.49   20.51
   5   0  -2  923.32   20.51
   4   0  -2  403.55    9.20
  -4   0   2  398.57    9.23
   4   0  -2  402.03    9.68
   4   0  -2  399.46    9.16
   3   0  -2  149.05    3.71
   3   0  -2  151.87    3.91
   3   0  -2  152.77    3.70
   3   0  -2  156.37    3.70
   2   0  -2  258.77    6.09
   2   0  -2  256.00    5.93
   2   0  -2  253.72    5.87
   2   0  -2  256.58    5.81
  -1   0   2 2949.40   69.99
   1   0  -2 3334.97   72.03
   1   0  -2 3107.91   70.76
   1   0  -2 3271.56   73.21
   0   0   2   49.62    1.39
   0   0  -2   50.96    1.36
   0   0  -2   51.94    1.37
  -1   0  -2   81.88    2.06
   1   0   2   80.29    1.96
  -1   0  -2   81.46    2.02
   2   0   2  410.02    9.20
  -2   0  -2  400.55    9.27
   2   0   2  411.67    9.55
   2   0   2  411.41    9.19
  -3   0  -2  124.63    3.23
   3   0   2  123.56    3.33
   3   0   2  125.58    2.91
   3   0   2  126.98    3.24
  -4   0  -2  105.96    2.95
   4   0   2  106.13    2.98
   4   0   2  105.84    3.07
   5   0   2  113.80    3.36
  -5   0  -2  111.25    3.21
   5   0   2  112.10    3.25
  -6   0  -2   24.31    1.38
  -6   0  -2   26.00    1.55
   6   0   2   22.98    1.37
  -7   0  -2   50.09    2.23
   7   0   2   52.09    2.18
  -7   0  -2   50.40    2.12
  -8   0  -2   29.50    1.79
   8   0   2   35.33    1.92
  -8   0  -2   29.13    1.90
  -9   0  -2    2.40    1.22
   9   0   2    1.93    1.11
  10   0   2    0.07    1.21
  10  -1  -2   16.16    1.73
 -10   1   2   17.87    1.76
   9  -1  -2   17.68    1.56
  -9   1   2   14.69    1.49
   8  -1  -2   -0.67    0.83
  -8   1   2    0.30    0.91
  -7   1   2  109.17    3.53
   7  -1  -2  103.36    3.31
  -7   1   2  104.25    3.14
   6  -1  -2    2.17    0.50
   6  -1  -2    1.75    0.64
  -6   1   2    2.53    0.55
  -6   1   2    2.41    0.72
  -5   1   2    9.54    0.68
   5  -1  -2    9.77    0.72
   5  -1  -2    9.68    0.81
   4  -1  -2  125.96    3.32
   4  -1  -2  131.63    3.29
  -4   1   2  126.52    3.22
   3  -1  -2    8.71    0.52
   3  -1  -2    6.78    0.49
   3  -1  -2    7.18    0.53
   2  -1  -2 2095.96   45.81
  -2   1   2 2080.64   46.77
   2  -1  -2 2022.49   45.13
   2  -1  -2 2047.20   44.69
  -1   1   2 1639.82   36.98
  -1   1   2 1755.75   39.19
   1  -1  -2 1724.39   38.24
   1  -1  -2 1693.59   37.88
   0   1   2   64.76    1.79
   0   1   2   64.95    1.56
   0  -1  -2   63.55    1.67
   0  -1  -2   62.39    1.66
   1   1   2 2344.85   52.63
   1   1   2 2472.55   55.26
  -1  -1  -2 2503.26   54.37
  -1  -1  -2 2399.53   53.24
  -2  -1  -2 1035.67   22.87
   2   1   2 1011.70   22.54
   2   1   2 1041.98   23.53
  -2  -1  -2 1015.56   22.81
   3   1   2 1113.97   24.57
   3   1   2 1117.19   25.67
  -3  -1  -2 1114.72   24.88
   4   1   2  246.11    6.07
  -4  -1  -2  253.15    6.17
   4   1   2  245.08    6.30
   5   1   2   74.36    2.47
  -5  -1  -2   71.54    2.45
   5   1   2   74.86    2.56
   6   1   2  223.58    6.08
   6   1   2  218.74    5.79
  -6  -1  -2  222.54    5.86
  -7  -1  -2   16.86    1.34
   7   1   2   15.63    1.30
   7   1   2   12.79    1.25
   8   1   2   16.24    1.49
  -8  -1  -2   16.77    1.52
  -8  -1  -2   23.06    1.69
  -9  -1  -2    7.67    1.37
  -9  -1  -2    9.34    1.35
   9   1   2    9.23    1.43
 -10   2   2   20.28    1.96
  10  -2  -2   23.39    1.92
   9  -2  -2    0.87    1.00
  -9   2   2    0.90    0.98
  -8   2   2   12.65    1.31
   8  -2  -2   14.77    1.34
  -7   2   2  180.08    5.16
   7  -2  -2  179.98    4.93
   6  -2  -2   91.99    2.86
  -6   2   2   85.31    2.87
   6  -2  -2   90.18    2.64
  -6   2   2   90.99    2.58
   5  -2  -2    2.66    0.64
  -5   2   2    2.62    0.44
   5  -2  -2    2.10    0.47
  -5   2   2    3.04    0.62
   4  -2  -2   37.33    1.43
   4  -2  -2   35.78    1.16
  -4   2   2   36.29    1.40
   4  -2  -2   34.22    1.32
  -3   2   2  356.38    8.54
   3  -2  -2  365.83    8.13
   3  -2  -2  358.42    8.42
   3  -2  -2  359.03    8.31
   2  -2  -2    0.12    0.29
   2  -2  -2    0.55    0.21
  -2   2   2    0.34    0.24
   1  -2  -2  404.44    8.79
   1  -2  -2  392.46    9.01
  -1   2   2  387.27    9.04
  -1   2   2  376.14    8.89
   0  -2  -2  315.73    7.36
   0   2   2  323.07    7.43
   0  -2  -2  315.61    7.27
   0   2   2  318.35    7.43
   1   2   2    0.86    0.35
   1   2   2    0.78    0.27
  -1  -2  -2    0.46    0.25
  -1  -2  -2    0.39    0.32
   2   2   2   43.08    1.43
   2   2   2   41.94    1.47
  -2  -2  -2   44.54    1.22
  -2  -2  -2   42.51    1.49
   3   2   2   69.89    2.22
  -3  -2  -2   68.89    2.25
   3   2   2   72.35    2.22
  -3  -2  -2   73.65    1.77
   4   2   2  126.00    3.46
  -4  -2  -2  119.60    3.49
   4   2   2  122.55    3.54
   5   2   2  165.64    4.45
   5   2   2  156.89    4.57
  -5  -2  -2  165.99    4.54
   6   2   2    6.53    0.98
  -6  -2  -2    7.69    1.05
   6   2   2    7.39    1.03
   7   2   2   36.96    2.03
   7   2   2   39.43    2.00
  -7  -2  -2   33.34    1.97
   8   2   2  119.56    4.22
   8   2   2  119.58    4.01
  -8  -2  -2  126.09    4.16
   9   2   2   25.38    1.96
  -9  -2  -2   26.91    2.10
  -9  -2  -2   26.16    1.91
  10  -3  -2   -0.14    1.16
 -10   3   2   -1.00    1.16
  -9   3   2   56.42    2.70
   9  -3  -2   55.35    2.65
  -8   3   2   70.75    2.89
   8  -3  -2   74.89    2.88
   7  -3  -2   12.28    1.14
  -7   3   2   10.62    1.08
   7  -3  -2   12.07    0.95
  -6   3   2   89.49    2.90
   6  -3  -2   88.17    2.87
   6  -3  -2   92.92    2.78
   5  -3  -2  255.54    6.29
   5  -3  -2  248.28    6.26
  -5   3   2  251.99    6.42
   4  -3  -2  802.89   18.05
  -4   3   2  795.94   18.72
   4  -3  -2  818.49   17.83
   4  -3  -2  802.27   18.40
   3  -3  -2 1810.91   41.02
   3  -3  -2 1824.09   40.08
   3  -3  -2 1862.86   40.21
  -3   3   2 1839.52   41.80
  -2   3   2  113.84    2.98
   2  -3  -2  118.66    2.80
  -2   3   2  117.23    3.09
   2  -3  -2  110.38    3.10
   1  -3  -2  813.66   18.05
   1  -3  -2  812.67   18.46
  -1   3   2  814.90   18.74
  -1   3   2  813.26   18.17
   0  -3  -2 1645.77   37.21
   0  -3  -2 1646.41   36.71
   0   3   2 1669.81   36.58
   0   3   2 1709.06   38.01
   1   3   2  643.88   14.52
   1   3   2  646.88   14.88
  -1  -3  -2  630.04   14.50
  -1  -3  -2  644.19   14.55
   2   3   2   47.48    1.72
  -2  -3  -2   48.70    1.44
  -2  -3  -2   48.53    1.75
   2   3   2   48.42    1.63
  -3  -3  -2   14.92    1.03
  -3  -3  -2   15.22    0.66
   3   3   2   13.73    0.99
   3   3   2   16.25    1.03
  -4  -3  -2   51.65    1.98
   4   3   2   45.82    1.91
   4   3   2   50.76    1.97
   5   3   2   39.69    1.79
   5   3   2   36.31    1.80
  -5  -3  -2   35.97    1.83
   6   3   2   10.21    1.15
  -6  -3  -2   11.40    1.23
   6   3   2    9.99    1.15
   7   3   2    3.24    1.04
   7   3   2    3.16    0.99
  -7  -3  -2    3.03    0.99
   8   3   2    2.84    1.10
   8   3   2    1.71    1.11
  -8  -3  -2    2.06    1.13
   9   3   2   -0.66    1.05
  -9  -3  -2    1.04    1.16
 -10   4   2   12.53    1.70
  10  -4  -2   10.54    1.59
  -9   4   2    2.80    1.18
   9  -4  -2    1.92    1.05
  -8   4   2    2.86    1.01
   8  -4  -2    1.73    0.99
  -7   4   2   31.21    1.78
   7  -4  -2   33.13    1.82
   7  -4  -2   32.01    1.60
  -6   4   2   34.67    1.70
   6  -4  -2   33.83    1.75
   6  -4  -2   35.53    1.62
   5  -4  -2  141.75    4.00
  -5   4   2  145.14    4.03
   5  -4  -2  147.72    4.05
  -4   4   2  132.81    3.67
   4  -4  -2  135.20    3.75
   4  -4  -2  133.15    3.73
   3  -4  -2   85.80    2.59
  -3   4   2   83.02    2.43
  -3   4   2   84.28    2.57
   3  -4  -2   82.72    2.11
  -2   4   2  289.02    7.11
   2  -4  -2  293.20    7.16
   2  -4  -2  297.75    6.74
  -2   4   2  293.91    7.08
   1  -4  -2  830.96   18.68
  -1   4   2  830.55   19.02
  -1   4   2  792.36   18.38
   1  -4  -2  817.12   18.23
   0  -4  -2  124.72    3.31
   0  -4  -2  129.48    3.40
   0   4   2  128.43    3.57
   0   4   2  127.97    3.43
  -1  -4  -2  452.02   10.53
   1   4   2  458.75   10.65
  -1  -4  -2  453.63   10.53
   1   4   2  449.18   10.77
  -2  -4  -2   22.76    0.98
   2   4   2   22.31    1.24
  -2  -4  -2   21.23    1.18
   2   4   2   21.75    1.19
   3   4   2  201.35    5.28
   3   4   2  196.84    5.21
   4   4   2  118.82    3.59
   4   4   2  118.40    3.61
  -4  -4  -2  122.22    3.68
  -5  -4  -2    1.53    0.82
   5   4   2    1.69    0.78
   5   4   2    1.05    0.73
   6   4   2   19.03    1.51
  -6  -4  -2   23.07    1.68
   6   4   2   21.31    1.54
   7   4   2   35.72    2.11
  -7  -4  -2   33.83    2.14
   7   4   2   32.60    1.96
   8   4   2   18.85    1.72
  -8  -4  -2   23.48    1.94
   8   4   2   20.53    1.83
 -10   5   2   32.86    2.42
  10  -5  -2   32.11    2.25
   9  -5  -2   35.58    2.26
  -9   5   2   33.98    2.26
   8  -5  -2   11.05    1.37
  -8   5   2   12.68    1.41
   7  -5  -2    7.48    1.01
  -7   5   2    7.13    1.09
   7  -5  -2    6.05    1.04
   6  -5  -2   23.57    1.55
  -6   5   2   23.11    1.45
   6  -5  -2   23.08    1.45
   5  -5  -2  197.86    5.27
  -5   5   2  191.21    5.20
   5  -5  -2  193.94    5.23
  -4   5   2  106.29    3.12
   4  -5  -2  103.54    3.21
   3  -5  -2  185.53    4.93
  -3   5   2  180.04    4.84
  -3   5   2  184.18    4.79
   2  -5  -2   15.31    0.78
  -2   5   2   15.59    0.99
   2  -5  -2   14.44    1.02
  -2   5   2   15.96    1.16
   1  -5  -2   65.30    1.96
   1  -5  -2   65.44    2.21
  -1   5   2   69.20    2.33
  -1   5   2   68.24    2.22
   0   5   2   52.49    1.81
   0   5   2   47.46    1.98
   0  -5  -2   50.38    1.74
   0  -5  -2   49.88    1.77
  -1  -5  -2  441.98   10.38
   1   5   2  436.85   10.51
   1   5   2  438.69   10.63
  -1  -5  -2  444.36   10.37
  -2  -5  -2  107.74    3.29
   2   5   2  110.30    3.38
  -2  -5  -2  109.60    3.02
   2   5   2  109.00    3.25
  -3  -5  -2   43.79    2.01
   3   5   2   45.24    1.92
   3   5   2   47.53    2.03
  -4  -5  -2    5.61    0.97
   4   5   2    7.40    0.97
   4   5   2    6.53    0.99
   5   5   2   37.89    2.02
   5   5   2   41.43    2.06
  -5  -5  -2   40.26    2.07
  -6  -5  -2   38.79    2.21
   6   5   2   36.79    1.99
   6   5   2   39.08    2.15
   7   5   2   19.17    1.72
  -7  -5  -2   16.89    1.65
   7   5   2   18.57    1.59
   8   5   2   -0.10    1.10
   8   5   2    0.12    1.16
 -10   6   2    1.35    1.31
   9  -6  -2    2.17    1.12
  -9   6   2    2.17    1.08
  -8   6   2    1.42    0.99
   8  -6  -2    2.19    1.02
   8  -6  -2    1.68    1.00
   7  -6  -2  127.48    4.13
  -7   6   2  132.53    4.12
   7  -6  -2  130.30    4.09
   6  -6  -2  268.48    7.04
  -6   6   2  265.39    7.04
   6  -6  -2  260.46    6.98
  -5   6   2    2.24    0.80
  -5   6   2    1.78    0.73
   5  -6  -2    2.78    0.79
   4  -6  -2   47.93    2.02
  -4   6   2   46.79    2.00
  -4   6   2   48.23    1.94
  -3   6   2  193.83    5.05
  -3   6   2  185.00    5.07
   3  -6  -2  180.56    5.11
   2  -6  -2  338.07    7.73
  -2   6   2  306.10    8.17
   2  -6  -2  342.61    8.31
  -2   6   2  340.82    8.36
   1  -6  -2  336.39    8.28
  -1   6   2  346.62    8.40
  -1   6   2  328.85    8.31
   1  -6  -2  325.15    7.88
   0  -6  -2    9.91    0.86
   0   6   2    8.69    0.96
   0  -6  -2    8.94    0.88
   0   6   2   11.13    0.94
  -1  -6  -2   39.44    1.61
   1   6   2   38.72    1.72
   1   6   2   38.04    1.87
  -1  -6  -2   34.64    1.67
   2   6   2  825.20   19.04
  -2  -6  -2  835.89   19.08
   2   6   2  837.98   19.60
  -2  -6  -2  814.68   18.96
  -3  -6  -2  104.30    3.46
   3   6   2  107.70    3.49
   3   6   2  104.84    3.38
  -4  -6  -2    1.12    0.83
   4   6   2    0.96    0.85
   4   6   2   -0.07    0.74
   5   6   2   -1.58    0.82
  -5  -6  -2    0.57    0.96
   5   6   2   -0.16    0.86
   6   6   2    0.45    0.97
  -6  -6  -2    2.01    1.17
   6   6   2    0.92    1.00
  -7  -6  -2    1.45    1.25
   7   6   2    0.14    1.05
   9  -7  -2    0.45    1.20
  -9   7   2    1.28    1.18
   8  -7  -2   68.71    2.89
   8  -7  -2   61.81    2.92
  -8   7   2   65.31    2.87
  -7   7   2   20.12    1.53
   7  -7  -2   17.45    1.58
   7  -7  -2   18.58    1.55
  -6   7   2   80.50    3.03
   6  -7  -2   76.30    2.91
  -6   7   2   74.11    2.87
   5  -7  -2   20.62    1.55
  -5   7   2   22.66    1.53
  -5   7   2   22.31    1.64
   4  -7  -2  325.54    8.28
  -4   7   2  303.94    8.18
  -4   7   2  326.73    8.15
  -3   7   2  161.39    4.62
   3  -7  -2  161.06    4.66
  -3   7   2  157.05    4.63
  -2   7   2    3.32    0.83
   2  -7  -2    2.57    0.81
  -2   7   2    3.42    0.83
   1  -7  -2    1.35    0.73
  -1   7   2    1.68    0.68
  -1   7   2    2.78    0.77
   1  -7  -2    1.80    0.58
   0  -7  -2  242.12    6.41
   0   7   2  253.15    6.55
   0   7   2  250.79    6.59
   0  -7  -2  243.04    6.25
   1   7   2   86.92    3.04
   1   7   2   79.71    2.80
  -1  -7  -2   84.79    2.80
  -1  -7  -2   75.48    2.67
   2   7   2   25.21    1.72
   2   7   2   24.62    1.63
  -2  -7  -2   27.29    1.58
   3   7   2    1.17    0.85
  -3  -7  -2    0.63    0.90
  -4  -7  -2   15.88    1.51
   4   7   2   12.89    1.40
   5   7   2   32.24    2.14
  -5  -7  -2   30.31    2.02
   6   7   2    9.89    1.42
  -6  -7  -2    8.15    1.42
  -8   8   2   47.41    2.51
  -8   8   2   53.39    2.62
   8  -8  -2   46.36    2.55
  -7   8   2   39.51    2.38
   7  -8  -2   41.09    2.32
  -7   8   2   44.95    2.30
  -6   8   2    1.73    0.95
   6  -8  -2    0.48    0.92
  -6   8   2    1.35    0.91
   5  -8  -2    1.09    0.97
  -5   8   2    0.56    0.85
  -5   8   2   -0.16    0.87
  -4   8   2   34.78    1.95
   4  -8  -2   36.03    1.95
   3  -8  -2  107.58    3.65
  -3   8   2  114.14    3.79
  -2   8   2    7.12    1.13
   2  -8  -2    9.15    1.17
   1  -8  -2  227.70    6.17
  -1   8   2  222.06    6.21
   0  -8  -2    2.19    0.86
   0   8   2    2.35    0.87
   0  -8  -2    3.11    0.83
  -1  -8  -2   14.40    1.26
   1   8   2   15.04    1.41
  -1  -8  -2   14.99    1.22
  -2  -8  -2   19.19    1.52
   2   8   2   16.28    1.51
   3   8   2   41.97    2.27
  -3  -8  -2   38.38    2.21
   4   8   2   10.66    1.42
  -4  -8  -2   12.06    1.46
  -5  -8  -2    0.28    1.18
  -8   9   2    1.94    1.26
   8  -9  -2    0.45    1.15
   7  -9  -2    0.94    1.05
  -7   9   2    0.60    1.08
  -6   9   2    9.82    1.42
   6  -9  -2   10.66    1.51
   5  -9  -2   80.19    3.24
  -5   9   2   84.76    3.32
  -4   9   2   22.65    1.81
   4  -9  -2   19.79    1.69
   3  -9  -2    3.79    1.13
  -3   9   2    3.56    1.12
   2  -9  -2   16.60    1.54
  -2   9   2   23.33    1.68
   1  -9  -2   40.29    2.15
  -1   9   2   41.44    2.25
   0   9   2   18.75    1.58
   0  -9  -2   19.09    1.53
  -1  -9  -2    5.95    1.10
   1   9   2    4.94    1.14
  -2  -9  -2    3.39    1.12
   2   9   2    3.81    1.15
   3   9   2    1.45    1.09
  -3  -9  -2    0.92    1.09
  -4  -9  -2    6.74    1.45
   7 -10  -2    3.42    1.35
  -7  10   2    5.27    1.51
  -6  10   2    6.91    1.51
   6 -10  -2    3.41    1.35
  -5  10   2    0.67    1.21
   5 -10  -2    0.37    1.09
  -4  10   2   -0.57    1.04
   4 -10  -2    2.05    1.10
   3 -10  -2   22.98    1.90
  -3  10   2   21.97    1.86
   2 -10  -2   14.10    1.58
  -2  10   2   12.07    1.49
  -1  10   2    7.69    1.28
   1 -10  -2    5.69    1.26
   0  10   2    2.73    1.13
   0 -10  -2    2.62    1.07
   1  10   2   16.91    1.62
  -2 -10  -2   52.80    2.64
  -3 -10  -2    2.21    1.28
  -6  11   2   12.55    1.87
  -5  11   2   11.56    1.75
   5 -11  -2   13.76    1.69
   4 -11  -2   -0.95    1.14
  -4  11   2   -0.49    1.19
  -3  11   2   -0.60    0.96
   3 -11  -2   -0.09    1.05
   2 -11  -2    0.22    1.17
  -2  11   2    0.78    1.16
  -1  11   2    4.32    1.26
   1 -11  -2    5.97    1.35
  -3  12   2    9.72    1.62
   2 -12  -2   -0.04    1.26
   1 -12  -2    1.17    1.31
   1  13  -3    0.83    1.29
   0 -13   3   -0.53    1.19
   0  13  -3    1.06    1.26
  -1  13  -3    2.57    1.31
   1 -13   3   -0.30    1.19
   2 -13   3   -0.60    1.21
  -2  13  -3    2.79    1.29
   3 -13   3    1.26    1.18
  -3  13  -3    1.48    1.29
   4 -13   3    4.42    1.40
  -4  13  -3    3.33    1.46
  -5  13  -3    4.25    1.66
   3  12  -3    4.48    1.51
   2  12  -3    8.36    1.52
   1  12  -3    6.55    1.46
   0 -12   3    3.33    1.21
   0  12  -3    1.23    1.16
  -1  12  -3   11.03    1.61
   1 -12   3    8.94    1.44
   2 -12   3   13.77    1.60
  -2  12  -3   12.57    1.67
   3 -12   3   20.87    1.86
  -3  12  -3   21.98    2.03
  -4  12  -3    2.37    1.31
   4 -12   3    2.86    1.27
   5 -12   3   -0.18    1.15
  -5  12  -3    0.36    1.33
   6 -12   3    9.85    1.63
  -6  12  -3   12.09    1.85
   4  11  -3    3.62    1.45
  -4 -11   3    5.23    1.38
   3  11  -3    5.14    1.45
  -3 -11   3    6.83    1.32
  -2 -11   3    5.92    1.20
   2  11  -3    3.66    1.26
  -1 -11   3   12.94    1.39
   1  11  -3   15.69    1.68
   0  11  -3   19.53    1.73
   0 -11   3   22.76    1.68
   1 -11   3  145.38    4.71
  -1  11  -3  155.15    5.06
  -2  11  -3   37.22    2.33
   2 -11   3   31.90    2.06
   3 -11   3    3.12    1.12
  -3  11  -3    4.48    1.36
  -4  11  -3   18.98    1.92
   4 -11   3   13.83    1.56
   5 -11   3   35.89    2.27
  -5  11  -3   33.31    2.38
   6 -11   3    8.91    1.47
  -6  11  -3    7.59    1.59
  -6  11  -3    9.68    1.41
  -7  11  -3    6.71    1.57
   7 -11   3    6.73    1.44
   8 -11   3    0.91    1.25
   8 -11   3    2.55    1.26
   5  10  -3    3.16    1.33
  -5 -10   3    3.08    1.35
  -4 -10   3    6.04    1.32
   4  10  -3    6.60    1.38
  -3 -10   3    2.55    1.03
   3  10  -3    3.61    1.24
  -2 -10   3   11.75    1.30
   2  10  -3   10.85    1.49
   1  10  -3   10.56    1.34
  -1 -10   3    8.04    1.08
  -1 -10   3   10.22    1.17
   0  10  -3    1.58    1.08
   0 -10   3    5.08    1.01
  -1  10  -3    0.57    0.93
   1 -10   3   -0.59    0.84
  -2  10  -3    8.18    1.33
   2 -10   3    7.79    1.13
   3 -10   3   14.88    1.43
  -3  10  -3   12.90    1.48
  -4  10  -3    3.89    1.23
  -4  10  -3    2.71    0.89
   4 -10   3    2.78    1.02
  -5  10  -3   13.56    1.52
   5 -10   3   10.09    1.29
  -5  10  -3   14.72    1.33
   6 -10   3    0.76    1.01
   6 -10   3    1.92    0.99
  -6  10  -3    0.66    1.14
   7 -10   3   19.47    1.75
   7 -10   3   15.84    1.62
  -7  10  -3   21.24    1.95
   8 -10   3   34.99    2.31
  -8  10  -3   34.87    2.49
   8 -10   3   29.55    2.15
   6   9  -3   19.13    2.09
  -6  -9   3   23.73    2.05
  -5  -9   3   42.69    2.43
   5   9  -3   40.03    2.61
  -4  -9   3   45.12    2.25
   4   9  -3   38.57    2.49
  -3  -9   3    3.89    1.08
   3   9  -3    4.64    1.21
  -2  -9   3   24.03    1.48
  -2  -9   3   25.50    1.54
   2   9  -3   22.98    1.79
   1   9  -3   76.69    3.12
  -1  -9   3   78.45    2.66
  -1  -9   3   74.26    2.70
   0   9  -3  177.48    5.37
   0  -9   3  173.42    4.96
  -1   9  -3   17.61    1.53
   1  -9   3   19.27    1.44
  -2   9  -3   16.85    1.54
   2  -9   3   12.54    1.19
  -2   9  -3   17.36    1.19
   3  -9   3   36.13    1.90
  -3   9  -3   41.80    2.28
  -3   9  -3   38.52    1.73
   4  -9   3   33.01    1.83
  -4   9  -3   34.59    2.10
   5  -9   3    0.36    0.85
   5  -9   3    0.77    0.82
  -5   9  -3    1.10    0.94
  -6   9  -3   14.21    1.55
   6  -9   3   14.19    1.36
   6  -9   3   13.05    1.32
   7  -9   3    6.80    1.21
   7  -9   3    4.90    1.15
  -7   9  -3    4.70    1.27
  -8   9  -3    2.98    1.31
   8  -9   3    2.21    1.09
   9  -9   3    3.20    1.33
   7   8  -3    0.43    1.30
  -7  -8   3   -0.34    1.21
   6   8  -3   -0.49    1.11
  -6  -8   3    0.44    1.00
   5   8  -3    4.91    1.22
  -5  -8   3    4.94    1.22
   4   8  -3    1.31    1.03
  -4  -8   3   -1.46    0.84
  -3  -8   3    1.83    0.84
   3   8  -3    2.15    1.01
  -2  -8   3  194.47    5.28
   2   8  -3  195.01    5.81
  -2  -8   3  195.94    5.21
   1   8  -3  164.94    4.88
  -1  -8   3  153.48    4.30
  -1  -8   3  157.49    4.42
   0   8  -3  124.58    4.00
   0  -8   3  119.55    3.65
   0  -8   3  124.50    3.41
   1  -8   3  298.74    7.04
   1  -8   3  289.38    7.53
  -1   8  -3  291.17    7.96
  -1   8  -3  302.36    7.15
   2  -8   3  130.38    3.96
  -2   8  -3  134.16    3.63
  -2   8  -3  131.89    4.24
   3  -8   3  273.01    7.10
  -3   8  -3  270.53    7.38
   4  -8   3  372.74    9.40
   4  -8   3  375.46    8.98
  -4   8  -3  372.85    9.69
  -5   8  -3    6.48    1.04
   5  -8   3    6.19    1.01
   5  -8   3    7.45    1.00
   6  -8   3   54.22    2.32
   6  -8   3   50.88    2.22
  -6   8  -3   50.33    2.39
   7  -8   3   63.26    2.58
  -7   8  -3   55.65    2.70
   7  -8   3   58.06    2.53
  -8   8  -3    4.66    1.26
   8  -8   3    5.01    1.22
  -9   8  -3    2.71    1.33
   9  -8   3   -0.96    1.08
   7   7  -3   11.20    1.64
  -7  -7   3   10.85    1.55
  -6  -7   3   46.12    2.34
   6   7  -3   42.36    2.55
  -5  -7   3   43.18    2.21
   5   7  -3   43.54    2.43
  -4  -7   3   24.93    1.58
   4   7  -3   28.59    1.82
   3   7  -3    0.17    0.80
  -3  -7   3    0.89    0.65
  -3  -7   3    1.87    0.62
  -2  -7   3   30.77    1.41
   2   7  -3   30.54    1.84
  -2  -7   3   29.39    1.50
   1   7  -3   10.94    1.09
   1   7  -3    6.16    0.59
  -1  -7   3    3.77    0.66
  -1  -7   3    4.82    0.73
   0   7  -3    0.20    0.63
   0   7  -3    0.06    0.41
   0  -7   3    0.72    0.48
   0  -7   3    0.98    0.55
  -1   7  -3    0.61    0.72
  -1   7  -3    0.70    0.43
   1  -7   3    0.16    0.37
   1  -7   3    0.70    0.58
  -2   7  -3    3.99    0.81
   2  -7   3    2.00    0.63
  -2   7  -3    2.88    0.52
   3  -7   3   50.60    1.85
   3  -7   3   51.87    2.03
  -3   7  -3   51.76    2.15
   4  -7   3    5.82    0.82
  -4   7  -3    3.15    0.79
   4  -7   3    3.09    0.72
   5  -7   3   41.36    1.80
   5  -7   3   40.70    1.82
  -5   7  -3   40.74    1.97
   6  -7   3   42.66    1.93
  -6   7  -3   44.12    2.15
   6  -7   3   41.05    1.93
  -7   7  -3   21.53    1.69
   7  -7   3   22.85    1.55
   7  -7   3   18.89    1.46
   8  -7   3   25.16    1.77
  -8   7  -3   26.36    1.99
   9  -7   3    6.72    1.38
  -9   7  -3    7.80    1.39
   8   6  -3   41.62    2.68
  -8  -6   3   43.73    2.47
  -7  -6   3   64.50    2.94
   7   6  -3   65.89    3.14
   6   6  -3   89.73    3.59
  -6  -6   3   94.52    3.40
   5   6  -3   27.73    1.81
  -5  -6   3   28.98    1.70
   4   6  -3   53.39    2.37
  -4  -6   3   52.81    2.15
  -3  -6   3  466.93   10.89
  -3  -6   3  464.26   11.11
   2   6  -3  198.61    4.68
  -2  -6   3  197.27    5.01
   2   6  -3  198.96    5.59
  -2  -6   3  196.24    5.10
   1   6  -3  224.01    6.05
  -1  -6   3  213.82    5.45
   1   6  -3  220.69    5.16
  -1  -6   3  225.17    5.55
   0  -6   3  138.12    3.55
   0   6  -3  135.39    4.13
   0   6  -3  141.93    3.49
   0  -6   3  140.37    3.79
   1  -6   3   11.13    0.66
  -1   6  -3   11.64    0.69
   1  -6   3   10.10    0.80
  -1   6  -3   11.83    1.00
   2  -6   3  823.51   18.24
   2  -6   3  833.55   18.23
  -2   6  -3  813.31   19.48
  -3   6  -3   57.78    2.15
   3  -6   3   56.18    1.85
   3  -6   3   57.52    2.04
  -4   6  -3    5.22    0.80
   4  -6   3    5.08    0.72
   4  -6   3    4.71    0.71
   5  -6   3  116.52    3.63
  -5   6  -3  129.45    3.86
   5  -6   3  130.34    3.60
   6  -6   3    7.21    0.95
   6  -6   3    8.65    0.93
  -6   6  -3    7.87    1.02
   7  -6   3    9.30    1.19
  -7   6  -3   11.35    1.24
   8  -6   3    1.85    0.95
  -8   6  -3    0.40    1.01
  -9   6  -3    2.43    1.27
   9  -6   3    3.60    1.13
  -9  -5   3    3.76    1.33
  -8  -5   3    0.61    1.02
   8   5  -3   -0.01    1.16
  -7  -5   3    2.77    1.02
   7   5  -3    2.56    1.03
   6   5  -3   11.32    1.35
  -6  -5   3   14.23    1.34
   5   5  -3   93.40    3.32
  -5  -5   3   92.21    3.15
   4   5  -3  223.36    6.32
   4   5  -3  237.47    5.56
   3   5  -3   50.63    2.12
  -3  -5   3   52.47    1.67
  -3  -5   3   47.00    1.91
   3   5  -3   50.99    1.54
  -2  -5   3  590.68   13.72
  -2  -5   3  600.77   13.74
   2   5  -3  600.90   14.45
   2   5  -3  603.77   13.20
  -1  -5   3  454.96   10.62
   1   5  -3  452.46   11.22
  -1  -5   3  460.71   10.50
   1   5  -3  456.36   10.08
   0   5  -3  698.10   16.83
   0  -5   3  706.32   16.20
   0  -5   3  696.02   15.84
   0   5  -3  730.68   15.59
  -1   5  -3  766.96   17.19
  -1   5  -3  768.36   18.27
   1  -5   3  758.62   17.69
   1  -5   3  803.31   17.03
   2  -5   3  445.80    9.98
  -2   5  -3  442.07    9.90
  -2   5  -3  442.89   10.74
   2  -5   3  441.02   10.44
  -3   5  -3   88.39    2.13
  -3   5  -3   88.30    2.77
   3  -5   3   84.48    2.60
   3  -5   3   90.38    2.48
  -4   5  -3  160.13    4.52
   4  -5   3  166.53    4.24
   4  -5   3  161.88    4.33
   5  -5   3  112.21    3.23
   5  -5   3  111.65    3.23
  -5   5  -3  106.93    3.39
   6  -5   3  327.26    8.11
   6  -5   3  331.34    8.16
  -6   5  -3  332.89    8.58
   7  -5   3   34.57    1.87
  -7   5  -3   33.16    1.95
  -8   5  -3   40.80    2.21
   8  -5   3   40.53    2.11
   9  -5   3   46.20    2.52
  -9   5  -3   49.27    2.60
  10  -5   3    0.36    1.23
 -10   5  -3    0.92    1.28
  -9  -4   3   18.72    1.77
   9   4  -3   21.22    1.92
  -8  -4   3   34.54    2.05
   8   4  -3   33.74    2.25
  -7  -4   3    8.02    1.15
   7   4  -3    7.19    1.21
  -6  -4   3    1.94    0.76
   6   4  -3    1.92    0.71
   6   4  -3    2.69    0.89
   5   4  -3   37.47    1.51
  -5  -4   3   41.63    1.83
   5   4  -3   42.50    1.98
  -4  -4   3  125.21    3.15
   4   4  -3  123.33    3.17
  -4  -4   3  120.80    3.57
   4   4  -3  120.64    3.72
   3   4  -3    7.23    0.52
   3   4  -3    7.03    0.75
  -3  -4   3    7.25    0.58
  -3  -4   3    8.56    0.74
   2   4  -3    3.05    0.55
  -2  -4   3    2.52    0.45
  -2  -4   3    3.33    0.42
   2   4  -3    2.89    0.30
   1   4  -3  495.56   11.46
  -1  -4   3  499.80   11.58
   1   4  -3  506.93   12.16
   1   4  -3  515.76   11.05
   0   4  -3   64.53    1.59
   0   4  -3   62.44    1.77
   0  -4   3   64.62    1.89
  -1   4  -3    1.98    0.45
   1  -4   3    1.71    0.29
   1  -4   3    2.26    0.39
  -1   4  -3    1.96    0.29
   2  -4   3  467.20   10.75
  -2   4  -3  454.55   11.01
  -2   4  -3  467.55   10.31
   2  -4   3  458.92   10.33
  -3   4  -3  374.98    9.08
  -3   4  -3  377.25    8.37
   3  -4   3  371.98    8.81
   3  -4   3  367.67    8.54
   4  -4   3  910.94   20.86
   4  -4   3  924.25   20.41
  -4   4  -3  936.58   20.29
  -4   4  -3  899.60   21.43
   5  -4   3   65.30    2.09
   5  -4   3   59.00    2.17
  -5   4  -3   69.43    2.35
  -6   4  -3  206.54    5.72
   6  -4   3  206.26    5.48
   7  -4   3   63.24    2.45
  -7   4  -3   57.16    2.47
   8  -4   3   22.77    1.63
  -8   4  -3   24.65    1.88
   9  -4   3    1.01    1.05
  -9   4  -3    0.03    1.14
 -10   4  -3    2.25    1.38
  10  -4   3    2.05    1.27
 -10  -3   3   11.21    1.55
   9   3  -3    1.64    1.21
  -9  -3   3    1.70    1.07
   8   3  -3    9.02    1.19
   8   3  -3    6.64    1.20
  -8  -3   3    5.77    1.09
   7   3  -3  101.63    3.15
  -7  -3   3  100.69    3.42
   7   3  -3   96.97    3.58
   6   3  -3  507.50   11.47
   6   3  -3  480.88   12.32
  -6  -3   3  491.04   11.87
   5   3  -3  211.34    5.18
   5   3  -3  204.09    5.72
  -5  -3   3  214.28    5.52
  -4  -3   3  176.96    4.20
  -4  -3   3  172.71    4.54
   4   3  -3  169.09    4.73
   4   3  -3  170.79    4.22
  -3  -3   3  645.73   14.57
  -3  -3   3  651.23   14.67
   3   3  -3  641.17   14.18
   3   3  -3  637.75   15.23
  -2  -3   3 1296.52   28.84
   2   3  -3 1295.05   27.99
   2   3  -3 1281.54   29.71
   1   3  -3 3453.22   74.97
   1   3  -3 3221.12   77.78
  -1  -3   3 3614.71   77.64
   0  -3   3  328.67    7.68
   0  -3   3  334.41    7.30
   0   3  -3  329.42    8.06
   0   3  -3  330.71    7.53
   1  -3   3    1.62    0.31
   1  -3   3    2.40    0.26
  -1   3  -3    2.57    0.28
  -1   3  -3    2.71    0.42
  -2   3  -3   26.36    0.84
   2  -3   3   24.00    0.92
   2  -3   3   25.45    0.99
  -2   3  -3   23.64    1.03
   3  -3   3  464.61   10.54
  -3   3  -3  461.79   11.08
  -3   3  -3  478.08   10.48
   3  -3   3  459.47   10.74
   4  -3   3  451.80   10.27
   4  -3   3  435.00   10.30
  -4   3  -3  448.48   10.09
  -4   3  -3  443.81   10.73
  -5   3  -3    5.25    0.55
  -5   3  -3    4.79    0.72
   5  -3   3    4.85    0.55
   5  -3   3    4.44    0.74
   6  -3   3  192.33    5.12
  -6   3  -3  190.53    4.77
  -6   3  -3  185.53    5.27
   7  -3   3   59.31    2.39
  -7   3  -3   60.58    2.49
  -8   3  -3   14.16    1.49
   8  -3   3   16.93    1.47
   9  -3   3    7.98    1.28
  -9   3  -3    5.89    1.27
  10  -3   3   28.90    2.19
 -10   3  -3   33.37    2.45
  -9  -2   3    2.84    1.03
   9   2  -3    2.52    1.12
   9   2  -3    2.55    1.04
  -8  -2   3   78.97    3.02
   8   2  -3   88.04    3.01
   8   2  -3   81.15    3.22
  -7  -2   3   76.18    2.75
   7   2  -3   76.61    2.61
   7   2  -3   73.86    2.94
   6   2  -3    5.04    0.89
  -6  -2   3    7.89    0.92
   6   2  -3    8.03    0.84
  -5  -2   3   51.14    1.55
  -5  -2   3   51.44    1.94
   5   2  -3   49.96    2.02
   5   2  -3   55.59    1.79
  -4  -2   3  539.18   12.26
  -4  -2   3  539.08   12.45
   4   2  -3  536.07   12.92
   4   2  -3  545.09   12.10
   3   2  -3 1462.96   33.80
  -3  -2   3 1477.12   32.84
   3   2  -3 1482.03   32.02
   2   2  -3  621.69   13.31
   2   2  -3  614.18   13.71
   2   2  -3  598.82   14.18
  -2  -2   3  599.13   13.74
   1   2  -3   15.81    0.67
  -1  -2   3   14.75    0.45
  -1  -2   3   15.17    0.63
   1   2  -3   14.18    0.74
   0  -2   3  783.07   17.85
   0   2  -3  768.71   18.36
   0  -2   3  838.11   17.35
   0   2  -3  789.86   17.60
   1  -2   3 1158.66   26.07
  -1   2  -3 1112.73   26.66
   1  -2   3 1210.02   25.39
  -1   2  -3 1183.52   25.71
   2  -2   3 1945.14   44.41
   2  -2   3 2027.39   43.36
  -2   2  -3 1997.69   45.47
  -2   2  -3 2027.91   43.84
   3  -2   3   17.00    0.89
  -3   2  -3   15.72    0.90
  -3   2  -3   17.17    0.78
   3  -2   3   16.67    0.73
   4  -2   3  538.00   12.26
  -4   2  -3  538.22   12.22
  -4   2  -3  536.24   12.80
   4  -2   3  542.05   12.28
  -5   2  -3  342.47    8.51
   5  -2   3  334.50    8.17
  -5   2  -3  342.72    8.03
   6  -2   3  153.10    4.29
  -6   2  -3  154.71    4.09
  -6   2  -3  149.14    4.45
  -7   2  -3  353.72    8.60
  -7   2  -3  354.16    9.20
   7  -2   3  349.65    8.82
  -8   2  -3   10.31    1.38
   8  -2   3   12.01    1.35
   9  -2   3   -0.98    1.01
  -9   2  -3   -0.01    0.98
 -10   2  -3   17.20    1.92
  10  -2   3   15.34    1.72
  10   1  -3    0.86    1.21
 -10  -1   3    1.69    1.33
   9   1  -3   19.53    1.77
   9   1  -3   19.57    1.59
   8   1  -3   62.29    2.79
  -8  -1   3   62.23    2.55
   8   1  -3   64.65    2.56
  -7  -1   3  286.67    7.35
   7   1  -3  284.63    7.74
   7   1  -3  294.30    7.24
   6   1  -3  109.11    3.15
  -6  -1   3  107.16    3.22
   6   1  -3  107.86    3.47
   5   1  -3  150.42    3.89
   5   1  -3  155.61    4.26
  -5  -1   3  143.34    3.99
   4   1  -3  185.85    4.55
  -4  -1   3  185.11    4.69
   4   1  -3  188.21    4.54
   4   1  -3  190.71    4.93
   3   1  -3  193.61    4.87
   3   1  -3  192.14    4.54
   3   1  -3  193.10    4.63
   3   1  -3  191.69    4.70
   2   1  -3    0.39    0.22
   2   1  -3    0.24    0.22
   2   1  -3    0.29    0.26
   2   1  -3    0.23    0.24
   1   1  -3  804.42   17.80
   1   1  -3  807.96   18.38
  -1  -1   3  798.16   18.01
  -1  -1   3  800.04   17.54
   0  -1   3 3403.24   74.32
   0   1  -3 3420.49   72.94
   0  -1   3 3157.15   71.68
   0   1  -3 3091.75   75.43
  -1   1  -3  185.43    4.39
  -1   1  -3  184.40    4.32
   1  -1   3  179.65    4.31
   1  -1   3  184.50    4.26
  -2   1  -3    2.41    0.34
  -2   1  -3    2.62    0.35
   2  -1   3    3.51    0.32
   2  -1   3    3.74    0.38
  -3   1  -3  341.67    8.22
  -3   1  -3  345.15    7.96
   3  -1   3  339.27    7.84
   3  -1   3  346.00    7.95
  -4   1  -3  493.30   11.68
   4  -1   3  485.97   11.22
  -4   1  -3  494.80   11.24
   4  -1   3  479.31   11.04
  -5   1  -3  124.34    3.51
   5  -1   3  113.13    3.36
  -5   1  -3  116.98    3.30
  -6   1  -3    3.25    0.71
  -6   1  -3    2.72    0.83
   6  -1   3    2.79    0.76
  -7   1  -3   19.84    1.42
  -7   1  -3   20.57    1.50
   7  -1   3   18.11    1.37
  -8   1  -3   61.91    2.73
   8  -1   3   56.20    2.58
   9  -1   3   30.17    2.11
  -9   1  -3   31.64    2.25
  10   0  -3   18.33    1.74
 -10   0   3   15.98    1.83
   9   0  -3   71.81    2.88
  -9   0   3   62.78    2.96
   8   0  -3   69.19    2.67
   7   0  -3    1.99    0.87
  -7   0   3    0.78    0.67
   7   0  -3    2.04    0.79
  -6   0   3    5.27    0.72
   6   0  -3    6.50    0.62
   6   0  -3    4.56    0.84
   6   0  -3    4.64    0.76
   5   0  -3  544.96   12.54
   5   0  -3  554.27   13.23
  -5   0   3  550.34   12.66
   5   0  -3  555.19   12.65
   4   0  -3 1606.74   35.31
   4   0  -3 1561.97   34.51
   4   0  -3 1590.38   36.25
   4   0  -3 1564.35   34.93
   3   0  -3  301.55    7.07
   3   0  -3  297.13    6.93
   3   0  -3  302.41    7.02
   3   0  -3  306.01    7.27
   2   0  -3 1051.56   23.36
   2   0  -3 1006.86   22.34
   2   0  -3 1003.27   22.58
   2   0  -3 1027.04   22.91
   1   0  -3 1959.83   42.69
   1   0  -3 1978.54   44.22
   1   0  -3 1918.77   42.10
  -1   0   3 1827.49   41.66
   0   0  -3 2783.68   61.42
   0   0  -3 2668.08   59.24
   0   0   3 2672.48   60.18
   1   0   3  677.65   14.86
  -1   0  -3  672.36   15.36
  -1   0  -3  665.91   15.00
  -2   0  -3  310.46    7.28
  -2   0  -3  307.98    7.16
   2   0   3  306.34    7.01
   2   0   3  304.21    7.10
   3   0   3  129.65    3.46
  -3   0  -3  135.46    3.51
   3   0   3  135.87    3.17
  -3   0  -3  132.41    3.51
  -4   0  -3    0.44    0.46
   4   0   3    0.45    0.47
  -4   0  -3    1.05    0.51
  -5   0  -3  131.97    3.69
  -5   0  -3  127.50    3.78
  -6   0  -3    0.96    0.65
  -6   0  -3    0.14    0.71
   6   0   3    0.08    0.68
  -7   0  -3   65.83    2.71
  -7   0  -3   67.56    2.57
   7   0   3   66.82    2.62
  -8   0  -3    9.70    1.23
  -8   0  -3    8.15    1.31
   8   0   3    8.98    1.20
  -9   0  -3    6.87    1.44
   9   0   3    5.86    1.34
 -10   1   3   10.06    1.59
  10  -1  -3    8.77    1.46
   9  -1  -3    2.72    1.07
  -9   1   3    0.74    0.97
   8  -1  -3    1.29    0.81
  -8   1   3    0.36    0.91
   7  -1  -3   70.63    2.53
  -7   1   3   67.55    2.59
   6  -1  -3  159.05    4.09
  -6   1   3  152.62    4.10
   6  -1  -3  155.80    4.25
  -6   1   3  157.67    4.44
  -5   1   3   22.65    1.09
   5  -1  -3   24.58    1.07
   5  -1  -3   22.21    1.18
   4  -1  -3 1062.14   23.91
   4  -1  -3 1059.07   23.42
   4  -1  -3 1060.51   23.56
   3  -1  -3  118.65    3.07
   3  -1  -3  117.33    3.08
   3  -1  -3  117.43    2.96
   2  -1  -3  617.10   14.07
  -2   1   3  635.03   14.50
   2  -1  -3  635.10   14.38
  -2   1   3  639.13   14.08
  -1   1   3 1087.81   24.20
   1  -1  -3 1102.42   24.68
  -1   1   3 1109.30   25.16
   1  -1  -3 1103.54   24.30
   0  -1  -3  972.97   22.06
   0  -1  -3  996.41   21.83
   1   1   3 1009.52   22.50
  -1  -1  -3 1039.36   22.87
   1   1   3 1036.03   23.31
  -1  -1  -3 1003.26   22.69
  -2  -1  -3  713.46   15.85
   2   1   3  700.78   15.78
   2   1   3  701.93   16.30
  -2  -1  -3  707.94   15.94
   3   1   3  250.83    5.71
   3   1   3  248.10    6.05
   3   1   3  249.70    6.17
  -3  -1  -3  246.45    6.10
   4   1   3  114.00    3.30
  -4  -1  -3  117.86    3.36
   4   1   3  116.72    3.34
   5   1   3    8.21    0.92
  -5  -1  -3    7.57    0.87
   5   1   3    8.96    0.93
   6   1   3   16.01    1.25
   6   1   3   19.62    1.41
  -6  -1  -3   16.87    1.25
  -7  -1  -3   53.94    2.46
   7   1   3   58.08    2.44
  -7  -1  -3   53.66    2.39
  -8  -1  -3   -0.64    0.90
   8   1   3    0.61    0.95
  -8  -1  -3    0.47    0.93
   9   1   3    7.41    1.39
  -9  -1  -3   11.09    1.45
  -9  -1  -3    8.57    1.52
  10  -2  -3   38.89    2.40
 -10   2   3   37.58    2.37
   9  -2  -3   71.10    2.86
  -9   2   3   66.19    2.89
   8  -2  -3    2.69    0.91
  -8   2   3    0.55    0.85
   7  -2  -3   87.65    2.98
  -7   2   3   88.79    3.07
   6  -2  -3   31.57    1.43
  -6   2   3   30.35    1.57
   6  -2  -3   32.55    1.59
   5  -2  -3    1.06    0.49
   5  -2  -3    1.73    0.58
  -5   2   3    2.88    0.62
   4  -2  -3    0.21    0.41
   4  -2  -3    1.29    0.52
  -4   2   3    0.08    0.39
   4  -2  -3    1.21    0.34
   3  -2  -3    0.91    0.38
   3  -2  -3    1.42    0.46
   3  -2  -3    1.29    0.30
  -3   2   3    1.52    0.35
  -2   2   3  107.95    2.65
  -2   2   3  102.35    2.84
   2  -2  -3  102.33    2.83
   2  -2  -3  104.20    2.63
   1  -2  -3  287.68    6.61
  -1   2   3  284.94    6.80
   1  -2  -3  283.93    6.78
  -1   2   3  285.16    6.67
   0   2   3  389.08    9.42
   0  -2  -3  413.04    9.41
   0  -2  -3  406.75    9.30
   0   2   3  413.59    9.37
   1   2   3  434.06   10.21
  -1  -2  -3  440.01   10.18
  -1  -2  -3  446.77   10.16
   1   2   3  448.98   10.28
   2   2   3  101.07    2.95
  -2  -2  -3  100.45    2.89
  -2  -2  -3  104.80    2.64
   2   2   3  106.91    2.81
   3   2   3   72.34    2.29
  -3  -2  -3   75.90    1.94
   3   2   3   74.03    2.37
  -4  -2  -3   26.90    1.42
   4   2   3   25.54    1.42
   4   2   3   26.00    1.35
  -5  -2  -3   99.57    3.22
   5   2   3  104.58    3.26
   5   2   3  101.73    3.19
  -6  -2  -3  122.61    3.84
   6   2   3  115.91    3.80
   6   2   3  125.48    3.79
  -7  -2  -3   22.76    1.67
   7   2   3   20.70    1.58
   7   2   3   20.57    1.58
  -8  -2  -3    0.84    0.99
   8   2   3    0.87    0.92
  -8  -2  -3    0.16    1.04
  -9  -2  -3   20.60    1.87
   9   2   3   16.42    1.70
  -9  -2  -3   24.89    2.05
 -10   3   3   11.08    1.54
  10  -3  -3   17.58    1.77
   9  -3  -3    8.68    1.35
  -9   3   3   10.69    1.34
   8  -3  -3   40.97    2.13
  -8   3   3   42.63    2.16
  -7   3   3  232.65    6.52
   7  -3  -3  244.43    6.41
   7  -3  -3  249.72    6.31
   6  -3  -3  119.01    3.62
  -6   3   3  129.68    3.77
   6  -3  -3  135.63    3.83
  -5   3   3  124.87    3.52
   5  -3  -3  124.81    3.57
   5  -3  -3  120.83    3.50
   4  -3  -3   29.90    1.05
  -4   3   3   26.61    1.20
   4  -3  -3   25.74    1.29
   4  -3  -3   27.10    1.33
  -3   3   3  437.66   10.39
   3  -3  -3  436.82   10.42
   3  -3  -3  446.18    9.98
  -3   3   3  444.65   10.29
   2  -3  -3  874.17   19.37
  -2   3   3  859.17   20.01
   2  -3  -3  876.20   19.87
  -2   3   3  880.90   19.54
   1  -3  -3   72.74    2.22
  -1   3   3   75.52    2.38
   1  -3  -3   72.80    2.07
  -1   3   3   76.33    2.09
   0   3   3  176.57    4.19
   0  -3  -3  166.13    4.24
   0  -3  -3  171.88    4.31
   0   3   3  166.77    4.49
   1   3   3  673.87   15.31
   1   3   3  657.73   15.08
  -1  -3  -3  656.05   15.07
  -1  -3  -3  656.50   15.03
  -2  -3  -3  225.05    5.63
  -2  -3  -3  222.24    5.36
   2   3   3  223.36    5.56
   2   3   3  221.08    5.68
  -3  -3  -3   58.81    2.22
   3   3   3   71.30    2.21
   3   3   3   65.79    2.32
   4   3   3   12.07    0.99
  -4  -3  -3   11.46    1.03
   4   3   3   11.34    1.01
  -5  -3  -3    0.69    0.76
   5   3   3    0.93    0.69
   5   3   3    1.14    0.71
  -6  -3  -3    4.80    0.99
   6   3   3    4.32    1.00
   6   3   3    4.27    0.97
  -7  -3  -3   10.85    1.41
   7   3   3   11.74    1.32
   7   3   3    8.08    1.25
  -8  -3  -3    0.58    1.12
   8   3   3    0.22    1.03
   8   3   3   -0.56    0.99
  -9  -3  -3    5.87    1.49
  10  -4  -3    1.71    1.18
 -10   4   3    0.02    1.08
  -9   4   3   11.40    1.45
   9  -4  -3    8.55    1.40
  -8   4   3    0.26    0.91
   8  -4  -3    0.11    0.95
  -7   4   3    2.74    0.86
   7  -4  -3    2.00    0.83
   7  -4  -3    1.77    0.74
   6  -4  -3    2.26    0.74
   6  -4  -3    0.67    0.77
  -6   4   3    3.11    0.75
   5  -4  -3  159.93    4.43
  -5   4   3  156.03    4.33
   5  -4  -3  159.36    4.44
  -4   4   3  706.16   16.30
  -4   4   3  661.88   15.88
   4  -4  -3  716.66   16.21
  -3   4   3    4.46    0.56
  -3   4   3    3.78    0.66
   3  -4  -3    4.69    0.69
   3  -4  -3    5.47    0.48
   2  -4  -3  108.29    2.78
  -2   4   3  104.14    2.87
  -2   4   3  108.07    3.16
   2  -4  -3  101.18    3.03
  -1   4   3 1019.43   22.88
   1  -4  -3 1012.70   22.70
   1  -4  -3 1009.20   23.15
  -1   4   3 1035.02   23.49
   0  -4  -3  314.73    7.57
   0   4   3  320.15    7.56
   0  -4  -3  308.51    7.45
   0   4   3  310.54    7.74
   1   4   3  968.39   22.76
   1   4   3  996.11   22.29
  -1  -4  -3  985.91   22.26
  -1  -4  -3 1002.34   22.39
  -2  -4  -3   69.35    2.07
   2   4   3   68.32    2.18
   2   4   3   65.31    2.41
  -2  -4  -3   67.52    2.34
   3   4   3   23.04    1.42
  -3  -4  -3   24.10    1.41
   3   4   3   24.25    1.35
  -4  -4  -3  224.19    5.96
   4   4   3  221.00    5.91
   4   4   3  211.43    5.86
   5   4   3   72.85    2.78
   5   4   3   67.82    2.64
  -5  -4  -3   70.46    2.72
   6   4   3    1.74    0.88
   6   4   3    1.68    0.97
  -6  -4  -3    1.50    0.94
   7   4   3   -0.35    0.97
   7   4   3    0.13    0.98
  -7  -4  -3   -0.33    1.06
   8   4   3    0.90    1.09
  -8  -4  -3    0.54    1.22
   8   4   3    1.14    1.17
 -10   5   3   -0.43    1.20
  10  -5  -3    1.92    1.32
  -9   5   3   14.35    1.51
   9  -5  -3   15.41    1.66
   8  -5  -3   30.67    2.03
   8  -5  -3   33.35    1.86
  -8   5   3   35.18    2.03
   7  -5  -3    0.38    0.78
   7  -5  -3    0.63    0.90
  -7   5   3    0.90    0.84
   6  -5  -3   10.52    1.14
   6  -5  -3   11.49    1.18
  -6   5   3   10.27    1.07
  -5   5   3    0.47    0.65
   5  -5  -3    1.73    0.70
  -5   5   3    1.94    0.75
  -4   5   3  285.17    7.40
  -4   5   3  305.47    7.42
  -3   5   3   71.58    2.59
  -3   5   3   76.16    2.35
   3  -5  -3   73.16    2.51
  -2   5   3  354.32    8.47
   2  -5  -3  345.88    8.50
  -2   5   3  340.22    8.50
   2  -5  -3  340.15    8.04
   1  -5  -3   54.28    1.84
   1  -5  -3   56.02    2.05
  -1   5   3   54.63    2.18
  -1   5   3   58.16    1.94
   0  -5  -3    7.36    0.74
   0   5   3   10.19    0.76
   0  -5  -3   10.08    0.85
   0   5   3    8.34    0.98
   1   5   3    1.45    0.69
  -1  -5  -3    1.12    0.57
   1   5   3    0.47    0.50
  -1  -5  -3    1.99    0.67
  -2  -5  -3   44.67    1.65
   2   5   3   43.27    1.98
  -2  -5  -3   43.53    1.87
   2   5   3   45.34    1.79
  -3  -5  -3  127.79    3.91
   3   5   3  126.12    3.74
   3   5   3  126.63    3.96
   4   5   3   12.67    1.15
   4   5   3   15.32    1.37
  -4  -5  -3   14.30    1.36
   5   5   3   10.10    1.23
  -5  -5  -3   11.66    1.32
   5   5   3   12.10    1.37
   6   5   3    3.02    1.09
  -6  -5  -3    4.05    1.14
  -7  -5  -3   11.53    1.64
   7   5   3   13.61    1.59
 -10   6   3   28.01    2.16
   9  -6  -3   21.32    1.90
  -9   6   3   18.43    1.72
   8  -6  -3    8.61    1.40
   8  -6  -3    8.52    1.28
  -8   6   3    9.13    1.28
  -7   6   3    1.69    0.87
   7  -6  -3    1.19    0.91
   7  -6  -3    0.72    0.90
  -6   6   3   73.34    2.79
   6  -6  -3   69.40    2.75
  -6   6   3   67.62    2.61
  -5   6   3  211.42    5.87
   5  -6  -3  224.86    6.05
  -5   6   3  222.90    6.02
  -4   6   3   87.14    3.01
  -4   6   3   83.25    2.76
   4  -6  -3   80.99    2.89
   3  -6  -3   17.67    1.29
  -3   6   3   18.62    1.25
  -3   6   3   17.70    1.36
  -2   6   3    5.56    0.95
  -2   6   3    6.10    0.82
   2  -6  -3    6.26    0.90
   2  -6  -3    5.74    0.62
   1  -6  -3  221.48    6.01
  -1   6   3  243.38    6.23
   1  -6  -3  227.82    5.72
   0  -6  -3   81.79    2.55
   0  -6  -3   75.94    2.63
   0   6   3   81.22    2.91
  -1  -6  -3   50.72    1.99
  -1  -6  -3   49.01    2.05
   1   6   3   51.64    2.29
   2   6   3   14.43    1.34
  -2  -6  -3   13.72    1.19
   3   6   3    0.23    0.84
  -3  -6  -3    0.06    0.77
   4   6   3    6.48    1.20
  -4  -6  -3    5.82    1.18
  -5  -6  -3    0.18    1.03
   5   6   3    1.26    1.05
  -6  -6  -3    1.36    1.08
   6   6   3    1.01    1.06
   7   6   3    0.85    1.19
   9  -7  -3    4.45    1.40
   8  -7  -3   -0.46    0.90
  -7   7   3   62.75    2.88
   7  -7  -3   65.64    2.84
  -6   7   3   97.69    3.44
   6  -7  -3   89.91    3.33
   5  -7  -3   32.55    1.82
  -5   7   3   26.05    1.77
  -4   7   3    2.27    0.91
   4  -7  -3    3.01    0.96
  -3   7   3   99.10    3.43
   3  -7  -3   90.22    3.24
  -2   7   3   64.21    2.68
   2  -7  -3   66.52    2.57
   1  -7  -3    6.44    0.95
   1  -7  -3    3.43    0.73
  -1   7   3    5.65    1.01
   0   7   3   46.00    2.20
   0  -7  -3   47.05    2.07
   0  -7  -3   49.22    1.96
  -1  -7  -3  110.97    3.43
  -1  -7  -3  110.88    3.50
   1   7   3  111.57    3.73
  -2  -7  -3   26.80    1.76
   2   7   3   29.00    1.91
  -3  -7  -3   67.33    2.73
   3   7   3   60.76    2.78
   4   7   3    1.48    1.08
  -4  -7  -3    3.07    1.16
   5   7   3    1.65    1.16
  -5  -7  -3    1.29    1.23
   6   7   3    9.78    1.57
   9  -8  -3   -0.33    1.19
  -8   8   3   13.92    1.72
   8  -8  -3   14.57    1.66
  -7   8   3   -0.37    1.10
   7  -8  -3    1.02    1.00
  -6   8   3   34.60    2.23
   6  -8  -3   32.52    2.13
  -5   8   3    8.89    1.39
   5  -8  -3    6.21    1.23
  -4   8   3    5.87    1.24
   4  -8  -3    5.73    1.10
   3  -8  -3   10.50    1.28
  -3   8   3    7.87    1.19
   2  -8  -3   10.42    1.19
  -2   8   3   11.94    1.37
  -1   8   3    3.23    1.05
   1  -8  -3    3.91    1.00
   0  -8  -3    9.68    1.17
   0   8   3    7.78    1.15
   0  -8  -3   11.38    1.09
   1   8   3   50.00    2.39
  -1  -8  -3   47.19    2.18
   2   8   3    7.72    1.30
  -2  -8  -3    8.10    1.24
  -3  -8  -3   15.15    1.52
   3   8   3   16.81    1.65
   4   8   3   32.11    2.30
   5   8   3    6.19    1.46
  -5  -8  -3    7.82    1.57
   8  -9  -3   28.95    2.27
  -7   9   3   62.58    3.10
   7  -9  -3   58.67    3.00
  -6   9   3    8.75    1.57
   6  -9  -3    5.55    1.32
  -5   9   3   12.26    1.54
   5  -9  -3   15.01    1.64
   4  -9  -3   19.26    1.75
  -4   9   3   20.79    1.82
   3  -9  -3    0.66    1.04
  -3   9   3    1.21    1.01
   2  -9  -3    5.96    1.14
  -2   9   3    9.79    1.39
  -1   9   3    0.90    1.00
   1  -9  -3   -0.22    0.95
   0  -9  -3    1.01    0.93
   0   9   3    1.38    1.04
  -1  -9  -3    1.62    0.98
   1   9   3    2.56    1.11
   2   9   3   13.59    1.60
  -2  -9  -3    8.71    1.35
  -3  -9  -3    1.74    1.22
   3   9   3    0.97    1.16
  -4  -9  -3    0.19    1.28
   6 -10  -3    0.93    1.30
  -6  10   3    0.84    1.34
   5 -10  -3    1.84    1.25
  -5  10   3    4.41    1.44
   4 -10  -3    7.41    1.45
  -4  10   3    8.01    1.49
   3 -10  -3    7.77    1.42
  -3  10   3    9.30    1.53
   2 -10  -3    5.34    1.21
  -2  10   3    3.63    1.16
  -1  10   3   44.43    2.51
   1 -10  -3   45.48    2.46
   0  10   3    6.60    1.32
   1  10   3   -0.75    1.06
   2  10   3   11.21    1.69
  -5  11   3    0.17    1.21
  -4  11   3    0.00    1.33
   4 -11  -3    0.76    1.30
  -3  11   3    3.54    1.37
   3 -11  -3    3.66    1.37
   2 -11  -3   16.30    1.74
  -2  11   3   18.32    1.87
  -1  11   3    3.69    1.29
   1 -11  -3    5.20    1.44
   0  11   3   -0.26    1.11
   1  13  -4    1.03    1.23
   0  13  -4   -0.82    1.16
   0 -13   4    0.02    1.14
  -1  13  -4    0.57    1.32
   1 -13   4    1.06    1.23
  -2  13  -4    0.54    1.24
   2 -13   4   -0.95    1.15
  -3  13  -4   24.69    2.24
   3 -13   4   20.68    1.99
  -4  13  -4    4.39    1.59
   4 -13   4    7.07    1.58
  -5  13  -4    1.90    1.56
  -3 -12   4    4.85    1.36
   3  12  -4    4.22    1.35
   2  12  -4    4.35    1.42
  -1 -12   4   17.40    1.68
   1  12  -4   14.85    1.73
   0  12  -4   34.01    2.39
   0 -12   4   31.79    2.10
   1 -12   4    2.62    1.19
  -1  12  -4    1.49    1.22
   2 -12   4    4.42    1.26
  -2  12  -4    4.41    1.40
  -3  12  -4   10.78    1.70
   3 -12   4   14.08    1.63
  -4  12  -4   54.96    3.17
   4 -12   4   47.55    2.65
  -5  12  -4    1.89    1.39
   5 -12   4    0.05    1.04
   6 -12   4    5.62    1.40
  -6  12  -4    8.32    1.77
   4  11  -4    1.72    1.38
  -4 -11   4    0.32    1.22
   3  11  -4   17.78    1.91
  -3 -11   4   19.64    1.74
   2  11  -4   34.13    2.40
  -2 -11   4   37.07    2.13
  -1 -11   4   18.08    1.57
   1  11  -4   15.63    1.72
   0  11  -4    6.18    1.36
   0 -11   4    4.46    1.13
  -1  11  -4    9.56    1.45
   1 -11   4   13.37    1.44
   2 -11   4   94.04    3.63
  -2  11  -4  111.55    4.08
  -3  11  -4   71.15    3.32
   3 -11   4   63.45    2.80
  -4  11  -4   20.43    1.90
   4 -11   4   20.21    1.72
  -5  11  -4    2.41    1.36
   5 -11   4    2.67    1.15
  -6  11  -4   31.59    2.39
   6 -11   4   29.97    2.17
  -7  11  -4   26.07    2.26
   7 -11   4   28.50    2.11
   8 -11   4    1.57    1.26
   8 -11   4    2.85    1.23
   5  10  -4   16.02    1.89
  -5 -10   4   11.55    1.63
  -4 -10   4    3.41    1.26
   4  10  -4    1.65    1.18
   3  10  -4    3.23    1.26
  -3 -10   4    3.23    1.13
  -2 -10   4   15.72    1.33
  -2 -10   4   13.44    1.34
   2  10  -4   13.39    1.60
   1  10  -4    7.70    1.33
  -1 -10   4    7.38    1.03
  -1 -10   4    6.39    1.08
   0  10  -4   72.66    3.16
   0 -10   4   74.10    2.84
   1 -10   4  118.77    3.89
  -1  10  -4  118.12    4.24
   2 -10   4   16.40    1.40
  -2  10  -4   17.18    1.68
   3 -10   4   10.42    1.29
  -3  10  -4   11.03    1.51
   4 -10   4   24.31    1.70
  -4  10  -4   26.33    2.02
   5 -10   4   27.26    1.67
   5 -10   4   24.09    1.72
  -5  10  -4   22.26    1.83
   6 -10   4   22.23    1.75
  -6  10  -4   22.16    1.85
   6 -10   4   22.23    1.63
  -7  10  -4    3.98    1.30
   7 -10   4    3.84    1.18
   7 -10   4    3.95    1.18
   8 -10   4   -0.04    1.09
  -8  10  -4    0.93    1.19
   8 -10   4   -0.48    1.04
   6   9  -4    0.60    1.24
  -6  -9   4    0.49    1.25
   5   9  -4   28.09    2.27
  -5  -9   4   27.93    2.05
  -4  -9   4  140.04    4.48
   4   9  -4  139.38    4.95
  -3  -9   4  141.05    4.31
   3   9  -4  134.47    4.70
  -2  -9   4   65.10    2.42
   2   9  -4   63.07    2.85
  -2  -9   4   64.43    2.43
   1   9  -4    2.42    0.91
  -1  -9   4    1.53    0.73
  -1  -9   4    1.72    0.80
   0  -9   4    8.21    0.90
   0  -9   4    8.01    1.04
   0   9  -4    8.45    1.24
   1  -9   4  161.21    4.76
  -1   9  -4  170.05    5.17
   2  -9   4   14.45    1.24
  -2   9  -4   13.18    1.39
  -3   9  -4   13.63    1.39
  -3   9  -4   12.25    1.02
   3  -9   4   12.30    1.22
   4  -9   4    0.78    0.70
   4  -9   4   -0.21    0.71
  -4   9  -4    0.16    0.92
  -5   9  -4    9.60    1.29
   5  -9   4   11.65    1.28
   5  -9   4   11.45    1.13
   6  -9   4   22.99    1.61
   6  -9   4   23.70    1.62
  -6   9  -4   20.94    1.70
   7  -9   4   10.23    1.31
   7  -9   4   10.55    1.32
  -7   9  -4    9.13    1.48
   8  -9   4    5.93    1.28
  -8   9  -4    5.64    1.31
   9  -9   4    9.95    1.59
   7   8  -4    4.52    1.47
  -7  -8   4    1.97    1.19
   6   8  -4    6.47    1.44
  -6  -8   4    7.27    1.40
  -5  -8   4   40.50    2.24
   5   8  -4   39.04    2.50
  -4  -8   4   30.40    1.88
   4   8  -4   33.33    2.10
  -3  -8   4    1.21    0.86
   3   8  -4    1.00    0.95
  -2  -8   4    2.72    0.80
   2   8  -4    5.14    1.02
  -2  -8   4    2.00    0.70
   1   8  -4  196.96    5.77
  -1  -8   4  195.15    5.26
  -1  -8   4  195.29    5.13
   0  -8   4  212.24    5.71
   0  -8   4  212.70    5.41
   0   8  -4  219.78    6.19
  -1   8  -4  423.79   11.04
   1  -8   4  429.75   10.52
   1  -8   4  436.80    9.98
   2  -8   4   77.38    2.71
  -2   8  -4   74.64    2.94
  -2   8  -4   77.97    2.34
  -3   8  -4   68.60    2.76
   3  -8   4   66.04    2.22
   3  -8   4   66.98    2.54
   4  -8   4  196.57    5.34
  -4   8  -4  192.54    5.54
   4  -8   4  176.91    4.90
  -5   8  -4   38.50    2.04
   5  -8   4   41.14    1.99
   5  -8   4   39.39    1.80
   6  -8   4   26.44    1.64
  -6   8  -4   25.86    1.86
   6  -8   4   26.56    1.66
   7  -8   4   20.27    1.50
   7  -8   4   18.31    1.46
  -7   8  -4   18.26    1.68
  -8   8  -4    1.72    1.08
   8  -8   4    4.09    1.24
  -9   8  -4   18.12    1.81
   9  -8   4   18.83    1.78
  -8  -7   4    6.46    1.41
  -7  -7   4    1.19    1.10
   7   7  -4   -0.94    0.98
   6   7  -4   14.54    1.67
  -6  -7   4   13.32    1.49
  -5  -7   4    1.44    0.87
   5   7  -4    1.69    1.04
   4   7  -4   20.53    1.62
  -4  -7   4   22.93    1.58
  -3  -7   4   15.68    1.22
   3   7  -4   15.94    1.38
  -3  -7   4   16.41    1.07
  -2  -7   4   41.29    1.77
  -2  -7   4   41.75    1.69
   2   7  -4   45.18    2.19
  -1  -7   4   37.36    1.52
   1   7  -4   34.13    1.85
  -1  -7   4   37.16    1.59
   0   7  -4  131.19    4.09
   0  -7   4  130.95    3.46
   0  -7   4  126.55    3.66
  -1   7  -4  107.81    2.82
  -1   7  -4  107.48    3.61
   1  -7   4  109.55    2.88
   1  -7   4  105.53    3.23
   2  -7   4    2.72    0.66
   2  -7   4    4.41    0.60
   2  -7   4    6.75    0.54
  -2   7  -4    3.99    0.89
   3  -7   4  256.77    6.24
  -3   7  -4  265.80    6.99
   3  -7   4  253.55    6.65
   4  -7   4   17.60    1.15
  -4   7  -4   18.56    1.37
   4  -7   4   19.46    1.26
   5  -7   4   35.22    1.64
  -5   7  -4   34.56    1.90
   5  -7   4   32.17    1.71
  -6   7  -4   41.38    2.14
   6  -7   4   42.96    1.96
   6  -7   4   41.22    1.92
  -7   7  -4   54.60    2.59
   7  -7   4   57.42    2.38
  -8   7  -4   68.91    3.03
   8  -7   4   71.17    2.95
   9  -7   4    0.05    1.11
  -9   7  -4    0.24    1.09
  -8  -6   4   14.24    1.71
   8   6  -4   15.07    1.84
  -7  -6   4   36.49    2.21
   7   6  -4   37.19    2.30
   6   6  -4  114.54    4.08
  -6  -6   4  111.80    3.81
  -5  -6   4  176.14    5.14
   5   6  -4  182.83    5.53
  -4  -6   4   31.30    1.69
   4   6  -4   30.64    1.79
  -3  -6   4  108.08    3.00
  -3  -6   4  101.00    3.20
  -2  -6   4  848.57   19.17
  -2  -6   4  831.40   19.25
   2   6  -4  849.25   20.19
   1   6  -4  178.10    5.16
  -1  -6   4  177.87    4.64
   1   6  -4  178.78    4.11
  -1  -6   4  182.45    4.59
   0   6  -4  384.64    9.96
   0   6  -4  404.51    8.86
   0  -6   4  393.72    9.43
  -1   6  -4  110.77    3.47
  -1   6  -4  108.12    2.85
   1  -6   4  111.77    3.19
   2  -6   4  129.28    3.29
   2  -6   4  126.65    3.63
  -2   6  -4  132.70    3.21
  -2   6  -4  129.30    3.84
  -3   6  -4  144.06    4.21
   3  -6   4  147.50    3.76
  -3   6  -4  148.26    3.50
   3  -6   4  144.29    4.03
  -4   6  -4   30.38    1.56
   4  -6   4   25.98    1.32
   4  -6   4   28.26    1.42
   5  -6   4  148.65    4.38
   5  -6   4  161.06    4.30
  -5   6  -4  166.26    4.68
  -6   6  -4  181.59    5.27
   6  -6   4  178.04    4.95
   6  -6   4  182.07    4.98
   7  -6   4    1.03    0.89
  -7   6  -4    1.02    0.88
   8  -6   4    8.32    1.29
  -8   6  -4    6.40    1.22
   9  -6   4    3.63    1.21
  -9   6  -4    2.49    1.31
  -9  -5   4    2.23    1.25
   8   5  -4    9.05    1.49
  -8  -5   4    8.72    1.40
   7   5  -4   28.44    1.98
  -7  -5   4   28.61    1.92
   6   5  -4    7.76    1.14
  -6  -5   4    5.54    0.99
  -5  -5   4  107.95    3.41
   5   5  -4  102.19    3.57
  -4  -5   4  347.44    8.52
   4   5  -4  338.59    8.93
  -4  -5   4  347.90    8.18
   3   5  -4  290.81    7.54
  -3  -5   4  288.64    6.93
   3   5  -4  285.22    6.52
  -3  -5   4  287.09    7.11
  -2  -5   4  897.83   20.33
   2   5  -4  888.51   21.30
  -2  -5   4  897.08   20.45
   2   5  -4  920.22   19.61
  -1  -5   4  180.57    4.58
   1   5  -4  180.76    4.53
   1   5  -4  179.17    5.02
   0   5  -4  425.09    9.24
   0   5  -4  417.82    9.60
   0  -5   4  412.00    9.84
   0   5  -4  418.86   10.37
  -1   5  -4  765.08   18.20
   1  -5   4  759.13   17.61
   1  -5   4  774.22   16.85
  -1   5  -4  778.64   17.16
   2  -5   4  255.98    5.94
   2  -5   4  255.48    6.33
  -2   5  -4  252.39    5.91
  -2   5  -4  260.73    6.58
   3  -5   4  138.38    3.71
   3  -5   4  135.03    3.50
  -3   5  -4  135.68    3.87
  -3   5  -4  136.31    3.30
   4  -5   4    5.71    0.68
   4  -5   4    4.97    0.67
  -4   5  -4    5.07    0.45
  -4   5  -4    6.28    0.78
   5  -5   4   89.82    2.82
   5  -5   4   94.61    2.82
  -5   5  -4   90.56    2.99
   6  -5   4  434.88   10.47
   6  -5   4  437.78   10.48
  -6   5  -4  440.22   11.02
   7  -5   4   36.16    1.86
  -7   5  -4   39.39    2.10
  -8   5  -4    0.88    0.96
   8  -5   4   -0.47    0.91
  -9   5  -4    1.42    1.15
   9  -5   4    2.29    1.16
  -9  -4   4    2.18    1.18
   9   4  -4    2.81    1.23
   8   4  -4   29.44    2.05
  -8  -4   4   30.22    2.02
  -7  -4   4   22.87    1.65
   7   4  -4   22.77    1.74
  -6  -4   4    0.67    0.78
   6   4  -4    2.00    0.82
  -5  -4   4    1.99    0.71
   5   4  -4    0.56    0.51
   5   4  -4    0.90    0.73
   4   4  -4   78.42    2.09
   4   4  -4   70.54    2.59
  -4  -4   4   73.31    2.16
  -4  -4   4   73.74    2.50
  -3  -4   4   28.31    1.12
   3   4  -4   27.88    0.95
  -3  -4   4   28.57    1.35
   3   4  -4   29.41    1.48
   2   4  -4  364.25    9.01
   2   4  -4  360.15    8.56
  -2  -4   4  362.97    8.52
   2   4  -4  365.29    7.99
  -1  -4   4  136.40    3.51
   1   4  -4  138.38    3.50
   1   4  -4  131.96    3.83
   0   4  -4  277.32    7.14
   0   4  -4  282.46    6.59
   0  -4   4  281.37    6.74
   0  -4   4  287.32    6.25
  -1   4  -4   40.43    1.24
   1  -4   4   39.49    1.39
   1  -4   4   39.56    1.12
  -1   4  -4   37.91    1.50
   2  -4   4  251.13    5.93
  -2   4  -4  260.90    5.95
  -2   4  -4  256.63    6.45
   2  -4   4  261.17    6.25
  -3   4  -4  800.99   17.89
  -3   4  -4  816.17   18.85
   3  -4   4  798.96   18.36
   3  -4   4  806.41   17.86
  -4   4  -4  743.95   16.26
   4  -4   4  717.17   16.33
   4  -4   4  723.76   16.67
  -4   4  -4  722.82   17.18
  -5   4  -4   91.15    2.45
   5  -4   4   89.28    2.63
  -5   4  -4   85.90    2.86
   5  -4   4   88.27    2.74
   6  -4   4  157.61    4.47
  -6   4  -4  159.79    4.65
  -7   4  -4   34.01    1.86
   7  -4   4   29.75    1.72
  -8   4  -4   68.86    2.98
   8  -4   4   69.61    2.81
   9  -4   4   87.12    3.46
  -9   4  -4   91.35    3.63
 -10  -3   4   30.25    2.20
   9   3  -4   38.42    2.47
  -9  -3   4   36.48    2.25
  -8  -3   4   19.62    1.58
   8   3  -4   19.98    1.74
   7   3  -4   81.42    3.21
   7   3  -4   85.32    2.81
  -7  -3   4   79.45    2.96
   6   3  -4   96.62    2.82
   6   3  -4   89.65    3.21
  -6  -3   4   91.85    3.08
   5   3  -4  185.77    4.63
  -5  -3   4  190.22    5.01
  -5  -3   4  187.13    4.60
   5   3  -4  180.20    5.18
  -4  -3   4  360.31    8.41
  -4  -3   4  358.52    8.65
   4   3  -4  366.70    8.21
   4   3  -4  354.55    8.96
   3   3  -4   22.14    0.83
   3   3  -4   22.47    1.10
   3   3  -4   22.75    1.14
  -3  -3   4   22.59    0.95
  -2  -3   4  177.55    4.37
   2   3  -4  174.12    4.43
   2   3  -4  182.42    4.01
   2   3  -4  175.35    4.62
  -1  -3   4  457.62   10.50
   1   3  -4  446.49   10.89
   1   3  -4  463.64   10.41
   0  -3   4  320.84    7.02
   0   3  -4  318.23    7.34
   0  -3   4  327.77    7.50
   0   3  -4  309.57    7.81
   1  -3   4 1141.20   24.39
  -1   3  -4 1123.58   24.76
  -1   3  -4 1088.52   25.78
   1  -3   4 1132.39   25.18
  -2   3  -4    1.26    0.38
   2  -3   4    3.45    0.40
   2  -3   4    2.51    0.40
  -2   3  -4    3.42    0.38
  -3   3  -4  638.77   14.92
   3  -3   4  634.99   14.21
  -3   3  -4  643.74   14.26
   3  -3   4  623.28   14.49
  -4   3  -4  148.30    4.16
   4  -3   4  150.60    3.88
  -4   3  -4  152.48    3.82
   4  -3   4  156.94    4.01
   5  -3   4   44.30    1.52
  -5   3  -4   42.63    1.56
  -5   3  -4   40.46    1.76
   5  -3   4   45.32    1.79
  -6   3  -4   12.41    0.92
   6  -3   4   12.45    1.15
  -6   3  -4   12.31    1.14
   7  -3   4   24.51    1.65
  -7   3  -4   23.42    1.58
   8  -3   4   12.56    1.33
  -8   3  -4   15.97    1.54
  -9   3  -4   13.13    1.61
   9  -3   4   12.17    1.50
  10   2  -4    0.11    1.14
  -9  -2   4    2.07    1.00
   9   2  -4    3.05    1.21
   8   2  -4   20.98    1.46
  -8  -2   4   16.06    1.41
   8   2  -4   14.03    1.51
   7   2  -4    3.77    1.00
   7   2  -4    4.20    0.85
  -7  -2   4    3.84    0.88
  -6  -2   4  131.39    3.85
   6   2  -4  130.29    4.05
   6   2  -4  131.68    3.63
   5   2  -4  341.35    8.00
  -5  -2   4  342.11    8.33
  -5  -2   4  346.84    8.05
   5   2  -4  340.14    8.67
  -4  -2   4  205.34    4.99
   4   2  -4  206.29    4.91
   4   2  -4  204.03    5.38
  -3  -2   4  906.72   20.69
   3   2  -4  908.41   20.61
   3   2  -4  899.59   21.30
   3   2  -4  962.15   20.14
   2   2  -4  845.94   18.28
   2   2  -4  832.38   18.73
  -2  -2   4  832.21   18.88
   2   2  -4  839.69   19.36
   1   2  -4 2683.22   61.91
  -1  -2   4 2705.79   59.90
  -1  -2   4 2707.64   59.23
   1   2  -4 2701.41   59.15
   0   2  -4 5391.92  116.36
   0   2  -4 5010.69  122.14
   0  -2   4 5343.25  117.60
   0  -2   4 5219.55  114.61
   1  -2   4  566.39   12.27
   1  -2   4  552.59   12.63
  -1   2  -4  545.25   12.88
  -1   2  -4  553.25   12.46
   2  -2   4  499.32   11.27
   2  -2   4  495.98   11.48
  -2   2  -4  510.96   11.39
  -2   2  -4  506.06   11.78
   3  -2   4  154.30    3.87
  -3   2  -4  158.93    3.92
   3  -2   4  156.08    3.97
  -3   2  -4  158.46    4.10
  -4   2  -4  689.52   16.07
   4  -2   4  673.39   15.45
  -4   2  -4  693.49   15.44
   4  -2   4  672.19   15.39
   5  -2   4    6.08    0.78
  -5   2  -4    6.33    0.79
  -5   2  -4    8.86    0.76
  -6   2  -4   23.89    1.38
  -6   2  -4   24.64    1.53
   6  -2   4   21.70    1.38
   7  -2   4   13.04    1.21
  -7   2  -4   12.64    1.23
  -7   2  -4   12.88    1.13
  -8   2  -4   27.72    1.94
   8  -2   4   29.15    1.95
   9  -2   4    3.69    1.13
  -9   2  -4    2.83    1.21
 -10  -1   4    4.96    1.36
   9   1  -4   26.94    1.94
   9   1  -4   24.88    1.82
   8   1  -4   39.67    1.98
   8   1  -4   33.65    2.12
  -8  -1   4   37.46    1.94
   7   1  -4    4.65    0.88
  -7  -1   4    5.35    0.87
   7   1  -4    5.62    0.98
   6   1  -4   30.33    1.57
   6   1  -4   27.21    1.40
  -6  -1   4   25.96    1.43
  -5  -1   4    1.21    0.53
   5   1  -4    2.26    0.48
   5   1  -4    1.94    0.56
   5   1  -4    2.12    0.61
   4   1  -4   30.59    1.36
   4   1  -4   28.40    1.14
   4   1  -4   30.86    1.30
   4   1  -4   28.47    1.20
   3   1  -4    3.82    0.43
   3   1  -4    4.04    0.49
   3   1  -4    3.92    0.45
   3   1  -4    4.24    0.47
   2   1  -4  868.14   19.37
   2   1  -4  864.00   19.73
   2   1  -4  829.66   19.13
  -2  -1   4  871.43   18.83
   1   1  -4  402.12    9.23
  -1  -1   4  394.03    9.16
  -1  -1   4  399.54    8.93
   1   1  -4  393.60    9.05
   0  -1   4  149.08    3.57
   0   1  -4  147.58    3.67
   0  -1   4  151.53    3.68
   0   1  -4  149.81    3.66
  -1   1  -4  377.54    8.67
   1  -1   4  368.81    8.40
  -1   1  -4  379.77    8.54
   1  -1   4  363.44    8.56
  -2   1  -4  794.84   17.65
   2  -1   4  790.70   17.72
   2  -1   4  782.25   17.44
  -2   1  -4  784.87   18.13
  -3   1  -4  124.74    3.31
   3  -1   4  124.53    3.34
   3  -1   4  126.24    3.13
  -3   1  -4  127.58    3.37
   4  -1   4  152.64    3.75
   4  -1   4  155.24    4.12
  -4   1  -4  158.99    4.17
  -4   1  -4  152.59    4.05
   5  -1   4  219.12    5.79
  -5   1  -4  228.86    5.75
  -5   1  -4  228.60    5.95
  -6   1  -4  474.39   11.05
   6  -1   4  448.82   11.05
  -6   1  -4  464.58   11.48
  -7   1  -4    7.61    1.17
   7  -1   4    6.77    1.04
  -7   1  -4    6.75    1.00
   8  -1   4    4.20    1.10
  -8   1  -4    5.63    1.15
  -8   1  -4    5.13    1.03
  -9   1  -4   14.48    1.72
   9  -1   4   10.78    1.54
 -10   0   4   35.83    2.35
  10   0  -4   37.12    2.33
  -9   0   4    2.29    1.14
   9   0  -4    0.86    0.99
   8   0  -4   80.94    2.93
   7   0  -4  355.74    8.53
   7   0  -4  345.71    8.99
  -7   0   4  339.09    8.51
   6   0  -4  291.95    6.79
  -6   0   4  277.89    6.86
   6   0  -4  282.60    7.23
   6   0  -4  252.90    6.77
   5   0  -4  186.07    4.73
   5   0  -4  187.18    4.76
   5   0  -4  184.51    5.01
   5   0  -4  190.55    4.81
   4   0  -4   20.90    1.07
   4   0  -4   21.52    1.03
   4   0  -4   23.57    1.07
   4   0  -4   23.44    1.14
   3   0  -4   10.79    0.74
   3   0  -4    9.64    0.73
   3   0  -4   12.91    0.74
   3   0  -4   13.20    0.74
   2   0  -4 1062.03   23.75
   2   0  -4 1036.11   23.07
  -2   0   4 1017.28   22.83
   2   0  -4 1045.44   23.41
   1   0  -4  188.43    4.32
   1   0  -4  184.41    4.42
  -1   0   4  178.52    4.46
   1   0  -4  182.83    4.50
   0   0  -4 1077.79   23.76
   0   0   4 1055.49   23.54
   0   0  -4 1090.19   24.76
   0   0  -4 1063.13   24.02
   1   0   4  353.10    8.05
  -1   0  -4  348.60    8.09
  -1   0  -4  344.86    8.10
   2   0   4  186.98    4.62
  -2   0  -4  189.39    4.58
  -2   0  -4  186.28    4.63
   2   0   4  185.73    4.46
  -3   0  -4    2.16    0.51
   3   0   4    1.56    0.48
   3   0   4    2.44    0.33
  -3   0  -4    1.52    0.43
  -4   0  -4    3.63    0.63
   4   0   4    4.49    0.70
  -4   0  -4    6.22    0.70
   5   0   4    5.79    0.81
  -5   0  -4    7.27    0.86
  -5   0  -4    5.00    0.76
  -6   0  -4    2.48    0.80
  -6   0  -4    2.80    0.79
   6   0   4    1.66    0.75
   7   0   4   26.67    1.74
  -7   0  -4   28.91    1.75
  -7   0  -4   22.42    1.69
   8   0   4   43.62    2.30
  -8   0  -4   47.90    2.36
  -8   0  -4   55.48    2.59
   9   0   4    4.24    1.27
  -9   0  -4    2.73    1.32
  10  -1  -4    1.32    1.16
 -10   1   4    1.66    1.26
   9  -1  -4   15.38    1.52
  -9   1   4   15.28    1.59
  -8   1   4  149.87    4.61
   8  -1  -4  143.52    4.40
  -7   1   4   16.62    1.32
   7  -1  -4   15.44    1.23
   6  -1  -4   31.48    1.56
  -6   1   4   32.17    1.54
   6  -1  -4   32.33    1.44
  -6   1   4   29.45    1.37
   5  -1  -4  180.18    4.72
   5  -1  -4  188.55    4.64
   5  -1  -4  177.79    4.66
  -5   1   4  180.10    4.81
   4  -1  -4  372.27    8.88
   4  -1  -4  372.99    8.69
   4  -1  -4  376.35    8.75
  -3   1   4 1015.00   22.98
   3  -1  -4  981.20   22.66
  -3   1   4 1007.20   22.17
   3  -1  -4 1005.49   22.27
  -2   1   4  254.95    6.10
   2  -1  -4  250.45    6.16
  -2   1   4  259.09    6.00
   2  -1  -4  251.91    5.99
   1  -1  -4  804.67   18.02
  -1   1   4  775.56   17.71
   1  -1  -4  801.19   17.72
   0   1   4 1182.68   25.77
   0  -1  -4 1177.05   26.19
   0  -1  -4 1142.35   25.87
  -1  -1  -4  111.38    2.93
  -1  -1  -4  113.36    3.05
   1   1   4  119.40    3.15
   2   1   4  159.06    3.95
   2   1   4  155.65    4.08
  -2  -1  -4  157.03    3.85
  -2  -1  -4  157.99    4.09
   3   1   4  392.45    9.40
   3   1   4  399.93    9.58
  -3  -1  -4  399.26    9.48
   3   1   4  406.74    9.14
  -4  -1  -4  390.93    9.51
   4   1   4  390.75    9.42
   4   1   4  401.67    9.63
   5   1   4  115.46    3.54
  -5  -1  -4  118.80    3.62
  -6  -1  -4    4.25    0.94
  -6  -1  -4    3.78    0.90
   6   1   4    4.09    0.94
  -7  -1  -4   26.61    1.79
  -7  -1  -4   25.44    1.78
   7   1   4   24.55    1.77
   8   1   4    0.44    1.05
  -8  -1  -4    2.11    1.10
  -8  -1  -4    2.28    1.13
   9   1   4   -0.17    1.13
  -9  -1  -4   -0.91    1.13
  -9  -1  -4    0.56    1.16
 -10   2   4   -0.35    1.18
  10  -2  -4    2.08    1.23
  -9   2   4    5.98    1.19
   9  -2  -4    6.15    1.16
   8  -2  -4   31.53    1.88
  -8   2   4   27.64    1.84
   7  -2  -4   32.26    1.53
  -7   2   4   32.09    1.74
   7  -2  -4   32.83    1.79
   6  -2  -4    4.94    0.71
  -6   2   4    4.39    0.78
   6  -2  -4    4.65    0.82
   5  -2  -4   19.68    1.16
   5  -2  -4   21.39    1.05
   5  -2  -4   20.93    1.30
  -5   2   4   21.98    1.18
   4  -2  -4  190.78    4.90
   4  -2  -4  185.39    4.84
  -4   2   4  191.69    4.82
   4  -2  -4  188.70    4.64
   3  -2  -4   79.52    2.41
  -3   2   4   78.94    2.41
  -3   2   4   80.86    2.21
   3  -2  -4   77.79    2.19
   2  -2  -4  687.34   15.50
  -2   2   4  696.91   15.84
  -2   2   4  690.35   15.61
   2  -2  -4  690.04   15.88
  -1   2   4  124.36    2.92
   1  -2  -4  115.61    3.20
   1  -2  -4  121.05    3.13
  -1   2   4  117.73    3.36
   0  -2  -4    2.61    0.44
   0   2   4    3.11    0.60
   0  -2  -4    2.93    0.45
   0   2   4    2.44    0.22
   1   2   4  483.27   11.21
  -1  -2  -4  487.61   11.16
   1   2   4  479.27   11.15
  -1  -2  -4  478.35   11.12
   2   2   4  391.27    9.21
  -2  -2  -4  382.10    8.96
  -2  -2  -4  388.42    9.19
   2   2   4  385.10    9.15
   3   2   4  441.69   10.48
  -3  -2  -4  434.30   10.43
   3   2   4  436.28   10.38
  -4  -2  -4  139.39    4.06
   4   2   4  138.21    4.01
   4   2   4  137.61    3.90
   5   2   4   21.39    1.38
  -5  -2  -4   20.05    1.49
   5   2   4   18.96    1.38
   6   2   4   13.74    1.33
  -6  -2  -4   15.91    1.42
   6   2   4   12.31    1.25
   7   2   4   51.89    2.47
  -7  -2  -4   52.02    2.56
  -7  -2  -4   52.42    2.46
   8   2   4    9.06    1.40
  -8  -2  -4    7.44    1.40
  -8  -2  -4    7.84    1.36
  -9  -2  -4    4.35    1.38
  -9  -2  -4    5.45    1.45
 -10   3   4   72.82    3.33
  10  -3  -4   78.14    3.38
   9  -3  -4   92.56    3.47
  -9   3   4   93.84    3.49
   8  -3  -4   15.02    1.39
  -8   3   4   16.71    1.36
   7  -3  -4   58.74    2.21
   7  -3  -4   54.29    2.29
  -7   3   4   56.62    2.30
   6  -3  -4  113.37    3.39
   6  -3  -4  111.67    3.44
  -6   3   4  107.38    3.33
   5  -3  -4  159.19    4.43
  -5   3   4  158.34    4.29
  -4   3   4  148.95    4.07
   4  -3  -4  148.49    3.70
  -4   3   4  145.17    3.85
   4  -3  -4  139.26    4.00
   3  -3  -4   50.64    1.84
  -3   3   4   49.28    1.58
   3  -3  -4   50.47    1.58
  -3   3   4   50.43    1.89
   2  -3  -4  838.81   19.33
   2  -3  -4  851.93   18.87
  -2   3   4  839.27   19.06
  -2   3   4  843.94   19.35
  -1   3   4  535.39   12.17
  -1   3   4  530.38   12.29
   1  -3  -4  524.01   12.27
   1  -3  -4  511.95   11.99
   0   3   4   10.06    0.94
   0  -3  -4   11.36    0.84
   0   3   4   11.52    0.60
   0  -3  -4   11.91    0.85
  -1  -3  -4   10.50    0.82
  -1  -3  -4   12.27    0.82
   1   3   4   12.86    0.70
   1   3   4   12.45    0.99
   2   3   4   22.39    1.08
  -2  -3  -4   25.93    1.37
  -2  -3  -4   23.34    1.07
   2   3   4   24.36    1.45
  -3  -3  -4   34.79    1.72
   3   3   4   33.51    1.68
   3   3   4   35.86    1.52
  -4  -3  -4    0.98    0.72
   4   3   4    0.22    0.66
   4   3   4    0.78    0.72
   5   3   4   22.15    1.46
  -5  -3  -4   23.44    1.58
   5   3   4   20.89    1.55
   6   3   4   11.87    1.38
   6   3   4   16.69    1.44
  -6  -3  -4   17.98    1.58
  -7  -3  -4   10.60    1.47
   7   3   4   10.69    1.33
   7   3   4    8.20    1.33
   8   3   4    0.80    1.17
  -8  -3  -4    0.53    1.17
 -10   4   4    4.73    1.40
  10  -4  -4    1.12    1.27
   9  -4  -4    3.36    1.21
  -9   4   4    4.10    1.12
  -8   4   4   16.14    1.44
   8  -4  -4   15.74    1.54
   8  -4  -4   19.08    1.43
   7  -4  -4   47.81    2.12
  -7   4   4   46.19    2.12
   7  -4  -4   49.14    2.29
   6  -4  -4   75.30    2.62
  -6   4   4   68.33    2.45
   6  -4  -4   66.26    2.58
  -5   4   4   10.86    1.05
   5  -4  -4   11.26    1.02
  -5   4   4   12.69    0.94
  -4   4   4  197.92    5.07
  -4   4   4  195.11    5.29
   4  -4  -4  199.21    5.31
   3  -4  -4  237.16    5.36
  -3   4   4  241.75    5.55
   3  -4  -4  197.36    5.68
  -3   4   4  204.56    5.73
   2  -4  -4  304.61    7.62
  -2   4   4  307.28    7.67
   2  -4  -4  308.21    7.25
  -2   4   4  308.35    7.42
   1  -4  -4    8.31    0.71
   1  -4  -4   11.38    0.91
  -1   4   4   10.16    0.76
  -1   4   4   10.89    1.06
   0  -4  -4   33.41    1.45
   0   4   4   33.96    1.68
   0  -4  -4   33.96    1.45
   0   4   4   34.49    1.23
  -1  -4  -4  330.47    8.05
   1   4   4  343.36    8.39
   1   4   4  336.92    8.03
  -1  -4  -4  328.18    8.12
  -2  -4  -4  192.65    5.18
  -2  -4  -4  190.92    4.88
   2   4   4  196.67    5.37
  -3  -4  -4    9.14    1.03
   3   4   4    9.65    1.12
  -4  -4  -4   19.83    1.52
   4   4   4   19.21    1.53
  -5  -4  -4   43.27    2.28
   5   4   4   46.67    2.27
  -6  -4  -4   32.59    2.15
   6   4   4   32.64    1.99
  -7  -4  -4    2.42    1.18
   7   4   4    2.44    1.20
  -9   5   4    0.74    1.08
   9  -5  -4    1.16    1.17
  -8   5   4    6.94    1.18
   8  -5  -4    7.45    1.18
   8  -5  -4    5.96    1.30
   7  -5  -4   30.12    1.91
   7  -5  -4   31.20    1.75
  -7   5   4   28.74    1.77
  -6   5   4   -0.17    0.77
  -6   5   4   -0.22    0.70
   6  -5  -4    0.09    0.80
  -5   5   4   88.06    3.06
  -5   5   4   90.35    2.85
   5  -5  -4   88.11    3.07
  -4   5   4  220.55    5.88
   4  -5  -4  212.44    5.83
  -3   5   4    0.65    0.74
   3  -5  -4   -0.25    0.60
  -2   5   4   11.65    1.10
   2  -5  -4   11.84    0.82
   2  -5  -4   10.23    1.02
  -1   5   4   43.30    1.96
   1  -5  -4   42.01    1.61
   1  -5  -4   41.00    1.80
   0   5   4  120.38    3.75
   0  -5  -4  113.04    3.39
   0  -5  -4  115.52    3.34
   1   5   4   15.55    1.27
  -1  -5  -4   14.23    1.12
  -1  -5  -4   15.23    1.07
  -2  -5  -4   34.47    1.71
   2   5   4   35.71    1.90
   3   5   4   50.24    2.33
  -3  -5  -4   53.54    2.34
  -4  -5  -4   32.07    1.97
   4   5   4   31.30    2.04
   5   5   4   35.63    2.24
  -5  -5  -4   37.20    2.13
  -6  -5  -4    8.33    1.38
   6   5   4    2.77    1.20
  -7  -5  -4    5.91    1.49
   7   5   4    5.60    1.43
   9  -6  -4    4.42    1.35
   8  -6  -4   51.48    2.51
  -7   6   4   57.06    2.63
   7  -6  -4   60.24    2.59
  -6   6   4    1.07    0.93
   6  -6  -4    0.15    0.88
  -5   6   4   49.23    2.29
   5  -6  -4   50.30    2.32
  -4   6   4  206.38    5.90
   4  -6  -4  219.71    5.98
  -3   6   4  216.05    5.96
   3  -6  -4  208.06    5.81
   2  -6  -4   66.98    2.49
  -2   6   4   63.56    2.66
  -1   6   4   31.83    1.82
   1  -6  -4   31.93    1.47
   1  -6  -4   33.78    1.66
   0  -6  -4   12.02    1.03
   0   6   4   13.87    1.33
   0  -6  -4   13.44    1.10
   1   6   4    0.24    0.86
  -1  -6  -4    0.87    0.75
  -1  -6  -4    0.24    0.67
   2   6   4    0.33    0.90
  -2  -6  -4    0.72    0.83
  -3  -6  -4    4.22    1.07
   3   6   4    0.22    0.95
   4   6   4    1.66    1.09
  -4  -6  -4    3.09    1.15
   5   6   4    4.28    1.28
  -5  -6  -4    4.06    1.30
   6   6   4   10.59    1.56
  -6  -6  -4   10.16    1.66
   9  -7  -4    7.77    1.47
   8  -7  -4    1.13    1.13
  -8   7   4   -1.04    1.10
  -7   7   4   -0.36    1.01
   7  -7  -4    0.28    1.08
  -6   7   4    3.46    1.14
   6  -7  -4    2.50    1.12
   5  -7  -4   85.36    3.32
  -5   7   4   90.74    3.46
  -4   7   4   38.89    2.25
   4  -7  -4   40.87    2.18
  -3   7   4   38.78    2.12
   3  -7  -4   40.45    2.11
   2  -7  -4   63.37    2.58
  -2   7   4   62.52    2.68
   1  -7  -4    3.21    0.94
   1  -7  -4    3.06    0.75
  -1   7   4    1.27    0.92
   0   7   4   43.27    2.27
   0  -7  -4   44.06    1.95
   0  -7  -4   44.70    2.05
   1   7   4   88.41    3.40
  -1  -7  -4   91.78    3.13
  -2  -7  -4   -0.01    0.89
   2   7   4   -0.13    0.97
  -3  -7  -4   16.81    1.59
   3   7   4   16.38    1.65
   4   7   4    5.07    1.31
  -4  -7  -4    4.41    1.19
   5   7   4    5.12    1.32
  -5  -7  -4    7.15    1.42
   8  -8  -4    2.05    1.31
  -8   8   4    1.83    1.24
   7  -8  -4   16.33    1.65
  -7   8   4   15.46    1.78
   6  -8  -4   10.98    1.48
  -6   8   4   13.76    1.71
   5  -8  -4    0.52    1.07
  -5   8   4   -0.19    0.96
   4  -8  -4    0.50    0.95
  -4   8   4    1.22    1.07
   3  -8  -4   -0.47    0.92
  -3   8   4   -1.61    0.80
  -2   8   4   55.06    2.67
   2  -8  -4   57.26    2.59
  -1   8   4   14.33    1.46
   1  -8  -4   12.43    1.37
   0  -8  -4    0.30    0.92
   0   8   4   -0.38    0.95
   0  -8  -4    0.51    0.79
   1   8   4   50.50    2.57
  -1  -8  -4   49.19    2.33
  -2  -8  -4   12.13    1.43
   2   8   4   14.68    1.63
   3   8   4    4.98    1.34
  -3  -8  -4    3.12    1.22
  -4  -8  -4    2.91    1.30
   4   8   4   -0.53    1.15
   7  -9  -4    5.84    1.49
  -7   9   4    7.95    1.60
  -6   9   4   18.20    1.87
   6  -9  -4   18.63    1.81
   5  -9  -4    6.06    1.42
  -5   9   4    6.00    1.50
  -4   9   4   -1.08    1.10
   4  -9  -4   -0.41    1.11
  -3   9   4   -1.27    1.02
   3  -9  -4    0.86    1.11
   2  -9  -4    6.37    1.34
  -2   9   4    7.56    1.31
   1  -9  -4   16.78    1.61
  -1   9   4   18.84    1.69
   0   9   4    2.09    1.15
   0  -9  -4    0.16    0.97
   1   9   4    0.07    1.04
  -2  -9  -4    0.62    1.12
   2   9   4    0.91    1.13
   3   9   4    5.30    1.49
  -3  -9  -4    6.56    1.43
   5 -10  -4    7.35    1.52
  -5  10   4    9.02    1.67
  -4  10   4   12.93    1.71
   4 -10  -4   11.20    1.67
   3 -10  -4    6.47    1.47
  -3  10   4    6.63    1.49
   2 -10  -4    1.13    1.25
  -2  10   4   -0.79    1.13
  -1  10   4    2.45    1.27
   1 -10  -4    1.77    1.20
   0  10   4    6.68    1.43
   1  10   4    8.17    1.53
  -2  11   4    1.11    1.31
   2 -11  -4   -0.26    1.25
   1  13  -5   -1.06    1.19
   0 -13   5   12.48    1.61
   0  13  -5   12.83    1.80
  -1  13  -5    2.40    1.39
   1 -13   5    0.78    1.18
   2 -13   5    4.58    1.31
  -2  13  -5    4.63    1.49
   3 -13   5    2.05    1.26
  -3  13  -5    1.83    1.39
   4 -13   5   11.17    1.70
  -4  13  -5   15.43    2.10
  -5  13  -5   21.53    2.36
  -4 -12   5   16.17    1.90
   3  12  -5   30.99    2.50
  -3 -12   5   35.55    2.36
   2  12  -5   12.24    1.75
  -1 -12   5    3.00    1.17
   1  12  -5    2.72    1.26
   0 -12   5    5.21    1.25
   0  12  -5    4.56    1.28
  -1  12  -5   39.57    2.56
   1 -12   5   35.32    2.23
  -2  12  -5    6.26    1.50
   2 -12   5    4.92    1.30
   3 -12   5   42.92    2.50
  -3  12  -5   48.69    2.92
  -4  12  -5    0.98    1.30
   4 -12   5    0.85    1.16
   5 -12   5    3.50    1.21
  -5  12  -5    2.16    1.33
  -6  12  -5    8.63    1.70
   6 -12   5   11.77    1.66
  -4 -11   5   12.29    1.62
   4  11  -5   11.08    1.79
   3  11  -5    5.60    1.37
  -3 -11   5    7.08    1.35
  -2 -11   5   18.60    1.58
   2  11  -5   19.37    1.89
  -1 -11   5   59.63    2.60
   1  11  -5   55.88    2.91
   0  11  -5   46.32    2.62
   0 -11   5   46.75    2.36
   1 -11   5    9.94    1.36
  -1  11  -5    5.95    1.27
   2 -11   5    0.01    0.98
  -2  11  -5    0.51    1.14
  -3  11  -5   25.01    2.12
   3 -11   5   22.11    1.77
   4 -11   5   57.76    2.75
  -4  11  -5   59.61    3.03
   5 -11   5   68.90    3.04
  -5  11  -5   66.54    3.28
  -6  11  -5   -1.69    1.16
   6 -11   5    0.98    1.10
  -7  11  -5    1.41    1.29
   7 -11   5    0.08    1.10
   8 -11   5    3.22    1.32
   5  10  -5    2.54    1.40
  -5 -10   5    3.38    1.33
  -4 -10   5    3.46    1.11
   4  10  -5    2.21    1.19
  -3 -10   5    0.92    1.00
   3  10  -5    3.15    1.27
  -2 -10   5   11.97    1.25
   2  10  -5   11.40    1.47
  -2 -10   5   12.58    1.28
  -1 -10   5    2.38    0.86
   1  10  -5    0.84    0.96
  -1 -10   5    1.04    0.87
   0 -10   5   17.46    1.45
   0  10  -5   19.47    1.71
  -1  10  -5   22.17    1.77
   1 -10   5   21.87    1.63
   2 -10   5  164.73    5.01
  -2  10  -5  171.88    5.49
  -3  10  -5  222.38    6.76
   3 -10   5  218.35    6.27
  -4  10  -5   33.39    2.22
   4 -10   5   36.81    2.13
  -5  10  -5    4.23    1.29
   5 -10   5    2.66    1.06
   6 -10   5   37.14    1.99
  -6  10  -5   41.15    2.40
   6 -10   5   35.44    2.09
   7 -10   5   51.18    2.59
  -7  10  -5   52.95    2.96
   7 -10   5   54.86    2.54
   8 -10   5    1.73    1.17
  -8  10  -5    0.00    1.28
  -6  -9   5   27.67    2.13
   6   9  -5   25.65    2.31
  -5  -9   5   15.21    1.66
   5   9  -5   14.13    1.71
   4   9  -5    4.84    1.22
  -4  -9   5    5.61    1.16
  -3  -9   5    7.30    1.15
   3   9  -5    6.31    1.30
   2   9  -5   97.39    3.78
  -2  -9   5  101.97    3.31
  -2  -9   5  106.83    3.38
  -1  -9   5   77.23    2.60
   1   9  -5   74.31    3.07
  -1  -9   5   74.67    2.67
   0   9  -5    8.72    1.18
   0  -9   5   10.23    0.95
   0  -9   5    7.77    1.00
   1  -9   5    0.85    0.81
  -1   9  -5    1.28    0.93
  -2   9  -5    6.32    1.15
   2  -9   5    7.50    1.06
   3  -9   5  178.44    5.20
  -3   9  -5  179.98    5.54
  -4   9  -5   49.73    2.56
   4  -9   5   54.22    2.40
   4  -9   5   52.06    2.03
   5  -9   5   96.05    3.33
  -5   9  -5   94.92    3.62
   5  -9   5   88.88    3.05
  -6   9  -5   -0.75    0.90
   6  -9   5   -0.10    0.87
   6  -9   5    0.23    0.88
   7  -9   5    7.44    1.21
   7  -9   5    8.53    1.22
  -7   9  -5    4.13    1.29
  -8   9  -5    0.42    1.18
   8  -9   5    2.03    1.16
   9  -9   5   29.48    2.13
  -7  -8   5   16.61    1.81
   7   8  -5   13.43    1.91
   6   8  -5   30.45    2.32
  -6  -8   5   30.76    2.07
  -5  -8   5   17.33    1.62
   5   8  -5   19.86    1.88
  -4  -8   5  156.91    4.77
   4   8  -5  162.62    5.29
   3   8  -5  540.15   13.85
  -3  -8   5  537.76   12.87
  -3  -8   5  547.18   12.99
   2   8  -5   83.70    3.28
  -2  -8   5   85.23    2.81
  -2  -8   5   86.73    2.86
  -1  -8   5   62.91    2.31
   1   8  -5   61.45    2.72
  -1  -8   5   64.14    2.23
   0   8  -5  222.19    6.33
   0  -8   5  223.43    5.59
   0  -8   5  218.34    5.86
   1  -8   5  295.74    7.67
  -1   8  -5  300.22    8.18
   1  -8   5  308.96    7.22
  -2   8  -5  149.37    4.73
   2  -8   5  153.72    4.40
  -3   8  -5   11.58    1.27
   3  -8   5   12.47    0.91
   3  -8   5   12.49    1.12
  -4   8  -5    6.87    1.08
   4  -8   5   10.20    1.10
   4  -8   5    7.55    0.87
   5  -8   5   25.19    1.48
  -5   8  -5   23.86    1.80
   5  -8   5   25.42    1.66
  -6   8  -5   85.70    3.29
   6  -8   5   84.25    2.91
   6  -8   5   79.25    2.98
  -7   8  -5    6.24    1.31
   7  -8   5    6.48    1.12
   7  -8   5    8.74    1.15
  -8   8  -5   29.49    2.20
   8  -8   5   28.80    2.02
  -9   8  -5    8.51    1.64
   9  -8   5   10.66    1.59
   8   7  -5    4.74    1.49
  -8  -7   5    2.96    1.34
   7   7  -5   13.20    1.72
  -7  -7   5   12.68    1.60
   6   7  -5    0.65    0.96
  -6  -7   5    1.65    1.08
   5   7  -5    2.76    1.11
  -5  -7   5    2.79    1.03
   4   7  -5    8.35    1.20
  -4  -7   5    8.88    1.08
  -3  -7   5    4.25    0.72
  -3  -7   5    3.58    0.84
   3   7  -5    3.78    1.01
  -2  -7   5    7.42    0.88
  -2  -7   5    9.01    0.85
   2   7  -5    7.17    1.04
   1   7  -5  110.44    3.67
  -1  -7   5  107.05    3.21
  -1  -7   5  106.31    3.12
   0   7  -5  146.98    4.84
   0  -7   5  182.55    4.59
   1  -7   5   38.54    1.69
  -1   7  -5   31.50    1.90
  -1   7  -5   35.79    1.36
  -2   7  -5  124.93    4.05
   2  -7   5  128.14    3.77
   2  -7   5  130.83    3.33
  -2   7  -5  130.37    3.31
   3  -7   5  281.56    6.67
   3  -7   5  274.36    7.14
  -3   7  -5  282.91    7.47
   4  -7   5  228.43    6.07
   4  -7   5  226.68    5.70
  -4   7  -5  229.79    6.30
   5  -7   5   26.69    1.48
   5  -7   5   26.58    1.55
  -5   7  -5   27.50    1.69
   6  -7   5    3.37    0.83
   6  -7   5    2.57    0.89
  -6   7  -5    3.57    0.96
  -7   7  -5   43.63    2.37
   7  -7   5   45.91    2.23
  -8   7  -5  168.42    5.40
   8  -7   5  167.67    5.12
   9  -7   5   58.52    2.90
  -9   7  -5   57.16    3.04
   8   6  -5   21.88    2.04
  -8  -6   5   21.57    1.90
  -7  -6   5   25.66    1.91
   7   6  -5   23.46    1.98
  -6  -6   5   14.54    1.40
   6   6  -5   16.78    1.65
  -5  -6   5  158.54    4.75
   5   6  -5  163.63    5.10
  -4  -6   5   65.94    2.48
   4   6  -5   65.01    2.72
  -4  -6   5   62.27    2.10
   3   6  -5   44.36    2.17
  -3  -6   5   44.27    1.72
  -3  -6   5   43.02    1.82
  -2  -6   5   69.36    2.25
  -2  -6   5   69.90    2.32
   2   6  -5   67.33    2.67
   1   6  -5   76.17    2.84
  -1  -6   5   81.98    2.51
   1   6  -5   82.84    2.49
   0  -6   5   90.30    2.73
   0   6  -5   91.57    2.57
   0   6  -5   86.20    3.03
   1  -6   5   60.97    1.67
   1  -6   5   61.98    2.13
  -1   6  -5   60.33    1.83
  -1   6  -5   58.75    2.33
   2  -6   5   83.38    2.29
  -2   6  -5   83.10    2.29
  -2   6  -5   90.42    2.92
   2  -6   5   82.34    2.65
  -3   6  -5    7.08    0.93
  -3   6  -5    6.56    0.54
   3  -6   5    5.75    0.63
   3  -6   5    6.84    0.76
   4  -6   5  136.79    3.67
   4  -6   5  131.95    3.86
  -4   6  -5  138.17    4.11
  -5   6  -5   14.55    1.26
   5  -6   5   14.89    1.11
   5  -6   5   14.05    1.06
  -6   6  -5  148.24    4.57
   6  -6   5  145.47    4.22
   6  -6   5  148.87    4.28
  -7   6  -5   62.37    2.70
   7  -6   5   69.84    2.70
  -8   6  -5    3.03    1.12
   8  -6   5    3.16    1.10
   9  -6   5    3.04    1.27
  -9   6  -5    3.01    1.35
  -9  -5   5    2.33    1.18
   8   5  -5   10.80    1.50
  -8  -5   5   13.29    1.47
  -7  -5   5   38.81    2.21
   7   5  -5   38.19    2.26
  -6  -5   5   11.39    1.26
   6   5  -5    8.35    1.25
   5   5  -5  350.85    9.36
  -5  -5   5  365.66    9.01
  -4  -5   5   59.86    2.29
  -4  -5   5   60.53    1.99
   4   5  -5   58.97    2.40
  -3  -5   5   50.54    1.95
  -3  -5   5   50.18    1.75
   3   5  -5   51.81    2.14
   2   5  -5  586.77   13.48
  -2  -5   5  588.21   13.51
   2   5  -5  574.33   14.15
  -1  -5   5  618.63   14.39
   1   5  -5  628.04   14.23
   0   5  -5  806.51   17.98
   0  -5   5  802.81   18.32
   0   5  -5  792.96   19.00
  -1   5  -5  696.54   16.86
   1  -5   5  714.60   15.53
   1  -5   5  709.00   16.32
  -1   5  -5  715.76   15.91
  -2   5  -5  259.24    6.00
  -2   5  -5  251.46    6.57
   2  -5   5  249.15    5.90
   2  -5   5  260.14    6.35
   3  -5   5 1763.36   38.55
  -3   5  -5 1774.46   40.68
   3  -5   5 1735.89   39.70
  -3   5  -5 1798.60   38.89
   4  -5   5   34.97    1.51
  -4   5  -5   35.50    1.63
   4  -5   5   36.38    1.52
  -4   5  -5   36.66    1.27
  -5   5  -5   23.68    1.41
   5  -5   5   23.85    1.25
   5  -5   5   22.37    1.36
  -6   5  -5   27.47    1.73
   6  -5   5   28.60    1.62
   7  -5   5   22.88    1.65
  -7   5  -5   23.08    1.74
   8  -5   5   18.20    1.58
  -8   5  -5   20.73    1.69
  -9   5  -5    6.76    1.38
   9  -5   5    7.63    1.41
   9   4  -5   14.11    1.72
  -9  -4   5   15.48    1.65
   8   4  -5   11.42    1.46
  -8  -4   5   10.28    1.39
  -7  -4   5    0.09    0.83
   7   4  -5    1.58    0.95
  -6  -4   5   -0.16    0.67
   6   4  -5    0.17    0.80
  -5  -4   5   18.22    1.34
   5   4  -5   18.84    1.37
  -4  -4   5   80.57    2.63
  -4  -4   5   80.68    2.33
   4   4  -5   74.00    2.73
   3   4  -5  489.79   11.86
   3   4  -5  518.61   11.20
   3   4  -5  507.83   12.35
  -3  -4   5  515.22   11.79
  -2  -4   5   15.34    0.91
   2   4  -5   18.26    1.14
   2   4  -5   14.77    0.98
   1   4  -5  546.61   13.53
  -1  -4   5  574.79   13.02
   1   4  -5  570.39   12.87
   0   4  -5  143.32    3.63
   0  -4   5  144.19    3.23
   0   4  -5  144.63    4.04
   0  -4   5  141.76    3.73
   1  -4   5  786.13   17.65
  -1   4  -5  773.16   17.28
   1  -4   5  771.09   16.91
  -1   4  -5  762.46   18.13
  -2   4  -5  284.70    6.69
   2  -4   5  291.69    6.95
  -2   4  -5  284.39    7.14
   2  -4   5  286.64    6.61
  -3   4  -5    3.14    0.47
   3  -4   5    2.80    0.52
  -3   4  -5    2.24    0.59
   3  -4   5    3.42    0.55
  -4   4  -5    2.93    0.67
   4  -4   5    3.97    0.59
   4  -4   5    2.59    0.62
  -4   4  -5    4.02    0.54
  -5   4  -5  225.18    6.12
   5  -4   5  235.79    5.91
   5  -4   5  231.62    5.78
  -5   4  -5  228.57    5.64
  -6   4  -5  179.06    5.14
   6  -4   5  178.34    4.96
   7  -4   5    7.98    1.16
  -7   4  -5    8.63    1.21
   8  -4   5    1.24    0.94
  -8   4  -5    0.43    1.04
   9  -4   5   20.45    1.73
  -9   4  -5   22.51    1.97
   9   3  -5   17.01    1.83
  -9  -3   5   19.81    1.75
  -8  -3   5   26.32    1.78
   8   3  -5   27.39    1.92
   7   3  -5  214.27    6.25
  -7  -3   5  219.74    6.07
   6   3  -5  323.50    7.59
   6   3  -5  307.79    8.30
  -6  -3   5  314.19    8.02
  -5  -3   5   25.18    1.42
   5   3  -5   24.01    1.49
  -5  -3   5   23.97    1.16
   5   3  -5   25.64    1.18
   4   3  -5  192.05    4.49
   4   3  -5  186.97    4.93
   4   3  -5  178.10    5.02
  -4  -3   5  188.26    4.69
   3   3  -5  346.12    8.61
  -3  -3   5  349.15    8.25
   3   3  -5  352.93    7.85
   3   3  -5  350.37    8.36
  -2  -3   5  985.84   22.09
   2   3  -5  976.64   21.91
   2   3  -5  979.73   22.69
  -2  -3   5  970.47   21.29
  -1  -3   5    2.58    0.44
  -1  -3   5    2.71    0.21
   1   3  -5    2.22    0.44
   1   3  -5    3.50    0.50
   0  -3   5  203.89    4.48
   0   3  -5  193.63    4.78
   0  -3   5  195.51    4.87
   0   3  -5  197.87    5.12
   1  -3   5   30.58    0.99
  -1   3  -5   29.25    1.21
   1  -3   5   26.10    1.10
  -1   3  -5   26.80    1.07
   2  -3   5  419.61    9.82
  -2   3  -5  428.65   10.08
   2  -3   5  419.17    9.53
  -2   3  -5  419.02    9.66
   3  -3   5    6.43    0.59
  -3   3  -5    7.57    0.62
  -3   3  -5    6.06    0.66
   3  -3   5    6.96    0.65
   4  -3   5  121.84    3.24
   4  -3   5  120.72    3.37
  -4   3  -5  120.80    3.22
  -4   3  -5  117.77    3.46
   5  -3   5  151.89    4.13
  -5   3  -5  147.93    4.25
  -5   3  -5  146.78    3.93
  -6   3  -5   10.00    0.90
  -6   3  -5   10.08    1.11
   6  -3   5    8.12    1.04
   7  -3   5   15.35    1.37
  -7   3  -5   15.02    1.36
  -8   3  -5   40.08    2.23
   8  -3   5   35.12    2.04
   9  -3   5    5.50    1.30
  -9   3  -5    8.21    1.47
   9   2  -5   13.44    1.62
  -9  -2   5   14.27    1.48
   8   2  -5   59.29    2.65
  -8  -2   5   55.64    2.51
   7   2  -5   15.52    1.41
   7   2  -5   19.96    1.41
  -7  -2   5   18.67    1.40
   6   2  -5   18.66    1.43
  -6  -2   5   18.82    1.31
   6   2  -5   19.61    1.19
   5   2  -5  309.77    8.05
  -5  -2   5  317.16    7.78
   5   2  -5  320.39    7.47
  -5  -2   5  317.32    7.57
  -4  -2   5  320.73    7.52
   4   2  -5  306.51    7.83
   4   2  -5  311.59    7.64
   4   2  -5  319.39    7.29
   3   2  -5 1140.42   26.42
   3   2  -5 1138.70   25.58
  -3  -2   5 1150.53   25.79
   3   2  -5 1152.53   25.03
  -2  -2   5  921.36   20.05
   2   2  -5  927.71   20.52
   2   2  -5  920.13   21.13
  -2  -2   5  893.08   20.67
  -1  -2   5  163.20    3.74
   1   2  -5  151.71    3.92
   1   2  -5  159.95    4.00
  -1  -2   5  156.01    3.96
   0   2  -5 1431.17   32.72
   0  -2   5 1423.30   31.04
   0  -2   5 1417.91   31.96
   0   2  -5 1443.30   31.57
   1  -2   5 1224.32   26.67
   1  -2   5 1230.81   27.41
  -1   2  -5 1205.31   27.95
  -1   2  -5 1227.68   27.08
  -2   2  -5  116.90    3.08
   2  -2   5  115.12    3.03
   2  -2   5  117.46    3.06
  -2   2  -5  117.72    3.10
   3  -2   5  498.33   11.29
   3  -2   5  501.30   11.37
  -3   2  -5  480.91   11.69
  -3   2  -5  493.60   11.35
   4  -2   5   77.85    2.45
  -4   2  -5   73.99    2.33
  -4   2  -5   72.49    2.39
   4  -2   5   77.31    2.17
  -5   2  -5   97.54    2.90
   5  -2   5   96.53    2.99
  -5   2  -5   90.75    2.99
   6  -2   5  240.09    6.29
  -6   2  -5  234.81    6.43
  -6   2  -5  241.95    6.15
  -7   2  -5    7.83    1.17
  -7   2  -5    9.32    1.05
   7  -2   5    9.96    1.20
  -8   2  -5    7.10    1.19
   8  -2   5    4.39    1.09
   9  -2   5    3.93    1.27
  -9   2  -5    3.53    1.32
 -10  -1   5    3.03    1.39
   9   1  -5    8.07    1.39
  -8  -1   5    3.07    0.91
   8   1  -5    1.57    0.94
   8   1  -5    2.63    0.99
  -7  -1   5    1.23    0.71
   7   1  -5    0.03    0.75
   7   1  -5    1.00    0.73
   6   1  -5   50.44    2.08
  -6  -1   5   50.69    2.00
   6   1  -5   48.61    1.90
   5   1  -5   58.99    2.01
   5   1  -5   64.08    2.06
   5   1  -5   62.61    2.25
   5   1  -5   61.08    2.19
   4   1  -5    0.95    0.44
   4   1  -5    0.41    0.42
   4   1  -5    0.74    0.49
   4   1  -5    0.92    0.48
   3   1  -5    1.31    0.43
   3   1  -5    1.45    0.41
   3   1  -5    2.55    0.48
   2   1  -5   55.82    1.75
   2   1  -5   56.42    1.65
  -2  -1   5   57.68    1.70
   2   1  -5   54.93    1.74
   1   1  -5  388.23    8.84
  -1  -1   5  369.82    8.87
  -1  -1   5  382.79    8.66
   1   1  -5  377.28    8.76
   0  -1   5  861.63   19.42
   0   1  -5  860.81   19.72
   0   1  -5  863.54   19.21
   0  -1   5  851.34   18.93
   1  -1   5  212.78    4.60
  -1   1  -5  184.66    4.56
  -1   1  -5  178.56    4.64
   1  -1   5  180.33    4.60
   2  -1   5  489.50   11.16
  -2   1  -5  507.86   11.49
   2  -1   5  487.70   11.26
  -2   1  -5  479.58   11.27
   3  -1   5  477.63   11.02
  -3   1  -5  495.97   11.39
  -3   1  -5  476.03   11.14
   3  -1   5  471.08   11.04
   4  -1   5   58.68    2.15
  -4   1  -5   63.18    2.13
  -4   1  -5   64.67    2.12
  -5   1  -5   87.93    2.99
   5  -1   5   98.91    3.04
  -5   1  -5  101.31    3.02
  -6   1  -5   31.41    1.74
   6  -1   5   28.82    1.63
  -6   1  -5   32.11    1.67
  -7   1  -5   33.10    1.82
   7  -1   5   29.86    1.89
  -7   1  -5   33.45    1.88
   8  -1   5   24.57    1.80
  -8   1  -5   32.93    1.92
  -8   1  -5   26.42    1.99
  -9   1  -5   -0.10    1.16
   9  -1   5    1.13    1.15
  10   0  -5   11.46    1.52
 -10   0   5    9.19    1.62
  -9   0   5   78.75    3.30
   9   0  -5   79.11    3.09
   8   0  -5   78.66    2.89
   7   0  -5   44.17    1.94
   7   0  -5   40.24    1.97
  -7   0   5   38.98    1.85
   6   0  -5  240.14    6.08
   6   0  -5  237.55    6.37
  -6   0   5  238.38    6.10
   6   0  -5  242.28    6.06
   5   0  -5  654.44   14.81
   5   0  -5  651.89   14.98
   5   0  -5  656.47   15.49
   5   0  -5  645.59   15.09
   4   0  -5  557.02   13.07
   4   0  -5  569.62   12.94
   4   0  -5  559.03   12.80
   4   0  -5  567.28   13.31
   3   0  -5   63.56    1.96
   3   0  -5   64.69    2.03
   3   0  -5   66.26    1.91
  -3   0   5   59.91    1.95
   2   0  -5    1.43    0.31
  -2   0   5    1.68    0.43
   2   0  -5    1.39    0.39
   2   0  -5    1.19    0.40
   1   0  -5  239.52    5.26
   1   0  -5  219.85    5.42
   1   0  -5  219.74    5.51
  -1   0   5  220.07    5.49
   0   0   5    1.44    0.44
   0   0  -5    0.87    0.35
   0   0  -5    1.12    0.40
  -1   0  -5    6.14    0.45
  -1   0  -5    5.44    0.58
   1   0   5    5.40    0.58
   1   0   5    5.71    0.50
   2   0   5   32.61    1.17
  -2   0  -5   33.89    1.17
   2   0   5   36.15    1.44
  -2   0  -5   31.48    1.37
  -3   0  -5  397.53    9.33
   3   0   5  379.27    9.20
   3   0   5  396.92    9.02
  -3   0  -5  385.96    9.27
  -4   0  -5   28.93    1.46
   4   0   5   25.24    1.36
  -4   0  -5   27.92    1.32
  -5   0  -5   59.93    2.26
   5   0   5   58.90    2.35
  -5   0  -5   64.96    2.35
  -6   0  -5   83.28    2.89
   6   0   5   76.53    2.90
  -6   0  -5   78.13    2.85
  -7   0  -5    0.60    0.90
  -7   0  -5    1.59    0.91
   7   0   5    1.18    0.95
  -8   0  -5   -0.08    0.97
  -8   0  -5    0.77    1.12
   8   0   5    0.03    0.94
   9   0   5    1.40    1.11
  -9   0  -5    0.39    1.23
  10  -1  -5   15.70    1.70
 -10   1   5   12.45    1.67
  -9   1   5   -0.86    0.98
   9  -1  -5    1.60    1.04
  -8   1   5   30.82    1.93
   8  -1  -5   28.63    1.83
   7  -1  -5  221.39    5.75
   7  -1  -5  220.00    5.88
  -7   1   5  218.68    6.06
   6  -1  -5  171.45    4.34
   6  -1  -5  136.10    4.21
   6  -1  -5  163.71    4.40
  -6   1   5  158.15    4.44
   5  -1  -5  177.57    4.58
   5  -1  -5  175.01    4.65
  -5   1   5  176.04    4.69
   5  -1  -5  176.94    4.69
   4  -1  -5   26.03    1.27
   4  -1  -5   27.90    1.19
  -4   1   5   25.67    1.16
   3  -1  -5  139.96    3.63
  -3   1   5  142.74    3.76
   3  -1  -5  140.47    3.78
  -3   1   5  137.93    3.53
   2  -1  -5  379.23    8.79
  -2   1   5  380.40    8.76
   2  -1  -5  373.65    8.99
  -2   1   5  380.75    8.92
   1  -1  -5  193.46    4.75
   1  -1  -5  188.63    4.84
  -1   1   5  194.72    4.95
   0  -1  -5 1222.48   27.41
   0  -1  -5 1216.64   27.11
   0   1   5 1215.44   26.99
  -1  -1  -5  308.40    7.46
  -1  -1  -5  323.93    7.32
   1   1   5  314.22    7.57
  -1  -1  -5  311.52    7.52
  -2  -1  -5  199.58    4.82
  -2  -1  -5  200.92    4.84
   2   1   5  196.16    5.04
  -2  -1  -5  188.16    5.02
   3   1   5   80.42    2.18
  -3  -1  -5   78.40    2.58
  -3  -1  -5   83.40    2.37
   3   1   5   72.10    2.57
  -4  -1  -5   72.03    2.35
  -4  -1  -5   72.92    2.51
   4   1   5   71.92    2.54
  -5  -1  -5   20.19    1.40
  -5  -1  -5   18.09    1.36
   5   1   5   24.23    1.55
   6   1   5   14.69    1.32
  -6  -1  -5   13.65    1.33
  -6  -1  -5   14.16    1.28
  -7  -1  -5    0.67    0.98
  -7  -1  -5    0.87    0.98
   7   1   5   -0.88    0.85
  -8  -1  -5   -0.38    1.02
  -8  -1  -5   -0.23    1.08
   8   1   5   -0.18    0.99
  -9  -1  -5    3.41    1.31
 -10   2   5    9.82    1.60
  10  -2  -5   12.69    1.65
  -9   2   5    6.22    1.29
   9  -2  -5    7.78    1.34
   8  -2  -5   -0.52    0.89
  -8   2   5    0.44    0.79
   7  -2  -5    8.20    1.06
  -7   2   5   10.16    1.10
   7  -2  -5    9.90    1.01
  -6   2   5    0.80    0.65
   6  -2  -5    0.04    0.60
   6  -2  -5   -0.24    0.69
  -5   2   5   31.83    1.40
   5  -2  -5   32.80    1.38
   5  -2  -5   35.17    1.58
  -4   2   5  104.83    2.89
   4  -2  -5  101.74    3.08
   4  -2  -5  103.20    2.88
  -4   2   5  108.07    3.17
   3  -2  -5  148.54    4.04
   3  -2  -5  148.10    3.82
  -3   2   5  145.53    3.70
  -3   2   5  151.04    4.08
   2  -2  -5  101.29    2.97
   2  -2  -5  101.32    2.81
  -2   2   5  101.74    3.11
  -2   2   5  106.09    2.56
   1  -2  -5  167.31    4.37
  -1   2   5  165.45    4.51
   1  -2  -5  170.22    4.27
   0   2   5  371.69    9.01
   0  -2  -5  368.48    8.80
   0  -2  -5  382.35    8.90
  -1  -2  -5   33.28    1.35
   1   2   5   35.05    1.10
  -1  -2  -5   36.40    1.49
   1   2   5   34.01    1.65
  -2  -2  -5   34.57    1.32
  -2  -2  -5   33.39    1.55
   2   2   5   34.60    1.26
   2   2   5   33.27    1.61
   3   2   5   73.08    2.60
   3   2   5   71.48    2.26
  -3  -2  -5   71.90    2.50
   4   2   5  133.87    4.04
  -4  -2  -5  137.04    4.07
   4   2   5  133.93    3.83
  -5  -2  -5   79.20    2.97
   5   2   5   82.33    3.02
  -6  -2  -5   85.25    3.06
  -6  -2  -5   78.10    3.11
   6   2   5   83.05    3.20
  -7  -2  -5    4.31    1.21
   7   2   5    3.34    1.17
   8   2   5   10.06    1.56
  -8  -2  -5   13.14    1.65
 -10   3   5    1.85    1.28
  10  -3  -5    1.27    1.24
  -9   3   5   22.91    1.77
   9  -3  -5   20.17    1.79
   8  -3  -5  140.35    4.45
  -8   3   5  144.76    4.46
   7  -3  -5   30.34    1.86
  -7   3   5   32.88    1.78
   7  -3  -5   31.90    1.69
  -6   3   5    5.27    0.85
   6  -3  -5    5.99    0.98
   6  -3  -5    5.77    0.84
  -5   3   5   18.12    1.30
   5  -3  -5   16.97    1.22
  -5   3   5   17.89    1.13
   4  -3  -5  139.68    4.07
   4  -3  -5  149.38    3.76
  -4   3   5  141.96    3.78
  -4   3   5  140.85    4.08
   3  -3  -5  180.13    4.53
  -3   3   5  182.11    4.48
   3  -3  -5  171.76    4.81
  -3   3   5  186.75    4.93
   2  -3  -5   49.85    1.71
   2  -3  -5   45.45    1.80
  -2   3   5   49.55    2.05
   1  -3  -5    2.96    0.62
   1  -3  -5    3.14    0.55
  -1   3   5    3.42    0.75
   0  -3  -5    4.30    0.60
   0   3   5    3.19    0.78
   0  -3  -5    4.29    0.65
   1   3   5  103.76    3.34
  -1  -3  -5  102.81    3.10
  -1  -3  -5  103.91    2.98
  -2  -3  -5   13.98    0.94
   2   3   5   14.51    1.19
  -2  -3  -5   11.08    0.99
  -3  -3  -5    1.30    0.76
   3   3   5    0.59    0.71
   4   3   5   93.98    3.28
  -4  -3  -5   86.88    3.11
  -5  -3  -5   22.61    1.62
   5   3   5   21.71    1.62
  -6  -3  -5    1.12    1.03
   6   3   5    1.38    1.06
   7   3   5    4.07    1.20
  -7  -3  -5    0.67    1.02
   9  -4  -5   50.93    2.67
   8  -4  -5    7.17    1.30
   8  -4  -5   10.35    1.27
   7  -4  -5    0.98    0.77
   6  -4  -5  118.59    3.68
  -6   4   5  111.87    3.72
  -5   4   5  273.91    7.08
   5  -4  -5  268.81    7.07
   4  -4  -5  178.11    5.04
  -4   4   5  187.91    5.14
   3  -4  -5   87.47    2.49
  -3   4   5   81.30    2.87
   3  -4  -5   78.75    2.75
   2  -4  -5  142.47    3.82
   1  -4  -5  368.81    9.01
   1  -4  -5  376.26    8.79
  -1   4   5  358.65    9.12
   0  -4  -5  179.21    4.77
   0  -4  -5  171.75    4.68
   0   4   5  184.43    5.08
  -1  -4  -5   92.65    2.85
  -1  -4  -5   94.67    2.97
   2   4   5   38.65    2.07
  -2  -4  -5   40.45    1.90
   3   4   5   14.90    1.40
  -3  -4  -5   17.69    1.40
  -4  -4  -5   51.36    2.34
   4   4   5   51.63    2.44
   5   4   5    1.82    1.07
  -5  -4  -5   -0.38    0.92
   6   4   5    0.73    0.97
  -6  -4  -5    0.30    0.96
  -7  -4  -5    3.68    1.26
   7   4   5    2.18    1.25
   9  -5  -5   31.54    2.24
  -8   5   5    0.59    1.03
   8  -5  -5    0.42    0.97
   7  -5  -5    5.97    1.15
  -7   5   5    4.94    1.11
  -6   5   5    5.99    1.08
   6  -5  -5    7.94    1.14
   5  -5  -5   21.80    1.51
  -5   5   5   22.03    1.59
   4  -5  -5   20.31    1.44
  -4   5   5   19.89    1.50
  -3   5   5  297.10    7.76
   3  -5  -5  297.54    7.69
   2  -5  -5  117.01    3.56
   2  -5  -5  110.92    3.22
  -2   5   5  113.77    3.72
  -1   5   5   59.78    2.46
   1  -5  -5   57.60    2.09
   1  -5  -5   59.56    2.24
   0  -5  -5   16.17    1.20
   0   5   5   16.19    1.42
   0  -5  -5   17.23    1.15
  -1  -5  -5    3.81    0.78
   1   5   5    4.90    1.01
  -1  -5  -5    6.92    0.89
  -2  -5  -5  247.81    6.59
   2   5   5  245.45    6.85
  -3  -5  -5  107.87    3.60
   3   5   5  105.72    3.77
   4   5   5    4.55    1.21
  -4  -5  -5    5.69    1.20
  -5  -5  -5    3.11    1.15
   5   5   5    3.12    1.15
   6   5   5   10.30    1.59
  -6  -5  -5    8.26    1.53
  -9   6   5   -2.24    0.99
  -8   6   5    1.70    1.22
   8  -6  -5    1.97    1.12
   7  -6  -5   10.48    1.41
  -7   6   5   14.13    1.54
  -6   6   5   28.33    1.96
   6  -6  -5   27.76    1.91
   5  -6  -5    5.96    1.15
  -5   6   5    8.77    1.25
   4  -6  -5   40.46    2.04
  -4   6   5   39.78    2.23
   3  -6  -5    5.29    1.03
  -3   6   5    4.56    1.02
   2  -6  -5   78.05    2.90
  -2   6   5   80.58    3.09
  -1   6   5   67.06    2.77
   1  -6  -5   66.85    2.57
   1  -6  -5   66.37    2.36
   0  -6  -5    0.21    0.70
   0  -6  -5   -0.09    0.70
   0   6   5   -0.42    0.74
  -1  -6  -5    9.29    1.11
   1   6   5    6.26    1.18
  -1  -6  -5    5.23    0.90
   2   6   5   14.23    1.49
  -2  -6  -5   15.15    1.40
   3   6   5   -0.42    0.98
  -3  -6  -5    0.60    0.98
  -4  -6  -5    2.21    1.06
   4   6   5    3.20    1.30
  -5  -6  -5    1.54    1.14
   5   6   5   -0.94    0.99
   6   6   5    8.29    1.66
   8  -7  -5   10.71    1.56
  -8   7   5    6.92    1.52
   7  -7  -5    6.53    1.38
  -7   7   5    6.54    1.31
  -6   7   5    8.74    1.39
   6  -7  -5    4.93    1.31
  -5   7   5   36.50    2.30
   5  -7  -5   35.94    2.18
  -4   7   5  105.30    3.91
   4  -7  -5  108.66    3.81
  -3   7   5   24.33    1.86
   3  -7  -5   27.04    1.84
  -2   7   5   45.76    2.43
   2  -7  -5   47.44    2.22
  -1   7   5    4.48    1.15
   1  -7  -5    3.02    0.99
   0  -7  -5   18.35    1.40
   0   7   5   22.70    1.78
   0  -7  -5   19.32    1.45
   1   7   5   11.47    1.39
  -1  -7  -5    9.91    1.22
  -2  -7  -5    1.83    1.07
   2   7   5    3.01    1.18
   3   7   5    3.79    1.33
  -3  -7  -5    2.68    1.18
  -4  -7  -5    1.35    1.25
   4   7   5    0.55    1.21
   5   7   5    3.27    1.46
  -7   8   5    2.80    1.31
   7  -8  -5    2.10    1.30
  -6   8   5   22.98    1.98
   6  -8  -5   23.56    2.01
  -5   8   5    2.80    1.31
   5  -8  -5    3.37    1.26
  -4   8   5    1.13    1.15
   4  -8  -5    4.22    1.24
   3  -8  -5    1.35    1.00
  -3   8   5    1.96    1.16
  -2   8   5   14.79    1.61
   2  -8  -5   15.28    1.54
   1  -8  -5   26.54    1.79
  -1   8   5   25.96    1.97
   0   8   5    5.29    1.24
   0  -8  -5    2.43    1.02
  -1  -8  -5   -0.17    0.97
   1   8   5    0.26    1.03
  -2  -8  -5    5.72    1.29
   2   8   5    4.94    1.41
   3   8   5   12.14    1.72
  -3  -8  -5    9.95    1.55
   4   8   5   11.11    1.85
   6  -9  -5   -0.23    1.29
  -6   9   5    1.02    1.41
  -5   9   5   15.14    1.88
   5  -9  -5   16.49    1.85
  -4   9   5    9.35    1.54
   4  -9  -5    7.10    1.50
  -3   9   5    3.30    1.31
   3  -9  -5    2.78    1.26
   2  -9  -5   -0.04    1.09
  -2   9   5   -0.95    1.08
   1  -9  -5    4.12    1.28
  -1   9   5    4.33    1.30
   0   9   5    0.41    1.03
   1   9   5    3.57    1.33
   2   9   5   25.58    2.20
  -2  -9  -5   27.60    2.06
  -4  10   5   -0.84    1.25
  -3  10   5    3.54    1.41
   3 -10  -5    2.03    1.37
   2 -10  -5   12.59    1.65
  -2  10   5   11.15    1.71
   1 -10  -5    1.72    1.27
  -1  10   5   -0.75    1.18
   0  10   5    0.45    1.25
   1  13  -6    4.00    1.46
  -1 -13   6    2.70    1.26
   0  13  -6    8.52    1.63
   0 -13   6    4.79    1.36
   1 -13   6    6.51    1.44
  -1  13  -6    5.02    1.54
  -2  13  -6   11.93    1.86
   2 -13   6   14.24    1.65
  -3  13  -6    3.26    1.41
   3 -13   6    0.11    1.24
  -4  13  -6    6.39    1.78
   4 -13   6    5.36    1.47
  -4 -12   6    0.47    1.35
  -3 -12   6    6.26    1.42
   3  12  -6    9.22    1.73
   2  12  -6    9.57    1.67
  -1 -12   6   12.53    1.51
   1  12  -6   10.53    1.67
   0 -12   6    4.33    1.28
   0  12  -6    4.16    1.39
  -1  12  -6    1.90    1.26
   1 -12   6   -0.61    1.07
   2 -12   6   26.03    1.92
  -2  12  -6   21.89    2.11
  -3  12  -6    3.14    1.43
   3 -12   6    2.31    1.20
   4 -12   6   26.92    2.11
  -4  12  -6   31.15    2.46
  -5  12  -6   23.95    2.32
   5 -12   6   24.45    2.03
   6 -12   6    3.54    1.36
  -6  12  -6    2.73    1.57
  -5 -11   6    7.86    1.62
   4  11  -6   30.61    2.46
  -4 -11   6   32.59    2.25
  -3 -11   6   39.66    2.26
   3  11  -6   33.27    2.53
  -2 -11   6   39.81    2.20
   2  11  -6   36.47    2.41
  -2 -11   6   39.42    2.13
  -1 -11   6   31.04    1.85
   1  11  -6   26.42    2.09
   0  11  -6   97.06    3.93
   0 -11   6   91.72    3.46
   1 -11   6   52.46    2.51
  -1  11  -6   47.49    2.74
  -2  11  -6   25.09    2.07
   2 -11   6   25.00    1.78
  -3  11  -6   18.99    1.97
   3 -11   6   15.80    1.55
   4 -11   6   -1.28    0.97
  -4  11  -6    1.16    1.25
   5 -11   6   54.89    2.74
  -5  11  -6   52.42    2.93
   6 -11   6   19.81    1.80
  -6  11  -6   24.13    2.09
  -7  11  -6    0.59    1.35
   7 -11   6    0.02    1.05
  -5 -10   6    6.90    1.47
   5  10  -6    4.50    1.55
   4  10  -6   18.92    2.01
  -4 -10   6   21.63    1.80
  -3 -10   6    3.64    1.15
   3  10  -6    6.89    1.34
  -2 -10   6   17.79    1.44
  -2 -10   6   18.20    1.46
   2  10  -6   21.02    1.87
   1  10  -6   62.50    2.86
  -1 -10   6   62.02    2.41
  -1 -10   6   59.76    2.53
   0  10  -6   24.15    1.89
   0 -10   6   29.24    1.80
   1 -10   6    0.26    0.89
  -1  10  -6    0.29    1.01
  -2  10  -6   30.31    2.11
   2 -10   6   30.61    1.89
   3 -10   6   23.90    1.69
  -3  10  -6   26.46    2.03
   4 -10   6   10.89    1.29
  -4  10  -6   11.27    1.50
  -5  10  -6   22.98    1.90
   5 -10   6   20.62    1.73
   6 -10   6    2.12    1.00
  -6  10  -6    1.29    1.14
   7 -10   6    4.55    1.20
  -7  10  -6    6.67    1.43
   8 -10   6   35.73    2.25
   6   9  -6   22.28    2.08
  -6  -9   6   20.22    1.91
  -5  -9   6   20.49    1.72
   5   9  -6   18.16    1.98
  -4  -9   6   44.73    2.31
   4   9  -6   39.05    2.45
  -3  -9   6   44.18    2.18
   3   9  -6   42.90    2.43
  -3  -9   6   45.79    2.03
   2   9  -6   30.08    2.03
  -2  -9   6   30.94    1.71
  -2  -9   6   29.95    1.67
  -1  -9   6    3.71    0.82
   1   9  -6    1.73    0.99
  -1  -9   6    4.42    0.90
   0   9  -6    4.72    1.05
   0  -9   6    5.10    0.91
   0  -9   6    5.90    0.82
   1  -9   6   28.79    1.71
  -1   9  -6   29.80    1.94
  -2   9  -6  123.92    4.33
   2  -9   6  120.35    3.90
   3  -9   6   71.62    2.77
  -3   9  -6   75.55    3.18
   4  -9   6    3.17    0.89
  -4   9  -6    1.88    1.10
   5  -9   6    4.37    1.04
  -5   9  -6    4.13    1.15
  -6   9  -6   18.79    1.71
   6  -9   6   18.06    1.55
   6  -9   6   22.10    1.52
   7  -9   6   27.73    1.88
  -7   9  -6   28.05    2.11
   7  -9   6   27.54    1.89
  -8   9  -6    1.65    1.20
   8  -9   6    0.28    1.11
  -7  -8   6   -0.15    1.05
   7   8  -6    0.43    1.28
  -6  -8   6   85.58    3.44
   6   8  -6   88.08    3.88
  -5  -8   6   54.61    2.61
   5   8  -6   54.07    2.93
   4   8  -6   43.11    2.51
  -4  -8   6   44.83    2.25
  -3  -8   6   21.86    1.42
   3   8  -6   19.98    1.65
  -3  -8   6   21.83    1.54
  -2  -8   6   94.84    3.06
  -2  -8   6   96.05    3.07
   2   8  -6   95.61    3.62
  -1  -8   6  400.09    9.52
   1   8  -6  391.45   10.39
  -1  -8   6  391.02    9.71
   0   8  -6  139.79    4.52
   0  -8   6  137.85    4.05
   1  -8   6   78.67    2.78
  -1   8  -6   85.10    3.23
  -1   8  -6   81.27    2.50
   2  -8   6  148.60    4.33
  -2   8  -6  143.32    4.69
   3  -8   6  315.13    8.09
  -3   8  -6  311.32    8.44
   4  -8   6  106.89    3.18
  -4   8  -6  110.61    3.81
   4  -8   6  110.83    3.57
   5  -8   6    1.52    0.77
   5  -8   6    1.89    0.77
  -5   8  -6    1.65    0.92
   6  -8   6   22.77    1.66
  -6   8  -6   20.83    1.65
   6  -8   6   24.41    1.59
   7  -8   6   34.22    1.98
  -7   8  -6   30.02    2.04
  -8   8  -6   16.13    1.78
   8  -8   6   15.70    1.59
   9  -8   6    4.30    1.30
  -8  -7   6    3.13    1.30
   7   7  -6   -0.81    1.14
  -7  -7   6   -0.86    0.94
   6   7  -6    8.17    1.44
  -6  -7   6    9.42    1.29
  -5  -7   6    1.65    1.01
   5   7  -6    4.05    1.12
  -4  -7   6    0.75    0.81
   4   7  -6    1.00    0.91
  -3  -7   6  224.12    5.95
   3   7  -6  225.40    6.48
  -3  -7   6  223.27    5.84
  -2  -7   6  120.25    3.42
  -2  -7   6  103.22    3.27
   2   7  -6  113.10    3.83
   1   7  -6    2.35    0.82
  -1  -7   6    3.40    0.71
   1   7  -6    4.73    0.70
   0   7  -6  190.90    4.95
   0  -7   6  195.12    5.21
   0   7  -6  199.08    5.71
   1  -7   6  356.09    8.85
  -1   7  -6  360.78    8.46
   2  -7   6  334.63    7.68
   2  -7   6  333.72    8.34
  -2   7  -6  333.44    7.84
   3  -7   6   57.06    1.89
   3  -7   6   58.15    2.25
  -3   7  -6   57.48    2.45
  -4   7  -6   25.92    1.75
   4  -7   6   29.40    1.39
   4  -7   6   26.20    1.48
   5  -7   6  402.08   10.27
  -5   7  -6  429.57   10.71
   5  -7   6  417.61    9.94
  -6   7  -6   18.35    1.50
   6  -7   6   16.14    1.32
   6  -7   6   19.80    1.47
   7  -7   6    6.60    1.16
  -7   7  -6    7.28    1.30
  -8   7  -6    0.60    1.13
   8  -7   6    0.50    1.06
   9  -7   6   13.96    1.69
  -9   7  -6   13.30    1.80
  -8  -6   6   52.24    2.80
   8   6  -6   53.49    2.99
   7   6  -6  128.79    4.69
  -7  -6   6  130.49    4.48
   6   6  -6   97.17    3.75
  -6  -6   6   93.40    3.44
  -5  -6   6   12.52    1.25
   5   6  -6   10.10    1.27
  -4  -6   6    0.09    0.61
   4   6  -6    0.54    0.82
  -4  -6   6    1.13    0.79
   3   6  -6  452.52   11.54
  -3  -6   6  457.54   10.82
  -2  -6   6   25.07    1.30
   2   6  -6   20.55    1.46
   2   6  -6   24.09    1.31
   1   6  -6  150.86    4.55
  -1  -6   6  150.06    4.10
   1   6  -6  148.89    4.03
   0  -6   6   47.85    1.83
   0   6  -6   50.42    1.74
   0   6  -6   49.06    2.11
  -1   6  -6    2.37    0.50
   1  -6   6    3.15    0.39
  -1   6  -6    3.69    0.78
   1  -6   6    1.49    0.57
  -2   6  -6  100.56    2.71
  -2   6  -6   96.56    3.23
   2  -6   6   98.91    3.04
   2  -6   6   98.42    2.61
  -3   6  -6    2.76    0.78
  -3   6  -6    1.98    0.48
   3  -6   6    3.13    0.69
   3  -6   6    2.36    0.55
  -4   6  -6  138.44    4.25
   4  -6   6  143.73    3.87
   4  -6   6  149.72    4.13
   5  -6   6    5.86    0.85
  -5   6  -6    5.04    1.01
   5  -6   6    6.45    0.87
   6  -6   6   39.42    1.90
  -6   6  -6   39.04    2.07
  -7   6  -6   14.63    1.51
   7  -6   6   14.49    1.37
  -8   6  -6   66.18    2.91
   8  -6   6   61.30    2.77
   9  -6   6   50.93    2.68
  -9   6  -6   44.07    2.71
  -9  -5   6   24.81    2.10
  -8  -5   6   24.89    1.95
   8   5  -6   22.78    2.03
   7   5  -6   27.58    2.06
  -7  -5   6   24.15    1.75
   6   5  -6    4.92    1.12
  -6  -5   6    3.82    1.00
   5   5  -6  148.33    4.61
  -5  -5   6  145.69    4.37
  -4  -5   6  907.36   20.62
  -4  -5   6  905.03   20.53
   4   5  -6  883.01   21.42
   3   5  -6  288.22    7.50
  -3  -5   6  281.84    6.97
   3   5  -6  280.96    7.11
   2   5  -6   23.28    1.46
   2   5  -6   21.75    1.20
  -2  -5   6   27.24    1.26
   1   5  -6  337.73    8.04
   1   5  -6  329.08    8.59
  -1  -5   6  342.66    8.15
   0  -5   6 1098.63   23.18
   0  -5   6 1048.78   24.20
   0   5  -6 1042.18   24.99
   0   5  -6 1072.46   23.81
   1  -5   6  822.20   17.93
   1  -5   6  808.80   18.79
  -1   5  -6  827.11   18.41
  -1   5  -6  820.31   19.42
  -2   5  -6   28.94    1.52
  -2   5  -6   32.99    1.25
   2  -5   6   32.01    1.18
   2  -5   6   32.13    1.44
   3  -5   6    1.28    0.51
  -3   5  -6    0.87    0.44
  -3   5  -6    1.38    0.66
   3  -5   6    1.52    0.52
  -4   5  -6  204.30    5.70
   4  -5   6  205.25    5.45
  -4   5  -6  218.27    5.21
   4  -5   6  215.63    5.36
   5  -5   6   72.12    2.51
  -5   5  -6   74.03    2.71
   6  -5   6    8.84    1.09
  -6   5  -6   10.44    1.12
  -7   5  -6   20.65    1.58
   7  -5   6   22.08    1.57
   8  -5   6    0.64    1.02
  -8   5  -6    1.74    1.05
  -9   5  -6   19.65    1.94
   9  -5   6   21.68    1.89
   9   4  -6    4.60    1.44
  -9  -4   6    6.93    1.41
  -8  -4   6   10.52    1.36
   8   4  -6   12.27    1.51
   7   4  -6    2.40    1.07
  -7  -4   6    1.73    0.93
  -6  -4   6  203.42    5.70
   6   4  -6  204.14    5.91
  -5  -4   6    5.84    0.71
  -5  -4   6    6.33    0.95
   5   4  -6    4.97    0.87
   4   4  -6    2.02    0.67
  -4  -4   6    2.39    0.57
   4   4  -6    2.04    0.72
   3   4  -6   41.11    1.69
  -3  -4   6   42.01    1.60
   3   4  -6   47.55    1.88
   2   4  -6  185.23    4.98
   2   4  -6  183.37    4.76
  -2  -4   6  184.32    4.73
  -1  -4   6 1727.86   38.33
   1   4  -6 1711.78   37.83
   1   4  -6 1689.97   39.37
   0   4  -6  221.85    5.86
   0   4  -6  223.46    5.45
   0  -4   6  226.11    5.02
   0  -4   6  221.58    5.57
   1  -4   6   44.25    1.57
   1  -4   6   43.02    1.31
  -1   4  -6   42.30    1.71
  -1   4  -6   42.36    1.50
  -2   4  -6 1291.19   29.67
   2  -4   6 1295.72   28.09
   2  -4   6 1289.51   28.98
  -2   4  -6 1261.36   28.47
   3  -4   6 1424.02   32.52
  -3   4  -6 1460.17   33.33
   3  -4   6 1436.96   31.68
  -3   4  -6 1455.90   32.01
   4  -4   6  101.66    3.00
  -4   4  -6  101.87    2.87
   4  -4   6  103.89    2.98
  -4   4  -6   99.37    3.11
   5  -4   6   10.85    0.88
  -5   4  -6   13.56    0.96
  -5   4  -6   12.86    1.11
   5  -4   6    9.80    0.96
   6  -4   6   53.09    2.23
  -6   4  -6   50.21    2.26
  -7   4  -6   80.22    3.07
   7  -4   6   77.48    2.95
  -8   4  -6   53.75    2.67
   8  -4   6   52.38    2.58
   9  -4   6    0.77    1.15
  -9   4  -6    0.90    1.25
  -9  -3   6   40.92    2.39
   9   3  -6   40.69    2.58
   8   3  -6    4.15    1.20
  -8  -3   6    4.96    1.12
   7   3  -6    2.85    1.03
  -7  -3   6    2.78    0.95
  -6  -3   6   77.63    2.80
   6   3  -6   85.10    3.01
  -5  -3   6  740.99   17.14
   5   3  -6  743.02   17.86
   5   3  -6  757.02   17.33
   4   3  -6    3.60    0.51
  -4  -3   6    3.12    0.58
   4   3  -6    2.67    0.67
   4   3  -6    2.04    0.63
  -3  -3   6   40.56    1.26
   3   3  -6   38.53    1.57
   3   3  -6   38.44    1.60
  -3  -3   6   38.21    1.48
  -2  -3   6  310.32    7.52
   2   3  -6  305.56    7.48
   2   3  -6  318.90    7.72
  -2  -3   6  316.01    7.06
   1   3  -6 1074.86   24.15
  -1  -3   6 1090.63   23.54
  -1  -3   6 1083.92   24.44
   1   3  -6 1078.70   25.02
   0  -3   6  307.37    7.44
   0  -3   6  312.40    6.98
   0   3  -6  312.43    7.34
   0   3  -6  308.09    7.67
  -1   3  -6  375.22    8.86
   1  -3   6  390.91    8.63
   1  -3   6  375.50    8.98
  -1   3  -6  382.96    9.20
   2  -3   6  354.86    8.43
  -2   3  -6  352.68    8.32
   2  -3   6  358.76    8.19
  -2   3  -6  353.55    8.60
  -3   3  -6   64.20    2.13
   3  -3   6   66.31    2.03
   3  -3   6   62.72    2.02
  -3   3  -6   62.18    2.05
   4  -3   6   45.77    1.65
  -4   3  -6   46.10    1.81
  -4   3  -6   44.26    1.69
   4  -3   6   46.05    1.80
  -5   3  -6   81.44    2.54
   5  -3   6   80.82    2.70
  -5   3  -6   77.59    2.71
  -6   3  -6  101.38    3.33
   6  -3   6   98.30    3.26
  -6   3  -6   94.84    3.02
   7  -3   6   23.06    1.64
  -7   3  -6   20.46    1.57
  -8   3  -6    1.81    1.08
   8  -3   6    0.49    0.92
   9  -3   6    7.56    1.43
  -9   3  -6    9.29    1.54
  -9  -2   6    0.78    1.03
   9   2  -6    4.01    1.29
  -8  -2   6   57.76    2.56
   8   2  -6   53.26    2.64
  -7  -2   6  405.54    9.98
   7   2  -6  394.48   10.28
  -6  -2   6  293.20    7.28
   6   2  -6  297.69    7.22
   6   2  -6  305.71    7.83
  -6  -2   6  290.40    7.53
   5   2  -6  195.27    5.13
   5   2  -6  194.59    4.80
  -5  -2   6  196.78    4.94
   5   2  -6  173.35    5.16
   4   2  -6  141.64    3.95
  -4  -2   6  137.91    3.82
   4   2  -6  144.86    3.99
   4   2  -6  147.49    3.67
  -3  -2   6  962.59   21.73
  -3  -2   6 1021.22   22.49
   3   2  -6  981.36   22.26
   3   2  -6  992.58   22.90
  -2  -2   6  473.89   11.04
   2   2  -6  481.25   11.15
  -2  -2   6  470.42   10.64
   2   2  -6  464.90   10.93
   1   2  -6   65.45    1.87
   1   2  -6   58.71    1.91
  -1  -2   6   62.37    1.97
  -1  -2   6   62.87    1.80
   0   2  -6    9.78    0.75
   0  -2   6    7.13    0.59
   0   2  -6    9.72    0.70
   0  -2   6    7.92    0.54
   1  -2   6  167.56    4.14
  -1   2  -6  167.59    4.27
   1  -2   6  170.44    4.27
  -1   2  -6  169.87    4.29
   2  -2   6   17.33    0.93
  -2   2  -6   16.34    0.89
   2  -2   6   19.14    0.98
  -2   2  -6   17.42    1.03
  -3   2  -6  262.05    6.39
  -3   2  -6  250.54    6.27
   3  -2   6  255.10    6.24
   3  -2   6  255.04    6.20
   4  -2   6   28.03    1.16
   4  -2   6   23.39    1.34
  -4   2  -6   25.49    1.32
  -4   2  -6   27.50    1.37
  -5   2  -6    1.70    0.67
   5  -2   6    1.93    0.71
  -5   2  -6    2.55    0.73
  -6   2  -6   25.86    1.59
  -6   2  -6   22.98    1.43
   6  -2   6   20.96    1.54
  -7   2  -6    1.18    0.89
   7  -2   6    1.58    0.92
  -7   2  -6    0.68    0.90
  -8   2  -6    0.18    0.94
   8  -2   6   -1.00    0.92
   9  -2   6    0.76    1.09
  -9   2  -6    0.93    1.17
 -10  -1   6   16.96    1.93
   9   1  -6   -1.80    1.02
   8   1  -6    8.33    1.20
  -8  -1   6    7.35    1.11
   8   1  -6   10.22    1.34
   7   1  -6   23.93    1.51
   7   1  -6   24.02    1.70
  -7  -1   6   20.51    1.46
   6   1  -6    1.82    0.71
   6   1  -6    2.06    0.78
   6   1  -6    2.29    0.75
   5   1  -6  258.33    6.51
   5   1  -6  252.91    6.63
   5   1  -6  257.50    6.45
   5   1  -6  259.42    6.30
   4   1  -6   95.97    2.82
   4   1  -6   95.54    2.80
   4   1  -6   92.72    2.80
   3   1  -6  271.60    6.58
  -3  -1   6  268.18    6.40
   3   1  -6  269.58    6.62
   3   1  -6  266.89    6.54
  -2  -1   6  132.20    3.55
   2   1  -6  138.52    3.63
   2   1  -6  139.21    3.47
   2   1  -6  136.45    3.67
   1   1  -6  754.43   17.28
  -1  -1   6  768.45   17.10
   1   1  -6  781.01   17.56
  -1  -1   6  761.81   17.50
   0  -1   6  504.85   11.01
   0  -1   6  469.15   11.23
   0   1  -6  470.40   11.14
   0   1  -6  489.67   11.24
   1  -1   6  369.59    8.67
  -1   1  -6  367.57    8.76
   1  -1   6  372.13    8.79
  -1   1  -6  386.76    8.82
  -2   1  -6  429.81   10.11
   2  -1   6  426.74    9.99
   2  -1   6  428.91   10.04
  -2   1  -6  439.18   10.16
   3  -1   6  320.65    7.56
  -3   1  -6  322.08    7.76
  -3   1  -6  322.75    7.76
   3  -1   6  308.20    7.67
  -4   1  -6   90.80    2.89
   4  -1   6   91.84    2.91
  -4   1  -6   92.93    2.83
  -5   1  -6  210.07    5.53
   5  -1   6  201.13    5.51
  -5   1  -6  202.91    5.48
  -6   1  -6   38.89    1.94
  -6   1  -6   37.85    1.87
   6  -1   6   34.32    1.86
  -7   1  -6   11.76    1.31
   7  -1   6   10.59    1.32
  -7   1  -6   10.18    1.25
  -8   1  -6    7.44    1.33
  -8   1  -6    6.99    1.23
   8  -1   6    7.19    1.32
  -9   1  -6    5.18    1.43
 -10   0   6    1.16    1.30
  -9   0   6    9.07    1.42
   9   0  -6    9.11    1.36
   8   0  -6   40.16    2.09
  -8   0   6   39.76    2.19
   7   0  -6    7.46    1.07
  -7   0   6    8.19    1.03
   7   0  -6    7.25    1.00
   6   0  -6   11.40    1.05
   6   0  -6   10.40    1.01
   6   0  -6   11.58    1.07
   6   0  -6   10.94    0.98
   5   0  -6   69.34    2.32
   5   0  -6   63.49    2.26
   5   0  -6   69.03    2.32
   5   0  -6   67.60    2.31
  -4   0   6   67.43    2.23
   4   0  -6   67.43    2.21
   4   0  -6   70.47    2.17
   4   0  -6   65.21    2.22
  -3   0   6  281.82    6.88
   3   0  -6  294.37    6.88
   3   0  -6  286.13    7.04
   3   0  -6  277.54    6.88
   2   0  -6   97.00    2.41
   2   0  -6   91.49    2.74
  -2   0   6   94.43    2.78
   2   0  -6   93.59    2.68
  -1   0   6  307.13    7.49
   1   0  -6  317.51    7.47
   1   0  -6  314.05    7.56
   0   0  -6   21.83    1.11
   0   0  -6   24.20    1.09
   0   0   6   24.70    1.25
   1   0   6   28.91    1.32
  -1   0  -6   29.29    0.95
  -1   0  -6   28.87    1.32
   1   0   6   28.75    1.20
  -2   0  -6   11.30    0.87
   2   0   6   12.45    0.77
  -2   0  -6   12.41    0.74
   2   0   6   12.76    0.96
  -3   0  -6   42.36    1.55
  -3   0  -6   39.77    1.70
   3   0   6   45.45    1.52
   4   0   6   43.43    1.91
  -4   0  -6   49.74    2.01
  -4   0  -6   48.06    1.83
  -5   0  -6   17.91    1.33
   5   0   6   17.66    1.35
  -6   0  -6    2.03    0.91
  -6   0  -6    0.79    0.84
   6   0   6   -0.28    0.83
   7   0   6   34.18    2.15
  -7   0  -6   37.17    2.12
  -7   0  -6   38.77    2.15
   8   0   6   58.72    2.80
  -8   0  -6   55.18    2.73
 -10   1   6   15.88    1.82
  10  -1  -6   23.13    1.92
  -9   1   6   36.17    2.21
   9  -1  -6   37.52    2.18
  -8   1   6   13.04    1.34
   8  -1  -6   12.78    1.35
  -7   1   6   64.06    2.52
   7  -1  -6   65.38    2.42
   7  -1  -6   64.72    2.55
   6  -1  -6  253.50    6.61
   6  -1  -6  269.37    6.57
   6  -1  -6  254.69    6.60
  -6   1   6  250.72    6.66
  -5   1   6  311.53    7.87
   5  -1  -6  326.43    8.01
  -5   1   6  317.11    7.95
   5  -1  -6  333.07    7.86
   4  -1  -6  216.60    5.39
  -4   1   6  211.99    5.46
  -4   1   6  213.51    5.32
   4  -1  -6  207.84    5.52
  -3   1   6  277.74    6.61
  -3   1   6  274.41    6.84
   3  -1  -6  280.70    6.73
   3  -1  -6  276.72    6.91
   2  -1  -6  282.14    6.94
   2  -1  -6  277.68    6.75
  -2   1   6  282.32    6.49
  -2   1   6  275.66    6.90
   1  -1  -6  312.13    7.56
  -1   1   6  309.37    7.60
   1  -1  -6  308.83    7.44
   0  -1  -6  867.25   19.86
   0   1   6  871.38   19.64
   0  -1  -6  871.38   19.67
   1   1   6    4.15    0.70
  -1  -1  -6    5.23    0.63
  -1  -1  -6    5.03    0.64
   2   1   6   15.74    0.93
  -2  -1  -6   11.85    0.94
   2   1   6   13.90    1.02
   3   1   6   26.89    1.55
  -3  -1  -6   26.85    1.49
   4   1   6    9.46    1.04
  -4  -1  -6   11.70    1.07
  -5  -1  -6   12.15    1.25
   5   1   6   11.39    1.19
  -6  -1  -6   26.67    1.83
   6   1   6   28.74    1.84
  -7  -1  -6    5.23    1.25
   7   1   6    5.69    1.33
   8   1   6   11.19    1.64
  -8  -1  -6   13.07    1.66
  10  -2  -6   -0.58    1.13
 -10   2   6   -0.02    1.18
   9  -2  -6    0.23    1.03
  -9   2   6    1.11    1.08
   8  -2  -6   14.70    1.51
  -8   2   6   16.20    1.43
   7  -2  -6   79.17    2.96
  -7   2   6   78.41    2.80
   7  -2  -6   80.60    2.84
   6  -2  -6    3.66    0.82
  -6   2   6    2.37    0.74
  -6   2   6    1.28    0.73
   5  -2  -6    9.98    0.88
  -5   2   6    8.43    0.99
   5  -2  -6    8.49    0.90
  -5   2   6    8.30    0.80
  -4   2   6   19.04    1.23
   4  -2  -6   19.96    1.28
   4  -2  -6   17.03    1.07
   3  -2  -6  352.44    8.30
   3  -2  -6  342.53    8.56
  -3   2   6  348.59    8.53
   2  -2  -6  262.96    6.39
  -2   2   6  257.40    6.64
   2  -2  -6  262.79    6.60
   1  -2  -6    6.55    0.74
   1  -2  -6    3.25    0.57
  -1   2   6    3.24    0.73
   0  -2  -6  135.52    3.77
   0  -2  -6  136.84    3.77
   0   2   6  141.02    4.04
  -1  -2  -6  259.00    6.06
   1   2   6  249.87    6.30
  -1  -2  -6  214.54    6.04
  -2  -2  -6  276.13    7.19
  -2  -2  -6  286.41    6.99
   2   2   6  298.33    7.38
  -3  -2  -6  243.79    6.38
   3   2   6  240.94    6.45
   4   2   6   25.58    1.65
  -4  -2  -6   26.38    1.68
  -5  -2  -6    0.57    0.89
   5   2   6    1.44    0.96
  -6  -2  -6   74.69    3.03
   6   2   6   77.12    3.14
  -7  -2  -6   12.28    1.56
   7   2   6   10.75    1.48
  -8  -2  -6    3.07    1.36
  10  -3  -6    2.87    1.38
   9  -3  -6    1.54    1.19
   8  -3  -6   48.13    2.26
   8  -3  -6   45.95    2.29
   7  -3  -6  156.76    4.66
  -7   3   6  157.67    4.76
   6  -3  -6   44.15    1.96
  -6   3   6   42.30    2.12
  -5   3   6    8.20    1.08
   5  -3  -6    9.49    0.99
   4  -3  -6   26.28    1.45
   4  -3  -6   26.73    1.33
  -4   3   6   26.86    1.57
   3  -3  -6   11.60    1.00
   3  -3  -6   13.77    0.94
  -3   3   6   11.14    1.10
  -2   3   6   35.77    1.84
   2  -3  -6   33.99    1.58
   2  -3  -6   37.67    1.52
  -1   3   6   14.96    1.19
   1  -3  -6   14.16    1.00
   1  -3  -6   13.38    1.04
   0  -3  -6   49.22    1.98
   0  -3  -6   63.62    2.14
   0   3   6   64.90    2.41
  -1  -3  -6   85.15    2.76
   1   3   6   83.11    2.98
  -1  -3  -6   87.52    2.66
  -2  -3  -6    3.85    0.86
  -2  -3  -6    4.38    0.70
   2   3   6    5.32    1.03
  -3  -3  -6   47.88    2.17
   3   3   6   46.26    2.32
   4   3   6    4.97    1.17
  -4  -3  -6    5.26    1.02
  -5  -3  -6  100.03    3.58
   5   3   6   98.86    3.69
   6   3   6    8.84    1.44
  -6  -3  -6    8.28    1.40
  -7  -3  -6    0.55    1.16
   7   3   6   -0.40    1.18
   8  -4  -6   25.42    1.82
  -8   4   6   26.25    1.90
   7  -4  -6   22.88    1.64
  -7   4   6   19.70    1.61
   6  -4  -6   39.10    2.02
  -6   4   6   42.03    2.09
  -5   4   6    9.44    1.14
   5  -4  -6    8.34    1.04
   4  -4  -6   45.30    2.03
  -4   4   6   47.60    2.24
   3  -4  -6  138.68    3.75
  -3   4   6  134.81    4.22
   3  -4  -6  133.02    4.03
   2  -4  -6   55.35    2.21
   2  -4  -6   55.70    2.02
   1  -4  -6   64.20    2.30
   1  -4  -6   70.97    2.47
  -1   4   6   73.27    2.78
   0  -4  -6   89.68    2.83
   0   4   6   86.27    3.16
   0  -4  -6   84.00    2.79
  -1  -4  -6  218.12    5.74
  -1  -4  -6  203.50    5.56
   1   4   6  218.46    6.00
   2   4   6  131.69    4.24
  -2  -4  -6  126.83    3.99
   3   4   6    2.34    0.96
  -3  -4  -6    2.37    0.91
  -4  -4  -6   11.57    1.34
   4   4   6   11.16    1.41
  -5  -4  -6   -0.58    0.90
   5   4   6   -1.04    0.98
  -6  -4  -6    1.10    1.10
   6   4   6    0.22    1.15
  -9   5   6   -0.23    1.21
   8  -5  -6    1.21    1.03
  -8   5   6   -0.11    1.06
  -7   5   6    0.40    0.99
   7  -5  -6    0.45    0.99
   6  -5  -6    7.77    1.21
  -6   5   6    5.94    1.21
  -5   5   6   43.77    2.23
   5  -5  -6   46.00    2.25
  -4   5   6   26.79    1.90
   4  -5  -6   31.60    1.86
  -3   5   6   23.81    1.76
   3  -5  -6   26.48    1.70
  -2   5   6   38.83    2.12
   2  -5  -6   37.81    1.71
   2  -5  -6   39.35    1.96
  -1   5   6  127.25    4.19
   1  -5  -6  125.95    3.89
   1  -5  -6  127.65    3.72
   0   5   6  127.15    4.21
   0  -5  -6  125.55    3.82
   0  -5  -6  128.15    3.83
  -1  -5  -6    5.34    1.00
  -1  -5  -6    4.06    0.85
   1   5   6    3.38    1.05
  -2  -5  -6    1.89    0.88
   2   5   6    1.40    1.03
   3   5   6    9.28    1.35
  -3  -5  -6    9.05    1.32
   4   5   6   30.97    2.22
  -4  -5  -6   29.07    1.98
   5   5   6    5.63    1.46
  -5  -5  -6    9.50    1.53
   6   5   6    0.15    1.28
   9  -6  -6   19.44    1.86
   8  -6  -6   55.11    2.79
  -8   6   6   52.66    2.86
   7  -6  -6    1.57    1.11
  -7   6   6   -0.88    0.94
   6  -6  -6    0.88    1.08
  -6   6   6   -0.11    0.96
  -5   6   6    3.08    1.11
   5  -6  -6    4.80    1.10
   4  -6  -6   12.69    1.40
  -4   6   6   12.78    1.49
  -3   6   6    0.60    0.89
   3  -6  -6    0.39    0.81
  -2   6   6   16.03    1.57
   2  -6  -6   14.85    1.33
   1  -6  -6    4.91    1.00
   1  -6  -6    3.72    0.87
  -1   6   6    4.92    1.16
   0  -6  -6    0.24    0.77
   0  -6  -6    0.08    0.75
   0   6   6   -0.77    0.90
   1   6   6    1.44    1.06
  -1  -6  -6    2.67    0.97
   2   6   6   25.71    2.01
  -2  -6  -6   28.46    1.81
   3   6   6   12.25    1.56
  -3  -6  -6   12.87    1.52
   4   6   6    1.18    1.26
  -4  -6  -6    0.71    1.19
   5   6   6    0.47    1.35
   8  -7  -6    0.89    1.26
  -7   7   6    1.10    1.17
   7  -7  -6   -1.41    1.10
   6  -7  -6   15.00    1.64
  -6   7   6   20.03    1.84
  -5   7   6   12.34    1.63
   5  -7  -6   14.95    1.57
   4  -7  -6   13.57    1.51
  -4   7   6   13.60    1.62
  -3   7   6   30.98    2.10
   3  -7  -6   31.80    2.03
  -2   7   6   25.62    1.87
   2  -7  -6   27.55    1.87
  -1   7   6   22.13    1.87
   1  -7  -6   23.07    1.74
   0   7   6    3.01    1.17
   0  -7  -6    3.55    1.04
   0  -7  -6    4.74    1.06
  -1  -7  -6    0.48    0.96
   1   7   6    0.76    1.09
   2   7   6    2.42    1.31
  -2  -7  -6    3.13    1.22
   3   7   6   -1.43    1.12
  -3  -7  -6   -0.04    1.12
   4   7   6    0.96    1.41
  -4  -7  -6    2.52    1.38
  -6   8   6    3.55    1.38
   6  -8  -6    6.85    1.47
  -5   8   6    0.84    1.15
   5  -8  -6    2.57    1.29
  -4   8   6   10.72    1.64
   4  -8  -6   11.87    1.58
  -3   8   6   14.67    1.73
   3  -8  -6   13.02    1.50
  -2   8   6    2.89    1.26
   2  -8  -6    2.94    1.19
  -1   8   6    0.28    1.12
   1  -8  -6   -0.52    1.00
   0   8   6    8.41    1.49
  -1  -8  -6   11.34    1.53
   1   8   6   11.21    1.55
  -2  -8  -6    1.19    1.18
   2   8   6    1.80    1.34
  -3  -8  -6    5.83    1.51
  -4   9   6    2.60    1.38
   4  -9  -6    2.17    1.21
   3  -9  -6    4.50    1.40
  -3   9   6    4.38    1.46
  -2   9   6    1.50    1.28
   2  -9  -6    2.96    1.29
  -1   9   6    2.43    1.34
   1  -9  -6    2.34    1.27
   0   9   6    0.37    1.22
   1  13  -7   19.18    2.12
  -1 -13   7   22.95    1.98
   0  13  -7   10.04    1.66
   0 -13   7   16.73    1.80
  -1  13  -7   15.48    1.99
   1 -13   7   14.48    1.79
   2 -13   7    7.51    1.48
  -2  13  -7   13.09    1.82
   3 -13   7    3.63    1.33
  -3  13  -7    6.13    1.69
   4 -13   7    3.39    1.42
  -4  13  -7    7.58    1.83
  -4 -12   7    1.93    1.38
  -3 -12   7   -0.08    1.13
   3  12  -7    1.72    1.35
   2  12  -7    2.61    1.34
  -1 -12   7    1.79    1.16
   1  12  -7    2.23    1.32
   0  12  -7   58.25    3.19
   0 -12   7   54.73    2.75
  -1  12  -7    4.93    1.44
   1 -12   7    4.85    1.30
   2 -12   7    0.34    1.02
  -2  12  -7   -0.36    1.12
  -3  12  -7   -0.57    1.27
   3 -12   7   -1.43    1.09
  -4  12  -7    1.37    1.27
   4 -12   7   -0.16    1.08
  -5  12  -7    3.25    1.56
   5 -12   7    2.88    1.30
   6 -12   7   25.58    2.13
  -5 -11   7   12.45    1.78
  -4 -11   7    4.21    1.34
   4  11  -7    1.16    1.37
  -3 -11   7   21.08    1.76
   3  11  -7   20.82    2.06
  -2 -11   7   56.75    2.59
   2  11  -7   58.03    3.09
  -2 -11   7   61.95    2.69
  -1 -11   7   32.19    2.01
   1  11  -7   26.29    2.05
   0  11  -7   71.67    3.32
   0 -11   7   66.35    2.89
   1 -11   7    4.65    1.20
  -1  11  -7    8.28    1.40
   2 -11   7   24.11    1.79
  -2  11  -7   27.74    2.12
   3 -11   7   42.58    2.30
  -3  11  -7   41.18    2.71
   4 -11   7    0.15    1.07
  -4  11  -7    1.24    1.15
   5 -11   7    1.23    1.13
  -5  11  -7    0.40    1.31
   6 -11   7    3.86    1.26
  -6  11  -7    4.18    1.51
   7 -11   7    7.83    1.44
   5  10  -7   -0.26    1.09
  -5 -10   7    1.82    1.15
   4  10  -7   41.10    2.61
  -4 -10   7   37.79    2.30
  -3 -10   7   54.48    2.54
   3  10  -7   52.79    2.82
   2  10  -7   35.78    2.40
  -2 -10   7   33.56    1.94
  -2 -10   7   36.44    1.96
  -1 -10   7    5.85    1.10
   1  10  -7    6.61    1.33
  -1 -10   7    9.32    1.12
   0 -10   7   95.71    3.39
   0  10  -7   96.25    3.77
   0 -10   7   97.77    3.09
   1 -10   7  110.98    3.79
  -1  10  -7  115.63    4.27
   2 -10   7   73.37    2.91
  -2  10  -7   73.10    3.27
  -3  10  -7   26.57    2.06
   3 -10   7   28.71    1.91
  -4  10  -7  103.42    4.08
   4 -10   7   98.98    3.59
   5 -10   7   62.78    2.85
  -5  10  -7   61.68    3.01
  -6  10  -7   24.39    2.06
   6 -10   7   27.80    2.03
   7 -10   7   -0.42    1.03
  -7  10  -7    1.15    1.33
   6   9  -7    3.58    1.48
  -6  -9   7    4.23    1.40
  -5  -9   7    9.93    1.39
   5   9  -7    8.50    1.63
  -4  -9   7   27.77    1.95
   4   9  -7   25.93    2.13
   3   9  -7   31.87    2.28
  -3  -9   7   34.45    1.82
  -3  -9   7   34.63    1.98
  -2  -9   7   61.77    2.44
   2   9  -7   61.57    2.93
  -2  -9   7   59.02    2.42
  -1  -9   7   21.21    1.42
  -1  -9   7   22.34    1.53
   1   9  -7   24.55    1.81
   0  -9   7   41.90    1.79
   0  -9   7   36.70    1.96
   0   9  -7   42.53    2.36
  -1   9  -7   29.95    2.06
   1  -9   7   26.04    1.72
  -2   9  -7    3.65    1.17
   2  -9   7    3.63    0.96
   3  -9   7   20.01    1.51
  -3   9  -7   22.38    1.77
  -4   9  -7   94.00    3.69
   4  -9   7   95.38    3.40
   5  -9   7    3.47    1.01
  -5   9  -7    1.32    1.14
  -6   9  -7   -0.19    1.00
   6  -9   7    0.77    0.95
  -7   9  -7   17.39    1.86
   7  -9   7   20.97    1.62
  -8   9  -7    6.38    1.55
   8  -9   7    9.93    1.45
  -7  -8   7    9.15    1.57
   7   8  -7    8.40    1.75
   6   8  -7   34.14    2.52
  -6  -8   7   38.10    2.25
  -5  -8   7   79.03    3.08
   5   8  -7   72.96    3.47
  -4  -8   7  151.23    4.55
   4   8  -7  140.04    4.92
   3   8  -7   41.39    2.40
  -3  -8   7   43.97    1.93
  -3  -8   7   47.12    2.15
  -2  -8   7    2.64    0.78
   2   8  -7    2.21    1.01
  -2  -8   7    1.61    0.78
  -1  -8   7  234.30    6.06
   1   8  -7  218.88    6.52
   1   8  -7  221.48    5.85
   0   8  -7  154.93    4.18
   0   8  -7  153.43    4.82
   0  -8   7  147.33    4.41
   1  -8   7    2.41    0.81
  -1   8  -7    2.17    0.90
  -1   8  -7    2.81    0.67
  -2   8  -7   44.93    2.41
   2  -8   7   49.32    2.14
   3  -8   7    1.06    0.74
  -3   8  -7    2.17    1.00
  -4   8  -7   45.30    2.30
   4  -8   7   45.76    2.13
  -5   8  -7  104.07    3.78
   5  -8   7  103.61    3.24
   5  -8   7  103.14    3.51
   6  -8   7    2.56    0.94
   6  -8   7    0.90    0.90
  -6   8  -7    1.90    1.01
  -7   8  -7   -0.66    0.98
   7  -8   7    2.48    1.05
   8  -8   7    2.65    1.13
  -8   8  -7    3.47    1.29
   9  -8   7   -1.87    1.17
  -7  -7   7    6.94    1.42
   7   7  -7    7.68    1.50
   6   7  -7    1.99    1.10
  -6  -7   7    2.28    1.15
  -5  -7   7   52.46    2.42
   5   7  -7   53.01    2.76
  -4  -7   7    1.74    0.71
  -4  -7   7    1.51    0.87
   4   7  -7    1.92    0.96
  -3  -7   7   66.46    2.52
  -3  -7   7   68.45    2.39
   3   7  -7   64.41    2.78
   2   7  -7  579.91   13.52
   2   7  -7  562.19   14.32
  -2  -7   7  576.41   13.60
  -1  -7   7  206.75    5.48
   1   7  -7  196.62    5.32
   1   7  -7  211.25    5.97
   0  -7   7   71.36    2.51
   0   7  -7   70.18    2.31
  -1   7  -7   54.98    2.47
  -1   7  -7   52.73    1.88
   1  -7   7   54.87    2.10
   2  -7   7  748.46   17.53
  -2   7  -7  746.70   16.94
  -2   7  -7  749.77   18.17
   3  -7   7  436.82   10.11
   3  -7   7  442.54   10.77
  -3   7  -7  439.80   11.17
  -4   7  -7    3.37    0.92
   4  -7   7    1.89    0.68
   4  -7   7    1.75    0.77
  -5   7  -7   11.94    1.36
   5  -7   7   12.11    1.08
   5  -7   7   13.04    1.18
   6  -7   7   41.48    2.00
  -6   7  -7   40.48    2.26
   6  -7   7   42.28    1.98
  -7   7  -7   56.03    2.71
   7  -7   7   55.06    2.47
   8  -7   7   11.42    1.50
  -8   7  -7   11.19    1.61
   9  -7   7    1.33    1.28
   8   6  -7    6.68    1.50
  -8  -6   7    3.90    1.38
  -7  -6   7    4.73    1.27
   7   6  -7    5.70    1.36
   6   6  -7  130.72    4.52
  -6  -6   7  123.56    4.14
  -5  -6   7   32.35    1.88
   5   6  -7   33.13    2.02
   4   6  -7   22.49    1.60
  -4  -6   7   21.00    1.41
  -4  -6   7   20.00    1.26
   3   6  -7    1.31    0.83
   3   6  -7    2.57    0.78
  -3  -6   7    2.17    0.68
   2   6  -7  153.52    4.47
  -2  -6   7  134.46    3.96
   2   6  -7  141.16    4.00
   1   6  -7  128.46    4.07
   1   6  -7  132.30    3.67
  -1  -6   7  129.30    3.73
   0   6  -7   -0.09    0.50
   0   6  -7    0.63    0.66
   0  -6   7    0.84    0.53
   1  -6   7  237.86    6.63
  -1   6  -7  274.57    7.14
  -1   6  -7  280.70    6.47
   2  -6   7  203.57    5.44
  -2   6  -7  202.34    5.12
  -2   6  -7  215.93    5.77
   2  -6   7  200.82    4.90
  -3   6  -7   95.28    3.18
   3  -6   7   94.63    2.99
  -3   6  -7   89.67    2.67
   3  -6   7   94.29    2.68
  -4   6  -7   53.18    2.30
   4  -6   7   54.71    2.00
   4  -6   7   52.18    2.03
   5  -6   7  289.72    7.30
   5  -6   7  294.79    7.48
  -5   6  -7  293.79    7.84
  -6   6  -7   48.05    2.26
   6  -6   7   49.61    2.20
   7  -6   7    7.72    1.20
  -7   6  -7    8.57    1.37
  -8   6  -7    0.99    1.19
   8  -6   7   -0.61    0.88
  -9   6  -7    0.74    1.30
   9  -6   7    0.93    1.09
  -9  -5   7   17.11    1.88
   8   5  -7   42.16    2.51
  -8  -5   7   41.89    2.49
  -7  -5   7   97.93    3.63
   7   5  -7   95.28    3.68
  -6  -5   7  228.01    6.35
   6   5  -7  230.23    6.65
   5   5  -7    4.55    0.98
  -5  -5   7    4.30    0.76
  -5  -5   7    3.22    0.89
  -4  -5   7  289.08    7.22
   4   5  -7  298.05    7.77
   4   5  -7  286.26    7.44
   3   5  -7  776.57   20.11
   3   5  -7  878.21   19.44
  -3  -5   7  884.92   19.48
   2   5  -7  380.47    9.19
   2   5  -7  388.53    9.66
  -2  -5   7  377.09    9.19
   1   5  -7   25.69    1.39
  -1  -5   7   20.96    1.16
   1   5  -7   19.13    1.11
   0   5  -7   61.05    2.06
   0  -5   7   62.75    2.13
   0   5  -7   64.75    2.34
   1  -5   7  326.53    8.04
  -1   5  -7  327.09    7.83
  -1   5  -7  332.79    8.42
   1  -5   7  328.38    7.43
  -2   5  -7  209.37    5.71
   2  -5   7  210.54    5.49
   2  -5   7  213.93    5.12
  -2   5  -7  219.71    5.34
  -3   5  -7   14.52    1.00
  -3   5  -7   13.05    1.07
   3  -5   7   13.39    0.97
   3  -5   7   14.65    1.09
  -4   5  -7   11.01    1.10
   4  -5   7    9.60    0.92
  -4   5  -7   10.68    0.86
   4  -5   7   11.03    0.96
  -5   5  -7    4.00    0.91
   5  -5   7    3.66    0.74
   5  -5   7    3.59    0.84
  -6   5  -7   -0.36    0.81
   6  -5   7    0.57    0.74
   7  -5   7    4.78    1.04
  -7   5  -7    3.44    1.11
  -8   5  -7    7.11    1.37
   8  -5   7    7.27    1.31
  -9   5  -7    9.49    1.66
   9  -5   7    6.80    1.43
  -9  -4   7    7.85    1.50
   9   4  -7    7.09    1.56
  -8  -4   7    3.05    1.19
   8   4  -7    3.55    1.18
  -7  -4   7    4.52    1.05
   7   4  -7    4.56    1.11
   6   4  -7   11.87    1.21
  -6  -4   7    8.37    1.13
  -5  -4   7   77.24    2.52
   5   4  -7   78.82    2.83
   5   4  -7   76.86    2.85
   4   4  -7  449.73   11.07
  -4  -4   7  438.62   10.58
   4   4  -7  445.56   10.71
   3   4  -7   68.58    2.38
   3   4  -7   70.60    2.44
  -3  -4   7   65.78    2.25
   2   4  -7   76.04    2.44
   2   4  -7   73.98    2.50
  -2  -4   7   74.10    2.35
  -1  -4   7  227.25    4.98
  -1  -4   7  222.70    5.63
   1   4  -7  218.19    5.55
   1   4  -7  215.70    5.80
   0   4  -7  478.95   11.82
   0  -4   7  508.10   10.81
   0  -4   7  478.10   11.47
   0   4  -7  485.71   11.32
   1  -4   7  368.77    9.00
  -1   4  -7  374.47    8.84
   1  -4   7  380.30    8.50
  -1   4  -7  375.69    9.27
  -2   4  -7   16.76    1.04
  -2   4  -7   20.91    1.20
   2  -4   7   20.55    0.99
   2  -4   7   19.51    1.12
  -3   4  -7   39.98    1.70
  -3   4  -7   37.51    1.54
   3  -4   7   37.04    1.51
   3  -4   7   39.33    1.58
   4  -4   7  233.32    5.73
  -4   4  -7  230.70    5.64
   4  -4   7  223.67    5.66
  -4   4  -7  203.15    5.85
   5  -4   7  388.42    9.14
  -5   4  -7  350.82    9.00
  -5   4  -7  389.37    9.52
  -6   4  -7   56.74    2.42
   6  -4   7   57.63    2.34
  -7   4  -7    2.28    1.06
   7  -4   7    2.80    0.97
   8  -4   7   14.43    1.59
  -8   4  -7   15.48    1.64
   9  -4   7   44.60    2.49
  -9   4  -7   43.46    2.67
  -9  -3   7   25.52    1.98
   9   3  -7   23.16    2.03
  -8  -3   7  128.42    4.31
   8   3  -7  125.23    4.41
  -7  -3   7   58.91    2.54
   7   3  -7   55.93    2.62
   6   3  -7   48.99    2.20
  -6  -3   7   48.58    2.16
   5   3  -7    1.69    0.76
   5   3  -7    1.21    0.73
  -5  -3   7    1.34    0.62
  -4  -3   7  117.14    3.31
   4   3  -7  112.31    3.41
   4   3  -7  114.28    3.45
  -3  -3   7   22.92    1.20
   3   3  -7   21.88    1.19
  -3  -3   7   21.66    0.99
   3   3  -7   21.20    1.20
   2   3  -7  162.50    4.25
  -2  -3   7  160.77    3.85
  -2  -3   7  157.69    4.19
   2   3  -7  152.77    4.19
   1   3  -7  419.60    9.93
  -1  -3   7  426.65    9.47
  -1  -3   7  416.18   10.02
   1   3  -7  430.06   10.17
   0  -3   7   80.41    2.15
   0  -3   7   77.19    2.42
   0   3  -7   83.51    2.49
   0   3  -7   78.99    2.43
   1  -3   7   60.31    1.97
  -1   3  -7   58.31    2.00
  -1   3  -7   60.45    1.96
   1  -3   7   59.45    1.81
  -2   3  -7   67.37    2.10
  -2   3  -7   62.14    2.06
   2  -3   7   63.88    1.99
   2  -3   7   62.80    2.06
  -3   3  -7  256.50    6.31
   3  -3   7  254.73    6.32
  -3   3  -7  256.88    6.47
   3  -3   7  251.18    6.25
   4  -3   7  169.42    4.35
  -4   3  -7  157.65    4.38
  -4   3  -7  169.12    4.54
   4  -3   7  159.98    4.42
   5  -3   7    7.75    0.99
  -5   3  -7    5.56    0.84
  -5   3  -7   10.37    1.04
  -6   3  -7   22.09    1.54
  -6   3  -7   18.60    1.33
   6  -3   7   20.64    1.48
  -7   3  -7   94.22    3.43
   7  -3   7   93.97    3.42
  -8   3  -7   32.75    2.18
   8  -3   7   31.76    2.03
  -9   3  -7    0.94    1.28
   9   2  -7   44.78    2.61
   8   2  -7    2.59    1.12
  -8  -2   7    2.89    1.02
   7   2  -7    1.42    0.92
  -7  -2   7    0.86    0.82
  -6  -2   7  164.84    4.51
   6   2  -7  165.78    4.78
   6   2  -7  165.33    4.85
   5   2  -7  269.54    7.18
   5   2  -7  299.99    6.76
   5   2  -7  287.68    7.11
  -5  -2   7  255.05    6.91
   4   2  -7  453.80   10.92
  -4  -2   7  468.01   10.54
  -4  -2   7  449.16   10.91
   4   2  -7  469.74   11.15
   3   2  -7  302.61    7.29
  -3  -2   7  297.29    7.27
  -3  -2   7  294.54    6.97
   3   2  -7  287.00    7.24
   2   2  -7  210.12    5.24
   2   2  -7  208.73    5.31
  -2  -2   7  212.34    5.13
  -2  -2   7  209.67    5.38
  -1  -2   7 2219.20   48.01
   1   2  -7 2224.92   48.78
  -1  -2   7 2159.75   49.34
   1   2  -7 2233.52   50.24
   0  -2   7  855.32   18.53
   0   2  -7  845.71   19.35
   0  -2   7  832.80   19.10
   0   2  -7  809.32   18.85
  -1   2  -7    2.59    0.47
  -1   2  -7    2.74    0.59
   1  -2   7    2.24    0.51
   1  -2   7    2.88    0.53
  -2   2  -7    1.73    0.48
   2  -2   7    1.70    0.50
  -2   2  -7    2.51    0.59
   2  -2   7    1.57    0.54
   3  -2   7  128.79    3.59
  -3   2  -7  127.71    3.52
  -3   2  -7  124.72    3.59
   3  -2   7  131.92    3.48
  -4   2  -7   10.71    0.91
   4  -2   7    9.41    0.97
  -4   2  -7    9.16    0.92
  -5   2  -7   41.22    1.89
   5  -2   7   36.94    1.84
  -5   2  -7   40.45    1.84
  -6   2  -7   28.42    1.70
  -6   2  -7   26.85    1.62
   6  -2   7   25.39    1.71
  -7   2  -7    8.84    1.27
   7  -2   7    7.56    1.26
  -7   2  -7    9.61    1.23
  -8   2  -7    6.46    1.39
   8  -2   7    8.15    1.38
 -10  -1   7    2.88    1.42
   9   1  -7   14.00    1.60
  -8  -1   7    8.55    1.18
   8   1  -7    6.35    1.23
  -7  -1   7  122.41    3.90
   7   1  -7  125.10    4.03
   7   1  -7  127.10    3.79
   6   1  -7   72.80    2.67
   6   1  -7   76.47    2.57
  -6  -1   7   72.96    2.54
   6   1  -7   76.06    2.72
  -5  -1   7    1.08    0.58
   5   1  -7    0.72    0.66
   5   1  -7    1.24    0.63
   5   1  -7    1.56    0.65
   4   1  -7  420.78    9.68
   4   1  -7  378.14    9.62
  -4  -1   7  395.70    9.34
   4   1  -7  399.72    9.56
   3   1  -7  323.59    7.62
   3   1  -7  308.98    7.64
  -3  -1   7  314.48    7.53
   3   1  -7  313.77    7.76
   2   1  -7  108.40    3.12
   2   1  -7  111.71    2.86
  -2  -1   7  108.82    3.11
   1   1  -7   62.30    1.65
  -1  -1   7   57.29    2.00
   1   1  -7   58.18    2.01
  -1  -1   7   61.47    2.02
   0  -1   7    5.06    0.62
   0  -1   7    5.46    0.62
   0   1  -7    4.75    0.67
   0   1  -7    5.13    0.41
  -1   1  -7  587.53   13.53
   1  -1   7  590.44   13.36
   1  -1   7  579.67   13.57
  -1   1  -7  586.76   13.59
   2  -1   7  790.86   18.00
  -2   1  -7  781.15   17.97
  -2   1  -7  798.60   18.21
   2  -1   7  780.10   17.76
  -3   1  -7   10.56    0.79
   3  -1   7    9.60    0.76
   3  -1   7    7.78    0.88
  -3   1  -7    8.51    0.88
  -4   1  -7    5.67    0.87
   4  -1   7    3.24    0.73
  -4   1  -7    3.89    0.72
  -5   1  -7   33.21    1.71
   5  -1   7   33.61    1.85
  -5   1  -7   35.23    1.67
   6  -1   7   96.24    3.47
  -6   1  -7   98.86    3.35
  -6   1  -7  106.02    3.49
   7  -1   7   29.20    2.00
  -7   1  -7   27.87    1.91
  -8   1  -7    8.04    1.40
   8  -1   7    7.92    1.37
 -10   0   7   28.94    2.23
  -9   0   7    6.49    1.34
  -8   0   7    2.77    1.03
   8   0  -7    3.47    1.06
   7   0  -7   47.32    2.06
   7   0  -7   49.41    2.21
   7   0  -7   47.94    2.19
   7   0  -7   46.10    2.14
   6   0  -7   17.21    1.22
   6   0  -7   15.52    1.20
   6   0  -7   15.31    1.20
  -5   0   7    1.36    0.65
   5   0  -7   -0.08    0.55
   5   0  -7   -0.46    0.54
   5   0  -7    0.21    0.65
   4   0  -7   67.97    2.14
   4   0  -7   64.82    2.26
  -4   0   7   63.95    2.27
   4   0  -7   66.97    2.30
   3   0  -7   92.44    2.93
   3   0  -7   95.19    2.85
  -3   0   7   95.07    2.93
   3   0  -7   97.27    2.59
   2   0  -7   61.41    2.04
  -2   0   7   60.58    2.17
  -1   0   7   60.13    2.15
   1   0  -7   62.95    2.10
   1   0  -7   59.01    2.08
   0   0  -7  377.10    9.08
   0   0   7  381.96    9.02
   0   0  -7  374.11    9.02
   1   0   7   32.53    1.52
   1   0   7   34.44    1.41
  -1   0  -7   33.89    1.51
   2   0   7    1.47    0.60
   2   0   7    1.22    0.49
  -2   0  -7    1.76    0.59
   3   0   7    1.84    0.73
   3   0   7    2.14    0.54
  -3   0  -7    3.07    0.77
  -4   0  -7  111.40    3.49
   4   0   7  107.51    3.50
  -5   0  -7  169.29    4.88
   5   0   7  161.70    4.86
   6   0   7    0.89    0.91
  -6   0  -7    1.11    0.96
  -7   0  -7   10.70    1.36
   7   0   7   12.48    1.55
   8   0   7   13.48    1.66
  -8   0  -7   15.15    1.69
   9  -1  -7   13.36    1.52
   8  -1  -7   72.14    2.91
   7  -1  -7   33.87    1.82
   6  -1  -7  109.45    3.45
   6  -1  -7  113.30    3.44
  -6   1   7  110.31    3.54
  -5   1   7  449.73   10.37
   5  -1  -7  447.92   10.53
   5  -1  -7  394.57   10.23
   4  -1  -7   69.92    2.39
  -4   1   7   60.18    2.38
   4  -1  -7   70.81    2.34
  -3   1   7  327.17    8.09
   3  -1  -7  323.89    8.11
   3  -1  -7  331.86    7.95
   2  -1  -7    2.19    0.62
  -2   1   7    1.59    0.71
   2  -1  -7    1.86    0.53
   1  -1  -7    4.17    0.68
   1  -1  -7    5.06    0.67
  -1   1   7    5.33    0.82
   0  -1  -7  147.75    4.04
   0   1   7  142.96    4.16
   0  -1  -7  149.17    4.04
  -1  -1  -7   96.48    2.90
  -1  -1  -7  100.97    3.04
   1   1   7   97.41    3.16
   2   1   7   14.42    1.16
   2   1   7   17.37    1.05
  -2  -1  -7   14.51    1.14
   3   1   7    5.56    0.95
  -3  -1  -7    5.09    0.86
   4   1   7    1.79    0.82
  -4  -1  -7    2.07    0.89
  -5  -1  -7  170.79    5.04
   5   1   7  163.03    5.02
   6   1   7    0.86    0.95
  -6  -1  -7    0.13    0.99
   7   1   7   31.76    2.32
  -7  -1  -7   35.40    2.25
  -8  -1  -7    2.37    1.32
  10  -2  -7    6.95    1.47
   9  -2  -7    9.66    1.44
   8  -2  -7    0.26    0.89
  -7   2   7   18.67    1.53
   7  -2  -7   18.74    1.45
   6  -2  -7   31.54    1.76
  -6   2   7   29.74    1.79
  -5   2   7   77.57    2.81
   5  -2  -7   76.58    2.61
   5  -2  -7   80.04    2.79
   4  -2  -7   38.25    1.82
  -4   2   7   40.55    1.92
   4  -2  -7   39.21    1.67
  -3   2   7    2.65    0.81
   3  -2  -7    0.98    0.68
   3  -2  -7    2.45    0.63
  -2   2   7  164.77    4.63
   2  -2  -7  155.81    4.42
   2  -2  -7  156.54    4.27
   1  -2  -7  791.57   18.57
   1  -2  -7  835.49   18.87
   0  -2  -7  105.64    3.15
   0  -2  -7   98.76    3.09
   0   2   7  104.47    3.39
   1   2   7   69.39    2.60
  -1  -2  -7   70.63    2.34
  -1  -2  -7   68.14    2.41
  -2  -2  -7   29.55    1.57
   2   2   7   29.52    1.77
  -2  -2  -7   26.40    1.35
  -3  -2  -7  280.95    7.55
   3   2   7  303.58    7.74
  -4  -2  -7   59.55    2.52
   4   2   7   60.04    2.61
  -5  -2  -7   11.47    1.33
   5   2   7   12.25    1.43
   6   2   7    1.63    1.08
  -6  -2  -7    1.97    1.16
   7   2   7    5.67    1.48
  -7  -2  -7    1.81    1.28
  -9   3   7   21.23    1.83
   8  -3  -7    3.85    1.11
  -8   3   7    2.21    1.18
   7  -3  -7    5.66    1.11
  -7   3   7    6.14    1.18
   6  -3  -7   -0.87    0.71
  -6   3   7   -0.15    0.85
  -5   3   7   79.09    3.01
   5  -3  -7   78.58    2.87
   4  -3  -7  193.74    4.99
  -4   3   7  185.75    5.34
   4  -3  -7  178.68    5.23
   3  -3  -7   13.75    1.02
   3  -3  -7   11.06    1.13
  -3   3   7   12.27    1.19
   2  -3  -7   73.63    2.55
   2  -3  -7   80.95    2.76
  -2   3   7   84.51    2.98
   1  -3  -7   24.06    1.43
  -1   3   7   25.34    1.69
   1  -3  -7   23.16    1.35
   0  -3  -7   10.43    0.95
   0   3   7   10.82    1.17
   0  -3  -7    9.25    0.94
  -1  -3  -7   80.79    2.67
  -1  -3  -7   85.17    2.86
   1   3   7   79.60    3.03
   2   3   7   89.48    3.28
  -2  -3  -7   85.96    3.01
  -3  -3  -7    6.19    1.10
   3   3   7    6.28    1.20
   4   3   7    1.50    1.06
  -4  -3  -7   -0.12    0.93
  -5  -3  -7    7.01    1.27
   5   3   7    6.05    1.38
  -6  -3  -7    7.88    1.47
   6   3   7    8.79    1.55
  -9   4   7    4.70    1.41
  -8   4   7    0.40    1.11
   8  -4  -7    0.41    1.03
  -7   4   7   34.70    2.10
   7  -4  -7   34.50    2.06
   6  -4  -7  131.22    4.28
  -6   4   7  136.15    4.40
  -5   4   7   21.77    1.68
   5  -4  -7   21.78    1.60
   4  -4  -7    0.59    0.76
  -4   4   7    2.73    0.95
   3  -4  -7    8.58    1.04
  -3   4   7    9.07    1.18
   3  -4  -7    9.20    0.94
   2  -4  -7    5.53    0.81
  -2   4   7    6.47    1.05
   2  -4  -7    5.86    0.96
   1  -4  -7   22.99    1.51
  -1   4   7   20.58    1.55
   1  -4  -7   22.31    1.41
   0  -4  -7   53.71    2.17
   0   4   7   54.05    2.54
   0  -4  -7   52.89    2.14
   1   4   7    0.44    0.79
  -1  -4  -7    1.72    0.86
  -1  -4  -7   -0.16    0.70
   2   4   7   13.26    1.44
  -2  -4  -7   12.43    1.26
   3   4   7    2.84    1.16
  -3  -4  -7    1.75    1.06
  -4  -4  -7    0.07    1.05
   4   4   7    0.38    0.97
   5   4   7   -0.60    1.11
  -5  -4  -7    0.55    1.15
   6   4   7    0.30    1.27
   9  -5  -7   -0.48    1.15
   8  -5  -7   29.81    2.12
  -8   5   7   30.83    2.27
  -7   5   7   46.18    2.57
   7  -5  -7   49.73    2.44
  -6   5   7    4.32    1.22
   6  -5  -7    3.85    1.07
  -5   5   7    2.21    1.02
   5  -5  -7    2.64    1.02
   4  -5  -7   34.72    1.93
  -4   5   7   35.34    2.18
   3  -5  -7  101.76    3.50
  -3   5   7  104.54    3.74
  -2   5   7   29.53    2.00
   2  -5  -7   27.71    1.77
   2  -5  -7   30.89    1.67
   1  -5  -7   10.78    1.15
   1  -5  -7   13.29    1.17
  -1   5   7   10.80    1.37
   0  -5  -7   36.75    1.89
   0  -5  -7   35.23    1.87
   0   5   7   40.77    2.30
  -1  -5  -7   30.20    1.86
   1   5   7   27.67    1.91
  -2  -5  -7   29.68    1.92
   2   5   7   27.23    2.01
   3   5   7   -0.47    1.09
  -3  -5  -7    0.62    1.08
  -4  -5  -7   -0.28    1.04
   4   5   7    0.86    1.25
  -5  -5  -7    8.50    1.52
   5   5   7    8.41    1.67
   8  -6  -7    2.90    1.32
  -8   6   7    2.75    1.29
  -7   6   7   28.29    2.17
   7  -6  -7   25.55    1.94
  -6   6   7   21.50    1.97
   6  -6  -7   22.75    1.90
  -5   6   7    0.49    1.08
   5  -6  -7    0.30    0.96
   4  -6  -7    8.69    1.26
  -4   6   7    7.93    1.40
   3  -6  -7    2.46    1.07
  -3   6   7    4.24    1.22
  -2   6   7    4.59    1.22
   2  -6  -7    7.21    1.18
   1  -6  -7    4.58    0.95
  -1   6   7    3.35    1.10
   1  -6  -7    4.81    1.08
   0  -6  -7   12.65    1.28
   0   6   7    9.76    1.40
   0  -6  -7   14.75    1.34
   1   6   7   -0.12    1.05
  -1  -6  -7   -0.25    0.91
  -2  -6  -7    1.73    1.02
   2   6   7    0.34    1.16
  -3  -6  -7   10.16    1.46
   3   6   7    7.73    1.58
  -4  -6  -7    4.89    1.39
   4   6   7    6.53    1.62
   7  -7  -7    4.17    1.37
   6  -7  -7   -0.68    1.02
  -6   7   7    0.25    1.20
   5  -7  -7   17.89    1.80
  -5   7   7   16.66    1.76
   4  -7  -7    8.73    1.44
  -4   7   7    8.77    1.51
  -3   7   7    3.11    1.26
   3  -7  -7    0.86    0.99
   2  -7  -7    3.68    1.16
  -2   7   7    2.15    1.21
   1  -7  -7   13.37    1.48
  -1   7   7   14.13    1.66
   0   7   7    3.21    1.21
   0  -7  -7    3.85    1.09
   1   7   7    1.61    1.11
  -1  -7  -7    0.88    1.11
   2   7   7   -0.36    1.22
  -2  -7  -7    1.71    1.17
  -3  -7  -7   -1.55    1.19
   5  -8  -7    0.67    1.18
  -5   8   7    0.86    1.30
   4  -8  -7    1.62    1.17
  -4   8   7    0.74    1.14
  -3   8   7   26.61    2.18
   3  -8  -7   25.69    2.00
  -2   8   7   23.87    2.09
   2  -8  -7   25.33    1.97
  -1   8   7    7.82    1.50
   1  -8  -7    8.31    1.44
   0   8   7    1.71    1.31
  -1  -8  -7    0.42    1.16
   1   8   7   -0.11    1.28
   2  -9  -7    1.19    1.27
  -1 -13   8   11.52    1.67
   1  13  -8   14.00    1.90
   0 -13   8    3.60    1.39
   0  13  -8    3.89    1.52
   1 -13   8   25.99    2.15
  -1  13  -8   25.40    2.31
  -2  13  -8   27.69    2.41
   2 -13   8   29.98    2.30
   3 -13   8   -0.34    1.10
  -3  13  -8    1.68    1.41
   4 -13   8    0.64    1.39
  -4 -12   8    0.79    1.34
   3  12  -8   12.98    1.92
  -3 -12   8   12.29    1.59
  -2 -12   8   -0.39    1.10
   2  12  -8    0.65    1.24
  -1 -12   8   23.35    1.91
   1  12  -8   23.41    2.03
   0  12  -8   12.43    1.82
   0 -12   8   11.49    1.59
   1 -12   8    0.41    1.14
  -1  12  -8   -0.12    1.10
  -2  12  -8    4.87    1.52
   2 -12   8    5.18    1.34
   3 -12   8   27.43    2.07
  -3  12  -8   33.02    2.58
  -4  12  -8   19.16    2.15
   4 -12   8   17.43    1.86
  -5  12  -8    2.02    1.53
   5 -12   8    1.20    1.27
   6 -12   8   -0.66    1.09
   4  11  -8   26.21    2.37
  -4 -11   8   27.31    2.09
  -3 -11   8   31.48    1.97
   3  11  -8   25.77    2.20
  -2 -11   8   10.63    1.37
  -2 -11   8   12.84    1.41
   2  11  -8    9.99    1.63
  -1 -11   8   13.78    1.37
  -1 -11   8   17.41    1.57
   1  11  -8   12.45    1.59
   0 -11   8  131.87    4.39
   0  11  -8  129.22    4.74
   1 -11   8   10.45    1.43
  -1  11  -8    8.41    1.48
  -2  11  -8   20.48    2.01
   2 -11   8   21.04    1.77
  -3  11  -8    1.95    1.36
   3 -11   8    0.98    1.13
   4 -11   8    7.93    1.39
  -4  11  -8    7.72    1.63
   5 -11   8    3.77    1.28
  -5  11  -8    2.36    1.45
   6 -11   8    7.97    1.47
  -6  11  -8    8.74    1.76
   7 -11   8    3.46    1.31
  -5 -10   8   -0.26    1.16
   5  10  -8    0.03    1.29
   4  10  -8    2.28    1.31
  -4 -10   8    1.06    1.17
   3  10  -8    9.32    1.54
  -3 -10   8   11.41    1.40
  -3 -10   8   11.60    1.31
   2  10  -8   95.81    3.97
  -2 -10   8   97.17    3.48
  -2 -10   8  100.88    3.45
   1  10  -8   39.31    2.37
  -1 -10   8   45.43    2.08
  -1 -10   8   43.42    2.22
   0 -10   8   12.31    1.19
   0 -10   8   13.79    1.41
   0  10  -8   12.24    1.50
  -1  10  -8  213.52    6.62
   1 -10   8  211.78    6.11
   2 -10   8  157.98    4.91
  -2  10  -8  163.65    5.45
   3 -10   8   48.20    2.45
  -3  10  -8   47.63    2.77
  -4  10  -8   36.37    2.48
   4 -10   8   32.43    2.08
   5 -10   8    1.74    1.08
  -5  10  -8    3.64    1.38
  -6  10  -8   46.96    2.88
   6 -10   8   54.09    2.69
  -7  10  -8   46.18    2.92
   6   9  -8    7.53    1.65
  -6  -9   8    5.88    1.48
   5   9  -8   -0.04    1.21
  -5  -9   8    1.17    1.15
   4   9  -8    6.48    1.43
  -4  -9   8    6.87    1.26
  -3  -9   8   21.04    1.52
  -3  -9   8   16.77    1.44
   3   9  -8   17.26    1.77
  -2  -9   8   20.45    1.48
   2   9  -8   20.90    1.75
  -2  -9   8   15.51    1.31
   1   9  -8   -0.80    0.90
  -1  -9   8    1.05    0.77
   0  -9   8   65.33    2.63
   0   9  -8   65.75    2.40
   0   9  -8   66.26    2.98
  -1   9  -8  136.42    3.90
  -1   9  -8  138.78    4.71
   1  -9   8  138.76    4.28
   2  -9   8   19.14    1.47
  -2   9  -8   19.88    1.80
  -3   9  -8    2.77    1.20
   3  -9   8    3.12    1.01
  -4   9  -8   59.54    2.84
   4  -9   8   61.08    2.65
  -5   9  -8  115.75    4.32
   5  -9   8  119.15    4.00
  -6   9  -8    9.15    1.52
   6  -9   8    9.23    1.30
  -7   9  -8    1.25    1.26
  -7  -8   8   49.16    2.83
   7   8  -8   50.22    3.18
  -6  -8   8   28.31    2.09
   6   8  -8   24.11    2.19
   5   8  -8   64.33    3.12
  -5  -8   8   63.02    2.78
  -4  -8   8  174.29    4.97
  -4  -8   8  178.99    5.24
   4   8  -8  170.21    5.65
  -3  -8   8  262.64    6.92
  -3  -8   8  271.29    7.02
   3   8  -8  257.93    7.56
   2   8  -8   23.13    1.74
  -2  -8   8   24.71    1.46
   2   8  -8   22.04    1.49
   1   8  -8   28.88    1.58
  -1  -8   8   28.86    1.65
   1   8  -8   31.25    1.93
   0   8  -8  262.89    6.73
   0   8  -8  264.73    7.46
   0  -8   8  269.72    7.01
   1  -8   8   11.15    1.10
  -1   8  -8   14.40    1.46
  -1   8  -8   11.99    0.97
  -2   8  -8   85.90    3.34
  -2   8  -8   86.77    2.69
   2  -8   8   86.79    3.08
   3  -8   8   40.65    1.94
  -3   8  -8   40.08    2.29
  -4   8  -8   12.89    1.47
   4  -8   8   14.40    1.33
   5  -8   8   11.73    1.31
  -5   8  -8   14.44    1.53
   6  -8   8   -0.52    0.81
  -6   8  -8   -0.24    1.01
   6  -8   8    0.13    0.84
   7  -8   8   12.73    1.43
  -7   8  -8   12.26    1.61
   8  -8   8    2.58    1.23
  -8   8  -8    2.66    1.29
   7   7  -8   11.12    1.74
  -7  -7   8    8.76    1.52
   6   7  -8    8.25    1.48
  -6  -7   8    7.77    1.27
  -5  -7   8   92.25    3.38
   5   7  -8   89.78    3.69
  -4  -7   8   90.76    3.02
   4   7  -8   93.15    3.56
  -4  -7   8   92.35    3.22
   3   7  -8   19.17    1.56
   3   7  -8   16.78    1.35
  -3  -7   8   18.03    1.32
   2   7  -8   86.48    3.32
  -2  -7   8   90.22    2.97
   2   7  -8   91.61    3.00
   1   7  -8  453.04   11.64
  -1  -7   8  459.99   11.06
   1   7  -8  454.14   10.90
   0  -7   8  327.59    8.21
   0   7  -8  317.80    7.96
   0   7  -8  331.73    8.69
   1  -7   8    4.99    0.88
  -1   7  -8    3.76    0.70
  -1   7  -8    3.93    0.92
  -2   7  -8   57.43    2.44
   2  -7   8   52.30    2.20
  -2   7  -8   52.08    1.91
   3  -7   8   97.40    3.23
  -3   7  -8   96.09    2.87
  -3   7  -8   96.57    3.45
  -4   7  -8  218.36    6.13
   4  -7   8  219.61    5.86
   4  -7   8  202.38    5.39
   5  -7   8   35.52    1.72
   5  -7   8   33.78    1.83
  -5   7  -8   34.94    2.06
   6  -7   8    4.97    1.00
  -6   7  -8    4.51    1.19
  -7   7  -8    8.11    1.34
   7  -7   8    8.08    1.24
   8  -7   8   15.44    1.61
  -8   7  -8   14.05    1.77
   8   6  -8   19.10    1.98
  -8  -6   8   18.60    1.90
   7   6  -8    1.22    1.19
  -7  -6   8   -0.22    1.06
   6   6  -8    1.96    1.09
  -6  -6   8    2.15    0.98
   5   6  -8   23.90    1.80
  -5  -6   8   24.12    1.72
  -4  -6   8   81.45    2.71
   4   6  -8   83.98    3.14
   4   6  -8   76.73    2.92
  -3  -6   8    2.29    0.71
   3   6  -8    3.15    0.76
   3   6  -8    3.74    0.86
   2   6  -8  214.15    5.58
  -2  -6   8  204.03    5.53
   2   6  -8  209.41    5.93
   1   6  -8   35.10    1.61
   1   6  -8   32.09    1.81
  -1  -6   8   35.04    1.60
   0   6  -8    3.37    0.82
   0   6  -8    2.45    0.67
   0  -6   8    2.34    0.69
  -1   6  -8   21.15    1.23
   1  -6   8   22.92    1.40
  -1   6  -8   20.87    1.54
   2  -6   8  188.35    4.94
  -2   6  -8  164.94    5.09
  -2   6  -8  178.21    4.64
   3  -6   8  276.79    6.64
  -3   6  -8  269.84    6.76
  -3   6  -8  282.80    7.39
   3  -6   8  272.14    7.07
  -4   6  -8   49.70    1.88
   4  -6   8   46.82    1.94
   4  -6   8   49.27    2.07
  -4   6  -8   49.07    2.23
  -5   6  -8    4.38    1.03
   5  -6   8    4.34    0.92
   5  -6   8    4.42    0.88
   6  -6   8   39.38    2.01
  -6   6  -8   40.05    2.19
  -7   6  -8   69.56    3.00
   7  -6   8   68.27    2.86
  -8   6  -8   25.74    2.05
   8  -6   8   25.08    1.90
  -9  -5   8   34.72    2.50
  -8  -5   8   12.52    1.60
   8   5  -8    8.74    1.57
  -7  -5   8   35.60    2.24
   7   5  -8   36.38    2.31
   6   5  -8  154.99    4.93
  -6  -5   8  152.02    4.72
   5   5  -8  176.77    5.31
   5   5  -8  175.85    5.13
  -5  -5   8  180.42    4.85
  -4  -5   8    4.44    0.78
   4   5  -8    3.34    0.85
   4   5  -8    3.99    0.90
  -3  -5   8    8.70    0.92
   3   5  -8    8.44    1.01
   3   5  -8   11.38    1.06
   2   5  -8  283.70    7.20
  -2  -5   8  286.02    7.23
   2   5  -8  295.98    7.56
   1   5  -8  223.31    6.11
  -1  -5   8  249.42    6.23
   1   5  -8  254.57    6.51
   0   5  -8  156.22    4.51
   0  -5   8  155.76    4.29
   0   5  -8  151.79    4.16
  -1   5  -8   23.52    1.44
   1  -5   8   22.16    0.95
   1  -5   8   21.87    1.23
  -1   5  -8   20.58    1.21
   2  -5   8   89.92    2.54
   2  -5   8   92.82    2.85
  -2   5  -8   91.08    2.74
  -2   5  -8   88.21    2.99
  -3   5  -8   48.38    2.08
   3  -5   8   53.04    2.00
   3  -5   8   51.08    1.84
  -3   5  -8   48.89    1.87
  -4   5  -8    6.64    0.82
   4  -5   8    5.72    0.81
  -4   5  -8    7.01    0.99
   4  -5   8    6.89    0.88
  -5   5  -8   -0.20    0.59
  -5   5  -8   -0.85    0.78
   5  -5   8    0.15    0.73
   6  -5   8   27.73    1.77
  -6   5  -8   31.94    1.91
   7  -5   8    3.71    1.14
  -7   5  -8    2.02    1.13
   8  -5   8    2.49    1.09
  -8   5  -8    3.46    1.26
  -9   5  -8    4.87    1.47
   9   4  -8    1.38    1.31
  -9  -4   8    2.42    1.27
  -8  -4   8   28.03    2.04
   8   4  -8   28.03    2.08
   7   4  -8   60.55    2.79
  -7  -4   8   56.21    2.63
   6   4  -8    3.89    0.99
  -6  -4   8    3.42    0.97
   5   4  -8   43.52    2.07
   5   4  -8   39.29    1.96
  -5  -4   8   45.59    1.87
   4   4  -8  193.56    5.34
   4   4  -8  198.99    5.45
  -4  -4   8  194.85    5.19
   3   4  -8  481.81   11.54
   3   4  -8  493.22   11.82
  -3  -4   8  477.84   11.53
   2   4  -8  488.98   11.17
   2   4  -8  498.85   11.48
  -2  -4   8  424.16   11.16
   1   4  -8  498.65   11.74
  -1  -4   8  500.89   11.88
   1   4  -8  502.57   12.11
   0  -4   8  184.50    4.94
   0   4  -8  187.25    5.10
   0  -4   8  193.17    4.47
   0   4  -8  186.25    4.88
   1  -4   8  451.05   10.14
   1  -4   8  441.94   10.68
  -1   4  -8  447.47   10.97
  -1   4  -8  449.35   10.55
   2  -4   8  533.20   12.85
   2  -4   8  551.96   12.40
  -2   4  -8  548.44   12.70
  -2   4  -8  550.29   13.15
  -3   4  -8   10.26    0.96
   3  -4   8   11.20    0.93
  -3   4  -8   10.68    0.93
   3  -4   8   10.27    0.89
  -4   4  -8    1.03    0.63
   4  -4   8    0.65    0.60
  -4   4  -8   -0.06    0.65
   4  -4   8    0.90    0.64
  -5   4  -8   46.48    1.96
   5  -4   8   48.92    2.09
  -5   4  -8   50.55    2.17
   6  -4   8    4.12    0.99
  -6   4  -8    4.71    1.04
  -7   4  -8    0.72    1.03
   7  -4   8    0.46    0.97
  -8   4  -8    1.25    1.22
   8  -4   8    2.22    1.18
  -9  -3   8    8.54    1.56
   9   3  -8    8.05    1.55
   8   3  -8   22.74    1.85
  -8  -3   8   21.76    1.82
   7   3  -8   57.43    2.66
  -7  -3   8   57.10    2.59
   6   3  -8  130.26    4.10
  -6  -3   8  124.10    3.74
   6   3  -8  127.94    4.07
  -5  -3   8   69.24    2.43
   5   3  -8   71.06    2.59
   5   3  -8   69.83    2.58
  -4  -3   8    5.40    0.80
   4   3  -8    6.37    0.87
   4   3  -8    6.92    0.83
   3   3  -8   12.37    0.92
  -3  -3   8   10.35    0.88
   3   3  -8   10.57    0.97
   2   3  -8   15.19    1.08
  -2  -3   8   19.28    0.95
  -2  -3   8   18.36    1.11
   2   3  -8   18.18    1.08
  -1  -3   8    0.22    0.47
   1   3  -8   -0.16    0.52
  -1  -3   8    1.08    0.39
   1   3  -8    1.23    0.46
   0  -3   8   35.82    1.31
   0  -3   8   38.20    1.59
   0   3  -8   35.18    1.52
   0   3  -8   36.35    1.50
   1  -3   8  102.79    2.99
   1  -3   8   99.71    2.79
  -1   3  -8  101.23    2.99
  -1   3  -8  100.51    2.98
   2  -3   8   16.19    1.03
   2  -3   8   18.70    1.12
  -2   3  -8   16.48    1.16
  -2   3  -8   17.20    1.10
  -3   3  -8    7.84    0.84
  -3   3  -8   10.82    0.95
   3  -3   8    7.61    0.79
   3  -3   8    8.75    0.87
   4  -3   8  335.80    8.15
   4  -3   8  328.88    8.14
  -4   3  -8  329.52    8.20
  -4   3  -8  333.41    8.38
  -5   3  -8  132.53    3.97
   5  -3   8  138.21    4.10
  -5   3  -8  137.74    4.07
   6  -3   8   27.68    1.71
  -6   3  -8   29.23    1.76
  -6   3  -8   29.11    1.69
   7  -3   8    2.90    1.07
  -7   3  -8    4.45    1.18
   8  -3   8   12.42    1.57
   9   2  -8   21.72    1.93
   8   2  -8   59.32    2.77
  -8  -2   8   53.99    2.60
  -7  -2   8   82.03    3.05
   7   2  -8   84.87    3.18
   6   2  -8   43.77    2.06
   6   2  -8   41.75    2.03
  -6  -2   8   43.55    1.97
   5   2  -8    2.04    0.72
  -5  -2   8    2.48    0.73
   5   2  -8    2.07    0.76
  -4  -2   8  268.94    6.80
   4   2  -8  256.85    6.77
  -4  -2   8  266.68    6.50
   4   2  -8  273.97    6.77
  -3  -2   8  156.81    4.12
   3   2  -8  155.37    4.30
  -3  -2   8  155.87    4.34
   3   2  -8  161.08    4.17
  -2  -2   8  158.83    3.95
  -2  -2   8  134.42    4.10
   2   2  -8  158.53    3.91
   2   2  -8  148.67    4.11
   1   2  -8   26.53    1.06
  -1  -2   8   30.23    1.38
   1   2  -8   23.43    1.28
  -1  -2   8   25.81    1.20
   0   2  -8   63.43    1.96
   0  -2   8   68.05    2.11
   0  -2   8   66.55    2.22
   0   2  -8   61.74    2.18
   1  -2   8   92.89    2.74
  -1   2  -8   84.30    2.75
   1  -2   8   88.44    2.63
   2  -2   8   16.97    1.10
   2  -2   8   15.07    1.10
  -2   2  -8   15.71    1.11
   3  -2   8    5.89    0.79
  -3   2  -8    4.29    0.80
   3  -2   8    5.34    0.72
  -4   2  -8   19.89    1.29
   4  -2   8   18.06    1.28
  -5   2  -8   30.99    1.61
   5  -2   8   24.95    1.66
  -6   2  -8    2.39    0.93
   6  -2   8    5.03    1.09
   7  -2   8   27.37    1.89
  -7   2  -8   27.77    1.87
   8  -2   8    0.95    1.16
   8   1  -8    1.10    1.04
   7   1  -8    0.27    0.86
  -7  -1   8    0.80    0.83
   7   1  -8    0.18    0.85
   6   1  -8  198.42    5.57
   6   1  -8  204.02    5.58
  -6  -1   8  202.95    5.52
  -5  -1   8   87.21    2.84
   5   1  -8   87.79    2.91
   5   1  -8   86.00    2.80
  -4  -1   8  349.33    8.36
   4   1  -8  344.45    8.50
  -3  -1   8  255.46    6.39
   3   1  -8  256.42    6.47
  -2  -1   8  210.29    5.29
   2   1  -8  180.68    5.12
  -2  -1   8  204.94    5.15
   1   1  -8  541.54   12.69
  -1  -1   8  544.50   12.81
  -1  -1   8  543.23   12.50
   0   1  -8  118.32    3.68
   0  -1   8  143.48    3.70
   0  -1   8  137.03    3.76
   1  -1   8    9.13    0.87
  -1   1  -8    7.71    0.84
   1  -1   8    8.70    0.80
  -2   1  -8  145.35    4.13
   2  -1   8  145.72    4.06
   2  -1   8  143.87    3.94
  -3   1  -8  213.28    5.86
   3  -1   8  227.56    5.70
   3  -1   8  227.76    5.87
   4  -1   8  102.97    3.44
  -4   1  -8  113.34    3.49
   5  -1   8    0.04    0.76
  -5   1  -8   -0.36    0.80
  -6   1  -8    1.76    0.90
   6  -1   8    2.75    1.03
  -7   1  -8   84.78    3.30
   7  -1   8   76.97    3.24
  -8   1  -8    1.85    1.19
   7   0  -8   23.24    1.69
  -7   0   8   22.29    1.65
   7   0  -8   24.22    1.62
  -6   0   8    0.42    0.77
   6   0  -8    1.63    0.76
   6   0  -8    0.50    0.77
   5   0  -8   36.25    1.82
   5   0  -8   36.23    1.76
  -5   0   8   36.29    1.77
   4   0  -8   51.25    2.03
  -4   0   8   48.45    2.02
   4   0  -8   46.23    1.93
   3   0  -8    9.26    0.94
   3   0  -8    8.93    0.91
  -3   0   8    9.20    0.96
  -2   0   8  214.59    5.70
   2   0  -8  222.29    5.66
   1   0  -8   72.45    2.50
   1   0  -8   72.12    2.45
  -1   0   8   78.46    2.60
   0   0   8   23.19    1.42
  -1   0  -8  374.78    9.19
   1   0   8  382.54    9.17
   1   0   8  376.83    9.17
   2   0   8  293.38    7.29
   2   0   8  296.68    7.47
  -2   0  -8  297.38    7.48
  -3   0  -8   78.03    2.81
   3   0   8   82.44    2.86
  -4   0  -8    3.47    0.98
   4   0   8    4.73    1.01
   5   0   8   22.65    1.65
  -5   0  -8   22.92    1.65
  -6   0  -8   15.16    1.49
   6   0   8   18.73    1.71
   7   0   8    0.26    1.03
  -7   0  -8   -0.03    1.13
  -8   0  -8    1.34    1.30
  -8   1   8    8.57    1.31
  -7   1   8   83.66    3.08
   7  -1  -8   79.88    3.00
   6  -1  -8  122.63    3.78
  -6   1   8  124.46    3.91
   6  -1  -8  121.75    3.87
  -5   1   8   74.14    2.77
   5  -1  -8   75.88    2.65
   5  -1  -8   77.86    2.79
   4  -1  -8    3.86    0.76
  -4   1   8    3.29    0.88
   4  -1  -8    2.39    0.82
   3  -1  -8   27.71    1.50
   3  -1  -8   26.22    1.45
   2  -1  -8  402.21    9.92
   2  -1  -8  416.23    9.76
  -2   1   8  395.15    9.86
   1  -1  -8   71.53    2.42
   1  -1  -8   70.19    2.43
  -1   1   8   68.26    2.57
   0  -1  -8   65.12    2.38
   0   1   8   63.12    2.48
   0  -1  -8   67.98    2.35
  -1  -1  -8    5.92    0.85
   1   1   8    7.03    0.95
  -1  -1  -8    6.08    0.83
   2   1   8   20.28    1.26
  -2  -1  -8   19.55    1.45
   2   1   8   20.98    1.43
  -3  -1  -8    2.84    0.91
   3   1   8    5.52    1.02
   4   1   8   18.72    1.60
  -4  -1  -8   21.03    1.58
   5   1   8    0.21    0.95
  -5  -1  -8    1.39    1.02
   6   1   8   -1.09    1.03
  -6  -1  -8   -0.10    1.07
  -7  -1  -8   -0.74    1.18
   7   1   8    1.31    1.29
  -9   2   8    7.07    1.49
   8  -2  -8   72.43    2.92
  -8   2   8   67.17    3.00
  -7   2   8   43.80    2.32
   7  -2  -8   45.13    2.24
  -6   2   8    1.47    0.91
   6  -2  -8    1.27    0.90
   5  -2  -8    6.89    0.93
  -5   2   8    7.93    1.12
   5  -2  -8    4.53    1.00
   4  -2  -8  688.21   15.64
   4  -2  -8  657.40   15.95
  -4   2   8  668.12   15.81
  -3   2   8  108.39    3.65
   3  -2  -8  114.11    3.41
   3  -2  -8  113.29    3.58
   2  -2  -8    4.80    0.83
   2  -2  -8    4.34    0.80
  -2   2   8    4.80    0.91
   1  -2  -8    1.19    0.63
  -1   2   8    0.73    0.77
   1  -2  -8    0.31    0.67
   0   2   8   51.49    2.27
   0  -2  -8   52.06    2.08
   0  -2  -8   52.34    2.08
  -1  -2  -8  292.98    7.51
  -1  -2  -8  288.33    7.39
   1   2   8  297.21    7.72
   2   2   8   94.61    3.39
  -2  -2  -8   95.03    3.25
  -3  -2  -8    2.75    0.95
   3   2   8    3.42    1.05
   4   2   8   19.46    1.67
  -4  -2  -8   23.67    1.70
  -5  -2  -8   45.54    2.41
   5   2   8   42.98    2.52
   6   2   8    9.06    1.51
  -6  -2  -8   12.57    1.63
  -9   3   8    8.38    1.55
  -8   3   8   14.96    1.65
   8  -3  -8   11.25    1.46
  -7   3   8   30.10    2.07
   7  -3  -8   34.73    2.06
   6  -3  -8   21.25    1.62
  -6   3   8   21.88    1.72
   5  -3  -8   96.50    3.35
  -5   3   8   97.86    3.54
   4  -3  -8   13.02    1.23
   4  -3  -8   17.11    1.22
  -4   3   8   13.05    1.39
   3  -3  -8  193.86    5.69
  -3   3   8  216.03    5.99
   3  -3  -8  215.23    5.59
   2  -3  -8   -0.15    0.62
  -2   3   8   -0.30    0.77
   2  -3  -8   -0.69    0.63
  -1   3   8  174.39    5.20
   1  -3  -8  177.28    4.90
   1  -3  -8  172.50    4.95
   0  -3  -8   58.31    2.33
   0  -3  -8   64.67    2.46
   0   3   8   60.36    2.66
  -1  -3  -8    1.42    0.87
  -1  -3  -8    2.64    0.84
   1   3   8    2.39    0.93
  -2  -3  -8    1.45    0.85
   2   3   8    1.92    1.01
  -3  -3  -8   11.17    1.38
   3   3   8   13.28    1.48
  -4  -3  -8   42.25    2.38
   4   3   8   39.31    2.46
  -5  -3  -8   -0.21    1.03
   5   3   8    0.26    1.12
  -8   4   8    6.08    1.41
   8  -4  -8    8.79    1.47
   7  -4  -8    0.21    1.03
  -7   4   8    0.89    1.13
  -6   4   8   34.64    2.14
   6  -4  -8   39.18    2.20
  -5   4   8  204.91    5.98
   5  -4  -8  189.47    5.74
  -4   4   8   91.33    3.52
   4  -4  -8   94.87    3.33
  -3   4   8   15.75    1.49
   3  -4  -8   16.49    1.39
   3  -4  -8   16.97    1.25
  -2   4   8    6.87    1.22
   2  -4  -8    8.83    1.15
   2  -4  -8   10.77    1.08
   1  -4  -8   12.76    1.17
  -1   4   8   13.58    1.44
   1  -4  -8   12.90    1.23
   0  -4  -8    4.35    0.94
   0  -4  -8    2.81    0.91
   0   4   8    5.57    1.20
  -1  -4  -8    3.61    0.99
   1   4   8    3.10    1.09
  -1  -4  -8    4.98    0.99
  -2  -4  -8   20.77    1.65
   2   4   8   19.80    1.73
   3   4   8    1.33    1.10
  -3  -4  -8    0.84    0.99
   4   4   8    0.06    1.19
  -4  -4  -8   -0.10    1.15
   5   4   8    0.62    1.21
  -5  -4  -8    2.14    1.38
   8  -5  -8   -1.06    1.02
  -8   5   8   -1.70    1.05
   7  -5  -8   11.93    1.59
  -7   5   8   15.09    1.73
   6  -5  -8   32.50    2.09
  -6   5   8   34.22    2.26
  -5   5   8    2.30    1.17
   5  -5  -8    1.49    0.98
   4  -5  -8   13.36    1.48
  -4   5   8   15.71    1.60
   3  -5  -8   41.88    2.24
  -3   5   8   41.37    2.29
   2  -5  -8   73.90    2.69
   2  -5  -8   69.30    2.88
  -2   5   8   73.60    3.09
  -1   5   8   21.48    1.78
   1  -5  -8   16.75    1.46
   1  -5  -8   18.62    1.39
   0  -5  -8    8.87    1.16
   0   5   8    5.62    1.23
   0  -5  -8    7.19    1.13
   1   5   8   43.95    2.48
  -1  -5  -8   45.38    2.22
   2   5   8   15.27    1.76
  -2  -5  -8   15.43    1.62
  -3  -5  -8    9.10    1.40
   3   5   8   10.16    1.60
   4   5   8   -0.36    1.32
  -4  -5  -8    2.32    1.26
   7  -6  -8   -0.42    1.26
  -7   6   8    0.08    1.17
   6  -6  -8    0.50    1.09
  -6   6   8   -0.04    1.08
  -5   6   8    0.63    1.12
   5  -6  -8    1.20    1.08
  -4   6   8   11.76    1.65
   4  -6  -8   11.51    1.43
   3  -6  -8    5.98    1.21
  -3   6   8    6.83    1.41
   2  -6  -8    8.38    1.31
  -2   6   8    8.75    1.46
   1  -6  -8    2.62    1.09
   1  -6  -8    2.05    0.93
  -1   6   8    2.87    1.23
   0  -6  -8   -0.35    0.89
   0  -6  -8    1.16    0.95
   0   6   8    1.72    1.18
   1   6   8    9.15    1.61
  -1  -6  -8    9.20    1.36
  -2  -6  -8    2.14    1.15
   2   6   8    1.75    1.32
  -3  -6  -8   -0.93    1.19
   3   6   8   -0.28    1.21
  -5   7   8   -0.42    1.21
   5  -7  -8   -0.83    1.06
  -4   7   8    3.96    1.41
   4  -7  -8    6.20    1.33
   3  -7  -8    1.11    1.15
  -3   7   8   -1.08    1.08
  -2   7   8   -0.22    1.15
   2  -7  -8    0.20    1.00
  -1   7   8    7.08    1.44
   1  -7  -8    4.81    1.29
   0   7   8    0.38    1.20
   0  -7  -8    1.40    1.07
   1   7   8    1.04    1.23
  -1  -7  -8    2.96    1.20
  -2  -7  -8   11.45    1.67
   3  -8  -8    0.75    1.27
   2  -8  -8    2.67    1.29
   1  -8  -8    4.11    1.32
  -1 -13   9    8.23    1.57
   0  13  -9    8.30    1.79
   0 -13   9    7.73    1.50
  -1  13  -9    4.06    1.51
   1 -13   9    3.94    1.40
  -2  13  -9   45.40    3.15
   2 -13   9   43.33    2.59
  -3  13  -9   13.19    2.09
   3 -13   9    9.55    1.70
  -3 -12   9   -0.42    1.16
   3  12  -9    0.45    1.28
  -2 -12   9    0.36    1.16
   2  12  -9    0.60    1.18
  -2 -12   9    1.02    1.15
  -1 -12   9   -0.11    1.03
   1  12  -9    1.20    1.25
   0  12  -9   39.19    2.79
   0 -12   9   35.93    2.36
  -1  12  -9   14.95    1.92
   1 -12   9   15.87    1.75
   2 -12   9    0.43    1.13
  -2  12  -9    0.91    1.39
  -3  12  -9   24.75    2.30
   3 -12   9   29.53    2.13
  -4  12  -9   25.34    2.41
   4 -12   9   22.31    2.03
  -5  12  -9    7.94    1.88
   5 -12   9    5.72    1.51
   4  11  -9    5.94    1.65
  -4 -11   9    6.46    1.49
  -3 -11   9   12.61    1.56
   3  11  -9   10.27    1.72
  -2 -11   9   31.40    2.07
  -2 -11   9   32.15    2.10
   2  11  -9   34.12    2.39
  -1 -11   9   18.97    1.55
  -1 -11   9   17.26    1.58
   1  11  -9   13.36    1.73
   0  11  -9    4.42    1.38
   0 -11   9    2.97    1.19
  -1  11  -9   34.81    2.41
   1 -11   9   34.84    2.18
   2 -11   9    0.96    1.06
  -2  11  -9    2.11    1.24
   3 -11   9   15.32    1.59
  -3  11  -9   16.98    2.00
   4 -11   9    2.99    1.24
  -4  11  -9    2.65    1.44
  -5  11  -9   -0.61    1.32
   5 -11   9   -0.55    0.97
   6 -11   9   -0.58    1.10
  -6  11  -9    2.20    1.50
   5  10  -9   34.55    2.65
  -5 -10   9   31.60    2.36
   4  10  -9   73.23    3.59
  -4 -10   9   88.13    3.37
   3  10  -9   57.21    3.07
  -3 -10   9   59.61    2.73
  -3 -10   9   58.55    2.58
  -2 -10   9   81.56    3.07
  -2 -10   9   78.14    3.06
   2  10  -9   76.55    3.43
  -1 -10   9  117.66    3.74
  -1 -10   9  117.78    3.90
   1  10  -9  113.66    4.31
   0  10  -9    3.42    0.90
   0  10  -9    2.78    1.12
   0 -10   9    4.84    1.13
   1 -10   9   65.07    2.79
  -1  10  -9   63.18    3.12
  -2  10  -9    9.78    1.56
   2 -10   9   10.09    1.31
  -3  10  -9    4.51    1.37
   3 -10   9    3.42    1.05
  -4  10  -9   15.91    1.75
   4 -10   9    9.79    1.41
  -5  10  -9    0.15    1.26
   5 -10   9    2.45    1.12
  -6  10  -9    0.55    1.32
   6 -10   9   -1.38    0.98
  -7  10  -9    1.54    1.36
  -6  -9   9    1.41    1.31
   6   9  -9   -1.15    1.12
   5   9  -9    0.13    1.14
  -5  -9   9   -0.68    1.07
  -4  -9   9    5.17    1.16
   4   9  -9    5.05    1.36
  -3  -9   9    3.28    0.99
  -3  -9   9    0.85    1.00
   3   9  -9    2.28    1.11
   2   9  -9   34.06    1.90
  -2  -9   9   36.32    1.96
   2   9  -9   35.91    2.22
   1   9  -9   25.28    1.58
   1   9  -9   22.93    1.78
  -1  -9   9   23.52    1.57
   0   9  -9    1.01    0.75
   0   9  -9    0.80    0.99
   0  -9   9    2.33    0.93
   1  -9   9   81.35    3.05
  -1   9  -9   80.01    2.72
  -1   9  -9   77.41    3.33
   2  -9   9  120.74    4.02
  -2   9  -9  125.90    4.45
  -3   9  -9   86.33    3.61
   3  -9   9   88.24    3.24
  -4   9  -9   15.17    1.71
   4  -9   9   16.57    1.46
  -5   9  -9    6.08    1.31
   5  -9   9    7.29    1.19
  -6   9  -9   30.81    2.30
   6  -9   9   30.50    2.10
  -7   9  -9   33.04    2.50
   7   8  -9   14.59    2.02
  -6  -8   9   54.02    2.83
   6   8  -9   57.35    3.13
  -5  -8   9   51.36    2.61
   5   8  -9   55.90    3.00
   4   8  -9   15.36    1.63
  -4  -8   9   13.08    1.26
  -4  -8   9   13.42    1.37
   3   8  -9   25.25    1.70
   3   8  -9   23.96    1.85
  -3  -8   9   20.32    1.42
   2   8  -9   71.12    3.09
   2   8  -9   71.31    2.74
  -2  -8   9   78.41    2.75
   1   8  -9   69.16    2.57
   1   8  -9   77.68    3.08
  -1  -8   9   72.90    2.75
   0   8  -9    0.28    0.61
   0  -8   9    1.18    0.83
   0   8  -9    1.58    0.91
  -1   8  -9    5.30    0.84
  -1   8  -9    5.54    1.14
   1  -8   9    5.44    0.94
   2  -8   9    3.39    0.93
  -2   8  -9    0.25    0.99
  -2   8  -9    3.06    0.78
  -3   8  -9    9.64    1.39
   3  -8   9    8.23    1.08
   4  -8   9   10.98    1.20
  -4   8  -9   11.02    1.44
   5  -8   9   21.89    1.61
  -5   8  -9   18.10    1.71
  -6   8  -9   11.89    1.59
  -7   8  -9    3.81    1.35
  -8   8  -9    1.73    1.39
   8  -8   9    0.57    1.13
   7   7  -9   55.55    3.13
  -7  -7   9   56.74    2.84
   6   7  -9   21.71    1.95
  -6  -7   9   22.02    1.83
  -5  -7   9   26.34    1.81
   5   7  -9   27.74    2.14
   4   7  -9  108.79    3.94
   4   7  -9  106.81    3.71
  -4  -7   9  113.20    3.53
  -3  -7   9  223.37    5.91
   3   7  -9  210.68    5.94
   3   7  -9  217.80    6.37
   2   7  -9   46.96    2.05
   2   7  -9   48.75    2.30
  -2  -7   9   48.04    2.09
   1   7  -9   26.42    1.75
   1   7  -9   27.13    1.45
  -1  -7   9   25.39    1.49
   0   7  -9  171.29    4.62
   0   7  -9  161.64    5.06
   0  -7   9  167.99    4.78
  -1   7  -9  480.82   12.25
  -1   7  -9  482.18   11.38
   1  -7   9  479.43   11.70
  -2   7  -9  159.34    4.88
   2  -7   9  154.40    4.53
  -2   7  -9  153.49    4.28
  -3   7  -9   93.63    2.94
   3  -7   9   97.71    3.27
  -3   7  -9   98.23    3.52
   4  -7   9   12.10    1.24
  -4   7  -9   13.72    1.42
  -5   7  -9   14.26    1.50
   5  -7   9   16.69    1.40
  -6   7  -9   27.54    2.05
   6  -7   9   29.77    1.82
   7  -7   9    0.44    1.02
  -7   7  -9   -0.23    1.12
   8  -7   9   13.95    1.64
  -8   7  -9   15.24    1.85
  -8  -6   9   12.95    1.66
   8   6  -9   11.48    1.80
  -7  -6   9   23.69    1.97
   7   6  -9   21.04    1.95
  -6  -6   9    2.34    1.07
   6   6  -9   -0.63    0.90
   5   6  -9    7.61    1.21
  -5  -6   9    6.14    0.97
   5   6  -9    6.62    1.21
   4   6  -9   26.15    1.69
   4   6  -9   24.69    1.61
  -4  -6   9   23.52    1.52
   3   6  -9   -0.87    0.72
  -3  -6   9    0.89    0.71
   3   6  -9    1.19    0.79
   2   6  -9   16.72    1.21
  -2  -6   9   15.81    1.18
   2   6  -9   15.30    1.29
   1   6  -9  129.35    4.02
  -1  -6   9  128.16    3.82
   1   6  -9  124.99    3.74
   0   6  -9  250.07    6.39
   0   6  -9  252.43    6.85
   0  -6   9  251.98    6.55
  -1   6  -9  409.61    9.62
  -1   6  -9  370.06   10.20
   1  -6   9  418.39    9.87
  -2   6  -9   97.41    2.95
   2  -6   9   96.01    3.12
  -2   6  -9   91.89    3.30
   3  -6   9   15.57    1.23
  -3   6  -9   15.30    1.15
  -3   6  -9   18.27    1.40
   4  -6   9  148.18    4.11
   4  -6   9  147.31    4.34
  -4   6  -9  146.40    4.11
  -4   6  -9  147.73    4.56
   5  -6   9   27.28    1.63
   5  -6   9   28.45    1.71
  -5   6  -9   26.35    1.83
   6  -6   9   -0.04    0.88
  -6   6  -9    0.70    1.01
  -7   6  -9    4.48    1.18
   7  -6   9    5.30    1.24
   8  -6   9   18.67    1.77
  -8   6  -9   15.96    1.80
  -8  -5   9   58.57    2.99
   8   5  -9   53.04    2.93
  -7  -5   9   56.28    2.78
   7   5  -9   64.37    3.01
  -6  -5   9   13.52    1.44
   6   5  -9   15.80    1.53
  -5  -5   9  109.13    3.45
   5   5  -9  106.96    3.66
   5   5  -9  113.85    3.79
   4   5  -9  270.85    7.11
  -4  -5   9  265.70    6.95
   4   5  -9  270.67    7.28
   3   5  -9   58.87    2.27
   3   5  -9   52.62    2.18
  -3  -5   9   50.31    2.11
   2   5  -9    6.30    0.88
   2   5  -9    5.74    0.83
  -2  -5   9    6.40    0.84
   1   5  -9    0.67    0.60
  -1  -5   9    0.96    0.65
   1   5  -9    0.81    0.65
   0  -5   9   21.06    1.27
   0   5  -9   21.28    1.24
   0   5  -9   19.76    1.35
  -1   5  -9    3.18    0.78
   1  -5   9    2.14    0.66
  -1   5  -9    2.40    0.69
   2  -5   9   45.93    1.71
  -2   5  -9   48.65    2.09
  -2   5  -9   46.49    1.85
   2  -5   9   48.44    1.98
  -3   5  -9   79.24    2.82
   3  -5   9   76.46    2.65
  -3   5  -9   75.10    2.53
   3  -5   9   76.56    2.44
  -4   5  -9   11.34    1.16
   4  -5   9    9.36    1.00
  -4   5  -9    8.98    0.97
   4  -5   9   10.00    1.08
   5  -5   9    0.56    0.77
  -5   5  -9    0.12    0.69
  -5   5  -9   -0.26    0.84
  -6   5  -9   36.98    2.10
   6  -5   9   37.59    2.03
   7  -5   9   12.02    1.47
  -7   5  -9   13.98    1.55
   8  -5   9    0.20    1.11
  -8   5  -9    1.01    1.23
   9   4  -9    1.93    1.37
  -9  -4   9    1.18    1.28
  -8  -4   9   10.61    1.51
   8   4  -9   10.24    1.54
  -7  -4   9   14.64    1.54
   7   4  -9   16.61    1.58
  -6  -4   9   61.55    2.39
   6   4  -9   59.91    2.61
   6   4  -9   59.12    2.60
   5   4  -9  204.61    5.75
  -5  -4   9  205.07    5.52
   5   4  -9  202.81    5.74
  -4  -4   9   10.70    1.02
   4   4  -9   10.36    1.10
   4   4  -9    9.45    1.01
   3   4  -9   48.42    1.96
   3   4  -9   48.57    2.01
  -3  -4   9   48.77    1.94
   2   4  -9  444.95   10.80
   2   4  -9  460.75   11.02
  -2  -4   9  447.23   10.88
  -1  -4   9  545.82   12.89
   1   4  -9  539.53   12.73
   1   4  -9  539.92   13.02
   0   4  -9  335.15    8.30
   0  -4   9  323.88    8.17
   0   4  -9  330.31    8.12
   1  -4   9   64.47    2.04
  -1   4  -9   65.20    2.33
   1  -4   9   66.74    2.33
  -1   4  -9   63.94    2.30
   2  -4   9  317.27    8.19
   2  -4   9  334.58    7.86
  -2   4  -9  327.75    8.14
  -2   4  -9  343.02    8.39
   3  -4   9  146.12    4.16
  -3   4  -9  147.34    4.24
  -3   4  -9  149.97    4.19
   3  -4   9  144.24    4.01
   4  -4   9    5.01    0.87
  -4   4  -9    6.49    1.00
   4  -4   9    5.90    0.88
  -4   4  -9    4.88    0.86
  -5   4  -9   -0.83    0.68
  -5   4  -9    1.89    0.86
   5  -4   9    1.53    0.75
   6  -4   9   32.10    1.92
   7  -4   9   17.06    1.60
   8  -4   9    6.26    1.39
  -9  -3   9    6.63    1.46
   9   3  -9    5.30    1.47
  -8  -3   9    2.45    1.16
   8   3  -9    3.46    1.24
   7   3  -9   29.65    1.99
   6   3  -9    7.14    1.15
  -6  -3   9    4.49    0.96
   6   3  -9    5.95    1.09
   5   3  -9   36.75    1.84
   5   3  -9   39.98    1.97
  -5  -3   9   37.96    1.83
   4   3  -9   33.09    1.65
   4   3  -9   33.44    1.59
  -4  -3   9   30.37    1.56
   3   3  -9   52.46    2.16
  -3  -3   9   53.74    2.13
   3   3  -9   54.67    1.99
   2   3  -9   60.70    2.27
   2   3  -9   65.43    2.12
  -2  -3   9   62.95    2.31
   1   3  -9   68.11    2.40
  -1  -3   9   71.94    2.13
  -1  -3   9   72.29    2.43
   0  -3   9    3.09    0.56
   0   3  -9    3.13    0.69
   0  -3   9    3.54    0.72
   1  -3   9  122.11    3.57
  -1   3  -9  119.72    3.57
   1  -3   9  122.45    3.34
   2  -3   9  136.93    3.89
   2  -3   9  135.34    3.77
  -2   3  -9  137.79    3.96
   3  -3   9   11.38    1.01
   3  -3   9   11.60    1.01
  -3   3  -9   12.16    1.11
  -4   3  -9   59.85    2.30
   4  -3   9   56.95    2.29
   5  -3   9   20.31    1.49
  -5   3  -9   23.36    1.48
   6  -3   9   50.05    2.40
  -6   3  -9   53.21    2.34
   7  -3   9    1.93    1.12
   8  -3   9   -0.11    1.03
  -8  -2   9   37.73    2.28
   7   2  -9  222.42    6.36
  -6  -2   9  131.95    4.04
   6   2  -9  132.91    4.15
   5   2  -9   19.38    1.39
  -5  -2   9   16.88    1.31
  -4  -2   9   16.89    1.25
   4   2  -9   17.53    1.24
  -3  -2   9   15.09    1.14
  -3  -2   9   16.43    1.17
   3   2  -9   15.32    1.15
  -2  -2   9   82.55    2.79
  -2  -2   9   87.49    2.64
   2   2  -9   84.97    2.82
   1   2  -9   48.03    1.98
  -1  -2   9   47.38    1.81
  -1  -2   9   50.05    1.93
   0   2  -9   42.87    1.79
   0  -2   9   42.44    1.78
   0  -2   9   45.64    1.73
  -1   2  -9   24.13    1.38
   1  -2   9   23.38    1.32
   1  -2   9   24.40    1.36
  -2   2  -9    2.46    0.72
   2  -2   9    3.07    0.74
   2  -2   9    4.47    0.75
   3  -2   9  109.52    3.26
   3  -2   9  110.36    3.39
  -3   2  -9  106.26    3.37
   4  -2   9   15.55    1.25
  -4   2  -9   16.33    1.31
  -5   2  -9   13.08    1.31
   5  -2   9   13.32    1.29
   6  -2   9    2.91    1.11
  -6   2  -9    6.07    1.15
   7  -2   9    1.07    1.06
  -7   2  -9    1.96    1.11
  -7  -1   9    1.38    0.92
   7   1  -9    5.41    1.10
   6   1  -9    1.37    0.83
  -6  -1   9    1.52    0.80
  -5  -1   9  181.73    5.11
   5   1  -9  181.99    5.11
   4   1  -9  165.70    4.62
  -4  -1   9  161.03    4.52
  -4  -1   9  158.65    4.62
  -3  -1   9  382.16    9.25
  -3  -1   9  386.27    9.47
   3   1  -9  378.78    9.33
   2   1  -9   19.24    1.26
  -2  -1   9   17.44    1.26
  -2  -1   9   18.34    1.32
   1   1  -9   62.20    2.30
  -1  -1   9   62.18    2.25
  -1  -1   9   60.06    2.24
   0  -1   9  550.32   12.97
   0  -1   9  551.57   12.68
   0   1  -9  532.64   12.84
   1  -1   9  189.68    5.00
  -1   1  -9  180.56    5.04
   2  -1   9    5.67    0.89
  -2   1  -9    4.74    0.83
   2  -1   9    6.80    0.81
   3  -1   9   13.89    1.18
  -3   1  -9   11.03    1.16
   4  -1   9   80.88    2.98
  -4   1  -9   80.09    2.97
   5  -1   9   73.18    2.94
  -5   1  -9   69.36    2.84
   6  -1   9    0.91    1.06
  -6   1  -9    0.79    0.98
   7  -1   9    0.41    1.18
  -7   1  -9    0.44    1.09
   7   0  -9    2.82    1.03
  -6   0   9   52.66    2.29
   6   0  -9   53.62    2.32
   6   0  -9   51.95    2.36
   5   0  -9  277.05    7.12
  -5   0   9  264.02    6.94
   5   0  -9  260.35    6.94
   4   0  -9   31.13    1.74
   4   0  -9   31.86    1.68
  -4   0   9   30.33    1.73
  -3   0   9    2.84    0.80
   3   0  -9    3.73    0.81
   3   0  -9    2.40    0.82
  -2   0   9  265.31    6.92
   2   0  -9  267.04    6.91
   2   0  -9  278.07    7.07
   1   0  -9  246.52    6.34
   1   0  -9  242.89    6.38
  -1   0   9  239.06    6.32
   0   0  -9    2.10    0.71
   0   0   9    1.01    0.63
   0   0   9    1.12    0.68
   1   0   9   17.93    1.30
  -1   0  -9   16.39    1.28
   1   0   9   18.60    1.25
   2   0   9    5.11    0.80
   2   0   9    6.05    1.01
  -2   0  -9    3.82    0.86
   3   0   9   74.65    2.82
  -3   0  -9   72.16    2.79
  -4   0  -9  139.34    4.34
   4   0   9  140.97    4.47
   5   0   9   14.63    1.48
  -5   0  -9   14.53    1.43
   6   0   9    1.07    1.18
  -6   0  -9    2.35    1.19
  -7   0  -9   10.74    1.55
   8  -1  -9    1.67    1.12
   7  -1  -9    1.55    1.01
  -7   1   9    1.45    0.96
   6  -1  -9   65.53    2.70
  -6   1   9   63.98    2.69
   5  -1  -9  107.96    3.58
   5  -1  -9  112.27    3.55
  -5   1   9  106.29    3.64
  -4   1   9  122.80    3.92
   4  -1  -9  119.56    3.88
   4  -1  -9  126.20    3.77
   3  -1  -9   10.19    1.03
  -3   1   9   11.01    1.20
   3  -1  -9    9.25    1.06
   2  -1  -9   40.23    1.80
   2  -1  -9   37.79    1.83
  -2   1   9   37.40    1.95
  -1   1   9  200.39    5.57
   1  -1  -9  204.10    5.48
   1  -1  -9  198.41    5.51
   0  -1  -9   47.91    2.10
   0   1   9   48.28    2.20
   0  -1  -9   48.98    2.06
   1   1   9   52.82    2.31
   1   1   9   53.75    2.13
  -1  -1  -9   50.67    2.23
   2   1   9   55.20    2.42
   2   1   9   57.54    2.18
  -2  -1  -9   55.14    2.38
  -3  -1  -9    0.70    0.91
   3   1   9    1.02    0.89
  -4  -1  -9    0.25    0.96
   4   1   9    1.73    1.04
  -5  -1  -9    1.27    1.12
   5   1   9    1.20    1.09
   6   1   9    6.26    1.40
  -6  -1  -9    7.29    1.52
  -8   2   9    5.47    1.30
   8  -2  -9    4.69    1.26
   7  -2  -9  115.16    4.00
  -7   2   9  118.91    4.12
   6  -2  -9   60.08    2.58
  -6   2   9   60.33    2.70
   5  -2  -9   -0.01    0.90
  -5   2   9    1.04    0.94
  -4   2   9   54.66    2.47
   4  -2  -9   54.57    2.28
   4  -2  -9   51.95    2.37
   3  -2  -9   95.51    3.34
   3  -2  -9   95.55    3.20
  -3   2   9  102.12    3.47
  -2   2   9  229.57    6.35
   2  -2  -9  226.84    6.07
   2  -2  -9  229.25    6.25
   1  -2  -9   12.03    1.17
   1  -2  -9   13.82    1.24
  -1   2   9   12.10    1.29
   0   2   9    6.98    1.08
   0  -2  -9    7.13    1.02
   0  -2  -9    6.86    0.97
   1   2   9    1.38    0.87
  -1  -2  -9    1.42    0.77
  -1  -2  -9    1.17    0.81
   2   2   9   23.59    1.72
  -2  -2  -9   26.64    1.69
   3   2   9   22.97    1.82
  -3  -2  -9   20.90    1.67
   4   2   9   -0.91    1.04
  -4  -2  -9   -0.97    1.01
  -5  -2  -9    1.25    1.21
   5   2   9    1.96    1.26
  -8   3   9    4.99    1.37
   8  -3  -9    7.54    1.30
   7  -3  -9    0.74    1.01
  -7   3   9    0.87    1.13
  -6   3   9    2.29    1.14
   6  -3  -9    2.25    1.02
   5  -3  -9    4.00    1.08
  -5   3   9    5.03    1.15
  -4   3   9   65.10    2.86
   4  -3  -9   57.70    2.57
   4  -3  -9   65.82    2.52
   3  -3  -9   75.61    2.76
   3  -3  -9   72.03    2.83
  -3   3   9   76.20    3.06
   2  -3  -9    2.60    0.85
  -2   3   9    3.10    1.00
   2  -3  -9    3.10    0.91
   1  -3  -9   -0.71    0.79
   1  -3  -9    0.28    0.79
  -1   3   9   -0.05    0.87
   0   3   9   73.62    3.07
   0  -3  -9   75.26    2.77
   0  -3  -9   68.66    2.70
   1   3   9   70.95    3.00
  -1  -3  -9   69.54    2.77
  -1  -3  -9   66.20    2.61
  -2  -3  -9   58.33    2.62
   2   3   9   53.70    2.70
  -3  -3  -9    8.13    1.30
   3   3   9    8.80    1.44
   4   3   9    2.77    1.30
  -4  -3  -9    2.59    1.20
  -5  -3  -9    2.99    1.36
   5   3   9    1.44    1.35
   8  -4  -9   15.00    1.73
  -8   4   9   10.70    1.68
   7  -4  -9   17.07    1.69
  -7   4   9   23.11    2.01
  -6   4   9    4.47    1.25
   6  -4  -9    4.60    1.27
   5  -4  -9    2.70    1.15
  -5   4   9    2.83    1.11
   4  -4  -9   10.79    1.37
  -4   4   9   11.58    1.45
   3  -4  -9    5.04    1.00
  -3   4   9    6.14    1.30
   3  -4  -9    5.54    1.10
   2  -4  -9    5.41    1.13
  -2   4   9    4.13    1.17
   2  -4  -9    4.66    1.00
   1  -4  -9    1.01    0.87
  -1   4   9    0.01    0.85
   1  -4  -9    0.00    0.88
   0  -4  -9    2.46    0.97
   0   4   9    2.07    1.11
   0  -4  -9    1.56    0.95
  -1  -4  -9   12.63    1.42
   1   4   9   12.98    1.54
  -2  -4  -9   10.47    1.45
   2   4   9    8.74    1.53
  -3  -4  -9   -0.03    1.14
   3   4   9   -0.54    1.07
  -4  -4  -9    2.45    1.28
   4   4   9    1.46    1.40
   7  -5  -9   -0.40    1.09
  -7   5   9    0.72    1.31
   6  -5  -9    5.09    1.38
  -6   5   9    6.17    1.48
   5  -5  -9   51.43    2.58
  -5   5   9   50.35    2.71
   4  -5  -9   26.75    2.00
  -4   5   9   27.45    2.14
  -3   5   9    6.73    1.39
   3  -5  -9    7.38    1.23
  -2   5   9    8.42    1.37
   2  -5  -9    9.46    1.36
  -1   5   9   11.65    1.59
   1  -5  -9   14.44    1.48
   1  -5  -9   15.66    1.44
   0  -5  -9   11.67    1.39
   0  -5  -9   11.71    1.38
   0   5   9   10.84    1.51
   1   5   9    5.28    1.35
  -1  -5  -9    4.35    1.22
  -2  -5  -9    2.35    1.22
   2   5   9    2.73    1.26
   3   5   9    3.06    1.51
  -3  -5  -9    1.82    1.31
  -6   6   9    1.28    1.21
   5  -6  -9    1.54    1.27
  -5   6   9   -0.39    1.23
  -4   6   9   -0.52    1.03
   4  -6  -9    0.42    1.09
  -3   6   9   -1.21    1.09
   3  -6  -9   -0.36    1.07
   2  -6  -9   48.15    2.54
  -2   6   9   48.68    2.71
  -1   6   9   18.04    1.90
   1  -6  -9   19.91    1.72
   0   6   9   -0.67    1.10
   0  -6  -9   -1.50    0.97
  -1  -6  -9    2.11    1.20
   1   6   9   -0.39    1.29
  -2  -6  -9   14.54    1.78
   3  -7  -9    3.22    1.35
  -2   7   9    0.26    1.15
   2  -7  -9   -0.18    1.18
   1  -7  -9    1.63    1.21
  -1 -13  10   15.31    1.83
   0 -13  10   44.75    2.75
  -1  13 -10   13.67    2.04
   1 -13  10   11.72    1.66
  -2  13 -10    9.30    1.95
   2 -13  10   13.91    1.86
  -3 -12  10    3.72    1.37
   2  12 -10   15.34    1.99
  -2 -12  10   20.10    1.84
  -2 -12  10   16.87    1.71
  -1 -12  10    5.78    1.40
   1  12 -10    4.66    1.46
   0  12 -10    4.11    1.53
   0 -12  10    4.46    1.35
   1 -12  10    4.41    1.35
  -1  12 -10    3.88    1.40
  -2  12 -10    4.91    1.59
   2 -12  10    2.04    1.32
  -3  12 -10   11.21    1.90
   3 -12  10   12.07    1.69
  -4  12 -10   10.02    1.84
   4 -12  10    8.44    1.54
   5 -12  10   -0.45    1.23
   4  11 -10    3.98    1.43
  -4 -11  10    4.43    1.41
  -3 -11  10    1.22    1.23
   3  11 -10    0.37    1.31
  -3 -11  10   -0.44    1.01
   2  11 -10   11.46    1.74
  -2 -11  10   13.52    1.51
  -2 -11  10    9.35    1.42
  -1 -11  10   14.81    1.48
  -1 -11  10   13.40    1.54
   1  11 -10   15.53    1.79
   0 -11  10    1.78    1.13
   0  11 -10    0.80    1.16
   1 -11  10    0.14    1.03
  -1  11 -10    1.99    1.27
  -2  11 -10    5.13    1.49
   2 -11  10    5.81    1.34
   3 -11  10    4.18    1.19
  -3  11 -10    3.38    1.52
  -4  11 -10    4.53    1.57
   4 -11  10    4.18    1.30
  -5  11 -10    1.13    1.42
   5 -11  10    1.13    1.23
   6 -11  10    3.79    1.36
   5  10 -10   16.55    1.99
  -5 -10  10   18.21    1.82
   4  10 -10   62.27    3.36
  -4 -10  10   71.61    3.15
  -3 -10  10   47.52    2.48
  -3 -10  10   45.30    2.34
   3  10 -10   46.44    2.82
   2  10 -10   65.47    3.20
  -2 -10  10   68.91    2.80
  -2 -10  10   63.29    2.79
   1  10 -10   46.99    2.65
   1  10 -10   49.01    2.30
  -1 -10  10   48.85    2.44
   0 -10  10   55.79    2.64
   0  10 -10   58.56    2.94
   0  10 -10   57.09    2.44
  -1  10 -10   49.50    2.79
   1 -10  10   50.35    2.50
  -2  10 -10   45.15    2.65
   2 -10  10   49.69    2.49
   3 -10  10   41.82    2.41
  -3  10 -10   46.71    2.79
  -4  10 -10    9.78    1.71
   4 -10  10   11.60    1.48
   5 -10  10    2.48    1.09
  -5  10 -10    2.21    1.33
  -6  10 -10   19.08    2.10
   6 -10  10   20.55    1.86
   6   9 -10    3.94    1.54
  -6  -9  10    4.73    1.38
  -5  -9  10    9.01    1.52
   5   9 -10    7.29    1.54
   4   9 -10   12.32    1.60
  -4  -9  10   11.56    1.52
  -4  -9  10   10.14    1.29
   3   9 -10    4.69    1.28
  -3  -9  10    4.27    1.07
   2   9 -10    3.65    1.01
   2   9 -10    2.84    1.06
  -2  -9  10    3.37    0.97
   1   9 -10   29.97    1.74
  -1  -9  10   24.77    1.74
   1   9 -10   25.16    1.90
   0   9 -10  100.44    3.32
   0  -9  10  104.59    3.54
   0   9 -10   98.89    3.84
  -1   9 -10    7.94    1.38
   1  -9  10    8.86    1.18
  -1   9 -10    7.00    0.96
  -2   9 -10   33.23    2.29
   2  -9  10   28.68    1.92
  -3   9 -10   18.87    1.90
   3  -9  10   20.45    1.64
  -4   9 -10   82.47    3.59
   4  -9  10   80.54    3.18
  -5   9 -10   65.59    3.20
   5  -9  10   65.00    2.86
  -6   9 -10    0.21    1.29
  -7   9 -10    0.54    1.33
   6   8 -10   13.93    1.76
  -6  -8  10   18.34    1.76
   5   8 -10   33.81    2.46
  -5  -8  10   33.48    2.13
   4   8 -10   45.32    2.55
  -4  -8  10   43.20    2.14
   3   8 -10   28.28    1.75
   3   8 -10   29.35    2.08
  -3  -8  10   24.94    1.62
  -2  -8  10    0.81    0.85
   2   8 -10    0.61    0.85
   2   8 -10   -0.28    0.90
   1   8 -10    2.71    0.81
  -1  -8  10   -0.07    0.78
   1   8 -10    0.96    0.83
   0   8 -10    9.60    1.08
   0   8 -10   10.08    1.23
   0  -8  10   10.79    1.22
   1  -8  10   31.63    1.80
  -1   8 -10   33.99    2.12
  -1   8 -10   34.66    1.71
  -2   8 -10   42.75    2.43
   2  -8  10   40.99    2.09
  -2   8 -10   39.27    1.89
   3  -8  10   57.24    2.47
  -3   8 -10   59.93    2.76
   4  -8  10    3.04    0.94
  -4   8 -10    2.35    1.06
   5  -8  10   18.09    1.59
  -5   8 -10   20.91    1.87
  -6   8 -10    3.22    1.27
  -7   8 -10   11.45    1.70
  -7  -7  10   31.76    2.34
   7   7 -10   32.96    2.53
  -6  -7  10   45.23    2.44
   6   7 -10   46.84    2.71
   5   7 -10  108.48    4.04
  -5  -7  10   97.30    3.41
  -4  -7  10   58.28    2.47
   4   7 -10   63.99    2.72
   4   7 -10   66.18    2.88
   3   7 -10   33.29    2.05
   3   7 -10   27.53    1.71
  -3  -7  10   28.53    1.70
   2   7 -10  255.76    6.98
  -2  -7  10  246.96    6.62
   2   7 -10  237.22    6.54
   1   7 -10  172.45    4.90
  -1  -7  10  173.20    4.96
   1   7 -10  174.42    5.22
   0   7 -10   18.34    1.36
   0  -7  10   16.77    1.29
   0   7 -10   17.85    1.47
  -1   7 -10   74.15    3.00
  -1   7 -10   74.39    2.58
   1  -7  10   76.80    2.81
   2  -7  10    4.91    1.00
  -2   7 -10    4.69    1.12
  -2   7 -10    5.15    0.84
  -3   7 -10  136.65    4.41
  -3   7 -10  129.35    3.81
   3  -7  10  124.16    4.01
  -4   7 -10   61.07    2.71
   4  -7  10   55.18    2.45
  -5   7 -10   -0.80    0.95
   5  -7  10    0.48    0.88
  -6   7 -10    1.90    1.14
  -7   7 -10    2.42    1.28
   7  -7  10    2.12    1.12
   8   6 -10    5.97    1.55
   7   6 -10    8.73    1.52
  -7  -6  10    8.13    1.50
   6   6 -10   14.53    1.63
  -6  -6  10   16.37    1.62
   5   6 -10    0.76    0.99
  -5  -6  10    1.72    0.85
   5   6 -10    0.03    0.98
  -4  -6  10    3.25    0.90
   4   6 -10    4.08    1.01
   4   6 -10    2.20    0.92
  -3  -6  10  106.19    3.46
   3   6 -10  105.85    3.52
   3   6 -10  111.98    3.71
  -2  -6  10   70.86    2.65
   2   6 -10   68.37    2.61
   2   6 -10   79.95    2.84
   1   6 -10    1.85    0.77
   1   6 -10    2.27    0.73
  -1  -6  10    0.94    0.69
   0  -6  10   22.66    1.48
   0   6 -10   20.95    1.52
   0   6 -10   21.07    1.41
  -1   6 -10  260.84    6.81
   1  -6  10  261.82    6.95
  -1   6 -10  275.19    7.28
  -2   6 -10  382.71    9.75
   2  -6  10  361.34    9.33
  -2   6 -10  375.61    9.16
  -3   6 -10  124.43    3.73
   3  -6  10  125.63    3.90
  -3   6 -10  127.46    4.11
  -4   6 -10    1.04    0.76
  -4   6 -10    3.67    1.04
   4  -6  10    1.32    0.83
  -5   6 -10   17.12    1.53
   5  -6  10   16.65    1.40
  -6   6 -10   10.54    1.43
   6  -6  10   12.52    1.36
   7  -6  10    9.50    1.40
   8   5 -10   18.13    1.87
  -8  -5  10   16.61    1.84
   7   5 -10   51.25    2.73
  -7  -5  10   45.81    2.60
   6   5 -10  123.60    4.24
   6   5 -10  123.03    4.24
  -5  -5  10   20.99    1.51
   5   5 -10   18.97    1.51
   5   5 -10   20.52    1.55
   4   5 -10    6.78    1.10
  -4  -5  10    9.88    1.10
   4   5 -10   10.62    1.17
   3   5 -10  115.93    3.68
  -3  -5  10  115.08    3.61
   3   5 -10  113.93    3.64
   2   5 -10   55.18    2.25
  -2  -5  10   54.29    2.20
   2   5 -10   56.67    2.21
   1   5 -10   32.81    1.68
   1   5 -10   32.71    1.63
  -1  -5  10   32.20    1.64
   0   5 -10   21.18    1.45
   0  -5  10   20.94    1.36
   0   5 -10   20.73    1.40
  -1   5 -10   62.30    2.41
   1  -5  10   61.19    2.36
  -1   5 -10   59.12    2.27
  -2   5 -10   11.56    1.19
   2  -5  10   10.84    1.09
  -2   5 -10   11.99    1.11
  -3   5 -10    5.36    0.99
   3  -5  10    3.98    0.86
  -3   5 -10    3.46    0.84
   3  -5  10    4.78    0.81
   4  -5  10   30.58    1.64
  -4   5 -10   32.78    1.72
   4  -5  10   33.20    1.77
  -5   5 -10   39.58    2.01
   5  -5  10   36.93    1.94
   6  -5  10   14.84    1.43
   7  -5  10    2.78    1.13
  -8  -4  10   63.75    3.09
   8   4 -10   65.06    3.12
   7   4 -10   67.23    2.94
   6   4 -10   17.81    1.53
  -6  -4  10   18.33    1.42
   6   4 -10   16.35    1.55
   5   4 -10  132.84    4.25
  -5  -4  10  131.39    4.08
   5   4 -10  140.51    4.25
   4   4 -10  246.19    6.69
   4   4 -10  258.30    6.69
  -4  -4  10  245.71    6.61
  -3  -4  10   34.06    1.75
   3   4 -10   33.76    1.73
  -2  -4  10    5.12    0.87
   2   4 -10    4.36    0.83
  -1  -4  10    2.45    0.78
   1   4 -10    3.63    0.79
   0  -4  10  203.33    5.54
   0   4 -10  205.46    5.51
   1  -4  10  345.09    8.62
  -1   4 -10  342.46    8.55
  -2   4 -10   47.60    2.03
   2  -4  10   47.64    1.95
   2  -4  10   49.06    1.85
   3  -4  10   48.75    2.01
  -3   4 -10   51.97    2.19
   3  -4  10   52.70    2.15
  -4   4 -10   67.08    2.55
   4  -4  10   64.29    2.46
  -5   4 -10   16.38    1.38
   5  -4  10   14.57    1.34
  -6   4 -10    4.38    1.05
   6  -4  10    3.27    1.09
   7  -4  10    1.97    1.15
  -8  -3  10    9.58    1.53
   7   3 -10    4.38    1.21
  -6  -3  10   69.58    2.69
   6   3 -10   68.14    2.80
   5   3 -10    9.13    1.11
  -5  -3  10    7.25    1.06
   4   3 -10    1.85    0.83
  -4  -3  10    0.58    0.68
  -3  -3  10   39.83    1.91
   3   3 -10   38.99    1.86
  -2  -3  10  379.47    9.31
   2   3 -10  365.91    9.19
  -1  -3  10  643.43   15.35
   1   3 -10  655.20   15.24
   0   3 -10   61.75    2.37
   0  -3  10   66.54    2.17
   0  -3  10   62.86    2.38
   1  -3  10   18.45    1.19
   1  -3  10   16.18    1.18
  -1   3 -10   17.67    1.26
  -2   3 -10   37.78    1.81
   2  -3  10   39.60    1.80
   2  -3  10   35.70    1.66
   3  -3  10  213.07    5.71
  -3   3 -10  213.54    5.87
   3  -3  10  225.79    5.83
   4  -3  10    3.94    0.95
  -4   3 -10    3.93    0.91
   5  -3  10    1.73    0.94
  -5   3 -10    5.54    1.04
  -6   3 -10    6.96    1.25
   6  -3  10    4.88    1.19
   7  -3  10   20.25    1.81
  -8  -2  10    5.87    1.33
   7   2 -10    1.14    1.01
  -7  -2  10    2.49    1.01
  -6  -2  10   66.37    2.64
   6   2 -10   63.47    2.72
   5   2 -10  115.36    3.80
  -5  -2  10  119.32    3.81
   4   2 -10    2.32    0.83
  -4  -2  10    1.62    0.82
  -3  -2  10   16.15    1.24
   3   2 -10   17.18    1.27
  -2  -2  10   91.58    3.06
   2   2 -10   88.89    3.01
  -2  -2  10   92.10    2.86
  -1  -2  10  231.28    5.86
  -1  -2  10  235.81    6.17
   1   2 -10  227.43    6.15
   0  -2  10   12.79    1.13
   0  -2  10   12.06    1.05
   0   2 -10   11.64    1.13
   1  -2  10   54.81    2.15
   1  -2  10   52.61    2.16
  -1   2 -10   57.08    2.24
   2  -2  10   52.03    2.13
  -2   2 -10   49.98    2.13
   2  -2  10   52.95    2.14
  -3   2 -10    2.20    0.90
   3  -2  10    1.72    0.81
   3  -2  10    0.49    0.72
  -4   2 -10   -0.32    0.83
   4  -2  10   -0.59    0.79
   5  -2  10   44.20    2.22
  -5   2 -10   43.72    2.17
  -6   2 -10   35.92    2.16
   6  -2  10   37.71    2.28
   7  -2  10   12.77    1.65
  -7   2 -10   11.98    1.55
  -7  -1  10   87.79    3.33
   7   1 -10   91.87    3.46
   6   1 -10   10.61    1.26
  -6  -1  10   11.01    1.21
   5   1 -10    2.89    0.86
  -5  -1  10    3.36    0.97
  -4  -1  10   71.93    2.72
   4   1 -10   75.92    2.77
   3   1 -10  374.03    9.26
  -3  -1  10  360.08    9.07
  -3  -1  10  377.39    9.36
  -2  -1  10  152.62    4.37
  -2  -1  10  140.04    4.23
   2   1 -10  152.42    4.36
  -1  -1  10   15.83    1.19
  -1  -1  10   12.56    1.09
   1   1 -10   14.57    1.23
   0  -1  10   17.90    1.33
   0  -1  10   16.25    1.23
   0   1 -10   15.18    1.23
   1  -1  10  116.56    3.48
  -1   1 -10  106.51    3.51
   1  -1  10  105.87    3.38
   2  -1  10  149.92    4.22
   2  -1  10  144.49    4.30
  -2   1 -10  136.29    4.29
   3  -1  10   27.20    1.75
  -3   1 -10   25.62    1.71
   4  -1  10   28.50    1.87
  -4   1 -10   26.47    1.80
   5  -1  10    6.94    1.27
  -5   1 -10    6.14    1.16
   6  -1  10    5.97    1.40
  -6   1 -10    3.98    1.16
  -7   1 -10    6.68    1.48
   6   0 -10    1.76    1.01
   6   0 -10    3.56    1.00
  -5   0  10   99.56    3.42
   5   0 -10   93.39    3.29
   5   0 -10   95.86    3.42
   4   0 -10   90.04    3.18
  -4   0  10   92.97    3.23
   4   0 -10   93.29    3.29
   3   0 -10   18.07    1.41
  -3   0  10   21.93    1.53
   3   0 -10   23.23    1.46
  -2   0  10    7.04    0.99
   2   0 -10    7.70    1.09
   2   0 -10    6.77    1.02
  -1   0  10   14.54    1.26
  -1   0  10   18.14    1.35
   1   0 -10   17.74    1.33
   0   0  10  141.34    4.18
   0   0  10  139.68    4.21
   0   0 -10  138.82    4.23
   1   0  10   55.54    2.36
   1   0  10   52.71    2.20
  -1   0 -10   52.56    2.26
   2   0  10    3.84    1.00
   2   0  10    5.59    0.90
  -2   0 -10    6.00    1.00
  -3   0 -10    3.60    0.95
   3   0  10    3.46    1.02
  -4   0 -10   14.29    1.52
   4   0  10   16.59    1.61
   5   0  10   45.87    2.54
  -5   0 -10   45.11    2.41
   6   0  10   14.05    1.78
  -6   0 -10   18.28    1.74
   8  -1 -10   42.88    2.42
   7  -1 -10   22.14    1.76
   6  -1 -10   -0.56    0.85
  -6   1  10    2.29    1.04
   5  -1 -10    0.06    0.83
   5  -1 -10    0.08    0.82
  -5   1  10    0.45    0.91
   4  -1 -10    0.95    0.93
   4  -1 -10    0.91    0.81
  -4   1  10    1.08    0.90
  -3   1  10   34.09    1.94
   3  -1 -10   29.95    1.78
   3  -1 -10   30.28    1.76
   2  -1 -10   11.63    1.14
   2  -1 -10   11.40    1.24
  -2   1  10   11.09    1.24
   1  -1 -10   30.45    1.80
  -1   1  10   33.40    1.93
   1  -1 -10   31.94    1.79
   0   1  10   20.47    1.52
   0  -1 -10   19.85    1.43
  -1  -1 -10    5.81    1.08
   1   1  10    5.75    1.14
   1   1  10    7.11    1.03
   2   1  10    9.26    1.30
  -2  -1 -10    6.82    1.18
   3   1  10   15.36    1.54
  -3  -1 -10   12.70    1.42
  -4  -1 -10   -0.59    0.93
   4   1  10    1.32    1.10
   5   1  10   -1.47    1.13
  -5  -1 -10   -0.89    1.06
   8  -2 -10    1.93    1.21
  -7   2  10    1.95    1.14
   7  -2 -10    1.89    1.17
   6  -2 -10   27.51    1.90
  -6   2  10   31.98    2.17
   5  -2 -10  111.40    3.92
  -5   2  10  117.69    4.05
   4  -2 -10   24.18    1.66
  -4   2  10   20.35    1.69
   4  -2 -10   21.01    1.66
  -3   2  10   22.66    1.71
   3  -2 -10   22.33    1.61
   3  -2 -10   20.32    1.60
   2  -2 -10   42.63    2.16
  -2   2  10   39.49    2.21
   2  -2 -10   43.71    2.06
   1  -2 -10   78.93    2.93
   1  -2 -10   76.85    2.94
  -1   2  10   74.10    3.07
   0  -2 -10   21.19    1.58
   0   2  10   20.62    1.61
   0  -2 -10   20.20    1.49
   1   2  10    7.63    1.22
  -1  -2 -10    8.17    1.21
  -2  -2 -10    1.29    0.99
   2   2  10    0.45    0.92
  -3  -2 -10   -0.33    1.04
   3   2  10    1.00    1.12
  -4  -2 -10   21.88    1.87
   4   2  10   25.80    2.14
  -8   3  10    0.51    1.21
   8  -3 -10    0.53    1.27
  -7   3  10    2.88    1.21
   7  -3 -10    4.19    1.31
  -6   3  10    8.66    1.49
   6  -3 -10    9.69    1.38
   5  -3 -10    2.69    1.14
  -5   3  10    1.21    1.11
   4  -3 -10   13.69    1.42
  -4   3  10   11.97    1.45
  -3   3  10   38.48    2.29
   3  -3 -10   42.14    2.11
   3  -3 -10   41.01    2.15
   2  -3 -10   17.19    1.44
  -2   3  10   15.21    1.50
   2  -3 -10   13.31    1.39
  -1   3  10   15.68    1.62
   1  -3 -10   14.56    1.44
   1  -3 -10   15.28    1.41
   0  -3 -10    9.78    1.27
   0   3  10   10.78    1.46
   0  -3 -10    8.92    1.27
  -1  -3 -10    3.52    1.06
   1   3  10    3.65    1.24
   2   3  10   11.30    1.55
  -2  -3 -10    9.27    1.32
  -3  -3 -10   16.75    1.76
   3   3  10   12.26    1.73
   4   3  10    5.59    1.48
  -4  -3 -10    4.67    1.43
  -7   4  10    0.80    1.17
   7  -4 -10    3.22    1.27
   6  -4 -10    0.82    1.10
  -6   4  10   -1.11    1.14
  -5   4  10    0.29    1.17
   5  -4 -10    0.54    1.15
  -4   4  10    7.58    1.35
   4  -4 -10    6.61    1.32
  -3   4  10    6.56    1.33
   3  -4 -10    7.88    1.33
   2  -4 -10    0.58    0.89
   2  -4 -10    0.36    1.01
  -2   4  10    1.05    1.11
   1  -4 -10   -0.45    0.85
   1  -4 -10    1.21    1.05
  -1   4  10    0.74    1.11
   0  -4 -10    7.84    1.29
   0   4  10    6.34    1.38
   0  -4 -10    6.57    1.23
   1   4  10   23.19    2.05
  -1  -4 -10   24.27    1.89
   2   4  10    1.01    1.11
  -2  -4 -10   -1.21    1.09
  -3  -4 -10   -0.42    1.25
   3   4  10    0.45    1.18
  -6   5  10    1.77    1.22
   5  -5 -10   -0.79    1.04
  -5   5  10    0.62    1.25
  -4   5  10   34.06    2.47
   4  -5 -10   35.93    2.35
  -3   5  10   10.59    1.65
   3  -5 -10   15.15    1.68
   2  -5 -10    1.44    1.06
  -2   5  10    2.95    1.29
   1  -5 -10   -0.65    0.95
   1  -5 -10    0.43    1.08
  -1   5  10    0.37    1.08
   0   5  10    4.52    1.39
   0  -5 -10    5.12    1.26
   1   5  10   14.12    1.86
  -1  -5 -10   16.00    1.75
  -2  -5 -10    0.93    1.27
   3  -6 -10    2.65    1.24
  -3   6  10    2.74    1.41
  -2   6  10    2.93    1.30
   2  -6 -10    3.07    1.33
   1  -6 -10    5.13    1.34
   0  -6 -10    5.86    1.31
  -3 -12  11    3.34    1.42
  -2 -12  11   11.46    1.61
   2  12 -11   11.36    1.83
  -2 -12  11   11.10    1.55
   1  12 -11   30.24    2.41
  -1 -12  11   27.84    2.17
   0 -12  11   61.45    3.06
   0  12 -11   62.09    3.38
   1 -12  11   13.15    1.74
  -1  12 -11   10.87    1.77
   2 -12  11    0.23    1.09
  -2  12 -11   -0.82    1.33
  -3  12 -11    9.23    1.88
   3 -12  11    9.69    1.65
  -4  12 -11   28.65    2.68
  -4 -11  11   10.42    1.71
  -3 -11  11    2.35    1.27
  -3 -11  11    1.60    1.19
   3  11 -11    3.24    1.33
  -2 -11  11   -0.48    1.08
  -2 -11  11    0.70    1.11
   2  11 -11   -0.99    1.20
   1  11 -11    1.65    1.23
  -1 -11  11    0.74    1.06
   0  11 -11   11.09    1.70
   0 -11  11    7.44    1.42
  -1  11 -11   -0.05    1.18
   1 -11  11   -0.01    1.11
   2 -11  11   22.39    1.86
  -2  11 -11   19.95    2.08
  -3  11 -11   14.43    1.97
   3 -11  11   15.69    1.71
   4 -11  11    1.44    1.21
  -4  11 -11    0.68    1.46
   5 -11  11   -0.91    1.14
  -5  11 -11   -1.27    1.40
   5  10 -11    2.87    1.56
  -4 -10  11    8.36    1.53
   4  10 -11    9.03    1.71
   3  10 -11   25.81    2.19
  -3 -10  11   25.69    1.93
  -3 -10  11   25.33    1.91
   2  10 -11   34.05    2.43
  -2 -10  11   38.53    2.24
   2  10 -11   37.76    2.18
  -1 -10  11   55.62    2.67
   1  10 -11   55.18    2.86
   1  10 -11   54.86    2.50
   0  10 -11   15.68    1.41
   0  10 -11   15.02    1.69
   0 -10  11   15.32    1.50
   1 -10  11    2.54    1.12
  -1  10 -11    3.16    1.27
   2 -10  11   17.77    1.73
  -2  10 -11   19.54    1.94
  -3  10 -11   39.46    2.72
   3 -10  11   37.40    2.29
  -4  10 -11    8.55    1.58
   4 -10  11    6.98    1.40
   5 -10  11   10.07    1.51
  -5  10 -11    9.75    1.77
  -6  10 -11    4.70    1.60
  -5  -9  11   16.86    1.73
   5   9 -11   18.58    1.97
  -4  -9  11   21.85    1.71
   4   9 -11   19.82    1.94
  -4  -9  11   21.24    1.83
  -3  -9  11  119.19    4.11
   3   9 -11  122.84    4.24
   3   9 -11  128.76    4.61
   2   9 -11   45.23    2.58
   2   9 -11   43.25    2.20
  -2  -9  11   47.66    2.38
   1   9 -11    4.61    1.16
   1   9 -11    3.27    1.00
  -1  -9  11    4.00    1.11
   0   9 -11   42.05    2.43
   0   9 -11   43.11    2.08
   0  -9  11   44.31    2.22
  -1   9 -11   84.97    3.52
   1  -9  11   77.58    3.13
  -1   9 -11   82.75    2.94
   2  -9  11   68.25    2.92
  -2   9 -11   73.54    3.28
   3  -9  11   11.29    1.36
  -3   9 -11   10.86    1.61
  -4   9 -11    1.39    1.26
   4  -9  11    2.48    1.10
  -5   9 -11   29.10    2.26
   5  -9  11   24.17    1.92
  -6   9 -11   45.43    2.83
   6   8 -11    6.44    1.57
  -6  -8  11    6.65    1.41
  -5  -8  11    1.83    1.20
   5   8 -11    3.52    1.34
   4   8 -11    2.37    1.09
  -4  -8  11   -0.01    0.88
   4   8 -11    0.48    1.07
   3   8 -11   13.27    1.43
   3   8 -11   15.55    1.65
  -3  -8  11   13.21    1.41
   2   8 -11  104.70    3.85
  -2  -8  11  103.15    3.56
   2   8 -11  105.43    3.58
  -1  -8  11   -0.47    0.75
   1   8 -11    0.39    0.85
   1   8 -11   -0.15    0.79
   0  -8  11   11.49    1.28
   0   8 -11    9.56    1.32
   0   8 -11   11.05    1.19
  -1   8 -11    0.40    0.92
   1  -8  11    0.76    0.90
  -1   8 -11    0.70    0.82
  -2   8 -11    0.51    0.83
   2  -8  11   -0.39    0.83
  -2   8 -11    1.56    1.10
   3  -8  11    8.59    1.19
  -3   8 -11   10.29    1.49
   4  -8  11  101.99    3.68
  -4   8 -11  101.93    3.96
   5  -8  11   38.87    2.25
  -5   8 -11   43.89    2.58
  -6   8 -11   -1.69    1.17
  -7   8 -11    1.84    1.42
   7   7 -11   12.03    1.79
   6   7 -11   39.88    2.50
  -6  -7  11   35.27    2.24
   5   7 -11   61.93    2.93
  -5  -7  11   62.32    2.64
   5   7 -11   66.32    3.09
   4   7 -11  264.09    7.42
  -4  -7  11  262.20    7.03
   4   7 -11  249.22    7.12
   3   7 -11   68.17    2.88
   3   7 -11   65.31    2.71
  -3  -7  11   65.59    2.62
   2   7 -11   22.22    1.69
   2   7 -11   21.46    1.59
  -2  -7  11   21.89    1.60
  -1  -7  11   45.99    2.14
   1   7 -11   49.18    2.22
   1   7 -11   47.94    2.27
   0   7 -11   51.60    2.42
   0  -7  11   52.71    2.28
   0   7 -11   51.86    2.26
  -1   7 -11   12.33    1.36
  -1   7 -11    9.55    1.11
   1  -7  11    9.33    1.20
  -2   7 -11    0.54    0.78
   2  -7  11   -0.57    0.79
  -2   7 -11    2.24    1.04
  -3   7 -11   12.78    1.19
   3  -7  11   12.78    1.34
  -3   7 -11   12.38    1.46
   4  -7  11   35.12    2.03
  -4   7 -11   37.97    2.28
  -7  -6  11    1.23    1.11
   7   6 -11    0.02    1.20
   6   6 -11   40.42    2.41
   6   6 -11   37.67    2.38
   5   6 -11   45.88    2.46
   5   6 -11   43.14    2.39
  -5  -6  11   37.19    2.09
   4   6 -11    2.32    0.99
   4   6 -11    3.16    0.99
  -4  -6  11    2.53    0.97
   3   6 -11   18.27    1.45
  -3  -6  11   15.96    1.38
   3   6 -11   15.84    1.36
   2   6 -11   97.47    3.34
   2   6 -11   96.32    3.30
  -2  -6  11   98.42    3.35
  -1  -6  11   71.74    2.67
   1   6 -11   64.26    2.64
   1   6 -11   78.26    2.79
   0  -6  11   98.46    3.36
   0   6 -11  105.49    3.39
   1  -6  11    1.42    0.79
  -1   6 -11    2.68    0.88
  -2   6 -11  149.52    4.32
   2  -6  11  141.39    4.35
   3  -6  11  187.22    5.39
  -3   6 -11  190.83    5.28
   4  -6  11   31.57    1.89
  -4   6 -11   30.32    1.77
   7  -6  11    0.54    1.12
  -7  -5  11    2.42    1.16
  -6  -5  11    1.11    0.93
   6   5 -11    1.08    1.07
  -5  -5  11   30.91    1.87
   5   5 -11   30.10    2.00
   4   5 -11   -0.86    0.82
  -4  -5  11   -0.42    0.71
   3   5 -11    2.74    0.93
  -3  -5  11    2.86    0.86
  -2  -5  11    1.35    0.83
   2   5 -11    1.12    0.76
   1   5 -11   17.96    1.38
  -1  -5  11   15.81    1.32
   0  -5  11   18.48    1.39
   0   5 -11   20.24    1.42
   1  -5  11   10.68    1.14
  -1   5 -11    7.68    1.08
  -2   5 -11   49.19    2.17
   2  -5  11   45.43    2.11
  -3   5 -11    2.20    0.87
   3  -5  11    2.63    0.88
   4  -5  11    0.91    0.85
  -4   5 -11    1.44    0.88
  -5   5 -11    0.04    0.93
   5  -5  11   -0.10    0.86
   6  -5  11    2.24    1.06
   7  -5  11    2.80    1.24
  -8  -4  11    8.96    1.59
   7   4 -11   67.79    3.16
   6   4 -11   73.42    3.12
  -6  -4  11   74.63    2.91
   5   4 -11   75.24    3.04
  -5  -4  11   76.41    2.90
  -4  -4  11   94.65    3.27
   4   4 -11   99.33    3.40
  -3  -4  11  122.10    3.85
   3   4 -11  118.99    3.87
   2   4 -11  114.35    3.70
  -2  -4  11  115.62    3.69
   1   4 -11   18.48    1.41
  -1  -4  11   19.18    1.40
   0  -4  11   77.71    2.81
   0   4 -11   81.46    2.92
  -1   4 -11  207.18    5.71
   1  -4  11  206.51    5.69
   2  -4  11    0.99    0.77
  -2   4 -11    0.72    0.75
  -3   4 -11    5.46    0.98
   3  -4  11    7.72    0.99
   3  -4  11    8.30    1.07
  -4   4 -11    3.61    0.98
   4  -4  11    3.39    0.93
   5  -4  11    8.44    1.22
  -5   4 -11    8.13    1.21
   6  -4  11    2.56    1.09
  -6   4 -11    2.61    1.08
   7  -4  11    0.04    1.09
  -8  -3  11   10.12    1.60
   7   3 -11    9.31    1.49
   6   3 -11    0.15    0.95
  -6  -3  11    1.73    0.95
   5   3 -11   21.58    1.62
  -5  -3  11   20.59    1.52
   4   3 -11   38.34    2.02
  -4  -3  11   39.35    2.02
   3   3 -11   18.03    1.38
  -3  -3  11   20.62    1.44
  -2  -3  11   44.05    1.98
   2   3 -11   37.53    2.00
  -1  -3  11   51.57    2.17
   1   3 -11   51.10    2.19
   0  -3  11  105.30    3.40
   0   3 -11  100.53    3.38
   1  -3  11  173.15    4.63
   1  -3  11  171.54    4.90
  -1   3 -11  161.04    4.81
   2  -3  11   27.19    1.65
   2  -3  11   25.85    1.52
  -2   3 -11   27.56    1.71
   3  -3  11   17.10    1.33
  -3   3 -11   18.75    1.47
   3  -3  11   16.02    1.28
   4  -3  11   33.70    1.92
  -4   3 -11   31.03    1.80
   5  -3  11   19.04    1.58
  -5   3 -11   17.02    1.58
  -6   3 -11    2.14    1.06
   6  -3  11    1.68    1.12
   8   2 -11   41.17    2.67
  -7  -2  11   19.29    1.66
   7   2 -11   19.10    1.77
   6   2 -11    0.49    0.94
  -6  -2  11    0.42    0.93
   5   2 -11    0.77    0.79
  -5  -2  11    0.55    0.90
  -4  -2  11    7.86    1.07
   4   2 -11    7.08    1.11
  -3  -2  11   14.52    1.29
   3   2 -11   10.85    1.24
  -2  -2  11   13.03    1.19
   2   2 -11   14.84    1.28
   1   2 -11   19.64    1.48
  -1  -2  11   22.39    1.41
  -1  -2  11   18.74    1.41
   0   2 -11   17.05    1.39
   0  -2  11   18.59    1.31
   0  -2  11   17.95    1.36
   1  -2  11    2.09    0.84
   1  -2  11    1.78    0.79
  -1   2 -11    3.04    0.89
   2  -2  11    9.56    1.11
  -2   2 -11    9.20    1.18
   2  -2  11   11.26    1.16
   3  -2  11    0.47    0.78
  -3   2 -11    1.20    0.91
   4  -2  11    1.37    0.97
  -4   2 -11    0.04    0.91
  -5   2 -11    3.67    1.06
   5  -2  11    2.07    1.09
   6  -2  11    1.03    1.13
  -6   2 -11    2.87    1.22
  -7  -1  11    4.76    1.22
   7   1 -11    3.93    1.19
   6   1 -11  105.90    3.72
  -6  -1  11  102.03    3.70
   5   1 -11   99.26    3.47
  -5  -1  11   95.89    3.47
  -4  -1  11   31.11    1.87
   4   1 -11   31.67    1.89
  -3  -1  11   10.10    1.14
   3   1 -11   13.63    1.34
  -2  -1  11    8.42    1.13
  -2  -1  11    7.63    1.06
   2   1 -11    8.11    1.14
  -1  -1  11  124.70    3.95
   1   1 -11  122.76    3.90
  -1  -1  11  123.28    3.81
   0  -1  11   64.21    2.50
   0  -1  11   57.24    2.43
   0   1 -11   62.67    2.51
   1  -1  11    0.15    0.76
  -1   1 -11    1.36    0.89
   1  -1  11   -0.24    0.73
   2  -1  11    2.37    0.85
  -2   1 -11    1.07    0.92
   2  -1  11    0.52    0.89
  -3   1 -11   41.12    2.18
   3  -1  11   39.45    2.20
   4  -1  11    1.09    1.04
  -4   1 -11    2.07    1.08
   5  -1  11    0.44    1.08
  -5   1 -11    1.85    1.17
   6  -1  11    3.36    1.41
  -6   1 -11    2.89    1.27
  -8   0  11    0.06    1.16
  -7   0  11   48.84    2.60
   6   0 -11    9.92    1.33
   5   0 -11    3.70    1.06
   4   0 -11    0.16    0.87
  -4   0  11    0.36    0.84
  -3   0  11   44.79    2.20
   3   0 -11   45.87    2.21
   2   0 -11  186.50    5.41
  -2   0  11  190.97    5.45
  -2   0  11  188.39    5.35
  -1   0  11   59.91    2.49
  -1   0  11   56.35    2.38
   1   0 -11   55.03    2.39
   0   0  11   25.00    1.57
   0   0  11   20.48    1.56
   0   0 -11   21.23    1.59
  -1   0 -11   16.07    1.45
   1   0  11   15.02    1.42
   1   0  11   16.88    1.33
  -2   0 -11    6.53    1.22
   2   0  11    6.41    1.20
  -3   0 -11   80.22    3.20
   3   0  11   81.87    3.32
   4   0  11    2.50    1.24
  -4   0 -11    3.58    1.24
   5   0  11    4.94    1.39
  -5   0 -11    5.28    1.36
   7  -1 -11   12.65    1.59
   6  -1 -11   26.70    1.97
   5  -1 -11    9.90    1.40
  -5   1  11    9.21    1.33
   5  -1 -11   10.84    1.37
   4  -1 -11   16.82    1.51
  -4   1  11   17.99    1.57
   4  -1 -11   19.45    1.57
  -3   1  11    3.03    1.05
   3  -1 -11    3.35    1.02
   3  -1 -11    4.84    1.08
   2  -1 -11    7.96    1.18
  -2   1  11    7.97    1.20
   2  -1 -11    6.90    1.19
   1  -1 -11   -0.38    0.87
  -1   1  11    0.97    0.92
   0   1  11   15.72    1.40
   0   1  11   18.34    1.59
   0  -1 -11   17.36    1.53
   1   1  11   20.26    1.72
   1   1  11   23.93    1.66
  -1  -1 -11   23.95    1.69
   2   1  11    1.82    1.12
  -2  -1 -11    1.57    1.03
  -3  -1 -11   11.77    1.53
   3   1  11   10.16    1.46
   4   1  11    3.84    1.37
  -4  -1 -11    2.21    1.25
   7  -2 -11    6.46    1.46
  -6   2  11    1.69    1.15
   6  -2 -11   -0.41    1.10
   5  -2 -11    4.14    1.26
  -5   2  11    2.23    1.21
   4  -2 -11   11.66    1.37
  -4   2  11   12.16    1.49
   4  -2 -11    9.37    1.39
   3  -2 -11   42.62    2.32
  -3   2  11   43.23    2.38
   3  -2 -11   44.58    2.27
  -2   2  11    6.05    1.21
   2  -2 -11    5.95    1.14
   2  -2 -11    5.19    1.13
   1  -2 -11    1.63    0.97
  -1   2  11    0.46    0.96
   1  -2 -11    1.06    0.92
   0   2  11    6.66    1.21
   0  -2 -11    6.02    1.11
  -1  -2 -11   41.29    2.25
   1   2  11   41.79    2.14
   1   2  11   37.89    2.41
  -2  -2 -11    4.95    1.27
   2   2  11    5.16    1.29
   3   2  11   16.48    1.90
  -3  -2 -11   13.50    1.69
  -7   3  11    0.73    1.25
   6  -3 -11   11.54    1.64
  -6   3  11   11.50    1.64
   5  -3 -11   52.12    2.71
  -5   3  11   49.33    2.77
  -4   3  11   23.83    1.97
   4  -3 -11   22.88    1.88
  -3   3  11   -1.47    0.86
   3  -3 -11   -0.73    0.90
   3  -3 -11   -0.04    0.93
  -2   3  11    7.61    1.36
   2  -3 -11    7.84    1.35
   2  -3 -11    6.98    1.17
   1  -3 -11   16.99    1.58
  -1   3  11   15.85    1.67
   1  -3 -11   15.62    1.57
   0  -3 -11    0.63    1.00
   0   3  11   -0.28    1.04
   0  -3 -11   -0.41    0.88
  -1  -3 -11    0.64    1.10
   1   3  11    1.55    1.12
   2   3  11    0.67    1.14
  -2  -3 -11    1.63    1.24
  -6   4  11    0.34    1.25
   5  -4 -11   12.59    1.69
  -5   4  11    9.76    1.62
  -4   4  11    4.52    1.37
   4  -4 -11    4.28    1.28
  -3   4  11   -0.27    1.09
   3  -4 -11    0.25    1.14
   2  -4 -11    1.62    1.18
   2  -4 -11    2.28    1.10
  -2   4  11    0.28    1.14
   1  -4 -11    0.76    1.06
   1  -4 -11    0.09    1.09
  -1   4  11   -0.55    1.11
   0   4  11   -0.19    1.13
   0  -4 -11    0.16    1.07
   1   4  11    9.52    1.61
  -1  -4 -11   12.58    1.59
  -4   5  11    4.30    1.50
  -3   5  11   10.87    1.67
   3  -5 -11    7.33    1.53
  -2   5  11    3.60    1.40
   2  -5 -11    3.20    1.36
   1  -5 -11    4.35    1.34
   1  -5 -11    4.86    1.29
   0  -5 -11   -1.48    1.06
  -2 -12  12   23.49    1.97
  -2 -12  12   20.57    1.96
   1  12 -12    4.15    1.48
  -1 -12  12    5.70    1.49
   0 -12  12   14.46    1.77
   0  12 -12   10.74    1.78
  -1  12 -12   69.42    3.60
   1 -12  12   66.08    3.27
   2 -12  12   37.92    2.64
  -2  12 -12   44.28    2.99
  -3  12 -12    6.30    1.74
  -3 -11  12    2.39    1.24
  -3 -11  12    0.13    1.26
   3  11 -12   -1.62    1.25
  -2 -11  12    2.26    1.26
   2  11 -12    4.55    1.40
   1  11 -12    8.08    1.44
   1  11 -12    7.33    1.33
  -1 -11  12    5.86    1.41
   0 -11  12   14.20    1.64
   0  11 -12   19.95    2.04
   1 -11  12    4.14    1.34
  -1  11 -12    4.07    1.39
  -2  11 -12   17.42    1.92
   2 -11  12   19.39    1.81
   3 -11  12    4.43    1.41
  -3  11 -12    4.88    1.60
  -4  11 -12   13.34    2.05
   4 -11  12   10.45    1.56
  -4 -10  12   50.28    2.78
  -4 -10  12   49.66    2.58
   4  10 -12   45.82    2.91
   3  10 -12   41.83    2.78
  -3 -10  12   49.11    2.54
   3  10 -12   44.62    2.54
   2  10 -12    0.35    1.03
  -2 -10  12    0.55    0.98
   2  10 -12   -0.03    1.13
   1  10 -12   33.52    2.30
   1  10 -12   29.85    2.01
  -1 -10  12   29.09    2.10
   0 -10  12  116.71    4.16
   0  10 -12  124.38    4.57
   0  10 -12  118.51    3.98
   1 -10  12    2.99    1.22
  -1  10 -12    1.15    1.16
   2 -10  12   12.69    1.51
  -2  10 -12    9.84    1.60
  -3  10 -12    5.73    1.56
   3 -10  12    8.00    1.41
  -4  10 -12    4.11    1.51
   4 -10  12    4.27    1.33
  -5  10 -12    2.36    1.53
   5 -10  12    1.45    1.21
  -5  -9  12   17.50    1.90
   5   9 -12   18.35    2.02
  -4  -9  12    1.95    1.09
   4   9 -12    2.24    1.16
   4   9 -12    1.39    1.18
   3   9 -12   13.90    1.70
  -3  -9  12   15.58    1.55
   3   9 -12   12.57    1.52
  -2  -9  12  138.19    4.46
   2   9 -12  134.02    4.71
   2   9 -12  138.80    4.52
   1   9 -12  106.60    3.74
   1   9 -12  108.02    4.01
  -1  -9  12  107.63    3.83
   0   9 -12    5.67    1.12
   0   9 -12    7.83    1.34
   0  -9  12    6.62    1.25
  -1   9 -12    0.62    0.90
  -1   9 -12    1.63    1.10
   1  -9  12    1.37    0.99
   2  -9  12   21.39    1.77
  -2   9 -12   20.68    1.91
  -3   9 -12   56.15    3.03
   3  -9  12   49.93    2.50
   4  -9  12   18.12    1.72
  -4   9 -12   18.81    1.97
   5  -9  12    0.82    1.11
  -5   9 -12    0.33    1.32
   6   8 -12    3.51    1.43
   5   8 -12    6.46    1.52
  -5  -8  12    7.93    1.32
   5   8 -12    7.56    1.46
   4   8 -12   -1.08    0.87
  -4  -8  12   -0.81    0.83
   4   8 -12    1.10    1.07
   3   8 -12   32.20    2.15
  -3  -8  12   26.62    1.92
   3   8 -12   29.12    2.00
  -2  -8  12   -0.41    0.96
   2   8 -12   -0.28    0.93
   2   8 -12    1.31    1.04
   1   8 -12    5.41    1.14
  -1  -8  12    4.54    1.07
   1   8 -12    4.49    1.09
   0   8 -12    0.86    0.92
   0   8 -12    2.40    0.94
   0  -8  12    0.72    0.91
  -1   8 -12   16.51    1.42
  -1   8 -12   17.68    1.63
   1  -8  12   14.11    1.45
  -2   8 -12   66.80    3.09
   2  -8  12   59.39    2.75
  -2   8 -12   67.77    2.64
   3  -8  12    2.82    1.08
   4  -8  12    4.88    1.19
  -5  -7  12    5.25    1.17
   5   7 -12    5.59    1.26
   4   7 -12   10.55    1.35
  -4  -7  12    6.30    1.21
   3   7 -12  113.08    3.88
  -3  -7  12  110.04    3.83
  -2  -7  12   65.79    2.76
   2   7 -12   64.45    2.76
   1   7 -12   45.41    2.24
  -1  -7  12   45.40    2.18
   0  -7  12   16.67    1.41
   0   7 -12   16.07    1.35
  -1   7 -12   12.87    1.26
   1  -7  12   11.76    1.32
   2  -7  12   37.25    2.07
  -2   7 -12   36.06    1.95
  -3   7 -12   -0.04    0.86
   3  -7  12    0.55    0.95
   4  -7  12    1.64    1.01
   6   6 -12    2.93    1.31
  -5  -6  12   46.09    2.33
   5   6 -12   42.25    2.41
   4   6 -12  132.56    4.41
  -4  -6  12  130.91    4.22
  -3  -6  12  115.15    3.78
   3   6 -12  108.94    3.80
  -2  -6  12    9.05    1.16
   2   6 -12    9.41    1.24
   1   6 -12   42.60    2.12
  -1  -6  12   37.62    2.03
   0  -6  12   66.63    2.67
   0   6 -12   66.58    2.65
  -1   6 -12   23.67    1.69
   1  -6  12   24.39    1.60
   2  -6  12   29.76    1.87
  -2   6 -12   34.13    1.94
  -3   6 -12   21.67    1.57
   3  -6  12   17.99    1.54
  -4   6 -12   10.14    1.25
   4  -6  12    6.64    1.18
   7   5 -12   12.72    1.71
  -6  -5  12   -0.07    0.99
   6   5 -12    1.42    1.17
  -5  -5  12    3.67    1.10
   5   5 -12    2.17    1.10
   4   5 -12    4.56    1.07
  -4  -5  12    5.12    1.11
   3   5 -12    1.38    0.94
  -3  -5  12    1.27    0.93
  -2  -5  12    0.54    0.79
   2   5 -12    0.67    0.83
   1   5 -12   20.97    1.58
  -1  -5  12   21.06    1.55
   0   5 -12   37.83    2.06
   0  -5  12   42.22    2.11
  -1   5 -12   52.92    2.38
   1  -5  12   49.01    2.22
  -2   5 -12   12.05    1.31
   2  -5  12   10.45    1.24
   3  -5  12   32.04    1.90
  -3   5 -12   33.53    1.96
  -4   5 -12   26.10    1.80
  -5   5 -12    4.50    1.14
   7   4 -12    6.49    1.46
   6   4 -12   52.64    2.70
  -6  -4  12   50.74    2.50
   5   4 -12   61.38    2.80
  -5  -4  12   60.31    2.59
   4   4 -12   32.81    1.93
  -4  -4  12   32.31    1.94
  -3  -4  12   20.61    1.53
   3   4 -12   22.89    1.69
  -2  -4  12   57.57    2.49
   2   4 -12   58.19    2.56
  -1  -4  12    2.34    0.89
   1   4 -12    3.33    0.95
   0  -4  12   36.21    2.00
   0   4 -12   38.51    2.00
   1  -4  12    3.89    0.96
  -1   4 -12    1.74    0.97
  -2   4 -12    1.74    0.89
   2  -4  12    0.96    0.87
   3  -4  12   19.90    1.51
  -3   4 -12   18.27    1.57
   4  -4  12   18.99    1.52
  -4   4 -12   18.91    1.65
   5  -4  12    9.14    1.33
  -5   4 -12    9.05    1.34
   6  -4  12   -0.39    1.05
  -6   4 -12    1.23    1.09
   7   3 -12   37.42    2.35
  -7  -3  12   37.61    2.24
  -6  -3  12   48.82    2.48
   6   3 -12   53.44    2.68
  -5  -3  12    1.27    0.92
   5   3 -12    1.64    1.00
   4   3 -12   36.14    2.01
  -4  -3  12   37.09    2.08
  -3  -3  12   35.70    2.02
   3   3 -12   40.99    2.15
   2   3 -12   82.87    3.12
  -2  -3  12   86.58    3.14
  -1  -3  12   74.91    2.89
   1   3 -12   81.85    3.05
   0   3 -12    0.22    0.86
   0  -3  12    0.31    0.78
  -1   3 -12   11.30    1.24
   1  -3  12    9.41    1.15
   2  -3  12  179.76    5.19
  -2   3 -12  180.71    5.26
   2  -3  12  172.20    4.96
   3  -3  12   23.61    1.66
  -3   3 -12   18.73    1.62
   4  -3  12    4.89    1.13
  -4   3 -12    5.01    1.12
   5  -3  12    2.68    1.13
  -5   3 -12    1.89    1.12
   6  -3  12   -0.45    1.08
  -6   3 -12    0.29    1.15
  -7  -2  12   23.86    1.87
   7   2 -12   22.94    1.98
   6   2 -12   13.73    1.56
  -6  -2  12   14.52    1.53
  -5  -2  12   -0.38    0.92
   5   2 -12    0.74    0.89
   4   2 -12    4.62    1.10
  -4  -2  12    3.37    0.99
  -3  -2  12    1.84    0.88
   3   2 -12    1.51    0.98
  -2  -2  12    5.07    1.07
   2   2 -12    4.16    1.00
   1   2 -12    2.73    1.04
  -1  -2  12    1.96    0.89
   0   2 -12   89.07    3.33
   0  -2  12   93.69    3.28
   1  -2  12   58.82    2.48
  -1   2 -12   51.17    2.47
   1  -2  12   57.33    2.37
   2  -2  12   66.30    2.67
   2  -2  12   62.34    2.62
  -2   2 -12   62.83    2.77
  -3   2 -12    0.91    1.00
   3  -2  12    1.41    1.00
  -4   2 -12    1.70    1.05
   4  -2  12    2.25    1.09
   5  -2  12   20.52    1.86
  -5   2 -12   23.61    1.93
  -7  -1  12   11.34    1.59
   6   1 -12    1.09    1.03
  -6  -1  12    0.99    1.08
  -5  -1  12   18.49    1.67
   5   1 -12   19.39    1.65
  -4  -1  12   30.96    1.91
   4   1 -12   32.82    2.03
  -3  -1  12   50.66    2.42
   3   1 -12   51.01    2.39
  -2  -1  12    0.03    0.91
   2   1 -12    0.86    0.88
  -1  -1  12   22.61    1.71
  -1  -1  12   26.29    1.66
   1   1 -12   22.28    1.70
   0   1 -12   19.89    1.57
   0  -1  12   20.85    1.54
   0  -1  12   17.57    1.45
  -1   1 -12   53.39    2.52
   1  -1  12   54.97    2.52
   1  -1  12   54.14    2.42
  -2   1 -12    1.39    1.03
   2  -1  12    2.23    1.03
  -3   1 -12    0.66    1.05
   3  -1  12    0.36    1.00
   4  -1  12    5.56    1.27
  -4   1 -12    7.23    1.40
   5  -1  12    1.40    1.23
  -5   1 -12    0.64    1.19
  -7   0  12    3.15    1.29
   6   0 -12   24.21    1.93
  -6   0  12   25.12    1.96
   5   0 -12   66.57    2.89
  -5   0  12   59.87    2.78
   4   0 -12   57.41    2.67
  -4   0  12   52.18    2.52
  -3   0  12    8.21    1.20
   3   0 -12    7.00    1.24
   2   0 -12    3.53    1.03
  -2   0  12    4.08    1.09
  -2   0  12    1.25    0.94
  -1   0  12   42.06    2.19
  -1   0  12   38.35    2.08
   1   0 -12   36.27    2.05
   0   0  12   90.03    3.31
   0   0 -12   89.28    3.33
   0   0  12   87.88    3.35
   1   0  12   10.62    1.29
   1   0  12    8.79    1.26
  -1   0 -12   12.29    1.48
  -2   0 -12    0.37    0.93
   2   0  12    0.18    0.92
   3   0  12    7.29    1.41
  -3   0 -12    7.18    1.43
  -4   0 -12   13.95    1.67
   4   0  12   14.37    1.77
   6  -1 -12    2.36    1.26
   5  -1 -12    0.90    1.17
   5  -1 -12    0.19    1.00
   4  -1 -12   12.51    1.47
  -4   1  12   10.51    1.40
   4  -1 -12   13.66    1.57
  -3   1  12   -0.31    0.91
   3  -1 -12   -0.68    0.92
   3  -1 -12   -0.11    0.94
  -2   1  12   17.08    1.58
   2  -1 -12   15.74    1.53
   1  -1 -12    1.58    0.99
  -1   1  12   -0.55    0.92
  -1   1  12   -0.70    0.94
   0  -1 -12   -0.21    1.00
   0   1  12    0.96    1.05
   0   1  12   -1.56    0.87
  -1  -1 -12    1.85    1.05
   1   1  12    1.04    0.95
   1   1  12   -0.07    1.02
  -2  -1 -12    1.58    1.19
   2   1  12    1.52    1.20
   3   1  12   -1.04    1.14
  -3  -1 -12   -0.10    1.02
   6  -2 -12   33.45    2.37
   5  -2 -12   24.91    2.01
  -5   2  12   27.88    2.07
  -4   2  12    0.03    1.06
   4  -2 -12    0.34    1.04
   4  -2 -12   -1.51    0.91
   3  -2 -12   -0.16    1.00
  -3   2  12    2.33    1.18
   3  -2 -12    1.80    1.19
   2  -2 -12   18.97    1.67
  -2   2  12   18.02    1.75
   2  -2 -12   19.66    1.70
  -1   2  12    4.43    1.24
   1  -2 -12    3.87    1.18
   0   2  12    3.75    1.14
   0  -2 -12    5.13    1.26
   0   2  12    4.23    1.25
   1   2  12    8.49    1.43
  -1  -2 -12    9.96    1.51
   2   2  12   -0.58    1.19
  -2  -2 -12   -0.12    1.17
  -5   3  12    1.91    1.28
   4  -3 -12   23.44    2.02
  -4   3  12   24.18    2.09
   3  -3 -12   12.90    1.65
   3  -3 -12   14.37    1.60
  -3   3  12   10.19    1.59
   2  -3 -12    5.60    1.28
   2  -3 -12    2.43    1.25
  -2   3  12    3.27    1.28
  -1   3  12    2.54    1.24
   1  -3 -12    2.20    1.21
   1  -3 -12    3.76    1.23
   0   3  12    6.16    1.47
   0  -3 -12    8.41    1.44
   1   3  12   14.47    1.81
  -1  -3 -12   17.63    1.81
  -4   4  12   -0.82    1.24
   3  -4 -12    4.92    1.46
  -3   4  12    5.50    1.49
   2  -4 -12    0.41    1.23
   2  -4 -12    0.50    1.07
  -2   4  12    0.03    1.20
   1  -4 -12   12.06    1.63
   1  -4 -12   13.19    1.61
   0  12 -13    0.59    1.33
  -1  12 -13    3.78    1.52
  -2  12 -13   19.27    2.08
  -3 -11  13    6.59    1.49
   2  11 -13    4.47    1.48
  -2 -11  13    5.72    1.34
   2  11 -13    5.57    1.42
   1  11 -13    1.39    1.17
   1  11 -13    1.66    1.27
  -1 -11  13    3.08    1.22
   0 -11  13    8.87    1.48
   0  11 -13    9.26    1.63
   1 -11  13   47.48    2.65
  -1  11 -13   44.50    2.82
   2 -11  13    6.18    1.53
  -2  11 -13   10.65    1.73
  -3  11 -13    2.33    1.47
   4  10 -13    0.56    1.23
  -4 -10  13    0.83    1.19
   3  10 -13   22.86    2.11
  -3 -10  13   26.87    2.04
   3  10 -13   27.33    2.06
   2  10 -13   26.85    1.98
   2  10 -13   20.79    1.95
  -2 -10  13   21.89    1.87
   1  10 -13    2.59    1.14
  -1 -10  13    0.37    1.05
   1  10 -13    0.06    1.09
   0  10 -13   10.03    1.41
   0  10 -13    7.26    1.48
   0 -10  13   10.22    1.52
  -1  10 -13   12.38    1.74
   1 -10  13   16.18    1.74
  -2  10 -13   33.63    2.49
   2 -10  13   37.71    2.39
   3 -10  13    6.07    1.35
   4 -10  13   18.85    1.90
   4   9 -13   66.90    3.21
  -4  -9  13   67.45    3.04
  -3  -9  13   19.90    1.80
   3   9 -13   21.21    1.87
   2   9 -13    2.68    1.17
  -2  -9  13    1.42    1.01
   1   9 -13   24.55    1.84
  -1  -9  13   23.14    1.86
   0   9 -13  113.63    3.87
   0  -9  13  103.39    3.84
  -1   9 -13   68.82    2.85
   1  -9  13   66.27    3.05
   2  -9  13    2.22    1.11
   3  -9  13    0.50    1.13
   4  -9  13    3.16    1.26
   5   8 -13    3.86    1.35
  -5  -8  13    1.51    1.16
   4   8 -13    0.88    1.13
  -4  -8  13    1.39    1.13
  -3  -8  13    0.65    1.04
   3   8 -13   -0.50    0.90
   2   8 -13   52.23    2.58
  -2  -8  13   52.38    2.52
   1   8 -13   72.91    2.98
  -1  -8  13   64.22    2.85
   0  -8  13   12.03    1.48
   0   8 -13   14.14    1.46
   1  -8  13    1.77    1.11
  -1   8 -13    1.57    0.99
  -2   8 -13    0.30    0.95
   2  -8  13    0.50    0.92
   3  -8  13   16.84    1.66
   4  -8  13   20.12    1.78
   5   7 -13   53.90    2.84
  -5  -7  13   51.27    2.61
   4   7 -13    9.90    1.40
  -4  -7  13    5.43    1.26
  -3  -7  13    1.84    1.08
   3   7 -13    1.27    1.08
  -2  -7  13    4.08    1.10
   2   7 -13    4.59    1.14
  -1  -7  13   60.27    2.71
   1   7 -13   60.22    2.70
   0   7 -13   27.40    1.88
   0  -7  13   27.54    1.91
   1  -7  13    2.24    1.06
  -1   7 -13    3.46    1.10
  -2   7 -13   22.17    1.60
   2  -7  13   15.57    1.56
   3  -7  13    2.73    1.08
  -3   7 -13    1.96    1.04
   4  -7  13   23.05    1.80
   6   6 -13   18.76    1.94
  -6  -6  13   16.47    1.67
  -5  -6  13    7.19    1.26
   5   6 -13    6.11    1.39
   4   6 -13    8.17    1.34
  -4  -6  13   11.83    1.36
  -3  -6  13  137.47    4.48
   3   6 -13  140.86    4.61
   2   6 -13  143.54    4.55
  -2  -6  13  139.78    4.52
  -1  -6  13   47.03    2.40
   1   6 -13   49.49    2.36
   0  -6  13    6.61    1.13
   0   6 -13    4.33    1.07
  -1   6 -13    4.15    1.06
   1  -6  13    4.93    1.12
  -2   6 -13  141.96    4.55
   2  -6  13  141.31    4.54
   3  -6  13   30.34    2.02
  -3   6 -13   31.59    2.03
  -4   6 -13   10.22    1.38
  -6  -5  13    9.24    1.42
   6   5 -13    8.07    1.43
  -5  -5  13    5.46    1.26
   5   5 -13    3.57    1.24
  -4  -5  13   21.23    1.77
   4   5 -13   25.31    1.92
   3   5 -13    3.71    1.08
  -3  -5  13    0.59    0.97
   2   5 -13    6.41    1.15
  -2  -5  13    5.38    1.17
   1   5 -13    2.69    1.07
  -1  -5  13   -0.32    0.94
   0  -5  13   38.14    2.15
   0   5 -13   38.13    2.09
   1  -5  13   64.83    2.71
  -1   5 -13   70.11    2.84
  -2   5 -13    2.31    1.08
   2  -5  13    0.80    0.97
  -3   5 -13    3.17    1.12
   3  -5  13    3.25    1.08
  -4   5 -13   84.24    3.28
  -5   5 -13   34.62    2.24
  -6  -4  13    8.15    1.41
   6   4 -13    8.72    1.45
  -5  -4  13   17.88    1.60
   5   4 -13   16.10    1.67
   4   4 -13   65.75    2.93
  -4  -4  13   66.80    2.89
  -3  -4  13    7.33    1.24
   3   4 -13    7.75    1.31
   2   4 -13   14.18    1.45
  -2  -4  13   13.04    1.35
  -1  -4  13    5.59    1.20
   1   4 -13    4.52    1.08
   0  -4  13   10.64    1.35
   0   4 -13   10.43    1.38
   1  -4  13   19.58    1.59
  -1   4 -13   16.34    1.58
   2  -4  13   23.81    1.75
  -2   4 -13   21.44    1.73
  -3   4 -13   29.07    1.90
  -4   4 -13    1.01    0.99
  -5   4 -13    8.57    1.45
   7   3 -13    1.05    1.22
  -7  -3  13    1.21    1.19
  -6  -3  13   57.43    2.78
   6   3 -13   58.20    2.94
  -5  -3  13   41.84    2.37
   5   3 -13   45.90    2.40
  -4  -3  13   14.16    1.50
   4   3 -13   13.69    1.52
   3   3 -13   24.20    1.77
  -3  -3  13   21.19    1.70
  -2  -3  13   20.86    1.66
   2   3 -13   19.50    1.61
  -1  -3  13  164.15    5.03
   1   3 -13  165.94    5.07
   0  -3  13   38.00    2.13
   0   3 -13   39.06    2.24
  -1   3 -13    2.56    1.10
   1  -3  13    1.20    0.99
  -2   3 -13    3.26    1.05
   2  -3  13    1.91    1.03
  -3   3 -13   30.26    2.07
   4  -3  13   45.73    2.44
  -4   3 -13   46.20    2.45
   5  -3  13    1.39    1.13
  -5   3 -13    2.47    1.26
  -7  -2  13    2.94    1.31
   7   2 -13    1.99    1.26
  -6  -2  13   -0.08    1.11
   6   2 -13    0.77    1.06
  -5  -2  13    1.80    1.16
   5   2 -13   -1.01    0.97
  -4  -2  13   -1.00    0.97
   4   2 -13    2.01    1.08
  -3  -2  13   16.78    1.58
   3   2 -13   15.22    1.62
  -2  -2  13   23.18    1.73
   2   2 -13   23.98    1.77
  -1  -2  13   10.26    1.35
   1   2 -13    9.46    1.31
   0   2 -13    6.34    1.20
   0  -2  13    8.52    1.26
  -1   2 -13    5.12    1.19
   1  -2  13    8.24    1.27
  -2   2 -13   30.48    2.13
   2  -2  13   41.72    2.21
   2  -2  13   38.03    2.24
  -3   2 -13    6.53    1.36
   3  -2  13    8.64    1.35
  -4   2 -13    0.42    1.12
   4  -2  13    0.96    1.10
  -6  -1  13   29.53    2.19
   6   1 -13   25.81    2.03
  -5  -1  13    4.36    1.20
   5   1 -13    5.14    1.18
  -4  -1  13    1.94    1.14
   4   1 -13    0.19    1.03
   3   1 -13    1.02    1.00
  -3  -1  13    2.25    1.12
   2   1 -13   83.85    3.33
  -2  -1  13   77.97    3.14
  -1  -1  13   14.07    1.49
   1   1 -13   15.76    1.53
   0  -1  13   11.05    1.33
   0  -1  13   10.66    1.33
   0   1 -13   11.16    1.38
   1  -1  13    9.62    1.31
   1  -1  13    9.22    1.33
  -1   1 -13    8.06    1.41
   2  -1  13    1.50    1.11
  -2   1 -13    2.31    1.09
   3  -1  13   -0.91    1.05
  -3   1 -13    0.62    1.15
   4  -1  13   -0.47    1.08
  -6   0  13    2.28    1.31
   5   0 -13    0.98    1.10
  -5   0  13    1.18    1.08
   4   0 -13   40.23    2.43
  -4   0  13   37.14    2.32
  -3   0  13   52.75    2.67
   3   0 -13   52.29    2.67
  -2   0  13    7.95    1.35
   2   0 -13    7.45    1.36
  -1   0  13   -0.41    0.90
  -1   0  13    1.48    1.06
   1   0 -13    2.06    1.08
   0   0  13    9.59    1.37
   0   0  13   10.47    1.39
   0   0 -13    6.70    1.24
  -1   0 -13   12.78    1.59
   1   0  13   13.08    1.54
   1   0  13   14.74    1.58
  -2   0 -13   12.17    1.52
   2   0  13   15.65    1.74
   3   0  13    0.67    1.11
  -5   1  13   13.29    1.71
  -4   1  13    8.14    1.40
   4  -1 -13    9.90    1.49
   3  -1 -13    2.00    1.07
  -3   1  13   -1.14    1.08
  -3   1  13   -0.50    1.03
  -2   1  13   11.93    1.54
   2  -1 -13   11.88    1.44
  -2   1  13    9.24    1.40
   1  -1 -13    7.23    1.30
  -1   1  13    9.59    1.43
  -1   1  13    8.49    1.38
   0   1  13    0.87    1.09
   0  -1 -13    2.74    1.24
   0   1  13    3.22    1.24
  -1  -1 -13    2.50    1.30
   1   1  13    1.44    1.19
   2   1  13    5.67    1.39
  -4   2  13    1.68    1.19
  -3   2  13    0.72    1.13
   3  -2 -13    1.95    1.29
   3  -2 -13    0.87    1.16
   2  -2 -13    1.14    1.03
  -2   2  13    1.07    1.15
   1  -2 -13    0.75    1.15
  -1   2  13    2.49    1.10
  -1   2  13    3.94    1.26
   0   2  13   12.56    1.70
   0  -2 -13    9.81    1.55
   0   2  13    9.25    1.50
   1   2  13   -0.12    1.13
  -3   3  13    5.28    1.45
   2  -3 -13    8.80    1.48
  -2   3  13    3.91    1.30
  -1   3  13    0.97    1.23
   1  11 -14   12.70    1.65
  -2 -10  14    4.44    1.43
   2  10 -14    2.67    1.31
  -1 -10  14    7.07    1.43
   1  10 -14    5.96    1.37
   0  10 -14    2.76    1.16
   0 -10  14    2.25    1.32
   1 -10  14    9.96    1.64
   2 -10  14    1.32    1.17
  -4  -9  14   11.60    1.59
   3   9 -14   47.66    2.73
  -3  -9  14   53.37    2.70
  -2  -9  14   50.00    2.71
   2   9 -14   51.95    2.73
  -1  -9  14    7.70    1.45
   1   9 -14    8.65    1.45
   0   9 -14    2.19    1.16
   0  -9  14    1.81    1.11
  -1   9 -14   74.21    3.08
   1  -9  14   69.82    3.24
   2  -9  14   50.35    2.76
   3  -9  14   14.27    1.62
   4  -9  14   15.90    1.80
   4   8 -14   12.55    1.70
  -4  -8  14   14.53    1.67
  -3  -8  14    2.24    1.20
   3   8 -14    2.57    1.18
   2   8 -14    0.22    1.08
  -2  -8  14   -1.05    1.06
  -1  -8  14   25.69    1.89
   1   8 -14   19.83    1.80
   0   8 -14   25.79    1.94
   0  -8  14   25.05    1.89
  -1   8 -14   35.14    2.18
   1  -8  14   31.11    2.20
   2  -8  14   -1.44    1.01
  -2   8 -14   -0.50    1.04
   3  -8  14    1.07    1.13
   4  -8  14   33.08    2.31
  -5  -7  14    5.81    1.38
  -4  -7  14   33.96    2.25
   4   7 -14   28.03    2.18
   3   7 -14   15.96    1.71
  -3  -7  14   13.56    1.50
   2   7 -14    4.07    1.24
  -2  -7  14    2.69    1.10
   1   7 -14    1.80    1.17
  -1  -7  14   -1.06    1.02
   0   7 -14    9.44    1.34
   0  -7  14   14.84    1.59
   1  -7  14    3.77    1.20
  -1   7 -14    2.09    1.13
  -2   7 -14    1.70    1.04
   2  -7  14    0.67    1.08
  -3   7 -14   49.43    2.54
   3  -7  14   48.45    2.57
   5   6 -14   47.34    2.81
  -5  -6  14   47.41    2.63
   4   6 -14   17.01    1.77
  -4  -6  14   16.99    1.63
  -3  -6  14    3.90    1.21
   3   6 -14    3.82    1.25
   2   6 -14   24.23    1.87
  -2  -6  14   23.79    1.87
  -1  -6  14   28.79    2.04
   1   6 -14   27.72    2.02
   0  -6  14   29.75    1.96
   0   6 -14   32.89    2.12
   1  -6  14    2.15    1.13
  -1   6 -14    2.58    1.18
  -2   6 -14    1.94    1.06
   2  -6  14    1.38    1.10
   3  -6  14   38.49    2.31
  -3   6 -14   37.98    2.33
  -4   6 -14    9.91    1.52
  -6  -5  14   17.74    1.80
   5   5 -14    1.48    1.20
  -5  -5  14    0.62    1.14
  -4  -5  14    7.12    1.38
   4   5 -14    7.76    1.36
   3   5 -14   31.56    2.18
  -3  -5  14   27.79    1.97
  -2  -5  14   54.97    2.71
   2   5 -14   58.14    2.78
  -1  -5  14   15.53    1.61
   1   5 -14   13.65    1.50
   0   5 -14    1.89    1.14
   0  -5  14    1.85    1.01
   1  -5  14   25.74    1.90
  -1   5 -14   32.63    2.05
  -2   5 -14   29.93    2.13
   2  -5  14   26.55    1.97
  -3   5 -14    0.19    1.11
  -4   5 -14    6.46    1.37
  -6  -4  14   32.47    2.27
   5   4 -14    8.11    1.49
  -5  -4  14    9.27    1.49
  -4  -4  14    0.61    1.08
   4   4 -14   -0.91    0.96
   3   4 -14   15.83    1.62
  -3  -4  14   13.92    1.60
   2   4 -14   41.55    2.46
  -2  -4  14   44.38    2.44
   1   4 -14   12.47    1.48
  -1  -4  14   18.74    1.72
   0  -4  14   23.23    1.84
   0   4 -14   26.54    1.95
   1  -4  14    4.30    1.21
  -1   4 -14    4.70    1.21
  -2   4 -14   20.51    1.73
   2  -4  14   19.61    1.68
  -3   4 -14    0.16    1.01
  -4   4 -14   33.11    2.31
  -6  -3  14    2.13    1.29
   5   3 -14    3.50    1.33
  -5  -3  14    5.67    1.28
   4   3 -14   42.79    2.46
  -4  -3  14   45.25    2.40
  -3  -3  14   62.64    2.84
   3   3 -14   64.66    3.01
   2   3 -14   -0.90    1.03
  -2  -3  14    1.63    1.15
  -1  -3  14    2.95    1.16
   1   3 -14    3.19    1.14
   0  -3  14   35.24    2.26
   0   3 -14   36.19    2.21
   1  -3  14   61.67    2.84
  -1   3 -14   58.40    2.86
  -2   3 -14    0.94    1.05
   2  -3  14    1.21    1.05
  -3   3 -14    7.90    1.48
   6   2 -14    1.51    1.25
   5   2 -14   46.73    2.66
  -5  -2  14   44.55    2.60
  -4  -2  14    4.33    1.29
   4   2 -14    2.33    1.19
   3   2 -14    0.24    1.04
  -3  -2  14    2.02    1.10
   2   2 -14    9.02    1.42
  -2  -2  14   10.59    1.48
  -1  -2  14   57.09    2.74
   1   2 -14   53.13    2.76
   0  -2  14   16.24    1.66
   0   2 -14   14.60    1.59
   1  -2  14    0.98    1.08
  -1   2 -14   -1.01    1.04
  -2   2 -14    1.54    1.21
   5   1 -14   13.13    1.65
  -4  -1  14    5.41    1.35
   4   1 -14    7.06    1.43
   3   1 -14    7.64    1.46
  -3  -1  14    7.58    1.34
  -2  -1  14   14.95    1.66
   2   1 -14   13.11    1.63
  -1  -1  14    4.51    1.30
   1   1 -14    5.82    1.40
   0  -1  14    4.84    1.29
   0   1 -14    3.36    1.18
   1  -1  14   -0.12    1.08
  -1   1 -14    1.07    1.18
   2  -1  14    2.82    1.27
   5   0 -14    3.01    1.30
   4   0 -14    3.10    1.34
   3   0 -14    7.86    1.50
  -3   0  14    4.59    1.37
  -2   0  14   11.75    1.60
   2   0 -14   19.21    1.78
  -1   0  14   30.82    2.07
   1   0 -14   29.17    2.10
   0   0  14    0.41    1.09
   0   0  14    0.17    1.08
   0   0 -14    0.02    1.04
   1   0  14    0.35    1.15
   4  -1 -14   -0.14    1.17
   3  -1 -14    7.52    1.45
   2  -1 -14    1.21    1.25
  -2   1  14    2.74    1.33
  -1   1  14    7.21    1.45
  -1   1  14    5.60    1.40
   0   1  14    6.43    1.41
   0   1  14    6.83    1.45
   0  10 -15    2.12    1.22
   1   9 -15   39.15    2.52
   0   9 -15   -0.85    1.09
  -1   9 -15    0.71    1.17
   2   8 -15   31.35    2.31
  -2  -8  15   26.56    2.13
  -1  -8  15    9.12    1.48
   1   8 -15    6.37    1.45
   0  -8  15   14.02    1.70
   0   8 -15   13.41    1.69
   1  -8  15   22.42    2.01
  -1   8 -15   27.01    2.06
  -2   8 -15   28.09    2.05
   2  -8  15   23.09    2.01
   3  -8  15   -0.24    1.19
   3   7 -15   11.10    1.61
  -3  -7  15    9.99    1.57
  -2  -7  15    5.65    1.31
   2   7 -15    5.05    1.32
   1   7 -15   -0.84    1.17
  -1  -7  15   -0.22    1.03
   0  -7  15    4.44    1.36
   0   7 -15    4.59    1.25
  -1   7 -15    1.00    1.20
   1  -7  15    1.23    1.19
  -2   7 -15    9.15    1.49
   2  -7  15    6.88    1.41
   3  -7  15    0.24    1.07
  -3   7 -15    0.41    1.16
   3   6 -15   29.21    2.17
  -3  -6  15   33.96    2.31
   2   6 -15    5.77    1.45
  -2  -6  15    3.37    1.18
   1   6 -15    2.54    1.27
  -1  -6  15    3.10    1.16
   0   6 -15   22.16    1.91
   0  -6  15   19.70    1.85
  -1   6 -15   31.05    2.13
   1  -6  15   31.75    2.22
  -2   6 -15    2.96    1.25
   2  -6  15    3.56    1.26
  -3   6 -15    0.77    1.21
  -4  -5  15    0.49    1.09
  -3  -5  15    1.88    1.25
   3   5 -15    0.25    1.18
   2   5 -15   21.74    1.95
  -2  -5  15   20.79    1.88
   1   5 -15   45.59    2.66
  -1  -5  15   49.03    2.58
   0   5 -15    6.22    1.44
   0  -5  15    8.90    1.46
  -1   5 -15    2.64    1.18
   1  -5  15    2.30    1.21
  -2   5 -15    3.47    1.34
   2  -5  15    3.98    1.29
   3   4 -15   19.95    1.96
  -3  -4  15   22.23    1.95
   2   4 -15    9.86    1.51
  -2  -4  15   10.10    1.61
  -1  -4  15    6.99    1.47
   1   4 -15    7.54    1.47
   0   4 -15    8.24    1.47
   0  -4  15    6.69    1.41
   1  -4  15   18.56    1.69
  -1   4 -15   17.04    1.81
  -2   4 -15    5.15    1.46
   2  -4  15    3.10    1.23
   3   3 -15   13.51    1.63
  -3  -3  15   12.36    1.71
  -2  -3  15   35.82    2.40
   2   3 -15   44.71    2.64
  -1  -3  15    7.92    1.38
   1   3 -15    8.40    1.44
   0   3 -15    2.70    1.30
   0  -3  15    0.94    1.26
   1  -3  15    1.38    1.16
  -1   3 -15    1.37    1.17
   3   2 -15   11.19    1.70
  -2  -2  15    4.30    1.28
   2   2 -15    7.45    1.46
  -1  -2  15   -0.25    1.19
   1   2 -15    1.30    1.28
   0  -2  15   11.91    1.61
   1  -2  15   25.06    2.07
  -1  -1  15   11.83    1.59
   0  -1  15   17.12    1.83
   0   0   0    0.00    0.00
;
_shelx_hkl_checksum              9980
_shelx_res_file
;
TITL SIR92 run in space group P -1
 shelx.res created by SHELXL-2016/4 at 09:42:20 on 21-Nov-2016
CELL  0.71073   8.1732  10.5828  12.1781  113.699   94.617   99.203
ZERR     2.00   0.0005   0.0007   0.0008    0.001    0.001    0.001
LATT   1
SFAC  C    H    N    O    F    S    BR
UNIT  42 32 4 4 2 2 2
MERG   2
FMAP   2
PLAN   25
SIZE     0.120   0.190   0.240
ACTA
BOND   $H
CONF
L.S.  15
TEMP    20.00
WGHT    0.059400    0.130500
FVAR       0.59675
C1    1    1.043913    0.384552    0.306318    11.00000    0.05002    0.04866 =
         0.05777    0.02289   -0.00113    0.01179
C2    1    0.896258    0.407455    0.347981    11.00000    0.05717    0.04656 =
         0.05264    0.02453    0.00729    0.01067
AFIX  43
H2    2    0.870710    0.391539    0.415005    11.00000   -1.20000
AFIX   0
C3    1    0.784914    0.454770    0.288999    11.00000    0.04586    0.03886 =
         0.05381    0.01827    0.00736    0.00936
AFIX  43
H3    2    0.684493    0.471193    0.317208    11.00000   -1.20000
AFIX   0
C4    1    0.821305    0.477780    0.188960    11.00000    0.04980    0.03130 =
         0.03925    0.00727   -0.00078    0.00722
C5    1    0.975361    0.453789    0.150602    11.00000    0.06599    0.07129 =
         0.05227    0.03000    0.01861    0.02631
AFIX  43
H5    2    1.003760    0.470852    0.084643    11.00000   -1.20000
AFIX   0
C6    1    1.085286    0.405686    0.208150    11.00000    0.05147    0.06896 =
         0.06726    0.02850    0.01557    0.02068
AFIX  43
H6    2    1.185730    0.387984    0.180567    11.00000   -1.20000
AFIX   0
C7    1    0.573472    0.582041    0.172220    11.00000    0.04752    0.04827 =
         0.04518    0.01517   -0.00483    0.01123
AFIX  23
H7A   2    0.507416    0.521160    0.201672    11.00000   -1.20000
H7B   2    0.500965    0.587821    0.108060    11.00000   -1.20000
AFIX   0
C8    1    0.628180    0.726748    0.274159    11.00000    0.03660    0.04418 =
         0.03962    0.01842    0.00333    0.01274
C9    1    0.602774    0.771681    0.390914    11.00000    0.03615    0.04640 =
         0.04520    0.02465    0.00981    0.01263
C10   1    0.691144    0.914485    0.460650    11.00000    0.03783    0.04674 =
         0.03912    0.02027    0.00688    0.01609
C11   1    0.774333    0.956073    0.381435    11.00000    0.03541    0.04399 =
         0.03747    0.01892    0.00379    0.01384
C12   1    0.879961    1.088277    0.421787    11.00000    0.04654    0.04749 =
         0.05421    0.02766    0.00328    0.01038
AFIX  43
H12   2    0.936670    1.115759    0.369150    11.00000   -1.20000
AFIX   0
C13   1    0.896608    1.176636    0.543498    11.00000    0.05643    0.04193 =
         0.06278    0.01785   -0.00567    0.00904
AFIX  43
H13   2    0.966282    1.265694    0.572957    11.00000   -1.20000
AFIX   0
C14   1    0.813790    1.137947    0.623311    11.00000    0.06515    0.05275 =
         0.04401    0.01220    0.00326    0.02169
AFIX  43
H14   2    0.827849    1.201048    0.704601    11.00000   -1.20000
AFIX   0
C15   1    0.710706    1.006785    0.583408    11.00000    0.05508    0.05623 =
         0.03799    0.01914    0.01049    0.02025
AFIX  43
H15   2    0.655233    0.980097    0.636937    11.00000   -1.20000
AFIX   0
C16   1    0.545978    0.938487    0.134811    11.00000    0.03641    0.04823 =
         0.03347    0.02117    0.00966    0.01394
C17   1    0.562074    1.082719    0.186130    11.00000    0.04154    0.04771 =
         0.05555    0.02740    0.00308    0.00713
AFIX  43
H17   2    0.667034    1.142071    0.220819    11.00000   -1.20000
AFIX   0
C18   1    0.419779    1.138362    0.185432    11.00000    0.05353    0.04695 =
         0.06478    0.02937    0.00963    0.01682
AFIX  43
H18   2    0.428905    1.235653    0.220589    11.00000   -1.20000
AFIX   0
C19   1    0.265275    1.050183    0.132943    11.00000    0.04345    0.06251 =
         0.05452    0.03223    0.01299    0.02239
AFIX  43
H19   2    0.170302    1.088132    0.132396    11.00000   -1.20000
AFIX   0
C20   1    0.250296    0.906900    0.081481    11.00000    0.03740    0.06058 =
         0.05632    0.02192    0.00117    0.00945
AFIX  43
H20   2    0.145091    0.848001    0.046733    11.00000   -1.20000
AFIX   0
C21   1    0.391290    0.848878    0.080824    11.00000    0.04594    0.04532 =
         0.04587    0.01394    0.00222    0.01119
AFIX  43
H21   2    0.381825    0.751566    0.044744    11.00000   -1.20000
AFIX   0
N1    3    0.709048    0.517200    0.120958    11.00000    0.06446    0.05028 =
         0.03737    0.01089    0.00248    0.02336
AFIX  43
H1    2    0.721138    0.502532    0.047600    11.00000   -1.20000
AFIX   0
N2    3    0.737697    0.839893    0.264475    11.00000    0.03894    0.04596 =
         0.03438    0.01988    0.00597    0.01306
O1    4    0.870845    0.973202    0.155775    11.00000    0.03913    0.08924 =
         0.06355    0.04938    0.01862    0.01723
O2    4    0.699916    0.732409    0.038371    11.00000    0.07134    0.06869 =
         0.03830    0.02268    0.01777    0.03770
F1    5    1.153513    0.339081    0.365083    11.00000    0.06604    0.09268 =
         0.08716    0.04872    0.00434    0.03415
S1    6    0.726224    0.868533    0.138294    11.00000    0.03964    0.05918 =
         0.03769    0.02636    0.01327    0.02074
BR1   7    0.479455    0.662009    0.456495    11.00000    0.05446    0.06742 =
         0.06666    0.03985    0.02033    0.01190
HKLF 4
REM  SIR92 run in space group P -1
REM R1 =  0.0316 for    3778 Fo > 4sig(Fo)  and  0.0382 for all    4427 data
REM    253 parameters refined using      0 restraints
END
WGHT      0.0544      0.1708
REM Highest difference peak  0.445,  deepest hole -0.398,  1-sigma level  0.053
Q1    1   0.7707  0.5790  0.0864  11.00000  0.05    0.44
Q2    1   0.4295  0.6502  0.3945  11.00000  0.05    0.31
Q3    1   0.6304  0.9029  0.1352  11.00000  0.05    0.28
Q4    1   0.6604  0.7401  0.3357  11.00000  0.05    0.28
Q5    1   0.7589  0.9258  0.4348  11.00000  0.05    0.28
Q6    1   0.6599  0.8467  0.4337  11.00000  0.05    0.28
Q7    1   0.8260  1.0194  0.4032  11.00000  0.05    0.27
Q8    1   0.7367  0.8583  0.2093  11.00000  0.05    0.27
Q9    1   0.5634  0.7162  0.4745  11.00000  0.05    0.27
Q10   1   0.8089  0.9415  0.1689  11.00000  0.05    0.27
Q11   1   0.7375  0.7993  0.0679  11.00000  0.05    0.26
Q12   1   0.7664  0.9058  0.3165  11.00000  0.05    0.26
Q13   1   0.6120  0.6567  0.2269  11.00000  0.05    0.24
Q14   1   0.8977  0.4839  0.1769  11.00000  0.05    0.24
Q15   1   0.5402  0.7392  0.4939  11.00000  0.05    0.24
Q16   1   0.8760  1.1408  0.5968  11.00000  0.05    0.24
Q17   1   1.0712  0.4280  0.2713  11.00000  0.05    0.24
Q18   1   0.5546  1.0007  0.1665  11.00000  0.05    0.23
Q19   1   0.4770  0.9042  0.1018  11.00000  0.05    0.23
Q20   1   0.8039  1.0629  0.6090  11.00000  0.05    0.23
Q21   1   0.7045  0.9523  0.4210  11.00000  0.05    0.22
Q22   1   0.3132  0.8867  0.0516  11.00000  0.05    0.22
Q23   1   0.4996  1.1185  0.1646  11.00000  0.05    0.22
Q24   1   0.5858  0.7592  0.3163  11.00000  0.05    0.22
Q25   1   1.0814  0.4709  0.2161  11.00000  0.05    0.21
;
_shelx_res_checksum              92432
loop_
_space_group_symop_operation_xyz
'x, y, z'
'-x, -y, -z'
loop_
_atom_site_type_symbol
_atom_site_label
_atom_site_fract_x
_atom_site_fract_y
_atom_site_fract_z
_atom_site_U_iso_or_equiv
_atom_site_adp_type
_atom_site_calc_flag
_atom_site_occupancy
C C1 1.0439(3) 0.3846(2) 0.3063(2) 0.0524(5) Uani d 1
C C2 0.8963(3) 0.4075(2) 0.3480(2) 0.0510(5) Uani d 1
H H2 0.870710 0.391539 0.415005 0.061 Uiso calc 1
C C3 0.7849(3) 0.4548(2) 0.2890(2) 0.0466(4) Uani d 1
H H3 0.684493 0.471193 0.317208 0.056 Uiso calc 1
C C4 0.8213(3) 0.47778(19) 0.18896(17) 0.0433(4) Uani d 1
C C5 0.9754(3) 0.4538(3) 0.1506(2) 0.0599(6) Uani d 1
H H5 1.003760 0.470852 0.084643 0.072 Uiso calc 1
C C6 1.0853(3) 0.4057(3) 0.2082(2) 0.0613(6) Uani d 1
H H6 1.185730 0.387984 0.180567 0.074 Uiso calc 1
C C7 0.5735(3) 0.5820(2) 0.17222(19) 0.0491(5) Uani d 1
H H7A 0.507416 0.521160 0.201672 0.059 Uiso calc 1
H H7B 0.500965 0.587821 0.108060 0.059 Uiso calc 1
C C8 0.6282(2) 0.7267(2) 0.27416(17) 0.0395(4) Uani d 1
C C9 0.6028(2) 0.7717(2) 0.39091(18) 0.0401(4) Uani d 1
C C10 0.6911(2) 0.9145(2) 0.46065(17) 0.0396(4) Uani d 1
C C11 0.7743(2) 0.9561(2) 0.38144(16) 0.0378(4) Uani d 1
C C12 0.8800(3) 1.0883(2) 0.4218(2) 0.0476(5) Uani d 1
H H12 0.936670 1.115759 0.369150 0.057 Uiso calc 1
C C13 0.8966(3) 1.1766(2) 0.5435(2) 0.0562(5) Uani d 1
H H13 0.966282 1.265694 0.572957 0.067 Uiso calc 1
C C14 0.8138(3) 1.1379(2) 0.6233(2) 0.0559(5) Uani d 1
H H14 0.827849 1.201048 0.704601 0.067 Uiso calc 1
C C15 0.7107(3) 1.0068(2) 0.58341(18) 0.0488(5) Uani d 1
H H15 0.655233 0.980097 0.636937 0.059 Uiso calc 1
C C16 0.5460(2) 0.9385(2) 0.13481(16) 0.0372(4) Uani d 1
C C17 0.5621(3) 1.0827(2) 0.1861(2) 0.0470(4) Uani d 1
H H17 0.667034 1.142071 0.220819 0.056 Uiso calc 1
C C18 0.4198(3) 1.1384(2) 0.1854(2) 0.0524(5) Uani d 1
H H18 0.428905 1.235653 0.220589 0.063 Uiso calc 1
C C19 0.2653(3) 1.0502(2) 0.1329(2) 0.0493(5) Uani d 1
H H19 0.170302 1.088132 0.132396 0.059 Uiso calc 1
C C20 0.2503(3) 0.9069(3) 0.0815(2) 0.0528(5) Uani d 1
H H20 0.145091 0.848001 0.046733 0.063 Uiso calc 1
C C21 0.3913(3) 0.8489(2) 0.08082(19) 0.0476(4) Uani d 1
H H21 0.381825 0.751566 0.044744 0.057 Uiso calc 1
N N1 0.7090(2) 0.51720(19) 0.12096(15) 0.0522(4) Uani d 1
H H1 0.721138 0.502532 0.047600 0.063 Uiso calc 1
N N2 0.73770(19) 0.83989(17) 0.26447(13) 0.0383(3) Uani d 1
O O1 0.87084(18) 0.9732(2) 0.15578(15) 0.0572(4) Uani d 1
O O2 0.6999(2) 0.73241(18) 0.03837(13) 0.0560(4) Uani d 1
F F1 1.1535(2) 0.33908(19) 0.36508(16) 0.0767(4) Uani d 1
S S1 0.72622(6) 0.86853(6) 0.13829(4) 0.04184(12) Uani d 1
Br BR1 0.47945(3) 0.66201(3) 0.45649(2) 0.05848(10) Uani d 1
loop_
_atom_site_aniso_label
_atom_site_aniso_U_11
_atom_site_aniso_U_22
_atom_site_aniso_U_33
_atom_site_aniso_U_12
_atom_site_aniso_U_13
_atom_site_aniso_U_23
C1 0.0500(12) 0.0487(11) 0.0578(12) 0.0118(9) -0.0011(10) 0.0229(10)
C2 0.0572(12) 0.0466(11) 0.0526(11) 0.0107(9) 0.0073(10) 0.0245(9)
C3 0.0459(10) 0.0389(10) 0.0538(11) 0.0094(8) 0.0074(9) 0.0183(9)
C4 0.0498(11) 0.0313(9) 0.0393(9) 0.0072(8) -0.0008(8) 0.0073(7)
C5 0.0660(14) 0.0713(15) 0.0523(12) 0.0263(12) 0.0186(11) 0.0300(11)
C6 0.0515(12) 0.0690(15) 0.0673(15) 0.0207(11) 0.0156(11) 0.0285(12)
C7 0.0475(11) 0.0483(11) 0.0452(10) 0.0112(9) -0.0048(9) 0.0152(9)
C8 0.0366(9) 0.0442(10) 0.0396(9) 0.0127(7) 0.0033(7) 0.0184(8)
C9 0.0362(9) 0.0464(10) 0.0452(10) 0.0126(8) 0.0098(7) 0.0246(8)
C10 0.0378(9) 0.0467(10) 0.0391(9) 0.0161(8) 0.0069(7) 0.0203(8)
C11 0.0354(8) 0.0440(10) 0.0375(9) 0.0138(7) 0.0038(7) 0.0189(8)
C12 0.0465(11) 0.0475(11) 0.0542(11) 0.0104(8) 0.0033(9) 0.0277(9)
C13 0.0564(13) 0.0419(11) 0.0628(13) 0.0090(9) -0.0057(11) 0.0178(10)
C14 0.0652(14) 0.0527(12) 0.0440(11) 0.0217(11) 0.0033(10) 0.0122(10)
C15 0.0551(12) 0.0562(12) 0.0380(9) 0.0203(10) 0.0105(9) 0.0191(9)
C16 0.0364(9) 0.0482(10) 0.0335(8) 0.0139(7) 0.0097(7) 0.0212(8)
C17 0.0415(10) 0.0477(11) 0.0555(11) 0.0071(8) 0.0031(9) 0.0274(9)
C18 0.0535(12) 0.0469(11) 0.0648(13) 0.0168(9) 0.0096(10) 0.0294(10)
C19 0.0435(10) 0.0625(13) 0.0545(12) 0.0224(9) 0.0130(9) 0.0322(10)
C20 0.0374(10) 0.0606(13) 0.0563(12) 0.0095(9) 0.0012(9) 0.0219(10)
C21 0.0459(11) 0.0453(11) 0.0459(10) 0.0112(8) 0.0022(8) 0.0139(9)
N1 0.0645(11) 0.0503(10) 0.0374(8) 0.0234(8) 0.0025(8) 0.0109(7)
N2 0.0389(8) 0.0460(8) 0.0344(7) 0.0131(6) 0.0060(6) 0.0199(7)
O1 0.0391(7) 0.0892(11) 0.0636(9) 0.0172(7) 0.0186(7) 0.0494(9)
O2 0.0713(10) 0.0687(10) 0.0383(7) 0.0377(8) 0.0178(7) 0.0227(7)
F1 0.0660(9) 0.0927(11) 0.0872(11) 0.0341(8) 0.0043(8) 0.0487(9)
S1 0.0396(2) 0.0592(3) 0.0377(2) 0.0207(2) 0.01327(18) 0.0264(2)
BR1 0.05446(15) 0.06742(17) 0.06666(17) 0.01190(11) 0.02033(11) 0.03985(13)
loop_
_atom_type_symbol
_atom_type_description
_atom_type_scat_dispersion_real
_atom_type_scat_dispersion_imag
_atom_type_scat_source
C C 0.0033 0.0016 'International Tables Vol C Tables 4.2.6.8 and 6.1.1.4'
H H 0.0000 0.0000 'International Tables Vol C Tables 4.2.6.8 and 6.1.1.4'
N N 0.0061 0.0033 'International Tables Vol C Tables 4.2.6.8 and 6.1.1.4'
O O 0.0106 0.0060 'International Tables Vol C Tables 4.2.6.8 and 6.1.1.4'
F F 0.0171 0.0103 'International Tables Vol C Tables 4.2.6.8 and 6.1.1.4'
S S 0.1246 0.1234 'International Tables Vol C Tables 4.2.6.8 and 6.1.1.4'
Br Br -0.2901 2.4595 'International Tables Vol C Tables 4.2.6.8 and 6.1.1.4'
loop_
_geom_angle_atom_site_label_1
_geom_angle_atom_site_label_2
_geom_angle_atom_site_label_3
_geom_angle
C6 C1 F1 118.9(2)
C6 C1 C2 122.2(2)
F1 C1 C2 118.9(2)
C1 C2 C3 119.1(2)
C1 C2 H2 120.4
C3 C2 H2 120.4
C4 C3 C2 120.8(2)
C4 C3 H3 119.6
C2 C3 H3 119.6
C3 C4 C5 117.71(19)
C3 C4 N1 123.4(2)
C5 C4 N1 118.8(2)
C6 C5 C4 121.6(2)
C6 C5 H5 119.2
C4 C5 H5 119.2
C1 C6 C5 118.5(2)
C1 C6 H6 120.7
C5 C6 H6 120.7
N1 C7 C8 114.88(17)
N1 C7 H7A 108.5
C8 C7 H7A 108.5
N1 C7 H7B 108.5
C8 C7 H7B 108.5
H7A C7 H7B 107.5
C9 C8 N2 107.46(17)
C9 C8 C7 128.96(19)
N2 C8 C7 123.22(18)
C8 C9 C10 110.49(17)
C8 C9 BR1 125.55(16)
C10 C9 BR1 123.88(14)
C11 C10 C15 120.12(19)
C11 C10 C9 106.54(16)
C15 C10 C9 133.28(19)
C12 C11 C10 121.47(18)
C12 C11 N2 130.41(18)
C10 C11 N2 108.01(16)
C13 C12 C11 116.9(2)
C13 C12 H12 121.6
C11 C12 H12 121.6
C14 C13 C12 122.5(2)
C14 C13 H13 118.7
C12 C13 H13 118.7
C15 C14 C13 120.5(2)
C15 C14 H14 119.8
C13 C14 H14 119.8
C14 C15 C10 118.5(2)
C14 C15 H15 120.7
C10 C15 H15 120.7
C17 C16 C21 121.15(18)
C17 C16 S1 118.91(15)
C21 C16 S1 119.94(15)
C16 C17 C18 119.11(19)
C16 C17 H17 120.4
C18 C17 H17 120.4
C19 C18 C17 120.2(2)
C19 C18 H18 119.9
C17 C18 H18 119.9
C20 C19 C18 120.40(19)
C20 C19 H19 119.8
C18 C19 H19 119.8
C19 C20 C21 120.4(2)
C19 C20 H20 119.8
C21 C20 H20 119.8
C16 C21 C20 118.8(2)
C16 C21 H21 120.6
C20 C21 H21 120.6
C4 N1 C7 121.22(18)
C4 N1 H1 119.4
C7 N1 H1 119.4
C11 N2 C8 107.49(15)
C11 N2 S1 120.22(13)
C8 N2 S1 122.79(13)
O1 S1 O2 119.87(10)
O1 S1 N2 106.12(9)
O2 S1 N2 106.04(9)
O1 S1 C16 109.28(10)
O2 S1 C16 109.01(9)
N2 S1 C16 105.53(8)
loop_
_geom_bond_atom_site_label_1
_geom_bond_atom_site_label_2
_geom_bond_distance
C1 C6 1.360(4)
C1 F1 1.363(3)
C1 C2 1.366(3)
C2 C3 1.387(3)
C2 H2 0.9300
C3 C4 1.380(3)
C3 H3 0.9300
C4 C5 1.403(3)
C4 N1 1.407(3)
C5 C6 1.374(3)
C5 H5 0.9300
C6 H6 0.9300
C7 N1 1.449(3)
C7 C8 1.500(3)
C7 H7A 0.9700
C7 H7B 0.9700
C8 C9 1.351(3)
C8 N2 1.427(3)
C9 C10 1.431(3)
C9 BR1 1.8712(19)
C10 C11 1.392(3)
C10 C15 1.397(3)
C11 C12 1.392(3)
C11 N2 1.427(2)
C12 C13 1.379(3)
C12 H12 0.9300
C13 C14 1.381(4)
C13 H13 0.9300
C14 C15 1.375(3)
C14 H14 0.9300
C15 H15 0.9300
C16 C17 1.376(3)
C16 C21 1.383(3)
C16 S1 1.7562(18)
C17 C18 1.386(3)
C17 H17 0.9300
C18 C19 1.374(3)
C18 H18 0.9300
C19 C20 1.368(3)
C19 H19 0.9300
C20 C21 1.389(3)
C20 H20 0.9300
C21 H21 0.9300
N1 H1 0.8600
N2 S1 1.6799(15)
O1 S1 1.4215(17)
O2 S1 1.4324(17)
loop_
_geom_hbond_atom_site_label_D
_geom_hbond_atom_site_label_H
_geom_hbond_atom_site_label_A
_geom_hbond_site_symmetry_A
_geom_hbond_distance_DH
_geom_hbond_distance_HA
_geom_hbond_distance_DA
_geom_hbond_angle_DHA
C3 H3 Br1 . 0.93 2.92 3.765(2) 151
C12 H12 O1 . 0.93 2.38 2.957(3) 120
C13 H13 Cg2 2_776 0.93 2.90 3.8382(3) 151
C15 H15 Cg4 2_676 0.93 2.72 3.6522(2) 154
loop_
_geom_torsion_atom_site_label_1
_geom_torsion_atom_site_label_2
_geom_torsion_atom_site_label_3
_geom_torsion_atom_site_label_4
_geom_torsion
C6 C1 C2 C3 -0.5(3)
F1 C1 C2 C3 179.51(19)
C1 C2 C3 C4 0.4(3)
C2 C3 C4 C5 -1.0(3)
C2 C3 C4 N1 175.91(18)
C3 C4 C5 C6 1.6(3)
N1 C4 C5 C6 -175.4(2)
F1 C1 C6 C5 -178.9(2)
C2 C1 C6 C5 1.0(4)
C4 C5 C6 C1 -1.6(4)
N1 C7 C8 C9 -118.5(2)
N1 C7 C8 N2 53.7(3)
N2 C8 C9 C10 0.9(2)
C7 C8 C9 C10 174.02(18)
N2 C8 C9 BR1 -176.08(12)
C7 C8 C9 BR1 -3.0(3)
C8 C9 C10 C11 -0.5(2)
BR1 C9 C10 C11 176.56(13)
C8 C9 C10 C15 -177.6(2)
BR1 C9 C10 C15 -0.6(3)
C15 C10 C11 C12 0.9(3)
C9 C10 C11 C12 -176.67(17)
C15 C10 C11 N2 177.44(16)
C9 C10 C11 N2 -0.15(19)
C10 C11 C12 C13 -0.8(3)
N2 C11 C12 C13 -176.45(18)
C11 C12 C13 C14 0.1(3)
C12 C13 C14 C15 0.5(3)
C13 C14 C15 C10 -0.4(3)
C11 C10 C15 C14 -0.3(3)
C9 C10 C15 C14 176.5(2)
C21 C16 C17 C18 1.2(3)
S1 C16 C17 C18 -178.91(17)
C16 C17 C18 C19 -0.7(3)
C17 C18 C19 C20 0.3(3)
C18 C19 C20 C21 -0.5(4)
C17 C16 C21 C20 -1.4(3)
S1 C16 C21 C20 178.72(17)
C19 C20 C21 C16 1.1(3)
C3 C4 N1 C7 21.2(3)
C5 C4 N1 C7 -162.0(2)
C8 C7 N1 C4 66.9(3)
C12 C11 N2 C8 176.79(19)
C10 C11 N2 C8 0.68(19)
C12 C11 N2 S1 -36.0(3)
C10 C11 N2 S1 147.90(13)
C9 C8 N2 C11 -0.97(19)
C7 C8 N2 C11 -174.58(16)
C9 C8 N2 S1 -147.16(14)
C7 C8 N2 S1 39.2(2)
C11 N2 S1 O1 47.52(16)
C8 N2 S1 O1 -170.39(15)
C11 N2 S1 O2 176.02(14)
C8 N2 S1 O2 -41.89(17)
C11 N2 S1 C16 -68.41(15)
C8 N2 S1 C16 73.69(16)
C17 C16 S1 O1 -20.95(18)
C21 C16 S1 O1 158.89(16)
C17 C16 S1 O2 -153.69(16)
C21 C16 S1 O2 26.15(18)
C17 C16 S1 N2 92.79(16)
C21 C16 S1 N2 -87.37(17)

_cod_database_fobs_code 1545502
