#------------------------------------------------------------------------------
#$Date: 2017-05-05 00:24:07 +0300 (Fri, 05 May 2017) $
#$Revision: 196084 $
#$URL: file:///home/coder/svn-repositories/cod/cif/1/54/59/1545951.cif $
#------------------------------------------------------------------------------
#
# This file is available in the Crystallography Open Database (COD),
# http://www.crystallography.net/
#
# All data on this site have been placed in the public domain by the
# contributors.
#
data_1545951
loop_
_publ_author_name
'Reddy, Mallu Kesava'
'Mallik, Sumitava'
'Ramakrishna, Isai'
'Baidya, Mahiuddin'
_publ_section_title
;
 Nitrosocarbonyl-Henry and Denitration Cascade: Synthesis of \a-Ketoamides
 and \a-Keto Oximes.
;
_journal_issue                   7
_journal_name_full               'Organic letters'
_journal_page_first              1694
_journal_page_last               1697
_journal_paper_doi               10.1021/acs.orglett.7b00482
_journal_volume                  19
_journal_year                    2017
_chemical_formula_sum            'C7 H7 N O2 S'
_chemical_formula_weight         169.20
_space_group_crystal_system      monoclinic
_space_group_IT_number           14
_space_group_name_Hall           '-P 2ybc'
_space_group_name_H-M_alt        'P 1 21/c 1'
_symmetry_space_group_name_Hall  '-P 2ybc'
_symmetry_space_group_name_H-M   'P 1 21/c 1'
_atom_sites_solution_hydrogens   mixed
_audit_creation_method           SHELXL-2014/7
_cell_angle_alpha                90
_cell_angle_beta                 105.349(2)
_cell_angle_gamma                90
_cell_formula_units_Z            4
_cell_length_a                   9.5486(5)
_cell_length_b                   14.0756(9)
_cell_length_c                   5.9670(3)
_cell_measurement_reflns_used    1782
_cell_measurement_temperature    296(2)
_cell_measurement_theta_max      25.96
_cell_measurement_theta_min      2.64
_cell_volume                     773.37(8)
_computing_cell_refinement       'Bruker SAINT'
_computing_data_collection       'Bruker APEX2'
_computing_data_reduction        'Bruker SAINT'
_computing_molecular_graphics    'Bruker SHELXTL'
_computing_publication_material  'Bruker SHELXTL'
_computing_structure_refinement  'SHELXL-2014/7 (Sheldrick, 2014)'
_computing_structure_solution    'SHELXS-97 (Sheldrick 2008)'
_diffrn_ambient_temperature      296(2)
_diffrn_measured_fraction_theta_full 0.987
_diffrn_measured_fraction_theta_max 0.987
_diffrn_measurement_device_type  'Bruker APEX-II CCD'
_diffrn_measurement_method       '\f and \w scans'
_diffrn_radiation_type           MoK\a
_diffrn_radiation_wavelength     0.71073
_diffrn_reflns_av_R_equivalents  0.0204
_diffrn_reflns_av_unetI/netI     0.0226
_diffrn_reflns_Laue_measured_fraction_full 0.987
_diffrn_reflns_Laue_measured_fraction_max 0.987
_diffrn_reflns_limit_h_max       11
_diffrn_reflns_limit_h_min       -11
_diffrn_reflns_limit_k_max       15
_diffrn_reflns_limit_k_min       -16
_diffrn_reflns_limit_l_max       7
_diffrn_reflns_limit_l_min       -4
_diffrn_reflns_number            4858
_diffrn_reflns_point_group_measured_fraction_full 0.987
_diffrn_reflns_point_group_measured_fraction_max 0.987
_diffrn_reflns_theta_full        24.996
_diffrn_reflns_theta_max         24.996
_diffrn_reflns_theta_min         2.212
_exptl_absorpt_coefficient_mu    0.363
_exptl_absorpt_correction_type   none
_exptl_crystal_colour            colourless
_exptl_crystal_density_diffrn    1.453
_exptl_crystal_description       Rectangular
_exptl_crystal_F_000             352
_exptl_crystal_size_max          0.250
_exptl_crystal_size_mid          0.220
_exptl_crystal_size_min          0.100
_refine_diff_density_max         0.231
_refine_diff_density_min         -0.299
_refine_diff_density_rms         0.050
_refine_ls_extinction_method     none
_refine_ls_goodness_of_fit_ref   1.050
_refine_ls_hydrogen_treatment    mixed
_refine_ls_matrix_type           full
_refine_ls_number_parameters     105
_refine_ls_number_reflns         1344
_refine_ls_number_restraints     0
_refine_ls_restrained_S_all      1.050
_refine_ls_R_factor_all          0.0586
_refine_ls_R_factor_gt           0.0441
_refine_ls_shift/su_max          0.023
_refine_ls_shift/su_mean         0.001
_refine_ls_structure_factor_coef Fsqd
_refine_ls_weighting_details
'w=1/[\s^2^(Fo^2^)+(0.0619P)^2^+0.5494P] where P=(Fo^2^+2Fc^2^)/3'
_refine_ls_weighting_scheme      calc
_refine_ls_wR_factor_gt          0.1198
_refine_ls_wR_factor_ref         0.1301
_reflns_Friedel_coverage         0.000
_reflns_number_gt                1065
_reflns_number_total             1344
_reflns_threshold_expression     'I > 2\s(I)'
_cod_data_source_file            ol7b00482_si_004.cif
_cod_data_source_block           211
_cod_database_code               1545951
_shelx_shelxl_version_number     2014/7
_shelx_space_group_comment
; 
The symmetry employed for this shelxl refinement is uniquely defined 
by the following loop, which should always be used as a source of 
symmetry information in preference to the above space-group names. 
They are only intended as comments. 
;
_shelx_estimated_absorpt_t_min   0.915
_shelx_estimated_absorpt_t_max   0.965
_shelx_res_file
; 
  
    211.res created by SHELXL-2014/7 
  
TITL 211 in P2(1)/c 
CELL 0.71073   9.54860  14.07560   5.96700  90.0000 105.3490  90.0000 
ZERR    4.00   0.00050   0.00090   0.00030   0.0000   0.0020   0.0000 
LATT 1 
SYMM -X, 0.5+Y, 0.5-Z 
SFAC C  H  N  O  S 
UNIT 28  28  4  8  4 
OMIT -3 50 
L.S. 8 
ACTA 
BOND $H 
FMAP 2 
PLAN 5 
CONF 
SIZE 0.10 0.22 0.25 
TEMP 23.000 
WGHT    0.061900    0.549400 
FVAR       0.19214 
MOLE 1 
C1    1    0.986047    0.606085    0.771296    11.00000    0.03479    0.06004 = 
         0.07728    0.02729    0.02987    0.01405 
AFIX  43 
H1    2    1.076473    0.592073    0.748550    11.00000   -1.20000 
AFIX   0 
C2    1    0.856899    0.602384    0.600379    11.00000    0.05571    0.06010 = 
         0.05326    0.01278    0.02983    0.00809 
AFIX  43 
H2    2    0.850200    0.586089    0.446853    11.00000   -1.20000 
AFIX   0 
C3    1    0.734600    0.626197    0.683925    11.00000    0.03993    0.03504 = 
         0.04171    0.00671    0.01567    0.00104 
C4    1    0.775897    0.646559    0.917085    11.00000    0.03199    0.04333 = 
         0.04350   -0.00138    0.00810    0.00057 
AFIX  43 
H4    2    0.711435    0.662344    1.003840    11.00000   -1.20000 
AFIX   0 
C5    1    0.587595    0.636363    0.527176    11.00000    0.04289    0.03388 = 
         0.03378    0.00104    0.01031   -0.00284 
C6    1    0.455833    0.620445    0.614608    11.00000    0.03380    0.04041 = 
         0.02930    0.00063    0.00427   -0.00095 
C7    1    0.314160    0.659063    0.475011    11.00000    0.04284    0.08229 = 
         0.04496    0.01580    0.00198    0.00944 
AFIX 137 
H7A   2    0.237498    0.636116    0.537188    11.00000   -1.50000 
H7B   2    0.297189    0.638731    0.316503    11.00000   -1.50000 
H7C   2    0.316569    0.727209    0.481456    11.00000   -1.50000 
AFIX   0 
N1    3    0.475247    0.568435    0.796229    11.00000    0.02864    0.04379 = 
         0.03365    0.00187    0.00928   -0.00208 
O1    4    0.570138    0.658191    0.325343    11.00000    0.05759    0.07065 = 
         0.03246    0.00856    0.01329   -0.00783 
O2    4    0.347208    0.552575    0.861172    11.00000    0.02924    0.06686 = 
         0.04275    0.01608    0.01021    0.00132 
S1    5    0.957912    0.639542    1.027944    11.00000    0.03850    0.06834 = 
         0.07304    0.00729    0.00080    0.00043 
H1O   2    0.375327    0.515126    0.965226    11.00000    0.04903 
HKLF 4 
  
REM  211 in P2(1)/c 
REM R1 =  0.0441 for    1065 Fo > 4sig(Fo)  and  0.0586 for all    1344 data 
REM    105 parameters refined using      0 restraints 
  
END 
  
WGHT      0.0629      0.5407 
  
REM Highest difference peak  0.231,  deepest hole -0.299,  1-sigma level  0.050 
Q1    1   1.0181  0.6263  0.8902  11.00000  0.05    0.23 
Q2    1   0.9947  0.5809  0.7443  11.00000  0.05    0.23 
Q3    1   0.9809  0.6039  0.6885  11.00000  0.05    0.23 
Q4    1   0.7478  0.6202  0.7708  11.00000  0.05    0.21 
Q5    1   0.3237  0.7050  0.3249  11.00000  0.05    0.21 
;
_shelx_res_checksum              6223
_shelx_hkl_file
; 
   0   0   1    0.01    0.04 
   0   0  -1    0.01    0.04 
   0   0   2   27.21    0.70 
   0   0   3    0.06    0.09 
   0   0   4    0.78    0.21 
   0   0   5   -0.07    0.12 
   0   1   0   -0.02    0.01 
   0   1   0   -0.01    0.01 
   0  -1   0    0.01    0.01 
   0  -1   0   -0.01    0.01 
   0  -1   1    2.44    0.07 
   0   1  -2    1.07    0.17 
   0   1   2    0.94    0.16 
   0  -1   2    1.22    0.17 
   0   1   3    0.70    0.17 
   0   1  -3    0.98    0.20 
   0  -1   3    0.78    0.18 
   0   1   4   11.27    0.59 
   0  -1   4   11.93    0.58 
   0   1   5    0.56    0.27 
   0  -1   5    0.70    0.22 
   0   2   0    5.05    0.14 
   0   2   0    5.19    0.15 
   0  -2   0    5.33    0.14 
   0  -2   0    5.18    0.16 
   0   2   1  169.26    2.39 
   0   2  -1  172.75    2.39 
   0  -2  -1  172.47    2.38 
   0  -2   1  173.91    2.47 
   0  -2   1  172.08    2.40 
   0  -2   2   24.68    0.42 
   0   2   3    0.48    0.15 
   0   2  -3    0.48    0.15 
   0  -2   3    0.43    0.13 
   0   2   4    2.14    0.32 
   0  -2   4    2.05    0.29 
   0  -2   7    1.68    0.30 
   0   3   0    0.05    0.04 
   0   3   0   -0.03    0.03 
   0  -3   0   -0.03    0.04 
   0  -3   0   -0.04    0.03 
   0   3  -1   12.64    0.27 
   0   3   1   12.65    0.27 
   0   3  -1   13.02    0.31 
   0   3   1   13.24    0.26 
   0  -3   1   12.60    0.31 
   0  -3   1   12.82    0.28 
   0  -3  -1   12.20    0.26 
   0   3   2    0.09    0.04 
   0   3  -2    0.07    0.04 
   0  -3   2    0.15    0.05 
   0  -3   2    0.18    0.07 
   0  -3   3   48.96    0.81 
   0   3  -4    8.55    0.52 
   0   3   4    9.31    0.57 
   0  -3   6    0.05    0.14 
   0  -3   7    0.51    0.23 
   0   4   0 1000.00   13.44 
   0   4   0  987.97   13.46 
   0  -4   0  967.90   13.57 
   0  -4   0  996.03   13.46 
   0   4  -1  142.79    2.07 
   0   4  -1  145.04    2.13 
   0   4   1  142.39    2.03 
   0   4   1  139.94    2.07 
   0  -4  -1  142.87    2.03 
   0  -4  -1  143.15    2.06 
   0  -4   1  143.19    2.08 
   0  -4   1  140.31    2.11 
   0   4   2   29.11    0.53 
   0   4  -2   29.66    0.52 
   0  -4   2   29.46    0.64 
   0  -4  -2   27.79    0.49 
   0  -4   2   29.57    0.55 
   0   4   3    0.03    0.04 
   0  -4   3   -0.05    0.08 
   0  -4   3    0.02    0.05 
   0  -4   4    2.61    0.27 
   0  -4   4    2.87    0.17 
   0  -4   5    0.36    0.10 
   0  -4   5    0.52    0.16 
   0  -4   6    0.26    0.18 
   0   5   0   -0.04    0.05 
   0   5   0   -0.10    0.04 
   0  -5   0   -0.04    0.04 
   0  -5   0   -0.06    0.06 
   0   5  -1    1.31    0.11 
   0   5   1    1.43    0.11 
   0   5   1    1.40    0.09 
   0   5  -1    1.71    0.13 
   0  -5   1    1.34    0.12 
   0  -5   1    1.38    0.12 
   0  -5  -1    1.40    0.11 
   0  -5  -1    1.29    0.09 
   0   5  -2   17.27    0.38 
   0   5   2   16.55    0.38 
   0   5   2   17.20    0.37 
   0  -5  -2   17.99    0.36 
   0  -5   2   17.82    0.42 
   0  -5   2   17.91    0.47 
   0   5   3    1.10    0.11 
   0  -5   3    1.17    0.13 
   0  -5   3    1.16    0.16 
   0   5   4    0.60    0.09 
   0  -5   4    0.53    0.15 
   0  -5   4    0.52    0.10 
   0  -5   5    2.81    0.32 
   0  -5   5    2.69    0.20 
   0  -5   6    0.17    0.11 
   0  -5   6    0.20    0.17 
   0   6   0   16.13    0.38 
   0   6   0   15.86    0.39 
   0  -6   0   16.22    0.40 
   0  -6   0   15.54    0.36 
   0   6  -1    1.82    0.15 
   0   6   1    1.79    0.11 
   0   6   1    1.73    0.13 
   0   6  -1    1.90    0.13 
   0  -6  -1    1.86    0.11 
   0  -6  -1    1.87    0.14 
   0  -6   1    1.86    0.15 
   0  -6   1    1.71    0.14 
   0   6   2   31.48    0.63 
   0   6   2   31.89    0.60 
   0   6  -2   33.48    0.65 
   0  -6   2   32.43    0.66 
   0  -6   2   31.38    0.71 
   0  -6  -2   32.04    0.60 
   0   6   3    0.28    0.08 
   0  -6   3    0.46    0.10 
   0  -6   3    0.21    0.10 
   0   6   4    1.91    0.15 
   0  -6   4    1.90    0.24 
   0  -6   4    2.02    0.18 
   0  -6   5    0.02    0.10 
   0  -6   5    0.12    0.14 
   0  -6   6    0.75    0.15 
   0  -6   6    1.16    0.25 
   0   7   0   -0.09    0.05 
   0   7   0    0.02    0.05 
   0  -7   0   -0.07    0.06 
   0  -7   0   -0.04    0.04 
   0   7  -1    0.19    0.07 
   0   7   1    0.24    0.07 
   0   7   1    0.13    0.08 
   0  -7  -1    0.35    0.07 
   0  -7   1    0.26    0.08 
   0  -7  -1    0.05    0.08 
   0  -7   1    0.21    0.09 
   0   7   2   33.92    0.65 
   0   7   2   35.80    0.71 
   0  -7   2   34.05    0.77 
   0  -7  -2   36.20    0.68 
   0  -7   2   35.05    0.74 
   0   7   3   27.81    0.60 
   0  -7   3   28.17    0.73 
   0  -7   3   28.74    0.65 
   0  -7  -3   23.89    0.50 
   0   7   4    0.09    0.08 
   0  -7   4    0.08    0.09 
   0  -7   4    0.12    0.12 
   0  -7   5    1.52    0.26 
   0  -7   5    1.25    0.18 
   0  -7   6    0.20    0.17 
   0  -7   6    0.07    0.12 
   0   8   0   37.65    0.78 
   0  -8   0   36.16    0.71 
   0  -8   0   37.26    0.77 
   0   8   1   10.98    0.36 
   0  -8   1   10.86    0.36 
   0  -8  -1   11.04    0.36 
   0  -8  -1   11.44    0.31 
   0  -8   1   11.28    0.38 
   0   8   2   16.40    0.45 
   0  -8   2   16.09    0.49 
   0  -8  -2   16.70    0.43 
   0  -8   2   16.23    0.48 
   0   8   3   -0.07    0.07 
   0  -8  -3    0.05    0.06 
   0  -8   3    0.20    0.11 
   0  -8   3    0.03    0.08 
   0   8   4    1.34    0.21 
   0  -8   4    1.04    0.19 
   0  -8   4    0.99    0.17 
   0  -8   5    0.45    0.19 
   0  -8   5    0.30    0.13 
   0  -8   6   -0.11    0.12 
   0  -8   6    0.08    0.16 
   0  -9   0    0.12    0.06 
   0  -9   0   -0.01    0.07 
   0   9   1    7.01    0.32 
   0  -9   1    6.92    0.32 
   0  -9   1    6.73    0.29 
   0  -9  -1    6.62    0.30 
   0  -9  -1    6.77    0.25 
   0   9   2    0.99    0.15 
   0  -9   2    0.96    0.16 
   0  -9  -2    0.97    0.13 
   0  -9   2    0.76    0.14 
   0   9   3    2.75    0.21 
   0  -9   3    3.33    0.25 
   0  -9  -3    3.63    0.20 
   0  -9   3    4.00    0.30 
   0  -9   4    0.29    0.12 
   0  -9   4    0.07    0.12 
   0  -9   5    1.50    0.22 
   0  -9   5    1.44    0.26 
   0  -9   6    0.86    0.25 
   0  -9   6    0.60    0.19 
   0 -10   0   36.47    0.75 
   0 -10   0   35.32    0.81 
   0 -10   1    2.28    0.21 
   0 -10  -1    2.05    0.20 
   0 -10   1    2.17    0.21 
   0 -10  -1    2.55    0.17 
   0 -10   2    7.00    0.35 
   0 -10  -2    6.54    0.30 
   0 -10   2    7.25    0.35 
   0  10   3    0.49    0.14 
   0 -10   3    0.46    0.16 
   0 -10  -3    0.45    0.10 
   0 -10   3    0.11    0.11 
   0 -10   4    0.68    0.19 
   0 -10   4    0.50    0.16 
   0 -10   5    0.36    0.17 
   0 -10   5    0.59    0.18 
   0 -11   0    0.05    0.08 
   0 -11   0    0.08    0.10 
   0 -11  -1    6.55    0.33 
   0 -11   1    6.24    0.34 
   0 -11   1    6.33    0.31 
   0 -11  -1    6.58    0.28 
   0 -11   2    9.97    0.44 
   0 -11   2   10.51    0.44 
   0 -11  -2   10.97    0.40 
   0 -11  -3    1.00    0.15 
   0 -11   3    0.79    0.17 
   0 -11   3    0.62    0.17 
   0 -11   4    0.49    0.18 
   0 -11   4    0.74    0.19 
   0 -11   5    0.21    0.17 
   0 -11   5   -0.03    0.15 
   0 -12   0    4.85    0.27 
   0 -12   0    4.80    0.31 
   0 -12  -1   -0.09    0.10 
   0 -12   1   -0.04    0.08 
   0 -12  -1   -0.06    0.07 
   0 -12   1    0.04    0.11 
   0 -12  -2    0.83    0.15 
   0 -12   2    0.74    0.17 
   0 -12   2    0.56    0.17 
   0 -12   3   -0.03    0.12 
   0 -12  -3    0.20    0.11 
   0 -12   3   -0.11    0.12 
   0 -12   4   -0.12    0.14 
   0 -12   4    0.01    0.14 
   0 -12   5    0.14    0.18 
   0 -12   5    0.36    0.19 
   0 -13   0   -0.12    0.11 
   0 -13   0   -0.08    0.08 
   0 -13  -1    1.87    0.20 
   0 -13   1    1.31    0.21 
   0 -13   1    1.96    0.22 
   0 -13  -1    1.50    0.21 
   0 -13  -2    0.09    0.10 
   0 -13   2   -0.02    0.11 
   0 -13   2    0.11    0.14 
   0 -13   3   -0.14    0.11 
   0 -13   3   -0.10    0.13 
   0 -13   4    0.12    0.16 
   0 -13   4    0.23    0.18 
   0 -14   0    5.66    0.37 
   0 -14   0    5.41    0.30 
   0 -14  -1    2.91    0.29 
   0 -14  -1    2.87    0.24 
   0 -14   1    3.28    0.27 
   0 -14   1    2.73    0.30 
   0 -14  -2    1.86    0.23 
   0 -14   2    2.36    0.29 
   0 -14   2    2.11    0.28 
   0 -14   3   -0.04    0.14 
   0 -14   3   -0.12    0.15 
   0 -14   4    0.96    0.26 
   0 -14   4    0.75    0.24 
   0 -15   0    0.05    0.12 
   0 -15   0   -0.21    0.12 
   0 -15  -1    0.76    0.20 
   0 -15   1    0.95    0.19 
   0 -15  -1    0.97    0.19 
   0 -15   1    0.89    0.22 
   0 -15   2    0.26    0.18 
   0 -15  -2    0.15    0.15 
   0 -15   2    0.32    0.16 
   0 -15   3   -0.13    0.17 
   0 -15   3   -0.09    0.13 
   0 -16   0    0.42    0.17 
   0 -16   0    0.71    0.20 
   0 -16   1   -0.01    0.13 
   0 -16  -1    0.13    0.13 
   0 -16  -1    0.33    0.18 
   0 -16   1    0.10    0.16 
   0 -16   2   -0.10    0.13 
   0 -16  -2    0.15    0.24 
   0 -16   2   -0.07    0.15 
   0 -17   0    0.01    0.16 
   0 -17   0    0.08    0.15 
   0 -17  -1    0.58    0.21 
   0 -17   1    0.54    0.19 
   0 -17  -1    0.68    0.20 
   0 -17   1    0.35    0.21 
  -1   0   5    0.25    0.17 
  -1   0   4   15.29    0.67 
  -1   0   3    0.08    0.10 
  -1   0   1    0.00    0.02 
  -1   0   0   23.12    0.37 
  -1   0   0   23.07    0.37 
   1   0   0   23.42    0.37 
   1   0   0   22.99    0.37 
   1   0   1    0.00    0.02 
   1   0   1   -0.01    0.02 
  -1   0  -1    0.00    0.02 
   1   0   2  130.44    1.85 
   1   0   3    0.06    0.09 
  -1   0  -3   -0.06    0.09 
   1   0   4   11.04    0.58 
  -1  -1   7    0.83    0.23 
  -1   1   5    4.45    0.44 
  -1  -1   5    4.57    0.42 
  -1   1   4    1.44    0.27 
  -1  -1   4    1.44    0.24 
  -1   1   3   24.67    0.77 
  -1  -1   3   24.76    0.74 
  -1  -1   2   16.66    0.49 
   1   1  -1   58.81    0.90 
  -1   1   1   59.42    0.85 
   1   1  -1   59.64    0.85 
  -1   1   1   59.88    0.85 
   1   1  -1   60.25    0.86 
  -1  -1   1   60.29    0.86 
  -1  -1   1   60.49    0.90 
  -1  -1   1   60.16    0.86 
  -1   1   0   59.25    0.87 
   1   1   0   59.39    0.87 
   1   1   0   58.53    0.87 
   1   1   0   60.51    0.86 
   1  -1   0   60.10    0.87 
  -1  -1   0   59.89    0.87 
   1  -1   0   59.33    0.87 
  -1  -1   0   58.42    0.86 
   1   1   1   57.94    0.85 
  -1   1  -1   56.98    0.85 
   1   1   1   57.61    0.85 
  -1  -1  -1   57.32    0.84 
   1  -1   1   58.10    0.86 
   1   1   2   13.42    0.26 
   1   1   2   13.32    0.26 
   1  -1   2   13.29    0.28 
  -1   1  -3   11.62    0.54 
   1   1   3   11.91    0.53 
   1  -1   3   11.12    0.49 
  -1   1  -4    0.21    0.15 
   1   1   4    0.15    0.15 
   1  -1   4    0.36    0.17 
  -1  -2   7    0.02    0.18 
  -1  -2   6    0.28    0.17 
  -1   2   5    0.48    0.21 
  -1  -2   5    0.60    0.20 
  -1   2   4    1.13    0.25 
  -1  -2   4    1.04    0.22 
  -1  -2   3  114.08    1.83 
  -1  -2   2   14.37    0.28 
  -1  -2   2   14.65    0.36 
   1   2  -1    1.41    0.07 
   1   2  -1    1.51    0.08 
  -1   2   1    1.46    0.07 
   1   2  -1    1.40    0.09 
  -1  -2   1    1.35    0.09 
   1  -2  -1    1.33    0.06 
   1  -2  -1    1.36    0.07 
  -1  -2   1    1.40    0.08 
  -1   2   0    7.30    0.17 
   1   2   0    7.19    0.16 
   1   2   0    7.15    0.17 
   1  -2   0    6.83    0.16 
   1  -2   0    7.14    0.18 
  -1  -2   0    6.92    0.16 
   1   2   1    4.61    0.14 
  -1   2  -1    4.45    0.14 
   1  -2   1    4.83    0.15 
  -1  -2  -1    4.56    0.13 
   1   2   2   13.96    0.28 
   1  -2   2   13.79    0.30 
   1  -2   3    1.81    0.11 
   1  -2   4    0.41    0.08 
  -1  -3   7    0.08    0.18 
  -1  -3   6    0.45    0.17 
  -1  -3   5    7.90    0.41 
  -1  -3   4   -0.01    0.09 
  -1  -3   3    6.01    0.28 
  -1  -3   3    6.16    0.19 
   1   3  -2   23.53    0.40 
  -1   3   2   23.66    0.41 
   1   3  -2   22.94    0.40 
  -1  -3   2   23.01    0.51 
  -1  -3   2   23.71    0.44 
  -1   3   1  425.96    5.88 
   1   3  -1  438.00    5.99 
  -1   3   1  430.86    5.95 
   1   3  -1  436.94    5.95 
  -1  -3   1  432.32    5.96 
  -1  -3   1  435.58    5.98 
   1  -3  -1  431.21    6.01 
   1  -3  -1  432.29    5.94 
   1   3   0   16.85    0.32 
  -1   3   0   16.70    0.33 
  -1   3   0   16.61    0.32 
   1   3   0   16.57    0.33 
  -1  -3   0   16.40    0.32 
   1  -3   0   15.58    0.31 
  -1  -3   0   16.67    0.33 
   1  -3   0   15.89    0.33 
  -1   3  -1  122.31    1.75 
   1   3   1  119.84    1.75 
   1   3   1  115.50    1.74 
  -1  -3  -1  122.48    1.74 
   1  -3   1  119.65    1.76 
   1   3   2    1.26    0.09 
  -1   3  -2    1.25    0.08 
   1  -3   2    1.24    0.10 
   1   3   3    1.71    0.10 
   1  -3   3    1.54    0.12 
   1  -3   4    3.24    0.18 
   1  -3   5    2.92    0.20 
  -1  -4   7   -0.07    0.15 
  -1  -4   6    1.37    0.25 
  -1  -4   5    2.17    0.25 
  -1  -4   4    4.74    0.20 
  -1  -4   4    4.73    0.29 
  -1  -4   3    1.52    0.17 
  -1  -4   3    1.28    0.12 
  -1   4   2    4.78    0.14 
   1   4  -2    4.98    0.16 
  -1   4   2    4.81    0.17 
   1   4  -2    5.04    0.22 
   1  -4  -2    4.83    0.14 
  -1  -4   2    5.07    0.22 
  -1  -4   2    5.05    0.18 
  -1   4   1    2.32    0.09 
  -1   4   1    2.46    0.12 
   1   4  -1    2.36    0.13 
   1   4  -1    2.48    0.14 
  -1  -4   1    2.49    0.14 
   1  -4  -1    2.29    0.12 
   1  -4  -1    2.35    0.09 
  -1  -4   1    2.30    0.13 
  -1   4   0   15.12    0.34 
  -1   4   0   15.58    0.33 
   1   4   0   15.43    0.33 
   1   4   0   15.91    0.35 
  -1  -4   0   15.13    0.34 
   1  -4   0   14.89    0.34 
   1  -4   0   14.97    0.32 
  -1  -4   0   15.10    0.32 
   1   4   1  146.68    2.11 
   1   4   1  143.57    2.12 
  -1   4  -1  145.82    2.13 
   1  -4   1  146.09    2.19 
  -1  -4  -1  145.56    2.11 
   1  -4   1  145.17    2.14 
   1   4   2   12.99    0.32 
  -1   4  -2   13.44    0.31 
  -1  -4  -2   13.40    0.29 
   1  -4   2   13.76    0.34 
   1   4   3    0.86    0.09 
   1  -4   3    0.48    0.09 
   1   4   4    6.43    0.22 
   1  -4   4    6.36    0.25 
   1  -4   5    4.36    0.24 
  -1  -5   7    0.51    0.22 
  -1  -5   6    1.56    0.27 
  -1  -5   5   -0.07    0.10 
  -1  -5   5   -0.11    0.07 
  -1  -5   4   -0.06    0.08 
  -1  -5   4    0.15    0.08 
  -1   5   3    5.68    0.20 
  -1   5   3    5.98    0.20 
  -1  -5   3    6.11    0.29 
  -1  -5   3    6.27    0.24 
   1   5  -2    3.10    0.23 
   1   5  -2    2.81    0.14 
  -1   5   2    2.70    0.14 
  -1   5   2    2.93    0.12 
  -1  -5   2    2.95    0.16 
  -1  -5   2    2.94    0.18 
   1  -5  -2    2.98    0.13 
  -1   5   1   22.69    0.48 
   1   5  -1   23.41    0.48 
  -1   5   1   23.16    0.43 
   1   5  -1   23.91    0.51 
  -1  -5   1   23.40    0.49 
   1  -5  -1   22.96    0.41 
   1  -5  -1   23.55    0.48 
  -1  -5   1   23.24    0.49 
  -1   5   0  106.40    1.61 
   1   5   0  107.99    1.63 
  -1   5   0  106.37    1.63 
   1   5   0  107.71    1.61 
  -1  -5   0  105.06    1.59 
   1  -5   0  106.60    1.64 
  -1  -5   0  105.38    1.63 
   1  -5   0  106.72    1.59 
   1   5   1    0.03    0.05 
  -1   5  -1    0.07    0.05 
   1   5   1    0.10    0.05 
   1  -5   1   -0.02    0.05 
  -1  -5  -1    0.06    0.06 
   1  -5   1    0.00    0.05 
  -1  -5  -1    0.09    0.05 
   1   5   2    0.13    0.06 
   1   5   2    0.28    0.07 
  -1   5  -2    0.17    0.06 
   1  -5   2    0.27    0.08 
  -1  -5  -2    0.20    0.05 
   1  -5   2    0.11    0.09 
   1   5   3    2.05    0.14 
   1  -5   3    1.65    0.19 
   1  -5   3    2.11    0.16 
   1   5   4    4.45    0.20 
   1  -5   4    4.57    0.32 
   1  -5   4    4.37    0.23 
   1   5   5   -0.03    0.09 
   1  -5   5    0.06    0.10 
   1  -5   5    0.13    0.14 
   1  -5   6    0.23    0.18 
   1  -5   6   -0.10    0.10 
  -1  -6   6    0.79    0.22 
  -1  -6   6    0.83    0.14 
  -1  -6   5    0.11    0.13 
  -1  -6   5    0.10    0.10 
  -1   6   4    0.00    0.06 
  -1  -6   4   -0.08    0.09 
  -1  -6   4    0.03    0.08 
  -1   6   3   15.01    0.38 
  -1   6   3   14.86    0.35 
  -1  -6   3   15.10    0.41 
  -1  -6   3   15.34    0.48 
   1   6  -2   20.88    0.47 
  -1   6   2   20.97    0.41 
  -1   6   2   21.27    0.47 
  -1  -6   2   20.64    0.49 
  -1  -6   2   21.48    0.53 
   1  -6  -2   20.85    0.44 
   1   6  -1    0.90    0.10 
  -1   6   1    0.85    0.08 
   1   6  -1    0.98    0.12 
  -1   6   1    0.96    0.11 
  -1  -6   1    0.83    0.11 
   1  -6  -1    0.92    0.08 
  -1  -6   1    0.87    0.11 
   1  -6  -1    0.95    0.11 
  -1   6   0    0.10    0.06 
   1   6   0    0.18    0.06 
  -1   6   0    0.16    0.06 
   1   6   0    0.08    0.06 
   1  -6   0    0.09    0.06 
  -1  -6   0    0.15    0.05 
  -1  -6   0    0.11    0.06 
   1  -6   0    0.17    0.06 
   1   6   1   24.48    0.53 
   1   6   1   23.66    0.49 
  -1   6  -1   23.77    0.52 
   1  -6   1   24.27    0.54 
   1  -6   1   23.66    0.55 
  -1  -6  -1   24.77    0.50 
  -1  -6  -1   24.90    0.52 
   1   6   2    0.86    0.11 
   1  -6   2    0.90    0.14 
   1  -6   2    1.01    0.13 
  -1  -6  -2    0.90    0.10 
   1   6   3    5.82    0.24 
   1  -6   3    5.75    0.33 
   1  -6   3    6.00    0.26 
   1   6   4    0.64    0.11 
   1  -6   4    0.44    0.12 
   1  -6   4    0.78    0.18 
   1  -6   5    4.78    0.40 
   1  -6   5    4.20    0.27 
   1   6   6    0.30    0.12 
   1  -6   6    0.00    0.18 
   1  -6   6    0.11    0.13 
  -1  -7   6    0.16    0.13 
  -1  -7   6    0.51    0.21 
  -1  -7   5    4.36    0.27 
  -1  -7   5    4.49    0.36 
  -1   7   4    1.28    0.15 
  -1  -7   4    1.28    0.20 
  -1  -7   4    1.14    0.15 
  -1   7   3    1.95    0.17 
  -1   7   3    1.77    0.13 
  -1  -7   3    1.94    0.21 
  -1  -7   3    1.82    0.18 
  -1   7   2    7.62    0.23 
  -1   7   2    7.66    0.28 
   1  -7  -2    7.60    0.26 
  -1  -7   2    6.80    0.29 
  -1  -7   2    8.04    0.32 
   1   7  -1  154.26    2.36 
  -1   7   1  155.78    2.34 
  -1   7   1  144.18    2.25 
   1  -7  -1  154.75    2.23 
   1  -7  -1  156.19    2.33 
  -1  -7   1  152.10    2.32 
  -1  -7   1  153.52    2.35 
   1   7   0   18.69    0.46 
  -1   7   0   18.76    0.46 
   1   7   0   18.42    0.51 
  -1   7   0   18.89    0.45 
   1  -7   0   18.64    0.42 
   1  -7   0   17.69    0.46 
  -1  -7   0   18.24    0.47 
  -1  -7   0   17.64    0.42 
   1   7   1   50.83    0.95 
  -1  -7  -1   52.98    0.91 
   1  -7   1   52.11    0.97 
   1  -7   1   49.92    0.96 
  -1  -7  -1   51.51    0.94 
   1   7   2   10.09    0.33 
   1  -7   2   10.07    0.35 
   1  -7   2    9.81    0.38 
  -1  -7  -2    9.88    0.31 
   1   7   3    0.26    0.09 
   1  -7   3    0.22    0.12 
   1  -7   3    0.15    0.09 
  -1  -7  -3    0.25    0.06 
   1   7   4    1.11    0.14 
   1  -7   4    1.04    0.16 
   1  -7   4    1.54    0.23 
   1  -7   5    2.49    0.31 
   1  -7   5    2.48    0.24 
   1  -7   6    0.41    0.19 
   1  -7   6   -0.06    0.12 
  -1  -8   6    0.46    0.19 
  -1  -8   6    0.05    0.13 
  -1  -8   5    0.48    0.14 
  -1  -8   5    0.46    0.16 
  -1   8   4    1.76    0.18 
  -1  -8   4    2.00    0.24 
  -1  -8   4    1.92    0.20 
  -1   8   3    8.20    0.31 
  -1  -8   3    8.65    0.38 
  -1  -8   3    8.07    0.34 
   1  -8  -3    7.79    0.26 
  -1   8   2    0.07    0.06 
  -1   8   2    0.01    0.06 
  -1  -8   2    0.07    0.09 
   1  -8  -2    0.17    0.07 
  -1  -8   2    0.06    0.08 
  -1   8   1    7.07    0.26 
  -1   8   1    6.83    0.29 
  -1  -8   1    7.58    0.29 
  -1  -8   1    7.28    0.30 
   1  -8  -1    7.15    0.29 
   1  -8  -1    7.50    0.24 
   1   8   0   23.31    0.61 
  -1   8   0   22.42    0.70 
  -1  -8   0   23.40    0.57 
  -1  -8   0   22.86    0.51 
   1  -8   0   23.40    0.57 
   1  -8   0   22.30    0.51 
   1   8   1    4.33    0.23 
  -1  -8  -1    4.48    0.23 
   1  -8   1    4.47    0.24 
  -1  -8  -1    4.57    0.21 
   1  -8   1    4.48    0.24 
   1   8   2    0.08    0.08 
  -1  -8  -2   -0.02    0.07 
   1  -8   2    0.08    0.09 
   1  -8   2   -0.01    0.08 
   1   8   3    0.37    0.11 
   1  -8   3    0.38    0.12 
   1  -8   3    0.40    0.14 
  -1  -8  -3    0.30    0.08 
   1  -8   4    0.98    0.21 
   1  -8   4    0.64    0.15 
   1  -8   5    2.86    0.27 
   1  -8   5    2.90    0.35 
   1   8   6    1.77    0.21 
   1  -8   6    1.28    0.22 
   1  -8   6    1.47    0.30 
  -1  -9   6    0.22    0.21 
  -1  -9   6    0.10    0.15 
  -1  -9   5    0.48    0.18 
  -1  -9   5    0.58    0.17 
   1   9  -4    1.07    0.14 
  -1  -9   4    1.13    0.20 
  -1  -9   4    0.91    0.17 
  -1   9   3    0.56    0.12 
  -1  -9   3    0.82    0.16 
   1  -9  -3    0.65    0.11 
  -1  -9   3    0.93    0.17 
  -1   9   2    0.01    0.08 
   1  -9  -2    0.06    0.08 
  -1  -9   2    0.03    0.09 
  -1  -9   2   -0.04    0.08 
  -1   9   1    8.98    0.45 
   1  -9  -1    8.74    0.34 
   1  -9  -1    8.65    0.28 
  -1  -9   1    9.15    0.36 
  -1  -9   1    9.24    0.33 
  -1  -9   0    8.38    0.34 
   1  -9   0    8.47    0.29 
   1  -9   0    8.07    0.33 
  -1  -9   0    8.57    0.30 
  -1  -9  -1    3.84    0.20 
   1  -9   1    4.38    0.25 
   1  -9   1    3.66    0.23 
  -1  -9  -1    4.09    0.24 
   1   9   2    0.41    0.12 
   1  -9   2    0.69    0.14 
   1  -9   2    0.60    0.13 
  -1  -9  -2    0.64    0.11 
   1   9   3    0.67    0.14 
   1  -9   3    0.89    0.17 
   1  -9   3    0.70    0.16 
  -1  -9  -3    0.90    0.12 
   1  -9   4    0.05    0.13 
   1  -9   4   -0.20    0.10 
   1  -9   5    0.93    0.23 
   1  -9   5    0.36    0.16 
  -1 -10   6    0.12    0.17 
  -1 -10   6   -0.01    0.16 
  -1 -10   5    0.26    0.18 
  -1 -10   5    0.18    0.15 
   1  10  -4    0.27    0.14 
  -1 -10   4    0.17    0.13 
  -1 -10   4    0.46    0.16 
  -1  10   3    3.81    0.26 
   1 -10  -3    4.44    0.23 
  -1 -10   3    4.02    0.30 
  -1 -10   3    4.11    0.29 
  -1 -10   2    9.29    0.39 
  -1 -10   2    8.52    0.37 
   1 -10  -2    8.97    0.30 
   1 -10  -2    9.05    0.35 
  -1 -10   1   -0.04    0.09 
   1 -10  -1   -0.01    0.08 
  -1 -10   1   -0.01    0.07 
   1 -10  -1    0.00    0.06 
   1 -10   0    2.86    0.19 
   1 -10   0    2.90    0.23 
  -1 -10   0    2.82    0.19 
  -1 -10   0    2.38    0.22 
  -1 -10  -1    0.08    0.07 
   1 -10   1    0.01    0.09 
   1 -10   1    0.10    0.09 
  -1 -10  -1    0.09    0.08 
   1 -10   2    6.73    0.35 
   1 -10   2    7.55    0.36 
  -1 -10  -2    7.41    0.32 
   1  10   3    2.33    0.24 
   1 -10   3    2.05    0.23 
   1 -10   3    2.25    0.28 
  -1 -10  -3    2.33    0.19 
   1 -10   4    0.03    0.14 
   1 -10   4   -0.09    0.12 
   1 -10   5    0.88    0.24 
   1 -10   5    1.01    0.22 
  -1 -11   5    0.78    0.21 
  -1 -11   5    0.67    0.21 
  -1 -11   4    0.98    0.21 
  -1 -11   4    1.21    0.21 
   1 -11  -3    3.29    0.22 
  -1 -11   3    3.08    0.31 
  -1 -11   3    3.31    0.30 
   1 -11  -2    6.72    0.27 
  -1 -11   2    6.29    0.34 
   1 -11  -2    6.44    0.32 
  -1 -11   2    6.23    0.35 
  -1 -11   1   13.47    0.50 
  -1 -11   1   14.60    0.46 
   1 -11  -1   13.71    0.47 
   1 -11  -1   14.41    0.41 
   1 -11   0    0.12    0.08 
  -1 -11   0    0.54    0.14 
  -1 -11   0    0.41    0.10 
   1 -11   0    0.40    0.12 
   1 -11   1   12.45    0.48 
   1 -11   1   12.93    0.45 
  -1 -11  -1   12.24    0.40 
  -1 -11  -1   12.85    0.46 
   1 -11   2    4.29    0.31 
   1 -11   2    4.19    0.31 
  -1 -11  -2    3.97    0.26 
   1 -11   3    3.42    0.31 
  -1 -11  -3    3.89    0.24 
   1 -11   3    4.33    0.34 
   1 -11   4    0.15    0.15 
   1 -11   4    0.60    0.20 
   1 -11   5   -0.15    0.15 
   1 -11   5    0.16    0.16 
  -1 -12   5    0.07    0.16 
  -1 -12   5    0.24    0.20 
  -1 -12   4    2.67    0.30 
  -1 -12   4    2.17    0.31 
  -1 -12   3    0.96    0.20 
   1 -12  -3    0.97    0.15 
  -1 -12   3    0.95    0.18 
  -1 -12   2    1.07    0.19 
  -1 -12   2    0.77    0.16 
   1 -12  -2    1.41    0.18 
   1 -12  -2    0.94    0.17 
  -1 -12   1    6.41    0.33 
  -1 -12   1    6.51    0.37 
   1 -12  -1    6.29    0.28 
   1 -12  -1    6.39    0.35 
   1 -12   0    0.12    0.11 
  -1 -12   0    0.03    0.10 
   1 -12   0    0.27    0.10 
  -1 -12   0    0.18    0.09 
   1 -12   1    0.34    0.13 
   1 -12   1    0.43    0.14 
  -1 -12  -1    0.45    0.12 
  -1 -12  -1    0.22    0.12 
   1 -12   2    1.03    0.19 
   1 -12   2    1.06    0.20 
  -1 -12  -2    1.00    0.17 
  -1 -12  -3   -0.05    0.09 
   1 -12   3   -0.02    0.14 
   1 -12   3   -0.07    0.13 
   1 -12   4    0.12    0.13 
   1 -12   4    0.22    0.17 
   1 -12   5    1.54    0.28 
   1 -12   5    1.15    0.26 
  -1 -13   4    0.44    0.20 
  -1 -13   4    0.43    0.18 
  -1 -13   3    1.33    0.23 
   1 -13  -3    1.28    0.29 
  -1 -13   3    1.36    0.23 
   1 -13  -2    0.15    0.12 
   1 -13  -2    0.45    0.13 
  -1 -13   2    0.55    0.15 
  -1 -13   2    0.17    0.13 
   1 -13  -1    0.26    0.11 
  -1 -13   1    0.13    0.11 
   1 -13  -1   -0.02    0.11 
  -1 -13   1    0.14    0.12 
  -1 -13   0    0.54    0.14 
  -1 -13   0    0.56    0.16 
   1 -13   0    0.22    0.13 
   1 -13   0    0.59    0.14 
  -1 -13  -1    0.71    0.15 
  -1 -13  -1    0.34    0.14 
   1 -13   1    0.76    0.19 
   1 -13   1    0.39    0.14 
   1 -13   2    0.23    0.15 
  -1 -13  -2    0.43    0.14 
   1 -13   2    0.21    0.14 
   1 -13   3   -0.13    0.13 
   1 -13   3   -0.01    0.14 
   1 -13   4    0.77    0.22 
   1 -13   4    0.44    0.20 
  -1 -14   4   -0.04    0.17 
  -1 -14   4    0.09    0.15 
  -1 -14   3    0.81    0.19 
  -1 -14   3    0.10    0.15 
   1 -14  -2    2.80    0.28 
  -1 -14   2    2.84    0.31 
  -1 -14   2    3.30    0.33 
   1 -14  -2    2.98    0.24 
   1 -14  -1    0.32    0.15 
  -1 -14   1    0.37    0.14 
   1 -14  -1    0.27    0.11 
  -1 -14   1    0.38    0.17 
   1 -14   0   -0.05    0.11 
   1 -14   0   -0.01    0.09 
  -1 -14   0   -0.05    0.12 
  -1 -14   0   -0.04    0.10 
  -1 -14  -1    2.72    0.28 
   1 -14   1    4.36    0.36 
   1 -14   1    3.96    0.30 
  -1 -14  -1    3.50    0.27 
   1 -14   2    1.17    0.23 
  -1 -14  -2    1.42    0.22 
   1 -14   2    1.37    0.23 
   1 -14   3   -0.02    0.15 
   1 -14   3    0.00    0.15 
   1 -14   4    0.10    0.19 
   1 -14   4    0.07    0.16 
  -1 -15   3    0.66    0.22 
  -1 -15   3    1.03    0.22 
  -1 -15   2    1.00    0.24 
   1 -15  -2    1.27    0.19 
  -1 -15   2    1.30    0.22 
   1 -15  -2    0.82    0.19 
  -1 -15   1    2.34    0.29 
   1 -15  -1    1.98    0.28 
   1 -15  -1    2.83    0.26 
  -1 -15   1    2.17    0.26 
  -1 -15   0    0.44    0.16 
   1 -15   0    0.59    0.16 
   1 -15   0    0.63    0.19 
  -1 -15   0    0.48    0.17 
  -1 -15  -1    1.24    0.22 
   1 -15   1    0.92    0.21 
   1 -15   1    1.12    0.21 
  -1 -15  -1    0.91    0.20 
   1 -15   2   -0.18    0.16 
   1 -15   2    0.04    0.13 
  -1 -15  -2    0.01    0.13 
   1 -15   3    1.87    0.28 
   1 -15   3    1.54    0.28 
  -1 -16   3   -0.16    0.13 
  -1 -16   3   -0.08    0.18 
  -1 -16   2    0.25    0.19 
   1 -16  -2   -0.15    0.16 
   1 -16  -2    0.03    0.14 
  -1 -16   2    0.09    0.14 
  -1 -16   1    0.87    0.22 
   1 -16  -1    0.90    0.21 
  -1 -16   1    1.07    0.20 
   1 -16  -1    1.00    0.19 
  -1 -16   0    0.88    0.20 
  -1 -16   0    0.81    0.22 
   1 -16   0    0.73    0.21 
   1 -16   0    0.57    0.17 
  -1 -16  -1    0.00    0.14 
  -1 -16  -1    0.09    0.14 
   1 -16   1    0.01    0.13 
   1 -16   1   -0.20    0.15 
   1 -16   2    0.44    0.21 
   1 -16   2    0.13    0.15 
   1 -17  -1    0.29    0.19 
  -1 -17   1    0.77    0.20 
  -1 -17   1    0.54    0.23 
   1 -17  -1    0.15    0.15 
   1 -17   0    0.44    0.17 
  -1 -17   0    0.47    0.21 
  -1 -17   0    0.30    0.17 
   1 -17   0    0.23    0.18 
   1 -17   1   -0.11    0.16 
  -1 -17  -1    0.29    0.16 
   1 -17   1    0.19    0.15 
  -1 -17  -1    0.23    0.19 
  -2   0   7    0.01    0.14 
  -2   0   6    1.16    0.21 
  -2   0   5    0.01    0.14 
  -2   0   4   10.83    0.55 
  -2   0   3    0.04    0.06 
  -2   0   2    4.27    0.12 
  -2   0   2    4.05    0.12 
  -2   0   2    4.13    0.14 
   2   0  -1   -0.07    0.03 
   2   0  -1   -0.13    0.03 
  -2   0   1   -0.08    0.04 
  -2   0   1   -0.03    0.03 
  -2   0   1   -0.10    0.04 
   2   0  -1   -0.11    0.04 
  -2   0   0  115.22    1.67 
  -2   0   0  115.72    1.67 
   2   0   0  115.65    1.67 
   2   0   0  114.56    1.67 
   2   0   1   -0.06    0.03 
  -2   0  -1   -0.08    0.03 
   2   0   1   -0.06    0.03 
  -2   0  -1    0.01    0.03 
   2   0   2    0.59    0.07 
  -2   0  -2    0.47    0.06 
   2   0   2    0.52    0.07 
   2   0   3   -0.03    0.04 
   2   0   3    0.02    0.04 
   2   0   4    6.86    0.24 
   2   0   4    6.82    0.25 
  -2   1   7    1.75    0.28 
  -2  -1   7    1.98    0.29 
  -2  -1   6    1.30    0.22 
  -2  -1   5    0.06    0.10 
  -2  -1   4   29.49    0.68 
  -2  -1   3    6.89    0.25 
  -2   1   2   38.51    0.61 
  -2   1   2   37.86    0.59 
  -2   1   2   37.80    0.59 
  -2  -1   2   37.81    0.65 
  -2  -1   2   37.83    0.60 
  -2  -1   2   38.66    0.61 
  -2   1   1  128.74    1.85 
   2   1  -1  130.96    1.85 
   2   1  -1  129.52    1.83 
  -2   1   1  128.53    1.85 
   2   1  -1  129.43    1.85 
   2  -1  -1  132.21    1.85 
   2  -1  -1  128.61    1.84 
  -2  -1   1  129.74    1.85 
  -2  -1   1  128.83    1.85 
  -2  -1   1  130.24    1.83 
  -2   1   0   51.64    0.82 
   2   1   0   52.33    0.82 
  -2   1   0   51.81    0.82 
   2   1   0   52.37    0.82 
  -2  -1   0   52.65    0.82 
   2  -1   0   51.66    0.81 
   2  -1   0   51.51    0.82 
  -2  -1   0   52.36    0.82 
  -2   1  -1   12.39    0.28 
   2   1   1   12.69    0.28 
   2   1   1   12.45    0.28 
  -2  -1  -1   12.72    0.28 
  -2  -1  -1   12.77    0.27 
   2  -1   1   12.82    0.29 
   2  -1   1   12.80    0.28 
   2   1   2    6.49    0.20 
   2   1   2    6.40    0.20 
  -2   1  -2    6.30    0.18 
   2  -1   2    6.48    0.20 
   2  -1   2    6.50    0.21 
   2   1   3    0.69    0.08 
   2   1   3    0.86    0.10 
   2  -1   3    0.83    0.10 
   2  -1   3    0.88    0.09 
   2   1   4   18.83    0.43 
   2   1   4   18.67    0.43 
   2  -1   4   18.47    0.44 
   2  -1   4   18.84    0.43 
   2  -1   5   18.27    0.46 
  -2  -2   7    1.31    0.25 
  -2  -2   6    0.34    0.15 
  -2  -2   5    4.77    0.30 
  -2  -2   4    0.25    0.11 
  -2  -2   3    8.98    0.30 
  -2   2   2    3.11    0.11 
   2   2  -2    3.22    0.15 
  -2   2   2    3.13    0.12 
  -2  -2   2    3.30    0.12 
  -2  -2   2    3.25    0.13 
  -2  -2   2    3.39    0.15 
   2   2  -1   33.23    0.56 
  -2   2   1   33.22    0.57 
  -2   2   1   33.97    0.56 
   2   2  -1   33.77    0.56 
   2   2  -1   33.25    0.56 
  -2  -2   1   32.96    0.57 
  -2  -2   1   32.98    0.57 
   2  -2  -1   33.23    0.55 
   2  -2  -1   34.02    0.56 
  -2  -2   1   33.28    0.56 
   2   2   0    2.99    0.11 
  -2   2   0    2.73    0.12 
   2   2   0    2.74    0.12 
   2  -2   0    2.81    0.12 
  -2  -2   0    2.73    0.12 
   2  -2   0    2.61    0.13 
  -2  -2   0    2.94    0.13 
  -2  -2   0    2.58    0.12 
   2   2   1   22.81    0.44 
   2   2   1   23.15    0.44 
  -2   2  -1   23.02    0.44 
   2  -2   1   23.31    0.46 
  -2  -2  -1   22.76    0.43 
   2   2   2   16.64    0.36 
  -2   2  -2   16.32    0.34 
   2   2   2   16.50    0.36 
  -2  -2  -2   16.71    0.33 
   2  -2   2   16.63    0.38 
   2   2   3    8.48    0.26 
   2   2   3    8.75    0.25 
   2  -2   3    8.94    0.27 
   2  -2   3    8.67    0.25 
   2   2   4    4.52    0.21 
   2   2   4    3.98    0.19 
   2  -2   4    3.68    0.19 
   2  -2   4    3.90    0.21 
   2  -2   5    3.19    0.21 
  -2  -3   7    0.21    0.18 
  -2  -3   6    1.99    0.27 
  -2  -3   5   -0.01    0.10 
  -2  -3   4    3.82    0.25 
  -2   3   3    4.74    0.15 
  -2  -3   3    4.69    0.17 
  -2  -3   3    5.19    0.24 
   2   3  -2    2.41    0.11 
  -2   3   2    2.42    0.12 
   2   3  -2    2.51    0.15 
   2   3  -2    2.62    0.11 
  -2  -3   2    2.57    0.13 
  -2  -3   2    2.44    0.14 
  -2   3   1   19.69    0.39 
   2   3  -1   19.69    0.39 
   2   3  -1   19.56    0.40 
   2   3  -1   20.11    0.40 
  -2  -3   1   19.40    0.40 
   2  -3  -1   18.97    0.38 
  -2  -3   1   19.29    0.39 
   2  -3  -1   19.81    0.38 
  -2   3   0   89.69    1.36 
   2   3   0   91.20    1.34 
   2   3   0   91.04    1.36 
   2   3   0   90.15    1.36 
  -2  -3   0   91.04    1.36 
   2  -3   0   89.74    1.37 
  -2  -3   0   81.75    1.33 
  -2   3  -1    8.58    0.24 
   2   3   1    8.56    0.24 
   2   3   1    8.44    0.24 
  -2  -3  -1    8.33    0.23 
   2  -3   1    8.39    0.25 
   2   3   2    0.01    0.05 
   2   3   2    0.00    0.05 
  -2   3  -2    0.04    0.05 
   2  -3   2    0.09    0.06 
  -2  -3  -2    0.13    0.04 
   2   3   3   21.19    0.46 
   2   3   3   21.31    0.46 
   2  -3   3   21.16    0.48 
   2   3   4   20.15    0.47 
   2   3   4   20.08    0.46 
   2  -3   4   19.86    0.50 
   2   3   5    8.47    0.31 
   2  -3   5    8.58    0.33 
   2  -3   6    0.18    0.12 
  -2  -4   7    0.17    0.19 
  -2  -4   6    1.41    0.25 
  -2  -4   5    0.43    0.14 
  -2  -4   4    6.38    0.23 
  -2  -4   4    6.54    0.32 
  -2   4   3    0.19    0.05 
  -2  -4   3    0.16    0.09 
  -2  -4   3    0.18    0.07 
   2   4  -2    3.65    0.15 
  -2   4   2    3.62    0.15 
   2   4  -2    3.85    0.15 
   2   4  -2    4.04    0.19 
   2  -4  -2    3.84    0.14 
  -2  -4   2    4.15    0.19 
  -2  -4   2    3.89    0.17 
   2  -4  -2    3.84    0.14 
   2   4  -1   42.11    0.74 
  -2   4   1   41.50    0.73 
   2   4  -1   41.95    0.73 
   2   4  -1   42.30    0.73 
  -2  -4   1   41.82    0.74 
   2  -4  -1   41.68    0.63 
   2  -4  -1   42.49    0.73 
  -2  -4   1   41.73    0.73 
   2   4   0   57.15    0.94 
   2   4   0   57.85    0.92 
  -2   4   0   57.03    0.94 
   2  -4   0   55.39    0.91 
  -2  -4   0   55.51    0.94 
   2  -4   0   56.75    0.95 
  -2  -4   0   54.21    0.91 
  -2   4  -1   25.16    0.51 
   2   4   1   25.47    0.52 
   2   4   1   25.61    0.51 
   2  -4   1   25.22    0.53 
  -2  -4  -1   25.97    0.51 
  -2   4  -2   26.80    0.53 
   2   4   2   27.23    0.55 
  -2  -4  -2   27.11    0.51 
   2  -4   2   26.85    0.57 
   2   4   3    3.02    0.16 
   2   4   3    3.01    0.17 
   2  -4   3    2.75    0.18 
   2   4   4    1.81    0.16 
   2   4   4    1.57    0.15 
   2  -4   4    1.41    0.17 
   2   4   5    0.39    0.12 
   2  -4   5    0.47    0.12 
   2  -4   6    0.09    0.11 
  -2  -5   7    1.47    0.28 
  -2  -5   6   -0.12    0.08 
  -2  -5   6   -0.09    0.13 
  -2  -5   5    2.71    0.28 
  -2  -5   5    2.43    0.18 
  -2   5   4   30.34    0.59 
  -2  -5   4   30.61    0.63 
  -2  -5   4   30.47    0.76 
  -2   5   3    0.21    0.05 
   2   5  -3    0.14    0.05 
  -2   5   3    0.18    0.06 
   2   5  -3    0.13    0.05 
  -2  -5   3    0.16    0.08 
  -2  -5   3    0.28    0.08 
   2   5  -2   38.40    0.70 
   2   5  -2   38.58    0.69 
  -2   5   2   38.23    0.71 
   2  -5  -2   38.17    0.68 
  -2  -5   2   38.87    0.75 
  -2  -5   2   38.57    0.73 
   2  -5  -2   39.39    0.67 
  -2   5   1   10.95    0.30 
   2   5  -1   10.65    0.31 
  -2   5   1   10.52    0.24 
   2   5  -1   11.03    0.30 
  -2  -5   1   10.65    0.29 
   2  -5  -1   10.72    0.23 
   2  -5  -1   10.34    0.29 
  -2  -5   1   10.69    0.31 
   2   5   0    7.81    0.26 
  -2   5   0    8.07    0.26 
   2   5   0    7.97    0.24 
  -2  -5   0    7.83    0.26 
   2  -5   0    8.26    0.24 
  -2  -5   0    7.67    0.24 
   2  -5   0    8.11    0.27 
   2   5   1    0.09    0.05 
   2   5   1    0.12    0.05 
  -2   5  -1    0.01    0.05 
   2  -5   1    0.17    0.07 
   2  -5   1    0.18    0.07 
  -2  -5  -1    0.07    0.05 
   2   5   2    3.96    0.19 
  -2  -5  -2    3.88    0.17 
   2  -5   2    4.18    0.21 
   2   5   3    2.81    0.17 
   2  -5   3    2.96    0.20 
   2   5   4    3.99    0.21 
   2   5   4    3.39    0.22 
   2  -5   4    3.38    0.24 
   2   5   5    2.85    0.22 
   2  -5   5    3.34    0.25 
   2  -5   6    2.79    0.25 
   2  -5   6    3.05    0.38 
  -2  -6   6    0.52    0.13 
  -2  -6   6    0.44    0.18 
  -2  -6   5    6.20    0.37 
  -2  -6   5    5.90    0.28 
  -2   6   4    1.71    0.14 
  -2   6   4    1.44    0.14 
  -2  -6   4    1.49    0.16 
  -2  -6   4    1.69    0.21 
  -2   6   3   12.70    0.28 
  -2   6   3   13.68    0.36 
   2   6  -3   12.92    0.33 
  -2  -6   3   12.99    0.43 
  -2  -6   3   12.95    0.38 
  -2   6   2    1.81    0.10 
  -2   6   2    1.89    0.14 
   2   6  -2    1.88    0.15 
  -2  -6   2    2.00    0.17 
   2  -6  -2    2.09    0.14 
  -2  -6   2    1.90    0.16 
  -2   6   1    5.80    0.23 
  -2   6   1    5.90    0.19 
   2   6  -1    5.55    0.23 
  -2  -6   1    5.81    0.22 
   2  -6  -1    5.67    0.17 
   2  -6  -1    5.96    0.23 
  -2  -6   1    5.70    0.24 
  -2   6   0    0.98    0.11 
   2   6   0    1.04    0.11 
   2   6   0    0.98    0.11 
  -2  -6   0    0.75    0.09 
  -2  -6   0    1.19    0.12 
   2  -6   0    1.33    0.11 
   2  -6   0    1.09    0.12 
  -2   6  -1    0.02    0.05 
   2   6   1   -0.07    0.05 
   2  -6   1   -0.03    0.06 
   2  -6   1   -0.04    0.05 
  -2  -6  -1   -0.06    0.05 
   2   6   2   10.35    0.33 
   2  -6   2   10.88    0.36 
  -2  -6  -2   10.42    0.31 
   2  -6   2   10.26    0.40 
   2   6   3    9.56    0.33 
   2  -6   3    9.61    0.36 
   2  -6   3    9.65    0.43 
   2   6   4    2.73    0.23 
   2   6   4    3.09    0.21 
   2  -6   4    2.51    0.29 
   2  -6   4    2.59    0.23 
   2   6   5    0.62    0.15 
   2  -6   5    0.54    0.19 
   2  -6   5    0.60    0.15 
   2   6   6    0.35    0.13 
   2  -6   6    0.65    0.26 
   2  -6   6    0.33    0.15 
  -2  -7   6    0.67    0.15 
  -2  -7   6    0.79    0.22 
  -2  -7   5    0.18    0.10 
  -2  -7   5    0.31    0.15 
  -2   7   4    0.00    0.07 
  -2   7   4    0.07    0.06 
  -2  -7   4    0.06    0.09 
  -2  -7   4    0.04    0.10 
  -2   7   3    1.70    0.11 
  -2   7   3    2.07    0.17 
   2   7  -3    1.94    0.14 
  -2  -7   3    2.04    0.18 
   2  -7  -3    1.95    0.13 
  -2  -7   3    1.85    0.20 
  -2   7   2    0.04    0.04 
  -2   7   2    0.14    0.08 
  -2  -7   2    0.03    0.08 
   2  -7  -2    0.05    0.06 
  -2  -7   2    0.13    0.07 
  -2   7   1    0.55    0.08 
  -2   7   1    0.46    0.09 
  -2  -7   1    0.39    0.11 
   2  -7  -1    0.51    0.07 
  -2  -7   1    0.57    0.10 
   2  -7  -1    0.55    0.10 
  -2   7   0    0.43    0.09 
   2   7   0    0.24    0.08 
  -2  -7   0    0.40    0.07 
  -2  -7   0    0.33    0.09 
   2  -7   0    0.54    0.09 
   2  -7   0    0.46    0.09 
   2   7   1    7.63    0.29 
  -2  -7  -1    7.21    0.27 
   2  -7   1    7.55    0.30 
   2  -7   1    7.87    0.31 
  -2  -7  -1    7.68    0.29 
   2   7   2   -0.01    0.06 
   2  -7   2    0.10    0.08 
   2  -7   2    0.01    0.08 
  -2  -7  -2    0.03    0.06 
   2   7   3   15.82    0.45 
   2  -7   3   15.99    0.57 
  -2  -7  -3   16.08    0.39 
   2  -7   3   16.08    0.49 
   2  -7   4    0.67    0.18 
   2  -7   4    0.73    0.15 
   2   7   5    3.29    0.25 
   2  -7   5    3.18    0.28 
   2  -7   5    3.37    0.38 
   2   7   6    0.05    0.14 
   2  -7   6   -0.01    0.19 
   2  -7   6   -0.02    0.14 
  -2  -8   6    0.53    0.15 
  -2  -8   6    0.48    0.19 
  -2  -8   5    0.40    0.16 
  -2  -8   5    0.02    0.11 
  -2   8   4    0.52    0.09 
  -2   8   4    0.50    0.11 
   2   8  -4    0.82    0.11 
  -2  -8   4    0.89    0.18 
  -2  -8   4    0.61    0.13 
   2   8  -3    0.48    0.10 
  -2   8   3    0.33    0.07 
  -2   8   3    0.36    0.10 
  -2  -8   3    0.43    0.12 
   2  -8  -3    0.32    0.08 
  -2  -8   3    0.59    0.13 
  -2   8   2    3.36    0.21 
  -2   8   2    3.20    0.16 
   2  -8  -2    3.62    0.20 
   2  -8  -2    3.35    0.15 
  -2  -8   2    3.25    0.22 
  -2  -8   2    3.36    0.23 
  -2   8   1   59.13    1.03 
  -2   8   1   60.21    1.11 
   2  -8  -1   59.66    1.10 
  -2  -8   1   61.29    1.12 
   2  -8  -1   59.61    0.98 
  -2  -8   1   59.20    1.07 
  -2   8   0    3.62    0.22 
  -2  -8   0    3.75    0.20 
   2  -8   0    4.43    0.21 
  -2  -8   0    4.14    0.23 
   2  -8   0    3.91    0.23 
   2   8   1   -0.03    0.06 
  -2  -8  -1    0.03    0.07 
   2  -8   1   -0.08    0.07 
   2  -8   1   -0.05    0.06 
   2   8   2   32.17    0.73 
   2  -8   2   32.47    0.76 
   2  -8   2   32.57    0.80 
  -2  -8  -2   32.80    0.70 
   2   8   3    1.55    0.17 
   2  -8   3    1.43    0.22 
   2  -8   3    1.07    0.17 
  -2  -8  -3    1.43    0.14 
   2  -8   4    0.19    0.15 
   2  -8   4    0.46    0.14 
   2   8   5   -0.05    0.11 
   2  -8   5    0.15    0.17 
   2  -8   5    0.21    0.13 
  -2  -9   6    0.14    0.14 
  -2  -9   6    0.09    0.17 
  -2  -9   5    1.14    0.19 
  -2  -9   5    1.28    0.24 
   2   9  -4    4.43    0.22 
  -2  -9   4    5.08    0.30 
  -2  -9   4    3.80    0.31 
   2   9  -3    0.33    0.10 
  -2   9   3    0.14    0.10 
  -2   9   3    0.21    0.07 
   2  -9  -3    0.35    0.09 
  -2  -9   3    0.28    0.12 
  -2  -9   3    0.22    0.11 
  -2   9   2   10.93    0.32 
  -2   9   2   12.00    0.41 
   2  -9  -2   11.26    0.30 
  -2  -9   2   11.25    0.40 
   2  -9  -2   11.55    0.38 
  -2  -9   2   11.43    0.42 
  -2   9   1    1.20    0.13 
  -2  -9   1    1.40    0.16 
   2  -9  -1    1.39    0.12 
   2  -9  -1    1.33    0.16 
  -2  -9   1    1.17    0.15 
   2  -9   0    0.05    0.08 
  -2  -9   0    0.10    0.09 
  -2  -9   0    0.09    0.06 
   2  -9   0    0.00    0.06 
   2  -9   1    1.96    0.19 
  -2  -9  -1    2.34    0.18 
  -2  -9  -1    2.11    0.20 
   2  -9   1    2.28    0.21 
   2   9   2    0.59    0.13 
  -2  -9  -2    0.57    0.12 
   2  -9   2    0.40    0.13 
   2  -9   2    0.81    0.15 
   2   9   3    2.28    0.22 
   2  -9   3    2.37    0.28 
   2  -9   3    1.93    0.22 
  -2  -9  -3    2.02    0.17 
   2  -9   4    2.90    0.28 
   2  -9   4    3.91    0.39 
   2   9   5    0.30    0.15 
   2  -9   5    0.45    0.17 
   2  -9   5    0.22    0.18 
  -2 -10   6   -0.05    0.16 
  -2 -10   6   -0.12    0.14 
  -2 -10   5    2.31    0.26 
  -2 -10   5    1.43    0.24 
   2  10  -4    2.41    0.24 
  -2 -10   4    2.40    0.25 
  -2 -10   4    2.04    0.25 
  -2  10   3    1.13    0.17 
  -2 -10   3    1.17    0.19 
   2 -10  -3    1.32    0.15 
  -2 -10   3    1.39    0.20 
  -2 -10   2    7.15    0.36 
   2 -10  -2    7.45    0.32 
   2 -10  -2    7.57    0.26 
  -2 -10   2    7.52    0.34 
   2 -10  -1    4.33    0.26 
   2 -10  -1    4.69    0.21 
  -2 -10   1    4.62    0.28 
  -2 -10   1    4.56    0.25 
   2 -10   0    0.72    0.14 
  -2 -10   0    0.60    0.13 
   2 -10   0    0.62    0.12 
  -2 -10   0    0.59    0.11 
  -2 -10  -1   -0.04    0.07 
   2 -10   1    0.12    0.11 
   2 -10   1   -0.13    0.08 
  -2 -10  -1    0.06    0.09 
   2 -10   2   -0.01    0.10 
   2 -10   2   -0.05    0.10 
  -2 -10  -2    0.01    0.09 
   2 -10   3    7.18    0.43 
  -2 -10  -3    6.72    0.30 
   2 -10   3    7.06    0.38 
   2 -10   4    0.36    0.15 
   2 -10   4   -0.09    0.14 
   2  10   5    0.42    0.16 
   2 -10   5    0.29    0.17 
   2 -10   5    0.12    0.17 
  -2 -11   5    0.00    0.15 
  -2 -11   5    0.07    0.15 
  -2 -11   4    2.20    0.27 
  -2 -11   4    1.80    0.25 
   2 -11  -3    0.05    0.09 
  -2 -11   3   -0.04    0.12 
  -2 -11   3   -0.19    0.09 
   2 -11  -2    0.66    0.11 
   2 -11  -2    0.44    0.13 
  -2 -11   2    0.42    0.13 
  -2 -11   2    0.72    0.17 
   2 -11  -1    0.99    0.13 
   2 -11  -1    0.84    0.15 
  -2 -11   1    1.12    0.16 
  -2 -11   1    0.62    0.16 
  -2 -11   0    0.08    0.10 
  -2 -11   0   -0.02    0.07 
   2 -11   0   -0.06    0.07 
   2 -11   0    0.05    0.10 
   2 -11   1    0.78    0.16 
  -2 -11  -1    0.60    0.14 
   2 -11   1    0.69    0.15 
  -2 -11  -1    0.90    0.15 
   2 -11   2    0.00    0.11 
   2 -11   2    0.36    0.14 
  -2 -11  -2    0.24    0.11 
   2 -11   3    1.68    0.24 
  -2 -11  -3    1.52    0.18 
   2 -11   3    1.58    0.23 
   2 -11   4   -0.09    0.15 
   2 -11   4    0.00    0.15 
   2 -11   5    3.35    0.42 
   2 -11   5    3.09    0.33 
  -2 -12   5   -0.04    0.15 
  -2 -12   5    0.11    0.16 
  -2 -12   4    0.24    0.16 
  -2 -12   4    0.05    0.12 
   2 -12  -3    0.76    0.14 
  -2 -12   3    0.86    0.17 
  -2 -12   3    0.78    0.17 
  -2 -12   2    7.26    0.40 
   2 -12  -2    7.64    0.36 
   2 -12  -2    7.37    0.29 
  -2 -12   2    7.33    0.37 
   2 -12  -1   11.05    0.45 
  -2 -12   1   11.34    0.43 
  -2 -12   1   11.88    0.48 
   2 -12  -1   11.55    0.37 
  -2 -12   0    0.09    0.11 
   2 -12   0    0.06    0.09 
  -2 -12   0    0.00    0.07 
   2 -12   0    0.19    0.12 
  -2 -12  -1    2.67    0.26 
   2 -12   1    2.85    0.27 
  -2 -12  -1    3.08    0.27 
   2 -12   1    2.19    0.26 
   2 -12   2    2.37    0.27 
  -2 -12  -2    2.56    0.25 
   2 -12   2    3.31    0.33 
   2 -12   3    0.82    0.21 
   2 -12   3    0.58    0.19 
   2 -12   4    0.34    0.18 
   2 -12   4    0.53    0.19 
  -2 -13   5    0.01    0.18 
  -2 -13   4    0.53    0.19 
  -2 -13   4    0.76    0.21 
  -2 -13   3    0.16    0.16 
   2 -13  -3   -0.11    0.12 
  -2 -13   3    0.09    0.13 
   2 -13  -2    0.29    0.13 
   2 -13  -2    0.54    0.13 
  -2 -13   2    0.17    0.14 
  -2 -13   2    0.18    0.11 
  -2 -13   1    0.21    0.11 
  -2 -13   1    0.22    0.15 
   2 -13  -1    0.20    0.09 
   2 -13  -1    0.17    0.13 
  -2 -13   0    0.05    0.09 
   2 -13   0    0.12    0.10 
   2 -13   0    0.28    0.13 
  -2 -13   0    0.29    0.14 
   2 -13   1    0.31    0.14 
  -2 -13  -1    0.25    0.14 
  -2 -13  -1    0.36    0.13 
   2 -13   1    0.26    0.15 
   2 -13   2    0.57    0.17 
  -2 -13  -2    0.88    0.18 
   2 -13   2    0.67    0.20 
   2 -13   3    1.07    0.24 
   2 -13   3    0.84    0.21 
   2 -13   4    2.33    0.32 
   2 -13   4    2.78    0.37 
  -2 -14   4    0.89    0.25 
  -2 -14   4    1.10    0.25 
  -2 -14   3   -0.10    0.12 
  -2 -14   3   -0.03    0.16 
  -2 -14   2    1.70    0.23 
   2 -14  -2    1.50    0.22 
  -2 -14   2    1.39    0.24 
   2 -14  -2    1.42    0.18 
  -2 -14   1    0.35    0.16 
   2 -14  -1    0.33    0.12 
   2 -14  -1    0.40    0.15 
  -2 -14   1    0.31    0.13 
   2 -14   0    1.17    0.22 
  -2 -14   0    1.06    0.21 
  -2 -14   0    1.03    0.18 
   2 -14   0    1.29    0.19 
   2 -14   1    0.95    0.19 
  -2 -14  -1    0.45    0.15 
   2 -14   1    0.63    0.19 
  -2 -14  -1    0.48    0.17 
   2 -14   2    0.15    0.18 
  -2 -14  -2   -0.05    0.12 
   2 -14   2   -0.08    0.14 
   2 -14   3    1.11    0.24 
   2 -14   3    0.79    0.23 
  -2 -15   3    0.53    0.19 
  -2 -15   3    0.24    0.20 
  -2 -15   2    0.45    0.19 
   2 -15  -2    0.71    0.16 
  -2 -15   2    0.54    0.17 
   2 -15  -2    0.57    0.17 
   2 -15  -1   -0.03    0.13 
   2 -15  -1    0.05    0.11 
  -2 -15   1    0.28    0.15 
  -2 -15   1    0.30    0.17 
   2 -15   0    0.08    0.15 
   2 -15   0   -0.16    0.10 
  -2 -15   0   -0.01    0.12 
  -2 -15   0    0.24    0.16 
   2 -15   1    0.97    0.20 
  -2 -15  -1    0.67    0.18 
   2 -15   1    0.56    0.19 
  -2 -15  -1    0.42    0.17 
   2 -15   2    0.00    0.16 
  -2 -15  -2   -0.09    0.15 
   2 -15   2    0.01    0.15 
   2 -15   3   -0.03    0.16 
   2 -15   3   -0.14    0.17 
  -2 -16   3    0.79    0.24 
  -2 -16   3    0.75    0.20 
   2 -16  -2    0.49    0.21 
  -2 -16   2    0.81    0.21 
   2 -16  -2    0.57    0.16 
  -2 -16   2    0.98    0.24 
  -2 -16   1    1.13    0.22 
   2 -16  -1    1.08    0.24 
   2 -16  -1    1.37    0.21 
  -2 -16   1    1.03    0.24 
   2 -16   0    0.10    0.17 
   2 -16   0    0.10    0.14 
  -2 -16   0    0.03    0.14 
  -2 -16   0    0.06    0.15 
   2 -16   1    0.41    0.21 
  -2 -16  -1    0.41    0.18 
   2 -16   1    0.36    0.16 
  -2 -16  -1    0.73    0.20 
   2 -16   2    0.02    0.17 
   2 -16   2    0.13    0.19 
  -2 -17   1    0.07    0.17 
   2 -17  -1    0.19    0.13 
  -2 -17   1    0.24    0.19 
   2 -17  -1   -0.18    0.16 
   2 -17   0    0.04    0.14 
  -2 -17   0    0.06    0.17 
   2 -17   0    0.14    0.19 
  -2 -17   0    0.06    0.15 
  -2 -17  -1   -0.05    0.16 
   2 -17   1    0.28    0.21 
  -3   0   7    0.01    0.13 
  -3   0   6    0.27    0.12 
  -3   0   5    0.12    0.08 
  -3   0   4    4.02    0.20 
  -3   0   3    0.00    0.03 
  -3   0   3    0.13    0.06 
  -3   0   3   -0.01    0.04 
  -3   0   2   20.91    0.40 
  -3   0   2   20.15    0.36 
   3   0  -2   20.50    0.38 
   3   0  -2   20.23    0.38 
  -3   0   2   20.58    0.40 
   3   0  -2   20.74    0.38 
  -3   0   1    0.01    0.04 
   3   0  -1    0.04    0.04 
   3   0  -1    0.07    0.04 
  -3   0   1   -0.05    0.03 
   3   0  -1   -0.02    0.02 
   3   0   0   58.04    0.95 
   3   0   0   57.69    0.96 
  -3   0   0   58.67    0.95 
  -3   0   0   58.35    0.95 
   3   0   1   -0.05    0.05 
   3   0   1    0.01    0.05 
  -3   0  -1   -0.01    0.05 
  -3   0  -1   -0.06    0.05 
  -3   0  -2   19.15    0.41 
   3   0   2   19.30    0.44 
   3   0   2   19.75    0.44 
   3   0   3    0.02    0.06 
   3   0   3   -0.02    0.05 
   3   0   4   35.50    0.74 
   3   0   4   36.17    0.73 
   3   0   5    0.03    0.08 
   3   0   6    4.54    0.28 
  -3   1   7    0.03    0.12 
  -3  -1   7    0.01    0.14 
  -3   1   6    6.69    0.35 
  -3  -1   6    6.35    0.36 
  -3   1   5    0.55    0.12 
  -3  -1   5    0.63    0.14 
  -3   1   4    5.91    0.23 
  -3  -1   4    6.09    0.26 
  -3   1   3    3.91    0.15 
  -3   1   3    3.77    0.14 
  -3  -1   3    3.52    0.14 
  -3  -1   3    3.66    0.15 
  -3  -1   3    3.71    0.17 
  -3   1   2   13.36    0.30 
   3   1  -2   13.07    0.28 
   3   1  -2   12.95    0.30 
   3   1  -2   12.96    0.28 
  -3   1   2   13.18    0.29 
  -3  -1   2   12.89    0.28 
  -3  -1   2   13.00    0.30 
   3  -1  -2   13.10    0.27 
   3  -1  -2   13.65    0.28 
  -3  -1   2   13.02    0.30 
  -3   1   1    0.63    0.08 
   3   1  -1    0.57    0.07 
  -3   1   1    0.61    0.07 
   3   1  -1    0.74    0.07 
   3   1  -1    0.74    0.08 
   3  -1  -1    0.63    0.08 
  -3  -1   1    0.56    0.07 
   3  -1  -1    0.69    0.07 
  -3  -1   1    0.59    0.06 
  -3  -1   1    0.66    0.08 
   3   1   0   32.05    0.59 
   3   1   0   31.20    0.59 
  -3   1   0   31.77    0.59 
   3  -1   0   31.75    0.59 
  -3  -1   0   31.62    0.59 
   3  -1   0   31.55    0.58 
  -3  -1   0   32.17    0.59 
  -3   1  -1  154.74    2.22 
  -3   1  -1  153.92    2.23 
   3   1   1  148.78    2.23 
   3   1   1  150.02    2.24 
  -3  -1  -1  150.92    2.22 
   3  -1   1  150.48    2.23 
  -3  -1  -1  150.20    2.22 
   3  -1   1  150.87    2.24 
   3   1   2   18.98    0.43 
  -3   1  -2   17.67    0.40 
   3   1   2   18.33    0.43 
  -3  -1  -2   18.64    0.39 
  -3  -1  -2   18.59    0.39 
   3  -1   2   18.23    0.44 
   3  -1   2   18.48    0.42 
   3   1   3    0.98    0.12 
   3   1   3    0.82    0.11 
   3  -1   3    0.74    0.10 
   3  -1   3    1.19    0.13 
   3   1   4    4.46    0.23 
   3   1   4    4.50    0.24 
   3  -1   4    4.37    0.25 
   3  -1   4    4.46    0.24 
   3   1   5    1.70    0.18 
   3  -1   5    1.36    0.17 
   3   1   6   -0.15    0.10 
   3  -1   6    0.09    0.11 
  -3   2   7    0.03    0.14 
  -3  -2   7    0.06    0.15 
  -3   2   6   -0.01    0.10 
  -3  -2   6    0.16    0.12 
  -3   2   5    3.54    0.22 
  -3  -2   5    3.36    0.25 
  -3   2   4    0.05    0.06 
  -3  -2   4    0.11    0.07 
  -3   2   3   43.86    0.73 
  -3   2   3   44.03    0.73 
  -3  -2   3   43.23    0.80 
  -3  -2   3   44.53    0.74 
  -3  -2   3   43.80    0.74 
  -3   2   2   10.37    0.26 
  -3   2   2   10.36    0.26 
   3   2  -2   10.11    0.25 
   3   2  -2   10.22    0.25 
   3   2  -2   10.22    0.27 
   3  -2  -2   10.09    0.24 
  -3  -2   2   10.40    0.27 
  -3  -2   2   10.35    0.26 
   3  -2  -2   10.26    0.24 
  -3  -2   2   10.28    0.26 
  -3   2   1    1.37    0.10 
   3   2  -1    1.25    0.09 
   3   2  -1    1.37    0.10 
   3   2  -1    1.25    0.10 
  -3   2   1    1.22    0.11 
  -3  -2   1    1.19    0.08 
   3  -2  -1    1.31    0.10 
   3  -2  -1    1.35    0.10 
  -3  -2   1    1.30    0.11 
  -3  -2   1    1.39    0.10 
   3   2   0    0.63    0.07 
   3   2   0    0.60    0.08 
  -3   2   0    0.57    0.08 
   3   2   0    0.51    0.08 
  -3   2   0    0.65    0.08 
   3  -2   0    0.68    0.08 
  -3  -2   0    0.60    0.08 
   3  -2   0    0.49    0.08 
  -3  -2   0    0.62    0.08 
   3   2   1    3.91    0.17 
  -3   2  -1    3.92    0.18 
   3   2   1    3.85    0.17 
  -3  -2  -1    3.47    0.16 
   3  -2   1    3.30    0.18 
  -3  -2  -1    3.90    0.17 
   3  -2   1    3.90    0.18 
   3   2   2    0.11    0.06 
  -3   2  -2    0.02    0.05 
   3   2   2    0.01    0.06 
   3  -2   2    0.15    0.07 
  -3  -2  -2   -0.03    0.04 
   3  -2   2    0.03    0.05 
   3   2   3    2.40    0.16 
   3   2   3    2.42    0.17 
   3  -2   3    2.66    0.16 
   3  -2   3    2.60    0.17 
   3   2   4    7.18    0.30 
   3   2   4    7.21    0.29 
   3  -2   4    7.27    0.29 
   3  -2   4    7.75    0.31 
   3   2   5    2.23    0.20 
   3  -2   5    2.45    0.21 
   3   2   6   -0.04    0.10 
   3  -2   6    0.12    0.12 
  -3   3   7    0.52    0.28 
  -3  -3   7    1.13    0.24 
  -3  -3   6    4.46    0.32 
  -3  -3   5    0.91    0.16 
  -3  -3   4    2.29    0.19 
  -3  -3   4    2.28    0.14 
  -3   3   3    1.40    0.11 
  -3   3   3    1.23    0.10 
  -3  -3   3    1.39    0.14 
  -3  -3   3    1.41    0.12 
  -3  -3   3    1.30    0.12 
   3   3  -2    1.31    0.11 
   3   3  -2    1.44    0.10 
  -3   3   2    1.40    0.11 
   3   3  -2    1.44    0.11 
  -3   3   2    1.42    0.11 
  -3  -3   2    1.42    0.11 
  -3  -3   2    1.44    0.11 
  -3  -3   2    1.52    0.11 
   3  -3  -2    1.25    0.09 
   3  -3  -2    1.40    0.10 
   3   3  -1   19.34    0.42 
  -3   3   1   19.75    0.43 
   3   3  -1   19.84    0.42 
   3   3  -1   20.13    0.41 
  -3  -3   1   20.24    0.43 
   3  -3  -1   19.70    0.41 
  -3  -3   1   19.80    0.43 
   3  -3  -1   19.09    0.42 
  -3  -3   1   19.71    0.40 
  -3   3   0   -0.05    0.04 
   3   3   0    0.04    0.04 
   3   3   0   -0.03    0.05 
   3   3   0    0.04    0.05 
   3  -3   0   -0.01    0.05 
   3  -3   0    0.03    0.04 
  -3  -3   0    0.06    0.05 
  -3  -3   0   -0.07    0.04 
   3   3   1   47.23    0.83 
   3   3   1   45.31    0.82 
  -3   3  -1   45.71    0.82 
  -3  -3  -1   46.11    0.81 
   3  -3   1   46.35    0.84 
   3  -3   1   46.39    0.82 
   3   3   2   33.33    0.66 
   3   3   2   33.43    0.67 
   3  -3   2   33.67    0.67 
  -3  -3  -2   33.56    0.63 
   3  -3   2   33.55    0.68 
   3   3   3    5.81    0.24 
   3   3   3    5.40    0.24 
   3  -3   3    5.12    0.23 
   3  -3   3    5.47    0.25 
   3   3   4    5.22    0.27 
   3   3   4    4.73    0.25 
   3  -3   4    5.04    0.27 
   3  -3   4    5.21    0.26 
   3   3   5    0.19    0.10 
   3  -3   5    0.20    0.12 
   3   3   6    0.66    0.15 
   3  -3   6    0.86    0.17 
  -3  -4   7    0.31    0.17 
  -3  -4   6    0.14    0.14 
  -3  -4   5   -0.03    0.06 
  -3  -4   5    0.00    0.09 
  -3   4   4    0.12    0.06 
  -3  -4   4    0.03    0.07 
  -3  -4   4    0.01    0.08 
  -3   4   3    8.06    0.25 
   3   4  -3    8.10    0.22 
  -3  -4   3    7.93    0.29 
  -3  -4   3    8.38    0.27 
   3   4  -2    8.50    0.25 
   3   4  -2    8.78    0.28 
  -3   4   2    8.43    0.26 
   3   4  -2    8.49    0.26 
  -3  -4   2    8.73    0.27 
  -3  -4   2    8.90    0.27 
   3  -4  -2    8.47    0.24 
   3  -4  -2    8.35    0.24 
   3   4  -1    0.04    0.05 
   3   4  -1    0.03    0.04 
  -3   4   1    0.05    0.05 
   3   4  -1   -0.01    0.05 
  -3  -4   1    0.02    0.04 
  -3  -4   1    0.01    0.05 
   3  -4  -1   -0.01    0.04 
   3  -4  -1   -0.02    0.04 
   3   4   0    6.13    0.23 
   3   4   0    5.86    0.21 
  -3   4   0    5.91    0.22 
   3   4   0    5.78    0.22 
   3  -4   0    6.06    0.22 
   3  -4   0    6.39    0.24 
  -3  -4   0    6.16    0.23 
  -3  -4   0    6.26    0.21 
   3   4   1    1.43    0.13 
   3   4   1    1.33    0.13 
  -3   4  -1    1.52    0.13 
  -3  -4  -1    1.68    0.13 
   3  -4   1    1.22    0.13 
   3   4   2    1.94    0.15 
   3   4   2    2.11    0.15 
   3  -4   2    2.22    0.17 
  -3  -4  -2    2.14    0.14 
   3   4   3    1.99    0.17 
   3   4   3    2.08    0.18 
   3  -4   3    1.75    0.18 
   3  -4   3    1.72    0.16 
   3   4   4   38.19    0.80 
   3   4   4   38.71    0.82 
   3  -4   4   38.76    0.83 
   3  -4   4   37.63    0.83 
   3   4   5   -0.02    0.10 
   3  -4   5   -0.06    0.10 
   3   4   6    2.10    0.22 
   3  -4   6    1.86    0.22 
  -3  -5   7    0.02    0.16 
  -3  -5   6    2.00    0.27 
  -3  -5   5    0.56    0.16 
  -3  -5   5    0.55    0.11 
  -3   5   4   12.19    0.34 
  -3  -5   4   12.08    0.43 
  -3  -5   4   11.27    0.35 
   3   5  -3    0.68    0.09 
  -3   5   3    0.64    0.09 
  -3  -5   3    0.58    0.11 
  -3  -5   3    0.63    0.11 
   3   5  -2   28.73    0.58 
  -3   5   2   28.33    0.58 
   3   5  -2   27.96    0.57 
   3  -5  -2   27.80    0.56 
  -3  -5   2   27.98    0.59 
   3  -5  -2   27.72    0.55 
  -3  -5   2   28.42    0.60 
   3   5  -1    4.74    0.20 
  -3   5   1    4.43    0.20 
   3   5  -1    4.39    0.20 
   3   5  -1    4.68    0.20 
   3  -5  -1    4.67    0.21 
  -3  -5   1    4.83    0.21 
   3  -5  -1    4.54    0.19 
  -3  -5   1    4.75    0.19 
  -3   5   0   49.89    0.90 
   3   5   0   47.37    0.89 
   3   5   0   52.47    0.95 
   3   5   0   48.37    0.90 
   3  -5   0   49.42    0.87 
  -3  -5   0   50.03    0.91 
  -3  -5   0   50.40    0.88 
   3  -5   0   48.89    0.91 
   3   5   1   22.91    0.53 
   3   5   1   22.99    0.53 
  -3  -5  -1   22.79    0.51 
   3  -5   1   22.34    0.54 
   3   5   2    0.13    0.07 
   3   5   2    0.16    0.07 
   3  -5   2    0.26    0.09 
  -3  -5  -2    0.36    0.08 
   3   5   3    1.77    0.18 
   3   5   3    1.36    0.15 
   3  -5   3    1.57    0.17 
  -3  -5  -3    1.71    0.14 
   3   5   4    1.55    0.19 
   3  -5   4    1.12    0.17 
   3   5   5    0.59    0.13 
   3  -5   5    0.55    0.15 
   3   5   6    1.73    0.21 
   3  -5   6    1.43    0.23 
  -3  -6   6   -0.08    0.12 
  -3  -6   6   -0.02    0.10 
  -3  -6   5    0.10    0.09 
  -3  -6   5   -0.02    0.11 
  -3   6   4    2.61    0.17 
  -3  -6   4    2.55    0.21 
  -3  -6   4    2.32    0.23 
   3   6  -3   14.72    0.37 
  -3   6   3   14.01    0.39 
  -3  -6   3   14.96    0.42 
   3  -6  -3   14.68    0.34 
  -3  -6   3   14.61    0.44 
  -3   6   2   12.23    0.36 
   3   6  -2   12.72    0.35 
  -3  -6   2   12.13    0.36 
  -3  -6   2   12.65    0.38 
   3  -6  -2   12.50    0.34 
   3   6  -1    9.37    0.44 
  -3   6   1    9.32    0.31 
   3   6  -1    8.71    0.30 
   3  -6  -1    9.17    0.31 
  -3  -6   1    8.75    0.31 
   3  -6  -1    9.55    0.23 
  -3  -6   1    9.32    0.29 
   3   6   0   12.35    0.37 
  -3   6   0   12.09    0.36 
   3   6   0   12.39    0.37 
  -3  -6   0   11.89    0.34 
   3  -6   0   11.91    0.34 
  -3  -6   0   11.89    0.36 
   3  -6   0   12.37    0.38 
   3   6   1    0.37    0.11 
   3   6   1    0.60    0.10 
   3  -6   1    0.50    0.11 
   3  -6   1    0.61    0.11 
  -3  -6  -1    0.45    0.09 
   3   6   2    3.63    0.22 
   3   6   2    3.23    0.20 
   3  -6   2    4.03    0.24 
  -3  -6  -2    3.50    0.19 
   3   6   3   14.84    0.45 
   3   6   3   15.51    0.46 
  -3  -6  -3   15.37    0.39 
   3  -6   3   16.14    0.49 
   3   6   4   11.26    0.41 
   3  -6   4   10.90    0.43 
   3   6   5    0.26    0.13 
   3  -6   5    0.53    0.15 
   3   6   6    0.29    0.15 
   3  -6   6    0.16    0.16 
  -3  -7   6   -0.05    0.14 
  -3  -7   6    0.31    0.12 
  -3  -7   5    2.39    0.22 
  -3  -7   5    2.33    0.28 
  -3   7   4    0.43    0.11 
  -3  -7   4    0.51    0.13 
  -3  -7   4    0.46    0.13 
   3   7  -3    1.22    0.13 
  -3   7   3    0.60    0.11 
  -3  -7   3    0.88    0.14 
   3  -7  -3    0.97    0.11 
  -3  -7   3    1.07    0.15 
   3   7  -2    0.64    0.11 
  -3   7   2    0.80    0.12 
  -3  -7   2    0.75    0.12 
   3  -7  -2    0.53    0.10 
  -3  -7   2    0.46    0.11 
  -3   7   1    2.03    0.16 
   3   7  -1    2.02    0.17 
  -3  -7   1    1.82    0.14 
   3  -7  -1    1.53    0.16 
   3  -7  -1    1.95    0.11 
  -3  -7   1    1.69    0.17 
  -3  -7   0    0.47    0.10 
  -3  -7   0    0.45    0.09 
   3  -7   0    0.63    0.10 
   3  -7   0    0.62    0.11 
   3   7   1   16.26    0.46 
  -3  -7  -1   16.20    0.45 
   3  -7   1   16.17    0.48 
   3  -7   1   16.43    0.48 
   3   7   2    3.69    0.23 
   3   7   2    3.63    0.23 
  -3  -7  -2    3.66    0.21 
   3  -7   2    3.83    0.25 
   3  -7   2    3.36    0.27 
   3   7   3    4.85    0.28 
   3   7   3    4.57    0.26 
  -3  -7  -3    5.02    0.23 
   3  -7   3    5.50    0.35 
   3  -7   3    4.49    0.29 
   3   7   4    0.99    0.18 
   3  -7   4    1.02    0.18 
   3  -7   4    1.18    0.22 
   3   7   5    2.31    0.24 
   3  -7   5    2.05    0.24 
   3  -7   5    1.76    0.31 
  -3  -8   6   -0.16    0.14 
  -3  -8   6    0.01    0.12 
  -3  -8   5    2.28    0.27 
  -3  -8   5    2.21    0.23 
  -3   8   4    0.17    0.10 
   3   8  -4    0.14    0.07 
  -3  -8   4    0.15    0.12 
  -3  -8   4    0.08    0.09 
   3   8  -3    2.03    0.17 
  -3   8   3    2.08    0.19 
  -3  -8   3    2.24    0.22 
   3  -8  -3    2.09    0.15 
  -3  -8   3    2.28    0.21 
   3   8  -2    0.35    0.10 
  -3   8   2    0.17    0.09 
  -3   8   2    0.12    0.06 
  -3  -8   2    0.33    0.09 
   3  -8  -2    0.23    0.09 
  -3  -8   2    0.31    0.10 
   3  -8  -1    1.36    0.11 
   3  -8  -1    1.34    0.16 
  -3  -8   1    1.45    0.17 
  -3  -8   1    1.15    0.13 
  -3  -8   0    3.09    0.19 
   3  -8   0    3.19    0.22 
   3  -8   0    2.92    0.18 
  -3  -8   0    2.66    0.20 
   3  -8   1    0.15    0.09 
  -3  -8  -1    0.16    0.09 
   3  -8   1    0.15    0.09 
   3   8   2    0.48    0.12 
   3  -8   2    0.46    0.12 
  -3  -8  -2    0.46    0.11 
   3  -8   2    0.28    0.12 
   3   8   3    0.93    0.15 
   3   8   3    0.85    0.16 
  -3  -8  -3    0.78    0.12 
   3  -8   3    0.61    0.18 
   3  -8   3    0.71    0.16 
   3   8   4   15.23    0.51 
   3  -8   4   15.43    0.66 
   3  -8   4   14.63    0.54 
   3   8   5    1.34    0.21 
   3  -8   5    1.02    0.28 
   3  -8   5    1.14    0.22 
  -3  -9   6    1.12    0.20 
  -3  -9   6    0.88    0.22 
  -3  -9   5    0.17    0.13 
  -3  -9   5   -0.04    0.12 
   3   9  -4   11.59    0.37 
  -3  -9   4   12.24    0.49 
  -3  -9   4   12.44    0.47 
  -3   9   3    0.23    0.10 
   3   9  -3    0.27    0.10 
  -3  -9   3    0.16    0.10 
   3  -9  -3    0.30    0.09 
  -3  -9   3    0.26    0.12 
   3   9  -2    7.52    0.32 
  -3   9   2    7.29    0.34 
  -3   9   2    7.12    0.25 
  -3  -9   2    7.66    0.33 
   3  -9  -2    7.53    0.23 
  -3  -9   2    7.69    0.35 
   3  -9  -2    7.63    0.31 
  -3  -9   1    5.47    0.29 
  -3  -9   1    5.02    0.25 
   3  -9  -1    4.95    0.20 
   3  -9  -1    5.27    0.27 
   3  -9   0    5.22    0.29 
  -3  -9   0    5.34    0.28 
   3  -9   0    5.10    0.24 
  -3  -9  -1    0.22    0.09 
   3  -9   1    0.00    0.08 
   3  -9   1   -0.08    0.08 
  -3  -9  -2    4.04    0.24 
   3  -9   2    3.15    0.29 
   3  -9   2    4.04    0.28 
   3  -9   3    0.04    0.12 
   3  -9   3    0.36    0.15 
  -3  -9  -3    0.02    0.09 
   3   9   4    0.31    0.15 
   3  -9   4    0.21    0.14 
   3  -9   4    0.17    0.14 
   3   9   5    0.15    0.15 
   3  -9   5    0.07    0.16 
   3  -9   5   -0.11    0.14 
  -3 -10   6    0.05    0.15 
  -3 -10   6   -0.02    0.15 
  -3 -10   5    0.34    0.16 
  -3 -10   5    0.19    0.17 
   3  10  -4    4.19    0.28 
  -3 -10   4    4.73    0.34 
  -3 -10   4    4.90    0.33 
   3  10  -3   -0.12    0.09 
  -3  10   3    0.10    0.12 
  -3 -10   3    0.02    0.09 
  -3 -10   3    0.04    0.11 
   3 -10  -3    0.13    0.09 
  -3  10   2    2.41    0.17 
   3  10  -2    2.92    0.25 
  -3 -10   2    3.09    0.23 
  -3 -10   2    2.59    0.24 
   3 -10  -2    3.24    0.23 
   3 -10  -2    2.61    0.15 
  -3 -10   1    1.44    0.19 
  -3 -10   1    1.14    0.15 
   3 -10  -1    1.30    0.18 
   3 -10  -1    1.30    0.13 
  -3 -10   0    6.06    0.29 
  -3 -10   0    5.74    0.31 
   3 -10   0    6.14    0.28 
   3 -10   0    5.69    0.31 
  -3 -10  -1    4.05    0.27 
   3 -10   1    4.08    0.26 
   3 -10   1    4.35    0.29 
   3 -10   2    9.87    0.44 
  -3 -10  -2   11.09    0.41 
   3 -10   2   10.56    0.47 
   3 -10   3    6.01    0.40 
   3 -10   3    5.60    0.36 
  -3 -10  -3    5.59    0.29 
   3  10   4    0.94    0.20 
   3 -10   4    1.11    0.22 
   3 -10   4    0.58    0.18 
   3  10   5    0.10    0.17 
   3 -10   5   -0.10    0.16 
   3 -10   5    0.42    0.19 
  -3 -11   5    0.21    0.16 
  -3 -11   5    0.06    0.15 
  -3 -11   4    0.50    0.17 
  -3 -11   4    0.57    0.17 
   3  11  -3   -0.03    0.09 
   3 -11  -3    0.12    0.10 
  -3 -11   3    0.08    0.10 
  -3 -11   3    0.03    0.13 
   3 -11  -2    1.61    0.14 
  -3 -11   2    1.68    0.22 
   3 -11  -2    1.56    0.19 
  -3 -11   2    1.75    0.21 
  -3 -11   1    0.08    0.08 
   3 -11  -1    0.11    0.07 
  -3 -11   1    0.00    0.11 
   3 -11  -1   -0.09    0.08 
   3 -11   0    1.27    0.16 
  -3 -11   0    1.06    0.18 
   3 -11   0    1.21    0.19 
  -3 -11   0    0.99    0.14 
  -3 -11  -1    9.78    0.41 
   3 -11   1    8.67    0.42 
   3 -11   1    8.54    0.39 
   3 -11   2    1.43    0.22 
   3 -11   2    1.67    0.24 
  -3 -11  -2    1.39    0.19 
   3 -11   3    0.87    0.21 
   3 -11   3    1.35    0.24 
   3  11   4   -0.14    0.14 
   3 -11   4   -0.05    0.15 
   3 -11   4    0.19    0.16 
  -3 -12   5    0.75    0.21 
  -3 -12   5    0.64    0.21 
  -3 -12   4    0.17    0.13 
  -3 -12   4    0.37    0.17 
   3  12  -3    0.18    0.12 
   3 -12  -3    0.01    0.09 
  -3 -12   3    0.02    0.10 
  -3 -12   3    0.20    0.14 
  -3 -12   2    0.06    0.12 
   3 -12  -2   -0.03    0.06 
  -3 -12   2    0.19    0.11 
   3 -12  -2    0.05    0.10 
   3 -12  -1    0.26    0.10 
  -3 -12   1    0.36    0.11 
   3 -12  -1    0.40    0.14 
  -3 -12   1    0.17    0.13 
  -3 -12   0    1.52    0.20 
  -3 -12   0    1.75    0.22 
   3 -12   0    1.84    0.24 
   3 -12   0    2.15    0.22 
   3 -12   1    1.15    0.18 
  -3 -12  -1    0.78    0.17 
  -3 -12  -1    1.14    0.19 
   3 -12   1    1.21    0.22 
   3 -12   2    0.34    0.15 
   3 -12   2    0.01    0.12 
  -3 -12  -2    0.25    0.13 
   3 -12   3    1.25    0.23 
   3 -12   3    0.90    0.22 
   3  12   4    0.61    0.19 
   3 -12   4    0.36    0.19 
   3 -12   4   -0.07    0.15 
  -3 -13   4    2.04    0.30 
  -3 -13   4    1.91    0.26 
   3  13  -3    0.26    0.15 
  -3 -13   3    0.38    0.17 
  -3 -13   3    0.49    0.16 
  -3 -13   2    5.04    0.37 
   3 -13  -2    4.33    0.31 
  -3 -13   2    4.60    0.32 
   3 -13  -2    4.85    0.24 
  -3 -13   1    0.75    0.16 
   3 -13  -1    1.38    0.17 
   3 -13  -1    1.01    0.19 
  -3 -13   1    1.40    0.22 
  -3 -13   0   -0.08    0.11 
  -3 -13   0   -0.17    0.08 
   3 -13   0    0.06    0.09 
   3 -13   0    0.09    0.13 
  -3 -13  -1    0.01    0.12 
   3 -13   1    0.00    0.14 
   3 -13   1   -0.09    0.10 
  -3 -13  -1   -0.11    0.11 
  -3 -13  -2    2.21    0.26 
   3 -13   2    2.12    0.29 
   3 -13   2    2.00    0.27 
   3 -13   3    1.13    0.24 
   3 -13   3    0.50    0.20 
   3  13   4    0.29    0.19 
  -3 -14   4    0.55    0.20 
  -3 -14   4    0.57    0.22 
   3  14  -3    1.30    0.22 
  -3 -14   3    1.44    0.25 
  -3 -14   3    1.24    0.24 
  -3 -14   2    0.25    0.17 
   3 -14  -2    0.58    0.17 
  -3 -14   2    0.21    0.14 
   3 -14  -2    0.39    0.12 
   3 -14  -1    0.45    0.17 
   3 -14  -1    0.56    0.13 
  -3 -14   1    0.42    0.14 
  -3 -14   1    0.30    0.16 
  -3 -14   0    0.18    0.12 
   3 -14   0    0.29    0.13 
   3 -14   0   -0.03    0.13 
  -3 -14   0    0.15    0.14 
   3 -14   1    0.76    0.18 
  -3 -14  -1    0.62    0.18 
   3 -14   1    0.50    0.18 
   3 -14   2    5.13    0.38 
  -3 -14  -2    4.87    0.35 
   3 -14   2    4.23    0.39 
   3 -14   3    0.09    0.19 
   3 -14   3   -0.08    0.18 
  -3 -15   3    0.64    0.23 
  -3 -15   3    0.69    0.21 
   3 -15  -2    1.01    0.16 
  -3 -15   2    0.90    0.19 
  -3 -15   2    1.27    0.25 
   3 -15  -2    0.80    0.20 
  -3 -15   1    0.10    0.14 
  -3 -15   1    0.35    0.17 
   3 -15  -1    0.04    0.14 
   3 -15  -1    0.16    0.10 
  -3 -15   0    0.86    0.21 
   3 -15   0    0.82    0.22 
  -3 -15   0    1.25    0.21 
   3 -15   0    1.63    0.22 
   3 -15   1    1.64    0.24 
  -3 -15  -1    1.15    0.22 
   3 -15   1    1.29    0.25 
   3 -15   2    0.49    0.20 
   3 -15   2    0.61    0.21 
  -3 -16   2    0.50    0.20 
   3 -16  -2    0.51    0.15 
  -3 -16   2    0.88    0.21 
   3 -16  -2    0.20    0.24 
  -3 -16   1    0.34    0.18 
   3 -16  -1    0.47    0.19 
   3 -16  -1    0.53    0.15 
  -3 -16   1    0.40    0.21 
   3 -16   0    0.01    0.12 
   3 -16   0   -0.05    0.16 
  -3 -16   0   -0.04    0.15 
  -3 -16   0   -0.05    0.14 
   3 -16   1    0.27    0.20 
  -3 -16  -1    0.20    0.17 
   3 -16   1    0.62    0.19 
  -4   0   7    0.15    0.12 
  -4   0   6    0.08    0.10 
  -4   0   5    0.03    0.07 
  -4   0   4    4.84    0.20 
  -4   0   4    4.95    0.18 
  -4   0   3    0.09    0.04 
  -4   0   3   -0.01    0.04 
  -4   0   3    0.00    0.06 
   4   0  -2  126.51    1.82 
  -4   0   2  126.22    1.91 
  -4   0   2  126.83    1.80 
   4   0  -2  126.78    1.88 
   4   0  -2  127.56    1.88 
  -4   0   2  126.58    1.91 
  -4   0   1   -0.05    0.05 
   4   0  -1   -0.03    0.05 
   4   0  -1    0.02    0.04 
   4   0  -1    0.04    0.05 
  -4   0   1   -0.06    0.04 
  -4   0   0   42.22    0.79 
   4   0   0   42.91    0.79 
   4   0   0   43.45    0.80 
  -4   0   0   45.23    0.80 
  -4   0  -1    0.10    0.07 
   4   0   1   -0.10    0.06 
   4   0   1    0.00    0.06 
  -4   0  -1   -0.05    0.06 
   4   0   2   26.70    0.59 
   4   0   2   26.12    0.60 
   4   0   3    0.22    0.09 
   4   0   3    0.22    0.08 
   4   0   4    7.16    0.32 
   4   0   5    0.12    0.11 
   4   0   6   -0.14    0.11 
  -4   1   7    1.25    0.23 
  -4  -1   7    1.23    0.21 
  -4   1   6    0.35    0.12 
  -4  -1   6    0.43    0.13 
  -4   1   5    0.05    0.07 
  -4  -1   5    0.02    0.08 
  -4   1   4    0.39    0.07 
  -4   1   4    0.39    0.07 
  -4  -1   4    0.43    0.08 
  -4  -1   4    0.48    0.09 
  -4  -1   4    0.28    0.06 
  -4   1   3    1.82    0.12 
  -4   1   3    1.59    0.13 
  -4  -1   3    1.82    0.12 
  -4  -1   3    1.75    0.14 
  -4  -1   3    1.61    0.12 
   4   1  -2    1.99    0.13 
  -4   1   2    1.35    0.12 
   4   1  -2    1.86    0.12 
   4   1  -2    1.77    0.11 
  -4   1   2    1.55    0.13 
   4  -1  -2    1.65    0.13 
   4  -1  -2    1.49    0.12 
  -4  -1   2    1.84    0.10 
  -4  -1   2    1.87    0.13 
  -4  -1   2    1.81    0.13 
   4   1  -1   27.50    0.55 
   4   1  -1   27.77    0.56 
   4   1  -1   28.20    0.50 
  -4   1   1   28.37    0.57 
  -4   1   1   27.97    0.57 
  -4  -1   1   28.52    0.57 
   4  -1  -1   27.00    0.56 
   4  -1  -1   27.67    0.55 
   4  -1  -1   26.76    0.46 
  -4  -1   1   27.63    0.56 
  -4   1   0    0.91    0.11 
   4   1   0    0.84    0.10 
  -4   1   0    0.89    0.10 
   4   1   0    0.82    0.10 
   4  -1   0    0.93    0.11 
  -4  -1   0    0.78    0.09 
   4  -1   0    0.65    0.09 
  -4  -1   0    0.77    0.10 
  -4   1  -1    1.03    0.12 
   4   1   1    0.91    0.12 
  -4   1  -1    1.13    0.13 
   4   1   1    1.00    0.12 
  -4  -1  -1    1.16    0.12 
   4  -1   1    1.27    0.14 
  -4  -1  -1    1.00    0.12 
   4  -1   1    1.11    0.12 
   4   1   2    0.34    0.09 
   4   1   2    0.28    0.08 
   4  -1   2    0.17    0.07 
   4  -1   2    0.30    0.09 
  -4  -1  -2    0.38    0.08 
   4   1   3   16.66    0.46 
   4   1   3   17.23    0.47 
   4  -1   3   16.93    0.46 
   4  -1   3   16.64    0.47 
   4   1   4    1.10    0.16 
   4  -1   4    1.06    0.16 
   4   1   5    2.30    0.23 
   4  -1   5    2.34    0.23 
   4   1   6   -0.06    0.12 
   4  -1   6    0.11    0.12 
  -4  -2   7   -0.13    0.11 
  -4   2   6    0.88    0.15 
  -4  -2   6    0.99    0.17 
  -4   2   5   16.81    0.43 
  -4  -2   5   17.29    0.50 
  -4   2   4    1.51    0.11 
  -4   2   4    1.76    0.13 
  -4  -2   4    1.47    0.11 
  -4  -2   4    1.97    0.17 
  -4  -2   4    1.56    0.13 
   4   2  -3   64.55    1.12 
  -4   2   3   66.46    1.09 
  -4   2   3   67.28    1.09 
  -4  -2   3   66.99    1.10 
  -4  -2   3   67.64    1.10 
  -4  -2   3   66.31    1.09 
   4   2  -2    2.25    0.13 
  -4   2   2    1.83    0.13 
  -4   2   2    2.04    0.14 
   4   2  -2    2.01    0.12 
   4   2  -2    1.97    0.13 
   4  -2  -2    1.91    0.12 
  -4  -2   2    2.15    0.12 
  -4  -2   2    2.00    0.13 
   4  -2  -2    1.76    0.12 
  -4  -2   2    2.00    0.14 
   4   2  -1   10.92    0.27 
  -4   2   1   10.75    0.31 
  -4   2   1   11.26    0.32 
   4   2  -1   11.07    0.31 
   4   2  -1   10.59    0.31 
   4  -2  -1   11.13    0.31 
  -4  -2   1   11.07    0.32 
  -4  -2   1   10.90    0.27 
  -4  -2   1   10.79    0.32 
   4  -2  -1   11.38    0.32 
  -4   2   0    2.92    0.16 
   4   2   0    2.49    0.14 
  -4   2   0    3.14    0.17 
   4   2   0    3.00    0.16 
   4   2   0    2.93    0.17 
   4  -2   0    3.05    0.16 
  -4  -2   0    2.98    0.17 
  -4  -2   0    2.86    0.16 
   4  -2   0    3.19    0.18 
  -4   2  -1  116.93    1.85 
   4   2   1  116.52    1.84 
   4   2   1  115.86    1.85 
  -4  -2  -1  116.23    1.82 
   4  -2   1  118.12    1.84 
   4  -2   1  117.98    1.86 
  -4  -2  -1  121.95    1.85 
   4   2   2    4.59    0.23 
   4   2   2    4.49    0.22 
   4  -2   2    4.63    0.24 
   4  -2   2    4.50    0.22 
  -4  -2  -2    4.67    0.20 
   4   2   3    1.77    0.17 
   4   2   3    2.21    0.20 
   4  -2   3    2.15    0.20 
   4  -2   3    1.80    0.17 
   4   2   4    0.77    0.14 
   4  -2   4    0.74    0.14 
   4   2   5    5.40    0.31 
   4  -2   5    5.59    0.32 
   4   2   6    0.77    0.17 
   4  -2   6    0.02    0.13 
  -4  -3   7   -0.06    0.13 
  -4   3   6    0.58    0.13 
  -4  -3   6    0.58    0.15 
  -4  -3   5    8.07    0.28 
  -4  -3   5    8.64    0.36 
  -4   3   4    2.14    0.14 
  -4   3   4    1.66    0.13 
  -4  -3   4    1.89    0.15 
  -4  -3   4    2.06    0.17 
  -4  -3   4    1.66    0.13 
   4   3  -3    0.09    0.05 
   4   3  -3    0.04    0.05 
   4   3  -3    0.02    0.05 
  -4   3   3   -0.05    0.06 
  -4   3   3    0.08    0.06 
  -4  -3   3    0.13    0.07 
  -4  -3   3    0.08    0.05 
  -4  -3   3    0.03    0.06 
   4   3  -2   -0.02    0.05 
   4   3  -2    0.14    0.06 
  -4   3   2    0.05    0.05 
  -4   3   2    0.08    0.06 
   4   3  -2    0.08    0.06 
   4  -3  -2    0.15    0.05 
   4  -3  -2    0.08    0.05 
  -4  -3   2    0.12    0.06 
  -4  -3   2   -0.03    0.04 
  -4  -3   2    0.03    0.05 
   4   3  -1   84.50    1.37 
  -4   3   1   84.33    1.38 
   4   3  -1   85.81    1.38 
  -4   3   1   86.11    1.38 
   4   3  -1   84.76    1.33 
  -4  -3   1   85.42    1.38 
  -4  -3   1   83.86    1.38 
  -4  -3   1   84.55    1.33 
   4  -3  -1   85.24    1.38 
   4  -3  -1   84.52    1.36 
   4   3   0    4.17    0.18 
   4   3   0    4.13    0.21 
   4   3   0    4.05    0.20 
  -4   3   0    4.09    0.19 
   4  -3   0    4.21    0.21 
   4  -3   0    4.27    0.20 
  -4  -3   0    4.19    0.19 
  -4  -3   0    3.91    0.20 
   4   3   1    5.53    0.25 
   4   3   1    5.59    0.24 
   4  -3   1    5.98    0.24 
   4  -3   1    5.97    0.26 
  -4  -3  -1    6.04    0.24 
   4   3   2    0.10    0.08 
   4   3   2    0.31    0.08 
   4  -3   2    0.32    0.10 
   4  -3   2    0.31    0.08 
  -4  -3  -2    0.23    0.07 
   4   3   3    9.02    0.34 
   4   3   3    9.15    0.35 
   4  -3   3    9.20    0.34 
   4  -3   3    9.40    0.36 
  -4  -3  -3    8.90    0.28 
   4   3   4    1.03    0.16 
   4  -3   4    1.25    0.17 
   4   3   5    3.49    0.26 
   4  -3   5    4.06    0.29 
   4   3   6    0.56    0.16 
  -4  -4   7    1.91    0.28 
  -4  -4   6   -0.02    0.11 
  -4  -4   5    3.73    0.21 
  -4  -4   5    3.40    0.25 
  -4   4   4   -0.09    0.05 
  -4  -4   4   -0.02    0.07 
  -4  -4   4   -0.11    0.06 
  -4   4   3    6.52    0.24 
   4   4  -3    6.82    0.22 
  -4  -4   3    6.66    0.26 
  -4  -4   3    6.23    0.24 
  -4  -4   3    6.58    0.26 
  -4   4   2   25.56    0.56 
   4   4  -2   27.70    0.60 
   4   4  -2   25.91    0.56 
   4  -4  -2   26.49    0.55 
  -4  -4   2   26.12    0.58 
   4  -4  -2   27.53    0.61 
  -4  -4   2   25.51    0.56 
  -4  -4   2   26.01    0.54 
   4   4  -1   21.42    0.50 
   4   4  -1   21.59    0.47 
  -4   4   1   21.13    0.50 
   4   4  -1   21.73    0.50 
   4  -4  -1   21.70    0.50 
   4  -4  -1   21.07    0.48 
  -4  -4   1   21.41    0.50 
  -4  -4   1   21.02    0.50 
  -4  -4   1   21.47    0.47 
   4   4   0   43.80    0.85 
   4   4   0   45.30    0.85 
  -4   4   0   44.74    0.85 
   4  -4   0   44.69    0.86 
   4  -4   0   44.93    0.84 
  -4  -4   0   43.88    0.84 
   4   4   1   15.60    0.43 
   4   4   1   14.93    0.42 
   4  -4   1   15.00    0.44 
   4  -4   1   15.03    0.41 
  -4  -4  -1   15.36    0.41 
   4   4   2   10.09    0.35 
   4   4   2   10.28    0.35 
   4  -4   2    9.80    0.36 
   4  -4   2    9.91    0.34 
  -4  -4  -2   10.41    0.32 
   4   4   3    4.49    0.26 
   4   4   3    4.49    0.25 
   4  -4   3    5.21    0.28 
  -4  -4  -3    4.60    0.21 
   4  -4   3    5.17    0.26 
   4   4   4    1.49    0.19 
   4  -4   4    1.55    0.19 
   4   4   5    0.18    0.12 
   4  -4   5    0.10    0.13 
  -4  -5   7    0.37    0.19 
  -4  -5   6    0.96    0.19 
  -4  -5   6    0.56    0.13 
  -4  -5   5    0.26    0.12 
  -4  -5   5    0.06    0.08 
  -4   5   4    2.99    0.18 
  -4  -5   4    2.76    0.20 
  -4  -5   4    2.64    0.21 
   4   5  -3    0.54    0.09 
  -4   5   3    0.40    0.09 
  -4  -5   3    0.58    0.10 
  -4  -5   3    0.67    0.11 
   4  -5  -3    0.48    0.08 
   4   5  -2    4.19    0.20 
  -4   5   2    4.31    0.21 
   4  -5  -2    4.14    0.20 
  -4  -5   2    4.44    0.20 
  -4  -5   2    4.02    0.22 
   4   5  -1    9.12    0.31 
  -4   5   1    8.75    0.31 
   4  -5  -1    9.36    0.32 
   4  -5  -1    9.48    0.23 
  -4  -5   1    8.93    0.32 
  -4  -5   1    9.78    0.30 
   4   5   0    0.59    0.10 
  -4   5   0    0.30    0.10 
   4   5   0    0.55    0.10 
   4  -5   0    0.49    0.09 
  -4  -5   0    0.58    0.10 
   4  -5   0    0.78    0.12 
   4   5   1    0.50    0.11 
   4   5   1    0.55    0.11 
  -4  -5  -1    0.56    0.10 
   4  -5   1    0.55    0.11 
   4  -5   1    0.43    0.09 
   4   5   2    6.54    0.29 
   4   5   2    6.23    0.28 
  -4  -5  -2    6.46    0.26 
   4  -5   2    6.26    0.28 
   4  -5   2    6.49    0.31 
   4   5   3    2.15    0.20 
   4   5   3    2.34    0.23 
  -4  -5  -3    2.07    0.16 
   4  -5   3    2.09    0.21 
   4  -5   3    2.32    0.21 
   4   5   4    0.09    0.12 
   4  -5   4    0.70    0.16 
   4   5   5    0.74    0.16 
   4  -5   5    0.58    0.16 
  -4  -6   6    2.92    0.30 
  -4  -6   6    2.45    0.23 
  -4  -6   5    7.43    0.37 
  -4  -6   5    7.55    0.32 
  -4   6   4    0.94    0.13 
  -4  -6   4    1.01    0.15 
  -4  -6   4    0.91    0.16 
  -4   6   3    9.88    0.34 
   4   6  -3   10.11    0.32 
  -4  -6   3   10.53    0.36 
  -4  -6   3   10.71    0.37 
   4  -6  -3   10.19    0.30 
   4   6  -2   -0.02    0.06 
  -4   6   2    0.14    0.07 
   4  -6  -2    0.00    0.06 
  -4  -6   2    0.04    0.07 
  -4  -6   2    0.10    0.07 
  -4   6   1    1.36    0.14 
   4   6  -1    1.59    0.15 
   4  -6  -1    1.70    0.10 
  -4  -6   1    1.66    0.14 
  -4  -6   1    1.39    0.15 
   4  -6  -1    1.46    0.15 
   4   6   0    0.54    0.11 
   4  -6   0    0.69    0.11 
   4  -6   0    0.68    0.12 
  -4  -6   0    0.53    0.10 
  -4  -6   0    0.54    0.10 
   4   6   1   37.07    0.80 
   4   6   1   37.57    0.80 
   4  -6   1   38.12    0.82 
  -4  -6  -1   37.58    0.78 
   4   6   2   21.38    0.57 
   4   6   2   21.53    0.57 
  -4  -6  -2   22.11    0.54 
   4  -6   2   21.18    0.59 
   4  -6   2   21.78    0.60 
   4   6   3    4.71    0.28 
   4   6   3    4.31    0.27 
   4  -6   3    4.45    0.27 
  -4  -6  -3    4.45    0.22 
   4  -6   3    4.57    0.29 
   4   6   4    0.20    0.13 
   4  -6   4    0.27    0.14 
   4   6   5    0.11    0.13 
   4  -6   5    0.12    0.14 
  -4  -7   6    0.96    0.16 
  -4  -7   6    1.02    0.20 
  -4  -7   5    6.83    0.33 
  -4  -7   5    7.26    0.39 
  -4   7   4    0.38    0.12 
   4   7  -4    0.95    0.12 
  -4  -7   4    0.73    0.15 
  -4  -7   4    0.79    0.14 
  -4   7   3    1.60    0.17 
   4   7  -3    1.99    0.17 
  -4  -7   3    1.55    0.17 
  -4  -7   3    1.70    0.19 
   4  -7  -3    1.71    0.15 
  -4   7   2    2.71    0.20 
   4   7  -2    3.04    0.20 
  -4  -7   2    2.67    0.19 
  -4  -7   2    2.53    0.20 
   4  -7  -2    2.64    0.18 
   4   7  -1   14.05    0.42 
   4  -7  -1   13.18    0.32 
  -4  -7   1   13.28    0.43 
  -4  -7   1   13.44    0.40 
   4  -7  -1   13.90    0.43 
   4   7   0   15.56    0.46 
   4  -7   0   16.86    0.50 
   4  -7   0   16.15    0.44 
  -4  -7   0   16.40    0.45 
  -4  -7   0   15.98    0.47 
   4   7   1    5.99    0.29 
  -4  -7  -1    7.07    0.30 
   4  -7   1    6.40    0.32 
   4  -7   1    6.49    0.31 
   4   7   2    0.34    0.14 
   4   7   2    0.26    0.10 
  -4  -7  -2    0.27    0.09 
   4  -7   2    0.20    0.11 
   4   7   3    5.67    0.35 
   4   7   3    5.82    0.32 
   4  -7   3    6.68    0.35 
  -4  -7  -3    6.16    0.27 
   4   7   4   -0.23    0.12 
   4  -7   4    0.02    0.12 
   4   7   5    1.25    0.21 
   4  -7   5    1.01    0.22 
  -4  -8   6   -0.01    0.15 
  -4  -8   6    0.00    0.11 
  -4  -8   5    2.88    0.29 
  -4  -8   5    3.25    0.28 
   4   8  -4    0.73    0.12 
  -4  -8   4    0.94    0.17 
  -4  -8   4    0.76    0.16 
   4   8  -3    0.31    0.10 
  -4   8   3    0.20    0.10 
  -4  -8   3    0.43    0.13 
  -4  -8   3    0.36    0.11 
   4  -8  -3    0.32    0.09 
  -4   8   2    0.32    0.10 
   4   8  -2    0.62    0.12 
  -4  -8   2    0.67    0.12 
   4  -8  -2    0.61    0.11 
  -4  -8   2    0.70    0.14 
   4   8  -1   13.55    0.43 
  -4  -8   1   13.46    0.45 
   4  -8  -1   12.90    0.33 
   4  -8  -1   13.59    0.44 
  -4  -8   1   12.81    0.41 
   4   8   0    8.15    0.34 
   4  -8   0    8.26    0.36 
  -4  -8   0    7.99    0.34 
  -4  -8   0    8.56    0.33 
   4  -8   0    7.69    0.30 
   4   8   1    3.89    0.25 
   4  -8   1    3.96    0.25 
   4  -8   1    3.49    0.26 
  -4  -8  -1    4.12    0.25 
   4   8   2    2.40    0.22 
   4  -8   2    2.62    0.25 
   4  -8   2    2.25    0.26 
  -4  -8  -2    2.47    0.21 
   4   8   3    3.79    0.28 
  -4  -8  -3    3.91    0.24 
   4  -8   3    3.99    0.37 
   4  -8   3    4.00    0.31 
   4   8   4   -0.03    0.13 
   4  -8   4   -0.08    0.15 
   4  -8   4    0.03    0.13 
   4   8   5    0.67    0.19 
   4  -8   5    0.64    0.20 
   4  -8   5    0.44    0.24 
  -4  -9   6    0.10    0.14 
  -4  -9   6    0.07    0.14 
  -4  -9   5    0.76    0.17 
  -4  -9   5    0.75    0.19 
   4   9  -4    0.89    0.14 
  -4  -9   4    1.08    0.19 
  -4  -9   4    0.90    0.17 
  -4   9   3    1.14    0.16 
   4   9  -3    1.26    0.16 
  -4  -9   3    1.50    0.20 
  -4  -9   3    1.43    0.19 
   4  -9  -3    1.28    0.15 
   4   9  -2    9.59    0.37 
  -4  -9   2    9.51    0.36 
   4  -9  -2    8.90    0.35 
  -4  -9   2    9.07    0.39 
   4   9  -1   -0.06    0.09 
   4  -9  -1    0.02    0.08 
   4  -9  -1    0.08    0.05 
  -4  -9   1    0.08    0.08 
  -4  -9   1    0.07    0.09 
   4   9   0    0.56    0.14 
   4  -9   0    0.45    0.13 
  -4  -9   0    0.45    0.12 
  -4  -9   0    0.58    0.13 
   4  -9   0    0.62    0.11 
   4   9   1   -0.03    0.10 
   4  -9   1    0.17    0.10 
  -4  -9  -1    0.04    0.09 
   4  -9   1   -0.01    0.10 
   4   9   2    0.98    0.18 
  -4  -9  -2    0.82    0.15 
   4  -9   2    0.96    0.18 
   4  -9   2    0.86    0.17 
   4   9   3    0.55    0.16 
  -4  -9  -3    0.58    0.14 
   4  -9   3    0.34    0.17 
   4  -9   3    0.30    0.15 
   4   9   4    1.02    0.21 
   4  -9   4    0.73    0.24 
   4  -9   4    0.63    0.18 
   4   9   5   -0.03    0.16 
   4  -9   5   -0.08    0.16 
  -4 -10   6    0.65    0.22 
  -4 -10   6    0.65    0.19 
  -4 -10   5    0.58    0.18 
  -4 -10   5    0.78    0.20 
   4  10  -4    0.10    0.17 
  -4 -10   4    0.25    0.13 
  -4 -10   4    0.06    0.13 
   4  10  -3    4.45    0.27 
   4 -10  -3    4.94    0.27 
  -4 -10   3    4.67    0.32 
  -4 -10   3    4.72    0.30 
   4  10  -2    0.41    0.13 
  -4 -10   2    0.27    0.13 
   4 -10  -2    0.38    0.12 
  -4 -10   2    0.61    0.13 
   4  10  -1   -0.09    0.10 
  -4 -10   1   -0.02    0.07 
   4 -10  -1   -0.05    0.08 
  -4 -10   1   -0.04    0.09 
   4 -10  -1    0.01    0.06 
   4  10   0    0.49    0.15 
   4 -10   0    0.47    0.12 
  -4 -10   0    0.64    0.14 
   4 -10   0    0.43    0.14 
  -4 -10   0    0.44    0.13 
   4  10   1    0.54    0.15 
  -4 -10  -1    0.46    0.13 
   4 -10   1    0.43    0.14 
   4 -10   1    0.54    0.15 
   4  10   2    9.88    0.44 
  -4 -10  -2    9.26    0.39 
   4 -10   2    8.77    0.44 
   4 -10   2   10.82    0.49 
   4  10   3    4.45    0.33 
   4 -10   3    4.31    0.35 
   4 -10   3    4.78    0.39 
   4  10   4    0.61    0.19 
   4 -10   4    0.57    0.20 
   4 -10   4    0.55    0.19 
  -4 -11   5    0.29    0.16 
  -4 -11   5    0.35    0.17 
  -4 -11   4    1.18    0.21 
  -4 -11   4    1.05    0.20 
   4  11  -3    1.13    0.18 
  -4 -11   3    1.17    0.20 
   4 -11  -3    0.67    0.14 
  -4 -11   3    0.74    0.15 
   4  11  -2    0.03    0.12 
   4 -11  -2    0.02    0.10 
   4 -11  -2    0.20    0.07 
  -4 -11   2    0.07    0.13 
  -4 -11   2    0.09    0.09 
   4  11  -1    0.01    0.11 
   4 -11  -1    0.07    0.08 
  -4 -11   1    0.18    0.10 
  -4 -11   1    0.03    0.11 
   4 -11  -1    0.05    0.10 
   4  11   0    2.24    0.25 
  -4 -11   0    2.44    0.24 
   4 -11   0    2.29    0.22 
  -4 -11   0    2.84    0.26 
   4 -11   0    2.15    0.25 
   4  11   1    2.22    0.26 
  -4 -11  -1    1.91    0.23 
   4 -11   1    2.25    0.27 
   4 -11   1    2.04    0.23 
   4  11   2   -0.01    0.15 
   4 -11   2    0.00    0.12 
   4 -11   2    0.17    0.13 
  -4 -11  -2    0.05    0.11 
   4  11   3    4.81    0.37 
   4 -11   3    5.35    0.39 
   4 -11   3    5.57    0.43 
   4  11   4   -0.21    0.14 
   4 -11   4   -0.18    0.16 
   4 -11   4    0.09    0.17 
  -4 -12   5    1.67    0.27 
  -4 -12   5    1.27    0.24 
  -4 -12   4   -0.11    0.14 
  -4 -12   4    0.00    0.13 
   4  12  -3    1.18    0.19 
  -4 -12   3    1.20    0.22 
  -4 -12   3    0.86    0.17 
   4 -12  -3    0.64    0.15 
   4  12  -2    0.52    0.17 
   4 -12  -2    0.49    0.09 
  -4 -12   2    0.65    0.18 
   4 -12  -2    0.47    0.14 
  -4 -12   2    0.48    0.14 
   4  12  -1    2.62    0.28 
   4 -12  -1    1.58    0.23 
   4 -12  -1    2.10    0.17 
  -4 -12   1    1.94    0.24 
   4  12   0    0.21    0.15 
   4 -12   0    0.10    0.13 
  -4 -12   0    0.46    0.15 
  -4 -12   0    0.47    0.14 
   4 -12   0    0.63    0.14 
   4  12   1    3.22    0.31 
   4 -12   1    2.90    0.28 
   4 -12   1    4.23    0.34 
  -4 -12  -1    2.71    0.27 
   4  12   2    0.63    0.19 
   4 -12   2    0.54    0.18 
   4 -12   2    0.51    0.19 
  -4 -12  -2    0.51    0.15 
   4  12   3    0.45    0.19 
   4 -12   3    0.30    0.19 
   4 -12   3    0.47    0.20 
   4  12   4   -0.13    0.17 
   4 -12   4   -0.06    0.18 
  -4 -13   4    0.06    0.15 
  -4 -13   4   -0.06    0.12 
   4  13  -3    2.09    0.26 
  -4 -13   3    2.43    0.30 
  -4 -13   3    1.34    0.21 
   4  13  -2    0.89    0.20 
  -4 -13   2    1.24    0.21 
   4 -13  -2    1.40    0.22 
   4 -13  -2    1.17    0.14 
  -4 -13   2    1.15    0.24 
   4  13  -1    1.06    0.21 
  -4 -13   1    1.01    0.20 
   4 -13  -1    1.18    0.15 
  -4 -13   1    1.06    0.18 
   4 -13  -1    1.29    0.22 
   4  13   0    1.23    0.23 
  -4 -13   0    1.69    0.23 
   4 -13   0    1.63    0.21 
  -4 -13   0    1.60    0.24 
   4 -13   0    1.45    0.24 
   4  13   1    0.44    0.20 
  -4 -13  -1    0.73    0.18 
   4 -13   1    1.05    0.19 
   4 -13   1    0.88    0.21 
   4  13   2    0.21    0.19 
   4 -13   2   -0.01    0.15 
  -4 -13  -2    0.03    0.13 
   4 -13   2   -0.05    0.13 
   4  13   3    0.36    0.20 
   4 -13   3    0.19    0.18 
   4 -13   3   -0.06    0.16 
  -4 -14   4    0.40    0.20 
  -4 -14   4    0.48    0.17 
   4  14  -3    1.60    0.25 
  -4 -14   3    1.59    0.25 
  -4 -14   3    1.84    0.28 
   4  14  -2   -0.02    0.15 
  -4 -14   2    0.05    0.12 
   4 -14  -2    0.03    0.08 
  -4 -14   2    0.02    0.16 
   4 -14  -2    0.04    0.13 
   4  14  -1    0.42    0.19 
  -4 -14   1    0.50    0.15 
  -4 -14   1    0.65    0.19 
   4 -14  -1    0.36    0.17 
   4 -14  -1    0.50    0.12 
   4  14   0    0.88    0.22 
   4 -14   0    1.20    0.23 
  -4 -14   0    0.86    0.20 
   4 -14   0    1.27    0.19 
  -4 -14   0    1.13    0.21 
   4  14   1   -0.02    0.17 
   4 -14   1    0.09    0.17 
  -4 -14  -1   -0.01    0.14 
   4 -14   1   -0.06    0.13 
   4  14   2    0.19    0.19 
   4 -14   2    0.18    0.18 
   4 -14   2    0.37    0.21 
  -4 -15   3    0.09    0.14 
  -4 -15   3    0.00    0.18 
   4  15  -2    0.18    0.19 
   4 -15  -2    0.14    0.11 
  -4 -15   2    0.25    0.19 
  -4 -15   2    0.24    0.15 
   4 -15  -2    0.27    0.16 
   4  15  -1    0.06    0.18 
  -4 -15   1    0.23    0.15 
  -4 -15   1    0.07    0.16 
   4 -15  -1    0.17    0.12 
   4 -15  -1   -0.03    0.16 
   4  15   0    0.07    0.19 
  -4 -15   0   -0.16    0.13 
   4 -15   0   -0.03    0.11 
  -4 -15   0   -0.05    0.13 
   4 -15   0    0.14    0.18 
   4  15   1   -0.09    0.16 
  -4 -15  -1   -0.22    0.15 
   4 -15   1    0.23    0.18 
   4 -15   1    0.12    0.14 
   4  15   2    0.44    0.22 
   4 -15   2    0.34    0.19 
   4 -15   2    0.14    0.20 
   4  16  -2    0.51    0.22 
  -4 -16   2    0.33    0.20 
  -4 -16   2    0.25    0.18 
   4  16  -1    0.53    0.23 
   4 -16  -1    0.54    0.21 
  -4 -16   1    0.50    0.21 
  -4 -16   1    0.06    0.16 
   4 -16  -1    0.62    0.15 
   4  16   0    0.36    0.22 
  -4 -16   0    0.08    0.17 
   4 -16   0    0.42    0.14 
  -4 -16   0    0.35    0.18 
   4 -16   0   -0.15    0.16 
   4  16   1    1.35    0.28 
  -4 -16  -1    0.68    0.22 
   4 -16   1    1.40    0.24 
   4 -16   1    1.49    0.29 
  -5   0   6    9.94    0.36 
  -5   0   5   -0.07    0.05 
  -5   0   5    0.10    0.07 
  -5   0   4    0.09    0.07 
  -5   0   4    0.16    0.06 
  -5   0   4    0.09    0.06 
  -5   0   3    0.03    0.04 
  -5   0   3    0.04    0.06 
   5   0  -3   -0.06    0.04 
   5   0  -3    0.06    0.04 
  -5   0   3   -0.07    0.04 
   5   0  -2   43.38    0.72 
  -5   0   2   44.21    0.83 
  -5   0   2   44.29    0.83 
   5   0  -2   43.66    0.81 
   5   0  -1   -0.05    0.05 
   5   0  -1    0.04    0.04 
  -5   0   1   -0.06    0.05 
  -5   0   1   -0.02    0.06 
   5   0  -1    0.01    0.06 
  -5   0   0    4.15    0.22 
   5   0   0    4.11    0.23 
  -5   0   0    4.19    0.22 
   5   0   0    4.49    0.22 
   5   0   1   -0.06    0.06 
   5   0   1    0.07    0.07 
  -5   0  -1   -0.12    0.05 
   5   0   2    3.03    0.22 
  -5   0  -2    2.73    0.18 
   5   0   2    2.72    0.20 
   5   0   3    0.01    0.08 
   5   0   3    0.00    0.09 
   5   0   4    0.48    0.15 
   5   0   5   -0.09    0.11 
  -5  -1   7    0.03    0.13 
  -5   1   6    4.49    0.24 
  -5  -1   6    4.54    0.26 
  -5   1   5    3.97    0.19 
  -5   1   5    3.79    0.18 
  -5   1   5    3.97    0.20 
  -5  -1   5    3.59    0.20 
  -5  -1   5    3.41    0.19 
  -5  -1   5    3.67    0.21 
  -5   1   4   11.97    0.34 
  -5   1   4   12.36    0.35 
  -5  -1   4   11.49    0.31 
  -5  -1   4   11.96    0.34 
  -5  -1   4   11.42    0.34 
  -5   1   3    0.08    0.06 
   5   1  -3   -0.05    0.04 
   5   1  -3    0.01    0.04 
  -5   1   3    0.02    0.06 
  -5  -1   3   -0.04    0.06 
   5  -1  -3    0.00    0.04 
  -5  -1   3    0.00    0.05 
  -5  -1   3    0.03    0.04 
  -5   1   2    1.66    0.15 
  -5   1   2    1.58    0.14 
   5   1  -2    1.97    0.14 
   5   1  -2    1.72    0.11 
  -5  -1   2    1.86    0.11 
   5  -1  -2    1.63    0.14 
  -5  -1   2    1.81    0.15 
  -5  -1   2    1.65    0.14 
  -5   1   1    0.71    0.11 
   5   1  -1    0.81    0.11 
   5   1  -1    0.86    0.09 
   5   1  -1    0.71    0.11 
  -5   1   1    0.73    0.12 
   5  -1  -1    0.86    0.12 
   5  -1  -1    0.67    0.11 
  -5  -1   1    0.78    0.12 
  -5  -1   1    0.63    0.10 
   5  -1  -1    0.95    0.09 
   5   1   0   54.89    1.03 
  -5   1   0   56.61    1.03 
   5   1   0   55.89    1.02 
  -5   1   0   57.30    1.04 
   5  -1   0   56.07    1.02 
  -5  -1   0   56.04    1.02 
  -5  -1   0   57.82    1.07 
   5  -1   0   55.91    1.04 
  -5   1  -1    2.33    0.17 
   5   1   1    2.56    0.19 
   5   1   1    2.39    0.18 
  -5  -1  -1    2.41    0.17 
   5  -1   1    2.26    0.17 
   5  -1   1    2.61    0.19 
   5   1   2   12.04    0.40 
   5   1   2   10.93    0.38 
  -5  -1  -2   11.41    0.35 
   5  -1   2   10.79    0.39 
   5  -1   2   11.01    0.38 
   5   1   3    2.13    0.20 
   5   1   3    2.26    0.22 
   5  -1   3    2.69    0.22 
   5  -1   3    2.24    0.22 
   5   1   4    0.71    0.16 
   5  -1   4    0.44    0.14 
   5   1   5    0.01    0.11 
   5  -1   5    0.26    0.14 
  -5  -2   7    0.28    0.14 
  -5  -2   6    1.01    0.16 
  -5   2   5   24.01    0.54 
  -5   2   5   23.72    0.54 
  -5  -2   5   24.11    0.58 
  -5  -2   5   26.28    0.61 
  -5  -2   5   23.68    0.54 
  -5   2   4    1.35    0.14 
  -5   2   4    1.89    0.16 
  -5  -2   4    1.75    0.14 
  -5  -2   4    1.73    0.14 
  -5  -2   4    2.06    0.17 
  -5   2   3    4.47    0.21 
   5   2  -3    4.22    0.19 
   5   2  -3    4.36    0.18 
  -5   2   3    4.68    0.22 
  -5  -2   3    4.44    0.18 
   5  -2  -3    4.52    0.18 
  -5  -2   3    4.41    0.21 
  -5  -2   3    4.53    0.22 
  -5   2   2    6.04    0.25 
   5   2  -2    6.20    0.24 
   5   2  -2    6.32    0.22 
  -5   2   2    6.03    0.25 
  -5  -2   2    6.46    0.26 
  -5  -2   2    6.22    0.25 
   5  -2  -2    6.13    0.24 
  -5  -2   2    6.14    0.21 
   5   2  -1   70.19    1.23 
  -5   2   1   71.45    1.23 
  -5   2   1   72.76    1.24 
   5   2  -1   72.45    1.16 
  -5  -2   1   71.33    1.24 
  -5  -2   1   73.11    1.24 
   5  -2  -1   70.76    1.23 
  -5   2   0    2.43    0.18 
   5   2   0    1.81    0.16 
   5   2   0    2.08    0.17 
   5  -2   0    1.49    0.16 
  -5  -2   0    2.20    0.17 
   5  -2   0    1.90    0.17 
   5   2   1   27.79    0.65 
   5   2   1   28.07    0.64 
   5  -2   1   28.51    0.67 
  -5  -2  -1   29.18    0.64 
   5  -2   1   28.44    0.64 
   5   2   2    0.01    0.08 
   5   2   2    0.14    0.08 
   5  -2   2   -0.03    0.07 
   5  -2   2    0.09    0.09 
  -5  -2  -2    0.13    0.07 
   5   2   3   11.34    0.42 
   5   2   3   11.97    0.42 
   5  -2   3   10.43    0.39 
   5  -2   3   11.52    0.43 
   5   2   4    0.05    0.11 
   5  -2   4    0.01    0.11 
   5   2   5    0.05    0.12 
   5  -2   5    0.09    0.13 
  -5  -3   7    0.40    0.16 
  -5  -3   6    3.14    0.25 
  -5  -3   6    3.26    0.21 
  -5   3   5   -0.20    0.07 
  -5  -3   5    0.00    0.08 
  -5  -3   5    0.10    0.08 
  -5   3   4    1.67    0.16 
  -5   3   4    1.55    0.15 
  -5  -3   4    1.57    0.15 
  -5  -3   4    1.62    0.16 
  -5  -3   4    1.74    0.15 
  -5   3   3    7.01    0.27 
  -5   3   3    7.49    0.28 
   5   3  -3    7.22    0.25 
   5  -3  -3    7.49    0.24 
  -5  -3   3    7.50    0.29 
  -5  -3   3    6.96    0.27 
  -5  -3   3    7.31    0.25 
   5   3  -2    0.92    0.12 
   5   3  -2    0.95    0.11 
  -5   3   2    0.81    0.12 
  -5   3   2    0.80    0.11 
  -5  -3   2    1.01    0.12 
   5  -3  -2    0.84    0.11 
  -5  -3   2    0.93    0.12 
  -5  -3   2    1.06    0.11 
   5   3  -1    0.29    0.08 
  -5   3   1    0.29    0.09 
  -5   3   1    0.09    0.07 
  -5  -3   1    0.27    0.08 
   5  -3  -1    0.26    0.08 
  -5  -3   1    0.36    0.09 
   5   3   0    8.70    0.34 
  -5  -3   0    8.73    0.32 
   5  -3   0    8.86    0.33 
   5   3   1   17.34    0.48 
   5  -3   1   16.85    0.49 
   5  -3   1   16.41    0.46 
  -5  -3  -1   16.49    0.46 
   5   3   2    2.02    0.20 
   5   3   2    2.02    0.19 
   5  -3   2    2.02    0.20 
   5  -3   2    2.37    0.19 
  -5  -3  -2    2.21    0.17 
   5   3   3    5.39    0.30 
   5   3   3    5.50    0.30 
   5  -3   3    6.14    0.32 
   5  -3   3    5.51    0.29 
  -5  -3  -3    5.56    0.25 
   5   3   4    0.63    0.16 
   5  -3   4    0.68    0.15 
   5   3   5   -0.03    0.11 
   5  -3   5   -0.06    0.13 
  -5  -4   7    1.02    0.21 
  -5  -4   6    2.76    0.28 
  -5  -4   6    3.04    0.21 
  -5  -4   5    0.00    0.09 
  -5  -4   5    0.15    0.09 
  -5   4   4    1.16    0.14 
  -5  -4   4    0.94    0.13 
  -5  -4   4    1.31    0.15 
  -5  -4   4    1.05    0.13 
  -5   4   3    3.05    0.19 
   5   4  -3    2.85    0.17 
  -5   4   3    3.30    0.20 
  -5  -4   3    3.21    0.20 
  -5  -4   3    3.23    0.19 
  -5  -4   3    2.93    0.18 
   5  -4  -3    3.21    0.16 
  -5   4   2    2.29    0.18 
  -5   4   2    2.95    0.18 
   5   4  -2    2.53    0.17 
  -5  -4   2    2.96    0.17 
   5  -4  -2    2.87    0.18 
  -5  -4   2    2.86    0.18 
  -5  -4   2    2.96    0.19 
  -5   4   1    4.55    0.23 
   5   4  -1    4.33    0.23 
  -5  -4   1    4.33    0.23 
   5  -4  -1    4.82    0.24 
  -5  -4   1    4.25    0.20 
  -5  -4   1    4.19    0.22 
   5   4   0    9.48    0.35 
  -5  -4   0    9.59    0.34 
   5  -4   0    9.35    0.35 
   5   4   1    0.03    0.08 
   5   4   1   -0.02    0.07 
   5  -4   1    0.08    0.09 
  -5  -4  -1    0.02    0.06 
   5   4   2    0.13    0.10 
   5   4   2    0.09    0.09 
  -5  -4  -2    0.20    0.09 
   5  -4   2    0.21    0.10 
   5  -4   2    0.09    0.11 
   5   4   3    3.28    0.25 
   5   4   3    3.54    0.26 
   5  -4   3    3.22    0.25 
  -5  -4  -3    3.72    0.21 
   5  -4   3    3.45    0.27 
   5   4   4    0.79    0.17 
   5  -4   4    0.59    0.16 
   5   4   5    0.48    0.16 
   5  -4   5    0.44    0.17 
  -5  -5   7    0.16    0.16 
  -5  -5   6    0.97    0.16 
  -5  -5   6    0.80    0.18 
  -5  -5   5    0.36    0.13 
  -5  -5   5    0.33    0.12 
  -5   5   4   31.53    0.69 
  -5  -5   4   30.82    0.71 
  -5  -5   4   31.63    0.71 
  -5   5   3    7.25    0.29 
   5   5  -3    7.52    0.28 
  -5  -5   3    6.80    0.30 
  -5  -5   3    7.21    0.28 
   5  -5  -3    7.21    0.26 
  -5   5   2    0.37    0.09 
   5   5  -2    0.18    0.08 
  -5  -5   2    0.18    0.07 
   5  -5  -2    0.19    0.07 
  -5  -5   2    0.17    0.09 
   5   5  -1    0.15    0.08 
  -5   5   1    0.09    0.08 
  -5  -5   1    0.05    0.07 
   5  -5  -1    0.14    0.08 
  -5  -5   1    0.06    0.07 
   5   5   0   38.21    0.82 
  -5  -5   0   38.13    0.81 
   5  -5   0   39.56    0.84 
   5   5   1    0.19    0.10 
   5  -5   1    0.16    0.09 
  -5  -5  -1    0.29    0.09 
   5   5   2   15.25    0.48 
   5   5   2   14.13    0.66 
   5  -5   2   15.21    0.50 
  -5  -5  -2   15.02    0.45 
   5   5   3    0.36    0.19 
   5   5   3    0.30    0.13 
   5  -5   3    0.28    0.13 
  -5  -5  -3    0.19    0.09 
   5   5   4    1.12    0.20 
   5  -5   4    1.43    0.21 
   5   5   5   -0.06    0.13 
   5  -5   5    0.20    0.17 
  -5  -6   6    0.61    0.14 
  -5  -6   6    0.75    0.18 
  -5  -6   5    2.95    0.25 
  -5  -6   5    3.10    0.24 
  -5   6   4    7.00    0.31 
   5   6  -4    7.89    0.27 
  -5  -6   4    7.55    0.33 
  -5  -6   4    7.42    0.33 
  -5   6   3    7.92    0.32 
   5   6  -3    8.38    0.31 
  -5  -6   3    7.67    0.33 
  -5  -6   3    7.90    0.31 
   5  -6  -3    7.82    0.28 
  -5   6   2    0.17    0.09 
   5   6  -2    0.05    0.07 
  -5  -6   2    0.18    0.08 
   5  -6  -2    0.12    0.08 
  -5  -6   2    0.18    0.09 
   5   6  -1    5.89    0.28 
   5  -6  -1    5.64    0.20 
   5  -6  -1    5.22    0.27 
  -5  -6   1    5.24    0.27 
   5   6   0    4.25    0.25 
   5  -6   0    4.38    0.26 
  -5  -6   0    4.05    0.24 
   5   6   1   14.72    0.48 
  -5  -6  -1   14.95    0.46 
   5  -6   1   15.18    0.50 
   5   6   2    0.05    0.10 
   5  -6   2    0.09    0.11 
  -5  -6  -2    0.05    0.08 
   5   6   3    4.83    0.31 
  -5  -6  -3    4.60    0.25 
   5  -6   3    5.23    0.33 
   5   6   4    0.76    0.18 
   5  -6   4    0.70    0.18 
   5   6   5    0.17    0.16 
   5  -6   5    0.16    0.16 
  -5  -7   6    0.04    0.11 
  -5  -7   6   -0.02    0.12 
  -5  -7   5    0.07    0.11 
  -5  -7   5    0.13    0.11 
   5   7  -4    7.46    0.28 
  -5  -7   4    7.75    0.35 
  -5  -7   4    7.31    0.35 
   5   7  -3    5.38    0.26 
  -5   7   3    5.22    0.28 
  -5  -7   3    5.42    0.30 
  -5  -7   3    5.62    0.28 
   5  -7  -3    5.71    0.25 
   5   7  -2    0.95    0.14 
  -5  -7   2    0.89    0.14 
   5  -7  -2    1.05    0.15 
  -5  -7   2    0.99    0.15 
   5   7  -1    0.93    0.15 
  -5  -7   1    0.87    0.14 
  -5  -7   1    1.15    0.15 
   5  -7  -1    1.15    0.16 
   5  -7  -1    1.17    0.11 
   5   7   0    6.16    0.31 
   5  -7   0    5.86    0.31 
   5  -7   0    6.05    0.28 
  -5  -7   0    5.76    0.30 
   5   7   1    3.82    0.26 
   5  -7   1    3.45    0.26 
  -5  -7  -1    3.30    0.23 
   5   7   2   -0.07    0.09 
  -5  -7  -2    0.01    0.08 
   5  -7   2    0.15    0.11 
   5   7   3    1.64    0.23 
   5  -7   3    1.52    0.21 
  -5  -7  -3    1.74    0.18 
   5   7   4    1.56    0.24 
   5  -7   4    1.20    0.21 
   5   7   5    0.11    0.16 
   5  -7   5   -0.01    0.17 
  -5  -8   6    0.04    0.12 
  -5  -8   6   -0.02    0.14 
  -5  -8   5    0.16    0.12 
  -5  -8   5    0.23    0.13 
   5   8  -4    1.36    0.16 
  -5  -8   4    1.44    0.20 
  -5  -8   4    1.30    0.19 
  -5   8   3    0.11    0.09 
   5   8  -3    0.15    0.09 
  -5  -8   3    0.12    0.09 
  -5  -8   3    0.13    0.11 
   5  -8  -3    0.12    0.08 
   5   8  -2   -0.05    0.09 
  -5  -8   2   -0.01    0.07 
   5  -8  -2    0.08    0.09 
  -5  -8   2    0.04    0.10 
   5   8  -1    2.90    0.23 
  -5  -8   1    3.24    0.25 
   5  -8  -1    2.56    0.24 
   5  -8  -1    3.20    0.16 
   5   8   0    6.73    0.34 
  -5  -8   0    6.34    0.32 
   5  -8   0    6.17    0.29 
   5  -8   0    6.25    0.34 
   5   8   1    0.82    0.16 
  -5  -8  -1    0.74    0.14 
   5  -8   1    0.81    0.16 
   5  -8   1    0.75    0.15 
   5   8   2    0.82    0.17 
   5  -8   2    1.38    0.22 
  -5  -8  -2    1.23    0.18 
   5  -8   2    1.27    0.20 
   5   8   3    3.11    0.30 
   5  -8   3    2.90    0.29 
  -5  -8  -3    3.33    0.34 
   5   8   4    1.24    0.22 
   5  -8   4    1.48    0.28 
   5  -8   4    1.31    0.24 
  -5  -9   6    0.61    0.19 
  -5  -9   6    0.41    0.16 
  -5  -9   5    1.05    0.20 
  -5  -9   5    1.19    0.21 
   5   9  -4    6.23    0.32 
  -5  -9   4    5.79    0.35 
  -5  -9   4    5.56    0.33 
   5   9  -3   14.06    0.47 
   5  -9  -3   15.14    0.46 
  -5  -9   3   14.35    0.52 
  -5  -9   3   14.98    0.50 
   5   9  -2    1.67    0.20 
  -5  -9   2    1.36    0.19 
  -5  -9   2    1.17    0.16 
   5  -9  -2    1.39    0.18 
   5   9  -1    0.02    0.10 
  -5  -9   1    0.16    0.09 
   5  -9  -1    0.14    0.10 
   5  -9  -1    0.26    0.07 
  -5  -9   1    0.15    0.10 
   5   9   0   24.54    0.69 
   5  -9   0   25.86    0.71 
  -5  -9   0   24.27    0.68 
   5  -9   0   24.88    0.62 
   5   9   1    0.12    0.13 
   5  -9   1    0.10    0.11 
  -5  -9  -1    0.01    0.09 
   5  -9   1   -0.12    0.09 
   5   9   2    5.64    0.35 
   5  -9   2    5.86    0.37 
   5  -9   2    5.11    0.37 
  -5  -9  -2    5.73    0.32 
   5   9   3    0.01    0.13 
   5  -9   3    0.01    0.13 
   5  -9   3   -0.23    0.13 
   5   9   4    0.05    0.15 
   5  -9   4   -0.39    0.14 
   5  -9   4    0.32    0.18 
  -5 -10   5    0.02    0.13 
  -5 -10   5   -0.07    0.13 
  -5 -10   4    2.34    0.26 
  -5 -10   4    2.53    0.29 
   5  10  -3    0.05    0.09 
  -5 -10   3    0.29    0.13 
   5 -10  -3    0.19    0.09 
  -5 -10   3    0.23    0.12 
   5  10  -2    1.37    0.20 
   5 -10  -2    1.34    0.18 
  -5 -10   2    1.38    0.18 
  -5 -10   2    1.73    0.23 
   5  10  -1    1.66    0.21 
   5 -10  -1    1.80    0.15 
   5 -10  -1    1.59    0.21 
  -5 -10   1    1.46    0.18 
  -5 -10   1    1.69    0.22 
   5  10   0    0.49    0.15 
  -5 -10   0    0.83    0.16 
   5 -10   0    0.85    0.18 
  -5 -10   0    0.48    0.14 
   5 -10   0    0.51    0.13 
   5  10   1    5.51    0.35 
   5 -10   1    5.46    0.34 
  -5 -10  -1    5.70    0.34 
   5 -10   1    6.44    0.38 
   5  10   2    0.54    0.17 
  -5 -10  -2    0.62    0.16 
   5 -10   2    0.86    0.19 
   5 -10   2    0.78    0.20 
   5  10   3   -0.02    0.16 
   5 -10   3   -0.04    0.14 
   5 -10   3    0.18    0.16 
   5  10   4    0.12    0.17 
   5 -10   4    0.34    0.18 
   5 -10   4    0.38    0.19 
  -5 -11   5    0.91    0.22 
  -5 -11   5    0.91    0.22 
  -5 -11   4    2.27    0.29 
  -5 -11   4    2.04    0.25 
   5  11  -3    0.16    0.13 
  -5 -11   3    0.11    0.13 
   5 -11  -3    0.06    0.10 
  -5 -11   3    0.04    0.10 
   5  11  -2    3.58    0.29 
   5 -11  -2    3.76    0.28 
  -5 -11   2    2.57    0.28 
  -5 -11   2    3.13    0.26 
   5  11  -1    1.02    0.19 
  -5 -11   1    0.97    0.19 
   5 -11  -1    0.94    0.13 
   5 -11  -1    0.71    0.17 
  -5 -11   1    0.69    0.14 
   5  11   0    2.61    0.27 
  -5 -11   0    2.25    0.25 
   5 -11   0    2.17    0.26 
   5 -11   0    2.51    0.23 
  -5 -11   0    2.62    0.27 
   5  11   1   -0.10    0.12 
   5 -11   1   -0.03    0.12 
   5 -11   1    0.23    0.14 
  -5 -11  -1    0.07    0.12 
   5  11   2    0.60    0.19 
   5 -11   2    0.50    0.19 
  -5 -11  -2    0.45    0.15 
   5 -11   2    0.58    0.19 
   5  11   3   -0.03    0.16 
   5 -11   3    0.00    0.16 
   5 -11   3    0.24    0.18 
  -5 -12   5   -0.05    0.17 
  -5 -12   5    0.21    0.15 
  -5 -12   4    0.32    0.18 
  -5 -12   4    0.31    0.15 
   5  12  -3    0.05    0.13 
  -5 -12   3   -0.07    0.13 
   5 -12  -3   -0.01    0.10 
  -5 -12   3    0.00    0.11 
   5  12  -2    0.94    0.19 
  -5 -12   2    1.08    0.21 
   5 -12  -2    0.83    0.11 
   5 -12  -2    0.72    0.16 
  -5 -12   2    0.61    0.15 
   5  12  -1    3.34    0.31 
  -5 -12   1    2.88    0.31 
   5 -12  -1    3.34    0.30 
   5 -12  -1    3.02    0.20 
  -5 -12   1    3.34    0.27 
   5  12   0    0.05    0.14 
   5 -12   0    0.15    0.10 
  -5 -12   0    0.13    0.14 
  -5 -12   0    0.10    0.13 
   5 -12   0    0.17    0.15 
   5  12   1    0.04    0.15 
   5 -12   1    0.30    0.16 
   5 -12   1    0.49    0.16 
  -5 -12  -1    0.18    0.13 
   5  12   2    0.37    0.18 
  -5 -12  -2    0.30    0.15 
   5 -12   2    0.19    0.17 
   5 -12   2    0.45    0.19 
   5  12   3    2.73    0.33 
   5 -12   3    2.82    0.36 
   5 -12   3    3.19    0.36 
  -5 -13   4    0.12    0.18 
  -5 -13   4    0.02    0.14 
   5  13  -3    2.41    0.28 
  -5 -13   3    2.45    0.28 
  -5 -13   3    2.41    0.31 
   5  13  -2    2.97    0.31 
   5 -13  -2    2.42    0.17 
  -5 -13   2    2.24    0.29 
   5 -13  -2    2.21    0.28 
  -5 -13   2    2.47    0.27 
   5  13  -1   -0.02    0.14 
   5 -13  -1    0.32    0.10 
  -5 -13   1    0.19    0.12 
  -5 -13   1    0.34    0.16 
   5 -13  -1    0.29    0.16 
   5  13   0    2.97    0.32 
  -5 -13   0    3.49    0.34 
   5 -13   0    3.35    0.34 
  -5 -13   0    3.73    0.34 
   5 -13   0    3.43    0.27 
   5  13   1    0.48    0.22 
   5 -13   1    0.58    0.20 
  -5 -13  -1    0.45    0.17 
   5 -13   1    0.56    0.18 
   5  13   2    1.69    0.29 
   5 -13   2    1.21    0.25 
   5 -13   2    1.49    0.25 
   5  14  -3   -0.08    0.17 
  -5 -14   3    0.06    0.17 
  -5 -14   3    0.04    0.13 
   5  14  -2    0.23    0.18 
  -5 -14   2   -0.02    0.15 
  -5 -14   2    0.18    0.14 
   5 -14  -2    0.20    0.15 
   5  14  -1    0.32    0.18 
   5 -14  -1    0.88    0.21 
  -5 -14   1    0.90    0.22 
  -5 -14   1    0.65    0.17 
   5 -14  -1    0.53    0.12 
   5  14   0    0.23    0.18 
   5 -14   0    0.04    0.12 
  -5 -14   0    0.31    0.17 
  -5 -14   0    0.10    0.14 
   5 -14   0    0.16    0.18 
   5  14   1    0.01    0.17 
  -5 -14  -1   -0.04    0.15 
   5 -14   1    0.13    0.17 
   5 -14   1    0.07    0.14 
   5  14   2    2.09    0.31 
   5 -14   2    3.04    0.36 
   5 -14   2    3.11    0.36 
  -5 -15   3   -0.02    0.18 
   5  15  -2    0.74    0.23 
  -5 -15   2    0.97    0.22 
  -5 -15   2    0.94    0.24 
   5 -15  -2    0.61    0.21 
   5  15  -1    0.05    0.18 
   5 -15  -1    0.11    0.11 
  -5 -15   1   -0.06    0.13 
   5 -15  -1   -0.09    0.14 
  -5 -15   1    0.05    0.17 
   5  15   0    0.40    0.22 
  -5 -15   0    1.13    0.23 
  -5 -15   0    0.32    0.18 
   5 -15   0    0.49    0.16 
   5 -15   0    0.48    0.21 
   5  15   1   -0.05    0.18 
   5 -15   1    0.24    0.20 
  -5 -15  -1   -0.01    0.17 
   5 -15   1   -0.12    0.14 
   5  16  -1    0.33    0.22 
  -6   0   6    0.23    0.09 
  -6   0   6    0.08    0.09 
  -6   0   5    0.03    0.08 
  -6   0   4    3.25    0.14 
  -6   0   4    3.09    0.19 
  -6   0   4    2.87    0.20 
  -6   0   3    0.03    0.07 
   6   0  -3    0.05    0.04 
  -6   0   3    0.04    0.08 
   6   0  -3    0.08    0.06 
   6   0  -2    4.76    0.17 
  -6   0   2    4.60    0.24 
   6   0  -2    5.09    0.24 
  -6   0   2    4.39    0.23 
   6   0  -1    0.01    0.06 
  -6   0   1    0.06    0.07 
   6   0  -1    0.11    0.06 
  -6   0   0    1.03    0.14 
   6   0   0    1.03    0.16 
  -6   0  -1   -0.05    0.07 
   6   0   1   -0.05    0.08 
  -6   0  -2    0.36    0.09 
   6   0   2    0.26    0.12 
   6   0   3   -0.07    0.10 
   6   0   4    1.01    0.20 
   6   0   5    0.04    0.15 
  -6   1   6    1.32    0.16 
  -6  -1   6    1.42    0.16 
  -6  -1   6    1.69    0.17 
  -6   1   5    2.77    0.20 
  -6  -1   5    2.87    0.17 
  -6  -1   5    2.57    0.20 
  -6   1   4    3.51    0.21 
  -6   1   4    3.52    0.22 
  -6  -1   4    3.64    0.22 
  -6  -1   4    3.27    0.20 
  -6  -1   4    3.65    0.16 
   6   1  -3   29.06    0.61 
   6   1  -3   27.45    0.57 
  -6   1   3   29.75    0.66 
  -6   1   3   29.26    0.66 
  -6  -1   3   28.47    0.66 
  -6  -1   3   28.48    0.65 
  -6  -1   3   29.77    0.55 
   6  -1  -3   30.26    0.62 
   6   1  -2   10.31    0.28 
  -6   1   2   10.25    0.36 
  -6   1   2   10.18    0.35 
   6   1  -2   10.26    0.34 
   6  -1  -2    9.75    0.24 
  -6  -1   2    9.86    0.34 
  -6  -1   2   10.35    0.36 
   6  -1  -2   10.08    0.34 
   6   1  -1    7.83    0.31 
   6   1  -1    7.59    0.25 
  -6   1   1    7.26    0.30 
   6  -1  -1    7.85    0.31 
   6  -1  -1    7.25    0.23 
  -6  -1   1    7.91    0.31 
  -6   1   0   25.60    0.63 
   6   1   0   25.98    0.64 
  -6  -1   0   25.15    0.62 
   6  -1   0   25.85    0.64 
   6   1   1    0.34    0.11 
  -6   1  -1    0.40    0.11 
  -6  -1  -1    0.56    0.12 
   6  -1   1    0.51    0.13 
   6   1   2   12.91    0.46 
   6  -1   2   13.12    0.46 
  -6  -1  -2   13.31    0.42 
   6   1   3    0.19    0.12 
   6  -1   3    0.20    0.12 
   6   1   4    1.74    0.23 
   6  -1   4    1.60    0.24 
   6   1   5    1.36    0.23 
   6  -1   5    1.52    0.24 
  -6   2   6    0.92    0.14 
  -6  -2   6    0.90    0.15 
  -6  -2   6    0.45    0.12 
  -6   2   5    8.63    0.33 
  -6  -2   5    8.75    0.30 
  -6  -2   5    8.30    0.32 
  -6   2   4    1.80    0.17 
  -6   2   4    2.03    0.19 
  -6  -2   4    1.67    0.16 
  -6  -2   4    2.09    0.19 
  -6  -2   4    1.85    0.14 
  -6   2   3    3.54    0.22 
   6   2  -3    4.27    0.21 
  -6   2   3    4.06    0.23 
   6   2  -3    3.81    0.19 
  -6  -2   3    4.12    0.18 
  -6  -2   3    4.28    0.22 
  -6  -2   3    4.17    0.23 
   6  -2  -3    3.93    0.20 
  -6   2   2    1.68    0.17 
  -6   2   2    1.53    0.16 
   6   2  -2    1.92    0.17 
   6   2  -2    1.72    0.13 
   6  -2  -2    2.08    0.18 
  -6  -2   2    1.84    0.18 
  -6  -2   2    1.90    0.18 
  -6   2   1    3.65    0.23 
   6   2  -1    3.78    0.23 
  -6  -2   1    4.20    0.23 
   6  -2  -1    4.15    0.23 
  -6   2   0   10.32    0.37 
   6   2   0    9.86    0.37 
  -6  -2   0    9.82    0.36 
   6  -2   0    9.93    0.38 
   6   2   1   33.08    0.79 
  -6  -2  -1   35.15    0.77 
   6  -2   1   35.38    0.81 
   6   2   2    1.21    0.18 
   6  -2   2    1.02    0.17 
  -6  -2  -2    0.98    0.14 
   6   2   3    0.11    0.11 
   6  -2   3    0.28    0.13 
   6   2   4   -0.15    0.12 
   6  -2   4    0.07    0.13 
   6   2   5    0.48    0.18 
   6  -2   5    0.53    0.19 
  -6  -3   7    0.58    0.20 
  -6  -3   6    0.59    0.13 
  -6  -3   6    0.66    0.13 
  -6   3   5   -0.09    0.07 
  -6  -3   5    0.07    0.08 
  -6  -3   5   -0.01    0.08 
  -6   3   4   11.43    0.38 
  -6   3   4   11.00    0.37 
  -6  -3   4   10.68    0.33 
  -6  -3   4   11.76    0.39 
  -6  -3   4   10.81    0.37 
  -6   3   3    0.90    0.13 
   6   3  -3    1.19    0.14 
  -6   3   3    1.02    0.15 
  -6  -3   3    0.87    0.12 
   6  -3  -3    1.04    0.13 
  -6  -3   3    1.42    0.16 
  -6  -3   3    1.37    0.14 
  -6   3   2    1.71    0.17 
   6   3  -2    1.86    0.18 
  -6   3   2    1.51    0.16 
  -6  -3   2    1.79    0.14 
  -6  -3   2    2.19    0.19 
   6  -3  -2    1.88    0.17 
  -6  -3   2    1.87    0.18 
  -6   3   1    0.24    0.10 
   6   3  -1    0.11    0.08 
  -6  -3   1    0.14    0.08 
   6  -3  -1    0.31    0.10 
   6   3   0   12.27    0.42 
  -6   3   0   12.00    0.41 
  -6  -3   0   11.82    0.41 
   6  -3   0   11.80    0.42 
   6   3   1    0.38    0.11 
   6  -3   1    0.41    0.12 
  -6  -3  -1    0.56    0.11 
   6   3   2    5.71    0.31 
  -6  -3  -2    6.03    0.29 
   6  -3   2    5.63    0.32 
   6   3   3   -0.03    0.11 
   6  -3   3    0.13    0.12 
  -6  -3  -3   -0.05    0.08 
   6   3   4    0.05    0.13 
   6  -3   4    0.10    0.13 
   6   3   5    2.82    0.30 
   6  -3   5    2.27    0.29 
  -6  -4   6    1.72    0.19 
  -6  -4   6    1.50    0.19 
  -6  -4   5    0.04    0.09 
  -6  -4   5    0.02    0.09 
  -6   4   4    0.76    0.14 
   6   4  -4    0.52    0.10 
  -6   4   4    0.62    0.12 
  -6  -4   4    0.74    0.12 
  -6  -4   4    0.57    0.12 
  -6  -4   4    0.86    0.15 
  -6   4   3    1.02    0.15 
  -6   4   3    0.78    0.13 
   6   4  -3    1.11    0.14 
  -6  -4   3    1.08    0.14 
   6  -4  -3    0.72    0.11 
  -6  -4   3    0.87    0.12 
  -6  -4   3    0.75    0.14 
  -6   4   2    0.18    0.08 
  -6   4   2    0.26    0.09 
   6   4  -2    0.31    0.10 
  -6  -4   2    0.15    0.07 
  -6  -4   2    0.30    0.11 
   6  -4  -2    0.26    0.09 
   6   4  -1   14.29    0.46 
   6  -4  -1   14.72    0.46 
  -6  -4   1   15.96    0.47 
   6   4   0    3.93    0.26 
   6  -4   0    4.66    0.27 
  -6  -4   0    4.08    0.25 
   6   4   1    0.24    0.11 
   6  -4   1    0.01    0.09 
  -6  -4  -1    0.19    0.10 
   6   4   2    0.20    0.11 
   6  -4   2    0.14    0.11 
  -6  -4  -2    0.06    0.09 
   6   4   3    0.09    0.12 
  -6  -4  -3    0.17    0.09 
   6  -4   3    0.04    0.11 
   6   4   4    0.98    0.20 
   6  -4   4    1.21    0.21 
   6   4   5    0.52    0.20 
   6  -4   5    0.52    0.20 
  -6  -5   6    1.44    0.20 
  -6  -5   6    1.18    0.18 
  -6  -5   5    2.33    0.23 
  -6  -5   5    1.98    0.20 
   6   5  -4    1.31    0.14 
  -6   5   4    1.00    0.15 
  -6  -5   4    1.33    0.16 
  -6  -5   4    1.10    0.16 
  -6   5   3    1.32    0.16 
   6   5  -3    1.78    0.18 
   6  -5  -3    1.59    0.16 
  -6  -5   3    1.61    0.18 
  -6  -5   3    1.59    0.16 
  -6  -5   3    1.88    0.20 
   6   5  -2   53.05    1.03 
  -6  -5   2   52.30    0.98 
  -6  -5   2   51.94    1.05 
   6  -5  -2   52.01    1.02 
   6   5  -1    1.84    0.19 
   6  -5  -1    1.65    0.19 
  -6  -5   1    2.07    0.20 
   6   5   0   22.28    0.61 
   6  -5   0   21.42    0.61 
  -6  -5   0   22.14    0.60 
   6   5   1    0.19    0.10 
   6  -5   1    0.00    0.09 
  -6  -5  -1    0.08    0.08 
   6   5   2   10.12    0.43 
  -6  -5  -2    9.13    0.37 
   6  -5   2    9.62    0.43 
   6   5   3    0.01    0.12 
   6  -5   3   -0.10    0.12 
  -6  -5  -3    0.00    0.09 
   6   5   4    1.42    0.23 
   6  -5   4    1.34    0.23 
  -6  -6   6    0.53    0.14 
  -6  -6   6    0.57    0.15 
  -6  -6   5    0.12    0.12 
  -6  -6   5    0.09    0.10 
   6   6  -4    1.40    0.16 
  -6  -6   4    1.11    0.16 
  -6  -6   4    1.59    0.19 
   6   6  -3    4.08    0.24 
  -6   6   3    4.42    0.27 
   6  -6  -3    4.28    0.23 
  -6  -6   3    4.38    0.24 
  -6  -6   3    4.57    0.28 
   6   6  -2    0.27    0.10 
  -6  -6   2    0.23    0.11 
   6  -6  -2    0.04    0.09 
  -6  -6   2    0.14    0.08 
   6   6  -1   22.46    0.61 
   6  -6  -1   22.54    0.62 
  -6  -6   1   22.45    0.62 
   6  -6  -1   22.60    0.50 
   6   6   0   10.34    0.42 
  -6  -6   0   11.19    0.42 
   6  -6   0   10.43    0.42 
   6   6   1    3.34    0.26 
   6  -6   1    2.69    0.26 
  -6  -6  -1    3.22    0.24 
   6   6   2    2.40    0.26 
  -6  -6  -2    2.01    0.21 
   6  -6   2    2.70    0.27 
   6   6   3    0.38    0.16 
   6  -6   3    0.21    0.15 
   6   6   4    0.17    0.16 
   6  -6   4   -0.05    0.15 
  -6  -7   6    0.41    0.15 
  -6  -7   6    0.00    0.12 
  -6  -7   5   -0.06    0.11 
  -6  -7   5    0.14    0.11 
   6   7  -4    0.70    0.13 
  -6  -7   4    0.33    0.12 
  -6  -7   4    0.18    0.12 
   6  -7  -4    0.49    0.15 
   6   7  -3    0.87    0.15 
  -6  -7   3    0.58    0.12 
  -6  -7   3    0.42    0.13 
   6  -7  -3    0.49    0.12 
   6   7  -2   -0.03    0.08 
  -6  -7   2    0.05    0.09 
   6  -7  -2   -0.04    0.08 
  -6  -7   2   -0.04    0.07 
   6   7  -1    0.34    0.11 
   6  -7  -1    0.27    0.08 
  -6  -7   1    0.42    0.14 
  -6  -7   1    0.40    0.11 
   6  -7  -1    0.22    0.12 
   6   7   0    1.36    0.20 
  -6  -7   0    1.77    0.21 
   6  -7   0    1.73    0.21 
   6   7   1    0.34    0.14 
  -6  -7  -1    0.45    0.13 
   6  -7   1    0.41    0.14 
   6   7   2   -0.07    0.12 
  -6  -7  -2    0.05    0.10 
   6  -7   2    0.07    0.12 
   6   7   3   -0.11    0.12 
   6  -7   3   -0.05    0.13 
   6   7   4    0.25    0.16 
   6  -7   4    0.53    0.19 
  -6  -8   6    1.23    0.21 
  -6  -8   6    1.30    0.23 
  -6  -8   5    2.19    0.26 
  -6  -8   5    2.03    0.24 
   6   8  -4    0.42    0.13 
  -6  -8   4    0.12    0.10 
  -6  -8   4    0.23    0.13 
   6   8  -3    1.76    0.20 
   6  -8  -3    1.83    0.19 
  -6  -8   3    1.68    0.20 
  -6  -8   3    1.70    0.21 
   6   8  -2    0.37    0.12 
  -6  -8   2    0.12    0.12 
  -6  -8   2    0.26    0.10 
   6  -8  -2    0.15    0.10 
   6   8  -1    3.02    0.27 
   6  -8  -1    2.74    0.17 
   6  -8  -1    2.85    0.26 
  -6  -8   1    2.48    0.25 
  -6  -8   1    2.94    0.23 
   6   8   0    6.32    0.36 
   6  -8   0    6.57    0.32 
  -6  -8   0    7.13    0.36 
   6  -8   0    6.37    0.37 
   6   8   1    2.13    0.24 
   6  -8   1    1.95    0.24 
   6  -8   1    1.54    0.22 
  -6  -8  -1    1.71    0.21 
   6   8   2   -0.05    0.13 
   6  -8   2    0.22    0.14 
  -6  -8  -2    0.23    0.13 
   6   8   3   -0.08    0.14 
   6  -8   3   -0.02    0.14 
   6   8   4    0.21    0.16 
   6  -8   4   -0.02    0.16 
  -6  -9   5    0.19    0.15 
  -6  -9   5    0.33    0.15 
  -6  -9   4   -0.07    0.10 
  -6  -9   4   -0.20    0.11 
   6   9  -3    3.04    0.25 
  -6  -9   3    3.26    0.30 
   6  -9  -3    3.15    0.24 
  -6  -9   3    2.86    0.24 
   6   9  -2    9.50    0.41 
   6  -9  -2    9.67    0.41 
  -6  -9   2    9.08    0.38 
  -6  -9   2    9.57    0.43 
   6   9  -1    0.20    0.12 
   6  -9  -1    0.32    0.14 
   6  -9  -1    0.36    0.09 
  -6  -9   1    0.25    0.12 
  -6  -9   1    0.27    0.11 
   6   9   0    6.58    0.38 
   6  -9   0    6.74    0.33 
   6  -9   0    6.44    0.38 
  -6  -9   0    7.06    0.38 
   6   9   1    0.17    0.14 
  -6  -9  -1   -0.04    0.11 
   6  -9   1   -0.21    0.11 
   6  -9   1   -0.04    0.11 
   6   9   2   11.44    0.51 
   6  -9   2    9.87    0.51 
   6  -9   2   11.45    0.53 
  -6  -9  -2   10.60    0.45 
   6   9   3    0.10    0.16 
   6  -9   3   -0.28    0.14 
   6  -9   3   -0.13    0.15 
   6   9   4    0.41    0.20 
   6  -9   4    0.29    0.20 
  -6 -10   5    0.09    0.13 
  -6 -10   5    0.12    0.15 
  -6 -10   4    0.46    0.17 
  -6 -10   4    0.25    0.13 
   6  10  -3    2.59    0.26 
   6 -10  -3    1.98    0.22 
  -6 -10   3    2.16    0.26 
  -6 -10   3    1.92    0.23 
   6  10  -2    0.54    0.16 
  -6 -10   2    0.24    0.14 
  -6 -10   2    0.23    0.12 
   6 -10  -2    0.29    0.13 
   6  10  -1    3.72    0.32 
  -6 -10   1    3.64    0.30 
   6 -10  -1    3.79    0.30 
  -6 -10   1    3.83    0.28 
   6 -10  -1    3.96    0.21 
   6  10   0    1.17    0.20 
   6 -10   0    0.80    0.17 
  -6 -10   0    0.56    0.16 
   6 -10   0    0.95    0.16 
   6  10   1    0.03    0.14 
   6 -10   1   -0.07    0.10 
  -6 -10  -1    0.12    0.13 
   6 -10   1    0.07    0.13 
   6  10   2    0.03    0.15 
  -6 -10  -2    0.11    0.13 
   6 -10   2    0.18    0.16 
   6 -10   2    0.33    0.17 
   6  10   3    1.86    0.28 
   6 -10   3    0.98    0.24 
   6 -10   3    0.97    0.26 
  -6 -11   5    0.06    0.14 
  -6 -11   5   -0.22    0.15 
  -6 -11   4   -0.05    0.12 
  -6 -11   4    0.17    0.16 
   6  11  -3    0.09    0.12 
  -6 -11   3    0.07    0.14 
  -6 -11   3   -0.02    0.10 
   6 -11  -3   -0.09    0.10 
   6  11  -2    0.15    0.14 
  -6 -11   2    0.29    0.16 
   6 -11  -2    0.16    0.12 
  -6 -11   2    0.07    0.11 
   6  11  -1    0.38    0.16 
   6 -11  -1    0.18    0.09 
  -6 -11   1    0.31    0.14 
   6 -11  -1    0.06    0.13 
  -6 -11   1    0.14    0.14 
   6  11   0    0.54    0.19 
   6 -11   0    0.33    0.16 
   6 -11   0    0.87    0.16 
  -6 -11   0    0.89    0.19 
   6  11   1    2.20    0.29 
   6 -11   1    2.27    0.26 
  -6 -11  -1    2.14    0.26 
   6 -11   1    2.06    0.28 
   6  11   2    0.07    0.17 
   6 -11   2   -0.26    0.13 
  -6 -11  -2   -0.16    0.12 
   6 -11   2    0.10    0.16 
   6  11   3    0.01    0.19 
   6 -11   3   -0.05    0.17 
   6 -11   3   -0.34    0.14 
  -6 -12   4    1.00    0.21 
  -6 -12   4    1.54    0.25 
   6  12  -3    1.03    0.20 
  -6 -12   3    0.68    0.17 
  -6 -12   3    0.34    0.17 
   6  12  -2    1.15    0.21 
   6 -12  -2    0.62    0.17 
  -6 -12   2    0.90    0.21 
  -6 -12   2    0.68    0.17 
   6  12  -1    1.52    0.24 
  -6 -12   1    1.95    0.25 
   6 -12  -1    2.09    0.18 
   6 -12  -1    1.77    0.26 
  -6 -12   1    1.93    0.27 
   6  12   0    0.21    0.17 
  -6 -12   0    0.31    0.16 
   6 -12   0    0.40    0.13 
   6 -12   0    0.42    0.18 
   6  12   1    2.02    0.30 
   6 -12   1    1.64    0.27 
   6 -12   1    1.74    0.24 
  -6 -12  -1    2.17    0.27 
   6  12   2   -0.01    0.18 
   6 -12   2    0.01    0.17 
   6 -12   2   -0.11    0.15 
  -6 -13   4    0.38    0.16 
  -6 -13   4    0.26    0.19 
   6  13  -3    0.08    0.15 
  -6 -13   3    0.02    0.14 
  -6 -13   3    0.42    0.20 
   6  13  -2    0.15    0.16 
  -6 -13   2    0.13    0.12 
   6 -13  -2   -0.10    0.13 
  -6 -13   2    0.13    0.16 
   6  13  -1    0.06    0.16 
  -6 -13   1   -0.10    0.14 
  -6 -13   1    0.01    0.13 
   6 -13  -1    0.07    0.09 
   6 -13  -1   -0.01    0.15 
   6  13   0    2.91    0.33 
  -6 -13   0    3.11    0.33 
   6 -13   0    2.80    0.33 
   6 -13   0    2.56    0.26 
   6  13   1    0.45    0.20 
   6 -13   1    0.34    0.16 
   6 -13   1    0.38    0.18 
  -6 -13  -1    0.22    0.17 
   6  13   2    3.68    0.39 
   6 -13   2    3.01    0.35 
   6 -13   2    2.93    0.36 
  -6 -14   3   -0.08    0.16 
  -6 -14   3   -0.02    0.15 
   6  14  -2   -0.05    0.18 
   6 -14  -2    0.12    0.16 
  -6 -14   2    0.12    0.18 
  -6 -14   2    0.04    0.14 
   6  14  -1    0.11    0.19 
   6 -14  -1    0.10    0.11 
  -6 -14   1    0.07    0.14 
  -6 -14   1   -0.21    0.15 
   6 -14  -1   -0.05    0.15 
   6  14   0    0.66    0.24 
   6 -14   0    0.47    0.21 
   6 -14   0    0.50    0.16 
  -6 -14   0    0.82    0.23 
   6  14   1    0.36    0.20 
   6 -14   1    0.23    0.19 
  -6 -14  -1    0.13    0.18 
   6 -14   1    0.09    0.16 
   6  15  -2    1.13    0.27 
   6  15  -1    0.70    0.23 
  -6 -15   1    0.41    0.18 
  -6 -15   1    0.47    0.21 
   6 -15  -1    0.60    0.22 
   6  15   0    0.62    0.25 
  -7   0   6    0.33    0.12 
  -7   0   5    0.00    0.08 
   7   0  -4    0.39    0.08 
  -7   0   4    0.43    0.12 
  -7   0   4    0.30    0.10 
  -7   0   3   -0.05    0.08 
   7   0  -3   -0.10    0.06 
   7   0  -3    0.00    0.04 
  -7   0   3   -0.06    0.07 
   7   0  -2    6.11    0.29 
  -7   0   2    5.77    0.30 
   7   0  -2    6.13    0.22 
   7   0   0    0.52    0.14 
  -7   0   0    0.75    0.14 
  -7   0  -1    0.16    0.09 
   7   0   1    0.01    0.10 
   7   0   2    0.06    0.11 
   7   0   3    0.15    0.12 
   7   0   4    1.26    0.23 
  -7   1   6    0.51    0.13 
  -7  -1   6    0.52    0.13 
  -7   1   5   -0.05    0.08 
  -7  -1   5    0.00    0.06 
  -7  -1   5    0.11    0.09 
   7   1  -4    4.81    0.21 
  -7   1   4    5.17    0.27 
  -7   1   4    5.25    0.29 
   7   1  -4    4.69    0.22 
  -7  -1   4    4.80    0.19 
  -7  -1   4    4.69    0.26 
  -7  -1   4    4.95    0.28 
   7  -1  -4    4.74    0.21 
  -7   1   3    0.03    0.09 
   7   1  -3    0.02    0.07 
  -7   1   3    0.04    0.08 
   7   1  -3    0.19    0.07 
  -7  -1   3    0.19    0.09 
   7  -1  -3    0.15    0.08 
  -7  -1   3   -0.02    0.08 
  -7   1   2    8.21    0.35 
   7   1  -2    7.60    0.33 
  -7  -1   2    7.60    0.34 
   7  -1  -2    7.43    0.23 
   7  -1  -2    7.80    0.33 
  -7   1   1   50.69    1.05 
   7   1  -1   52.49    1.06 
  -7  -1   1   51.66    1.05 
   7  -1  -1   52.28    1.06 
  -7   1   0    0.08    0.09 
   7   1   0    0.17    0.11 
  -7  -1   0   -0.12    0.07 
   7  -1   0   -0.01    0.10 
  -7   1  -1    1.33    0.18 
   7   1   1    1.58    0.21 
   7  -1   1    1.39    0.20 
  -7  -1  -1    1.39    0.18 
   7   1   2    0.50    0.15 
  -7  -1  -2    0.38    0.11 
   7  -1   2    0.45    0.14 
   7   1   3    2.86    0.28 
   7  -1   3    2.74    0.28 
   7   1   4    0.15    0.15 
   7  -1   4    0.36    0.17 
  -7   2   6    0.56    0.14 
  -7  -2   6    0.64    0.12 
  -7  -2   6    0.62    0.14 
  -7   2   5    0.02    0.08 
  -7  -2   5   -0.03    0.06 
  -7  -2   5   -0.03    0.09 
  -7   2   4    2.82    0.23 
   7   2  -4    3.00    0.18 
  -7   2   4    2.98    0.24 
  -7  -2   4    3.01    0.18 
  -7  -2   4    3.12    0.23 
  -7  -2   4    2.80    0.23 
  -7   2   3    7.68    0.34 
  -7   2   3    7.20    0.32 
   7   2  -3    7.35    0.31 
  -7  -2   3    7.50    0.33 
   7  -2  -3    7.37    0.30 
  -7  -2   3    7.37    0.33 
  -7  -2   3    7.84    0.26 
   7   2  -2    0.20    0.10 
  -7   2   2    0.15    0.10 
  -7  -2   2    0.13    0.10 
   7  -2  -2    0.11    0.09 
   7  -2  -2    0.22    0.06 
  -7   2   1   27.90    0.71 
   7   2  -1   28.59    0.71 
   7  -2  -1   27.93    0.71 
  -7  -2   1   29.21    0.71 
   7   2   0    2.67    0.24 
  -7   2   0    2.40    0.22 
   7  -2   0    2.33    0.24 
  -7  -2   0    2.42    0.22 
   7   2   1   18.14    0.58 
  -7  -2  -1   18.38    0.55 
   7  -2   1   17.17    0.57 
   7   2   2    0.76    0.17 
  -7  -2  -2    0.72    0.14 
   7  -2   2    0.29    0.13 
   7   2   3    6.25    0.38 
   7  -2   3    6.63    0.40 
   7   2   4    0.27    0.16 
   7  -2   4    0.22    0.17 
  -7   3   6    0.53    0.14 
  -7  -3   6    0.66    0.14 
  -7  -3   6    0.65    0.15 
  -7   3   5    0.96    0.16 
  -7  -3   5    1.17    0.14 
  -7  -3   5    0.56    0.13 
   7   3  -4    2.37    0.17 
  -7   3   4    2.47    0.23 
  -7  -3   4    2.62    0.24 
  -7  -3   4    2.59    0.18 
  -7  -3   4    2.57    0.34 
   7   3  -3    4.42    0.25 
  -7   3   3    4.80    0.27 
  -7   3   3    4.33    0.27 
  -7  -3   3    4.36    0.27 
  -7  -3   3    4.53    0.22 
   7  -3  -3    4.52    0.24 
   7   3  -2   22.41    0.60 
  -7   3   2   23.09    0.62 
   7  -3  -2   21.53    0.59 
  -7  -3   2   22.05    0.61 
   7   3  -1   13.82    0.47 
  -7   3   1   12.82    0.46 
   7  -3  -1   12.89    0.46 
  -7  -3   1   13.27    0.46 
   7   3   0    1.05    0.17 
  -7   3   0    1.41    0.18 
   7  -3   0    1.42    0.19 
  -7  -3   0    1.50    0.19 
   7   3   1    2.66    0.26 
   7  -3   1    2.13    0.24 
  -7  -3  -1    2.23    0.22 
   7   3   2    0.06    0.11 
   7  -3   2    0.01    0.11 
  -7  -3  -2    0.01    0.09 
   7   3   3    1.20    0.21 
   7  -3   3    1.18    0.22 
   7   3   4    1.36    0.24 
   7  -3   4    1.59    0.26 
  -7  -4   6    0.03    0.10 
  -7  -4   6   -0.06    0.09 
  -7   4   5    1.69    0.19 
  -7  -4   5    2.07    0.19 
  -7  -4   5    1.84    0.21 
  -7   4   4    3.90    0.27 
   7   4  -4    4.11    0.23 
  -7  -4   4    4.50    0.23 
   7  -4  -4    3.69    0.20 
  -7  -4   4    4.26    0.27 
   7   4  -3    0.01    0.08 
  -7   4   3    0.03    0.14 
  -7   4   3   -0.03    0.09 
   7  -4  -3    0.17    0.09 
  -7  -4   3   -0.03    0.07 
  -7  -4   3    0.07    0.09 
  -7   4   2    1.64    0.19 
   7   4  -2    1.40    0.18 
   7  -4  -2    1.25    0.16 
  -7  -4   2    1.54    0.19 
   7   4  -1    4.57    0.29 
  -7  -4   1    5.30    0.30 
   7  -4  -1    4.47    0.29 
   7   4   0    6.86    0.35 
  -7  -4   0    6.44    0.33 
   7  -4   0    6.44    0.35 
   7   4   1    5.26    0.33 
  -7  -4  -1    5.32    0.31 
   7  -4   1    5.80    0.34 
   7   4   2    0.92    0.19 
  -7  -4  -2    1.17    0.17 
   7  -4   2    1.23    0.20 
   7   4   3    0.17    0.15 
   7  -4   3    0.40    0.17 
   7   4   4    0.74    0.20 
   7  -4   4    1.25    0.24 
  -7  -5   6    0.07    0.11 
  -7  -5   6    0.27    0.13 
  -7  -5   5    0.62    0.15 
  -7  -5   5    0.57    0.13 
   7   5  -4    5.09    0.26 
  -7  -5   4    5.67    0.33 
   7  -5  -4    5.70    0.26 
  -7  -5   4    5.54    0.28 
   7   5  -3    1.03    0.16 
   7  -5  -3    0.84    0.14 
  -7  -5   3    1.17    0.18 
  -7  -5   3    0.70    0.13 
   7   5  -2    0.60    0.13 
  -7  -5   2    0.60    0.12 
  -7  -5   2    0.56    0.15 
   7  -5  -2    0.53    0.13 
   7   5  -1    7.80    0.37 
   7  -5  -1    7.39    0.36 
  -7  -5   1    6.78    0.35 
   7   5   0    3.53    0.28 
  -7  -5   0    3.31    0.26 
   7  -5   0    3.43    0.28 
   7   5   1    0.31    0.14 
  -7  -5  -1    0.42    0.13 
   7  -5   1    0.20    0.13 
   7   5   2    2.71    0.28 
  -7  -5  -2    2.66    0.25 
   7  -5   2    3.09    0.30 
   7   5   3    0.24    0.15 
   7  -5   3    0.51    0.18 
   7   5   4   -0.01    0.15 
   7  -5   4    0.15    0.18 
  -7  -6   6    1.54    0.22 
  -7  -6   6    1.15    0.19 
  -7  -6   5    2.50    0.26 
  -7  -6   5    2.28    0.23 
   7   6  -4    2.03    0.20 
  -7  -6   4    2.02    0.20 
  -7  -6   4    2.00    0.23 
   7   6  -3    0.22    0.10 
  -7  -6   3    0.17    0.09 
   7  -6  -3    0.06    0.09 
  -7  -6   3    0.17    0.12 
   7   6  -2    1.54    0.19 
   7  -6  -2    1.28    0.18 
  -7  -6   2    1.83    0.19 
  -7  -6   2    1.54    0.20 
   7   6  -1    2.90    0.27 
  -7  -6   1    3.61    0.27 
   7  -6  -1    3.34    0.26 
   7   6   0    0.06    0.11 
  -7  -6   0   -0.06    0.09 
   7  -6   0   -0.03    0.12 
   7   6   1   29.62    0.82 
  -7  -6  -1   29.60    0.78 
   7  -6   1   31.06    0.84 
   7   6   2    0.03    0.13 
   7  -6   2   -0.02    0.12 
  -7  -6  -2    0.04    0.10 
   7   6   3    0.51    0.19 
   7  -6   3    0.34    0.18 
   7   6   4    1.29    0.25 
   7  -6   4    0.49    0.23 
  -7  -7   6    0.01    0.12 
  -7  -7   6    0.07    0.13 
  -7  -7   5    1.86    0.22 
  -7  -7   5    1.49    0.23 
   7   7  -4    1.28    0.22 
  -7  -7   4    1.48    0.20 
  -7  -7   4    1.70    0.24 
   7   7  -3    6.36    0.33 
   7  -7  -3    6.07    0.31 
  -7  -7   3    5.84    0.30 
  -7  -7   3    6.16    0.36 
   7   7  -2    0.30    0.13 
   7  -7  -2    0.39    0.13 
  -7  -7   2    0.55    0.14 
  -7  -7   2    0.38    0.14 
   7   7  -1    4.19    0.30 
   7  -7  -1    4.57    0.23 
   7  -7  -1    4.36    0.30 
  -7  -7   1    4.93    0.32 
   7   7   0    0.24    0.14 
   7  -7   0    0.15    0.12 
  -7  -7   0    0.08    0.11 
   7   7   1    1.65    0.23 
  -7  -7  -1    1.18    0.19 
   7  -7   1    1.59    0.23 
   7   7   2   -0.10    0.12 
  -7  -7  -2    0.03    0.11 
   7  -7   2    0.00    0.13 
   7   7   3    0.46    0.19 
   7  -7   3    0.26    0.17 
  -7  -8   5    0.17    0.14 
  -7  -8   5    0.06    0.12 
  -7  -8   4    3.41    0.31 
  -7  -8   4    3.19    0.26 
   7   8  -3    4.18    0.29 
   7  -8  -3    3.83    0.27 
  -7  -8   3    4.43    0.33 
  -7  -8   3    3.79    0.27 
   7   8  -2    0.16    0.12 
  -7  -8   2    0.04    0.10 
  -7  -8   2    0.06    0.11 
   7  -8  -2   -0.09    0.10 
   7   8  -1   12.49    0.49 
  -7  -8   1   11.83    0.49 
   7  -8  -1   11.80    0.37 
   7  -8  -1   11.89    0.49 
   7   8   0    3.68    0.32 
  -7  -8   0    3.05    0.28 
   7  -8   0    3.32    0.31 
   7  -8   0    3.32    0.26 
   7   8   1   -0.14    0.13 
   7  -8   1    0.54    0.17 
  -7  -8  -1    0.13    0.13 
   7   8   2    2.50    0.29 
   7  -8   2    2.63    0.30 
  -7  -8  -2    2.81    0.28 
   7   8   3    0.83    0.23 
   7  -8   3    0.81    0.23 
  -7  -9   5    0.57    0.18 
  -7  -9   5    0.48    0.16 
  -7  -9   4    0.80    0.19 
  -7  -9   4    1.03    0.18 
   7   9  -3    2.05    0.23 
  -7  -9   3    1.90    0.22 
   7  -9  -3    2.54    0.25 
  -7  -9   3    2.58    0.28 
   7   9  -2    1.57    0.22 
   7  -9  -2    2.05    0.24 
  -7  -9   2    1.94    0.26 
  -7  -9   2    1.53    0.21 
   7   9  -1    0.94    0.20 
   7  -9  -1    0.91    0.19 
   7  -9  -1    1.09    0.13 
  -7  -9   1    0.78    0.19 
   7   9   0    0.50    0.16 
   7  -9   0    0.63    0.15 
  -7  -9   0    0.52    0.16 
   7  -9   0    0.41    0.15 
   7   9   1    0.16    0.15 
   7  -9   1   -0.02    0.12 
   7  -9   1   -0.04    0.14 
  -7  -9  -1    0.17    0.13 
   7   9   2    0.73    0.21 
   7  -9   2    0.36    0.18 
  -7  -9  -2    0.67    0.18 
   7  -9   2    0.46    0.19 
   7   9   3    0.00    0.17 
   7  -9   3   -0.08    0.17 
   7  -9   3   -0.05    0.17 
  -7 -10   5    1.04    0.24 
  -7 -10   5    0.70    0.19 
  -7 -10   4   -0.09    0.11 
  -7 -10   4   -0.04    0.14 
   7  10  -3    0.27    0.13 
   7 -10  -3    0.22    0.12 
  -7 -10   3    0.39    0.14 
  -7 -10   3    0.23    0.15 
   7  10  -2    1.88    0.25 
  -7 -10   2    1.64    0.25 
   7 -10  -2    1.84    0.25 
  -7 -10   2    1.67    0.22 
   7  10  -1    0.57    0.18 
  -7 -10   1    0.47    0.16 
   7 -10  -1    0.75    0.13 
   7 -10  -1    0.68    0.18 
   7  10   0    2.20    0.29 
   7 -10   0    1.86    0.22 
   7 -10   0    2.06    0.28 
  -7 -10   0    1.79    0.24 
   7  10   1    7.99    0.47 
   7 -10   1    8.46    0.44 
   7 -10   1    7.88    0.48 
  -7 -10  -1    8.38    0.44 
   7  10   2    1.33    0.25 
   7 -10   2    0.39    0.19 
  -7 -10  -2    0.92    0.33 
   7 -10   2    0.90    0.23 
   7  10   3    0.02    0.18 
  -7 -11   4    0.42    0.18 
  -7 -11   4    0.24    0.16 
   7  11  -3    0.61    0.17 
  -7 -11   3    0.72    0.20 
  -7 -11   3    0.71    0.17 
   7  11  -2    0.16    0.15 
  -7 -11   2    0.07    0.13 
  -7 -11   2    0.05    0.14 
   7 -11  -2    0.15    0.13 
   7  11  -1    6.85    0.42 
  -7 -11   1    6.25    0.41 
   7 -11  -1    5.35    0.39 
   7 -11  -1    6.19    0.28 
   7  11   0    0.16    0.16 
   7 -11   0   -0.04    0.10 
   7 -11   0   -0.02    0.14 
  -7 -11   0   -0.02    0.14 
   7  11   1   -0.10    0.16 
   7 -11   1    0.14    0.17 
  -7 -11  -1   -0.05    0.13 
   7 -11   1    0.29    0.16 
   7  11   2   -0.02    0.19 
   7 -11   2    0.05    0.18 
   7 -11   2    0.04    0.17 
  -7 -12   4    0.06    0.15 
  -7 -12   4    0.07    0.18 
   7  12  -3    2.05    0.28 
  -7 -12   3    2.45    0.31 
  -7 -12   3    2.21    0.27 
   7  12  -2    0.30    0.16 
  -7 -12   2    0.55    0.18 
   7 -12  -2    0.24    0.16 
  -7 -12   2    0.12    0.16 
   7  12  -1    4.58    0.42 
   7 -12  -1    4.31    0.39 
   7 -12  -1    4.25    0.25 
  -7 -12   1    4.10    0.38 
   7  12   0   -0.27    0.16 
  -7 -12   0    0.08    0.15 
   7 -12   0    0.07    0.12 
   7 -12   0   -0.16    0.14 
   7  12   1    0.16    0.18 
   7 -12   1    0.05    0.16 
   7 -12   1    0.12    0.15 
  -7 -12  -1    0.10    0.17 
   7  12   2    0.36    0.23 
  -7 -13   3    0.18    0.18 
  -7 -13   3    0.28    0.16 
   7  13  -2    2.73    0.33 
   7 -13  -2    2.68    0.31 
  -7 -13   2    2.51    0.30 
  -7 -13   2    2.86    0.34 
   7  13  -1   -0.08    0.17 
   7 -13  -1    0.12    0.16 
  -7 -13   1    0.29    0.19 
   7  13   0    0.15    0.20 
   7 -13   0   -0.19    0.16 
  -7 -13   0    0.19    0.18 
   7 -13   0    0.00    0.13 
   7  13   1    0.13    0.19 
   7 -13   1    0.14    0.16 
   7 -13   1    0.11    0.19 
  -7 -13  -1    0.18    0.19 
   7  14  -2    0.22    0.20 
   7 -14  -2    0.24    0.23 
  -7 -14   2    0.40    0.22 
  -7 -14   2    0.46    0.18 
   7  14  -1    0.03    0.20 
  -7 -14   1    0.15    0.19 
   7 -14  -1    0.49    0.21 
   7  14   0    0.44    0.22 
  -8   0   6    1.26    0.19 
  -8   0   5   -0.05    0.09 
   8   0  -4   14.64    0.43 
  -8   0   4   14.74    0.51 
   8   0  -3    0.00    0.06 
   8   0  -3   -0.02    0.08 
  -8   0   3   -0.01    0.09 
  -8   0   2   15.74    0.53 
   8   0  -2   15.52    0.51 
  -8   0   1    0.11    0.10 
   8   0  -1   -0.13    0.09 
  -8   0   0    2.34    0.24 
   8   0   0    1.95    0.24 
  -8   0  -1   -0.02    0.09 
   8   0   1    0.03    0.12 
   8   0   2    1.86    0.24 
   8   0   3    0.09    0.16 
   8   0   4    1.54    0.28 
  -8   1   6    0.66    0.15 
  -8  -1   6    0.79    0.16 
  -8   1   5    0.42    0.13 
  -8  -1   5    0.79    0.13 
  -8  -1   5    0.41    0.14 
   8   1  -4    0.16    0.08 
  -8   1   4    0.10    0.11 
  -8  -1   4    0.17    0.11 
   8  -1  -4    0.05    0.08 
  -8   1   3    2.88    0.26 
   8   1  -3    2.63    0.23 
   8  -1  -3    2.62    0.23 
  -8  -1   3    2.51    0.24 
   8   1  -2    1.33    0.19 
  -8   1   2    1.23    0.18 
  -8  -1   2    1.30    0.18 
   8  -1  -2    1.17    0.12 
   8  -1  -2    1.53    0.19 
   8   1  -1    8.61    0.39 
  -8   1   1    8.27    0.39 
  -8  -1   1    8.56    0.39 
   8  -1  -1    9.21    0.41 
   8   1   0   23.16    0.69 
  -8   1   0   24.19    0.68 
   8  -1   0   23.66    0.70 
  -8  -1   0   24.53    0.68 
   8   1   1    4.86    0.34 
  -8   1  -1    4.40    0.30 
  -8  -1  -1    4.19    0.29 
   8  -1   1    4.43    0.33 
   8   1   2    1.61    0.24 
   8  -1   2    1.54    0.23 
  -8  -1  -2    1.65    0.21 
   8   1   3   -0.05    0.15 
   8  -1   3    0.06    0.16 
  -8   2   6    0.22    0.12 
  -8  -2   6    0.17    0.12 
  -8   2   5    0.36    0.13 
  -8  -2   5    0.57    0.15 
  -8  -2   5    0.70    0.11 
   8   2  -4    0.07    0.08 
  -8   2   4    0.01    0.10 
   8  -2  -4    0.02    0.07 
  -8  -2   4    0.23    0.08 
  -8  -2   4    0.19    0.11 
   8   2  -3    0.68    0.14 
  -8   2   3    0.87    0.16 
   8  -2  -3    0.66    0.13 
  -8  -2   3    0.63    0.14 
   8   2  -2    2.29    0.23 
  -8   2   2    2.18    0.23 
   8  -2  -2    2.61    0.24 
  -8  -2   2    2.75    0.25 
   8  -2  -2    1.86    0.14 
   8   2  -1    4.00    0.29 
  -8   2   1    3.80    0.28 
  -8  -2   1    3.99    0.28 
   8  -2  -1    3.54    0.27 
  -8   2   0    2.66    0.26 
   8   2   0    2.69    0.26 
  -8  -2   0    3.50    0.28 
   8  -2   0    2.66    0.27 
   8   2   1    9.56    0.45 
   8  -2   1    8.61    0.44 
  -8  -2  -1    8.86    0.40 
   8   2   2    0.75    0.19 
  -8  -2  -2    0.82    0.16 
   8  -2   2    0.48    0.17 
   8   2   3    1.49    0.26 
   8  -2   3    1.25    0.24 
  -8   3   6   -0.04    0.11 
  -8  -3   6   -0.08    0.10 
  -8   3   5   -0.07    0.10 
  -8  -3   5    0.04    0.08 
  -8  -3   5    0.01    0.10 
  -8   3   4   -0.02    0.11 
   8   3  -4    0.06    0.09 
  -8  -3   4   -0.02    0.10 
   8  -3  -4    0.04    0.10 
  -8  -3   4    0.01    0.08 
  -8   3   3    3.33    0.26 
   8   3  -3    3.17    0.24 
   8  -3  -3    3.25    0.23 
  -8  -3   3    3.43    0.27 
  -8   3   2    1.13    0.17 
   8   3  -2    0.85    0.16 
   8  -3  -2    0.62    0.14 
  -8  -3   2    0.75    0.16 
  -8   3   1    0.73    0.16 
   8   3  -1    1.16    0.20 
  -8  -3   1    1.02    0.17 
   8  -3  -1    0.92    0.17 
   8   3   0   27.84    0.77 
   8  -3   0   27.27    0.77 
  -8  -3   0   27.33    0.74 
   8   3   1    0.52    0.16 
  -8  -3  -1    0.59    0.15 
   8  -3   1    0.53    0.16 
   8   3   2    0.15    0.14 
  -8  -3  -2    0.42    0.14 
   8  -3   2    0.25    0.15 
   8   3   3    0.19    0.17 
   8  -3   3    0.26    0.17 
  -8  -4   6    0.38    0.15 
  -8  -4   6    0.40    0.15 
  -8   4   5    0.13    0.12 
  -8  -4   5    0.39    0.12 
  -8  -4   5    0.09    0.12 
   8   4  -4    4.61    0.30 
  -8   4   4    4.36    0.30 
  -8  -4   4    5.04    0.26 
  -8  -4   4    4.91    0.32 
   8   4  -3    2.37    0.24 
  -8   4   3    2.06    0.24 
   8  -4  -3    2.00    0.21 
  -8  -4   3    2.20    0.24 
  -8   4   2   25.70    0.71 
   8   4  -2   24.21    0.69 
   8  -4  -2   25.77    0.70 
  -8  -4   2   26.02    0.72 
   8   4  -1    0.24    0.13 
   8  -4  -1    0.15    0.12 
  -8  -4   1    0.22    0.12 
   8   4   0    2.01    0.25 
  -8  -4   0    1.65    0.21 
   8  -4   0    1.68    0.23 
   8   4   1    0.06    0.13 
   8  -4   1    0.01    0.12 
  -8  -4  -1    0.10    0.12 
   8   4   2    0.01    0.13 
  -8  -4  -2   -0.16    0.10 
   8  -4   2    0.10    0.13 
   8   4   3    2.43    0.31 
   8  -4   3    2.14    0.30 
  -8  -5   6    0.76    0.18 
  -8  -5   6    0.55    0.14 
  -8  -5   5   -0.01    0.12 
  -8  -5   5    0.01    0.10 
   8   5  -4    0.13    0.16 
  -8  -5   4    0.09    0.12 
  -8  -5   4   -0.02    0.08 
   8   5  -3    0.32    0.12 
  -8  -5   3    0.20    0.12 
  -8  -5   3    0.30    0.11 
   8  -5  -3    0.27    0.12 
   8   5  -2    8.51    0.39 
   8  -5  -2    7.91    0.39 
  -8  -5   2    8.23    0.40 
   8   5  -1    1.41    0.21 
  -8  -5   1    1.45    0.21 
   8  -5  -1    1.36    0.20 
   8   5   0    1.78    0.23 
   8  -5   0    1.89    0.24 
  -8  -5   0    1.43    0.21 
   8   5   1    4.27    0.34 
   8  -5   1    4.49    0.35 
  -8  -5  -1    4.95    0.33 
   8   5   2    4.33    0.35 
  -8  -5  -2    4.15    0.31 
   8  -5   2    4.39    0.36 
   8   5   3    0.13    0.17 
   8  -5   3    0.17    0.18 
  -8  -6   6    1.02    0.21 
  -8  -6   6    1.12    0.18 
  -8  -6   5   -0.04    0.12 
  -8  -6   5   -0.04    0.10 
  -8  -6   4    0.39    0.16 
  -8  -6   4    0.40    0.12 
   8   6  -3    6.33    0.34 
   8  -6  -3    7.30    0.35 
  -8  -6   3    6.57    0.38 
  -8  -6   3    6.88    0.33 
   8   6  -2    1.76    0.23 
   8  -6  -2    1.66    0.22 
  -8  -6   2    1.71    0.23 
   8   6  -1    2.64    0.27 
   8  -6  -1    2.58    0.27 
  -8  -6   1    2.68    0.27 
   8   6   0    5.33    0.36 
  -8  -6   0    4.89    0.33 
   8  -6   0    5.09    0.36 
   8   6   1    0.19    0.16 
  -8  -6  -1    0.13    0.13 
   8  -6   1    0.19    0.16 
   8   6   2    0.05    0.14 
  -8  -6  -2    0.19    0.13 
   8  -6   2    0.21    0.15 
   8   6   3    4.00    0.38 
   8  -6   3    3.76    0.38 
  -8  -7   5    0.53    0.15 
  -8  -7   5    0.52    0.17 
  -8  -7   4    0.20    0.14 
  -8  -7   4    0.14    0.12 
   8   7  -3    0.98    0.18 
  -8  -7   3    1.12    0.17 
  -8  -7   3    1.45    0.23 
   8  -7  -3    1.40    0.20 
   8   7  -2    0.07    0.13 
   8  -7  -2    0.24    0.13 
  -8  -7   2    0.20    0.13 
   8   7  -1    3.62    0.33 
   8  -7  -1    3.14    0.22 
   8  -7  -1    3.09    0.31 
  -8  -7   1    3.43    0.32 
   8   7   0    1.33    0.22 
   8  -7   0    0.95    0.20 
  -8  -7   0    0.89    0.18 
   8   7   1    1.33    0.24 
   8  -7   1    1.15    0.23 
  -8  -7  -1    1.04    0.20 
   8   7   2    0.35    0.18 
  -8  -7  -2    0.23    0.14 
   8  -7   2    0.05    0.16 
   8   7   3    0.39    0.20 
   8  -7   3    0.11    0.19 
  -8  -8   5    0.26    0.17 
  -8  -8   5    0.19    0.14 
  -8  -8   4    0.21    0.13 
  -8  -8   4    0.37    0.17 
   8   8  -3    0.15    0.13 
   8  -8  -3   -0.05    0.11 
  -8  -8   3   -0.01    0.10 
  -8  -8   3    0.05    0.13 
   8   8  -2   13.74    0.54 
   8  -8  -2   13.49    0.53 
  -8  -8   2   12.24    0.53 
   8   8  -1    0.18    0.16 
  -8  -8   1    0.15    0.14 
   8  -8  -1    0.39    0.16 
   8  -8  -1    0.15    0.09 
   8   8   0    0.18    0.17 
   8  -8   0    0.10    0.14 
  -8  -8   0    0.14    0.14 
   8  -8   0    0.04    0.12 
   8   8   1    1.03    0.22 
  -8  -8  -1    0.89    0.20 
   8  -8   1    1.84    0.28 
   8   8   2    1.54    0.27 
   8  -8   2    1.28    0.26 
  -8  -9   5    0.06    0.14 
  -8  -9   5    0.00    0.16 
  -8  -9   4    0.14    0.12 
  -8  -9   4    0.07    0.16 
   8   9  -3    1.11    0.21 
   8  -9  -3    1.08    0.20 
  -8  -9   3    0.77    0.19 
  -8  -9   3    0.73    0.18 
   8   9  -2    1.19    0.22 
   8  -9  -2    1.23    0.20 
  -8  -9   2    1.65    0.24 
  -8  -9   2    1.64    0.22 
   8   9  -1    0.16    0.15 
  -8  -9   1   -0.03    0.12 
   8  -9  -1   -0.02    0.13 
   8  -9  -1    0.11    0.09 
   8   9   0    1.80    0.27 
  -8  -9   0    2.07    0.27 
   8  -9   0    1.32    0.24 
   8  -9   0    2.01    0.24 
   8   9   1    0.42    0.20 
   8  -9   1    0.39    0.19 
   8  -9   1    0.40    0.17 
  -8  -9  -1    0.51    0.18 
   8   9   2    2.67    0.35 
   8  -9   2    2.49    0.33 
   8  -9   2    2.19    0.32 
  -8 -10   4    2.10    0.29 
  -8 -10   4    2.40    0.28 
   8  10  -3    1.41    0.23 
  -8 -10   3    1.45    0.26 
  -8 -10   3    1.84    0.25 
   8  10  -2    0.08    0.15 
  -8 -10   2    0.13    0.15 
   8 -10  -2    0.03    0.14 
  -8 -10   2    0.27    0.15 
   8  10  -1   -0.03    0.14 
   8 -10  -1   -0.13    0.13 
  -8 -10   1    0.05    0.14 
   8 -10  -1    0.13    0.10 
   8  10   0    1.98    0.29 
   8 -10   0    1.83    0.24 
   8 -10   0    1.23    0.25 
  -8 -10   0    1.46    0.25 
   8  10   1    0.00    0.17 
   8 -10   1    0.15    0.16 
   8 -10   1   -0.18    0.15 
  -8 -10  -1    0.05    0.15 
   8  10   2    0.34    0.22 
   8 -10   2    0.37    0.23 
   8 -10   2    0.19    0.19 
  -8 -11   4    0.02    0.14 
  -8 -11   4    0.10    0.18 
   8  11  -3    0.22    0.16 
  -8 -11   3    0.48    0.18 
  -8 -11   3    0.54    0.18 
   8  11  -2    0.08    0.15 
  -8 -11   2   -0.16    0.14 
   8 -11  -2   -0.01    0.13 
  -8 -11   2    0.09    0.14 
   8  11  -1    0.16    0.18 
  -8 -11   1   -0.11    0.15 
   8 -11  -1    0.17    0.17 
   8  11   0    0.01    0.18 
  -8 -11   0    0.03    0.16 
   8 -11   0   -0.09    0.15 
   8 -11   0    0.15    0.13 
   8  11   1   -0.09    0.18 
   8 -11   1   -0.13    0.13 
   8 -11   1   -0.03    0.18 
  -8 -11  -1   -0.15    0.15 
  -8 -12   3    0.22    0.19 
  -8 -12   3    0.43    0.18 
   8  12  -2    1.06    0.24 
   8 -12  -2    0.63    0.21 
  -8 -12   2    1.37    0.24 
  -8 -12   2    0.75    0.23 
   8  12  -1    0.05    0.19 
  -8 -12   1    0.41    0.20 
   8 -12  -1    0.27    0.19 
   8  12   0    0.15    0.20 
   8 -12   0    0.24    0.19 
   8 -12   0    0.09    0.14 
  -8 -12   0    0.00    0.16 
   8  13  -1   -0.02    0.20 
   8 -13  -1    0.14    0.19 
  -9   0   6    0.23    0.15 
  -9   0   5   -0.10    0.11 
  -9   0   4    0.31    0.14 
  -9   0   3    0.19    0.13 
   9   0  -3   -0.04    0.09 
  -9   0   2   15.35    0.55 
   9   0  -2   15.38    0.54 
   9   0  -1    0.08    0.11 
  -9   0   1   -0.01    0.10 
  -9   0   0    0.19    0.13 
   9   0   0    0.10    0.14 
   9   0   1   -0.17    0.14 
  -9   0  -1   -0.09    0.11 
   9   0   2    0.00    0.16 
   9   0   3   -0.02    0.19 
  -9   1   6    1.35    0.22 
  -9  -1   6    0.86    0.19 
  -9   1   5    0.11    0.13 
  -9  -1   5    0.34    0.15 
  -9   1   4    0.31    0.14 
  -9  -1   4    0.24    0.13 
   9   1  -3    4.43    0.29 
  -9   1   3    5.06    0.33 
   9  -1  -3    4.45    0.29 
  -9  -1   3    4.71    0.33 
  -9   1   2    0.27    0.12 
   9   1  -2    0.25    0.13 
  -9  -1   2    0.18    0.12 
   9  -1  -2    0.36    0.13 
   9   1  -1    1.58    0.22 
  -9   1   1    1.33    0.21 
  -9  -1   1    1.62    0.22 
   9  -1  -1    1.23    0.20 
   9   1   0    1.73    0.25 
  -9   1   0    1.51    0.22 
  -9  -1   0    0.86    0.18 
   9  -1   0    1.05    0.21 
  -9   1  -1    0.05    0.12 
   9   1   1   -0.03    0.15 
  -9  -1  -1    0.02    0.12 
   9  -1   1   -0.01    0.14 
   9   1   2    5.85    0.41 
   9  -1   2    5.70    0.42 
  -9  -1  -2    6.06    0.37 
   9   1   3    0.74    0.23 
   9  -1   3    0.12    0.19 
  -9   2   6    0.01    0.12 
  -9  -2   6    0.16    0.13 
  -9   2   5    0.02    0.12 
  -9  -2   5    0.04    0.13 
  -9   2   4    0.11    0.11 
  -9  -2   4   -0.03    0.12 
  -9   2   3    0.55    0.16 
   9   2  -3    0.03    0.11 
   9  -2  -3    0.22    0.12 
  -9  -2   3    0.10    0.12 
   9   2  -2    0.35    0.15 
  -9   2   2    0.64    0.16 
  -9  -2   2    0.45    0.15 
   9  -2  -2    0.58    0.15 
  -9   2   1    0.36    0.14 
   9   2  -1    0.42    0.15 
   9  -2  -1    0.23    0.13 
  -9  -2   1    0.51    0.15 
   9   2   0    0.04    0.13 
  -9   2   0    0.08    0.12 
  -9  -2   0    0.02    0.12 
   9  -2   0   -0.15    0.11 
   9   2   1    5.00    0.39 
   9  -2   1    5.21    0.39 
  -9  -2  -1    4.66    0.33 
   9   2   2    0.64    0.20 
   9  -2   2    0.34    0.17 
  -9  -2  -2    0.62    0.17 
   9   2   3    7.62    0.49 
   9  -2   3    6.70    0.48 
  -9   3   6    0.74    0.19 
  -9  -3   6    1.14    0.21 
  -9   3   5    1.99    0.25 
  -9  -3   5    2.04    0.25 
  -9  -3   5    2.69    0.24 
  -9   3   4    0.34    0.14 
  -9  -3   4    0.21    0.14 
  -9   3   3    3.19    0.29 
   9   3  -3    3.28    0.29 
   9  -3  -3    3.06    0.27 
  -9  -3   3    2.37    0.27 
   9   3  -2    0.05    0.11 
  -9   3   2   -0.10    0.10 
  -9  -3   2    0.06    0.12 
   9  -3  -2    0.15    0.12 
   9   3  -1    0.30    0.14 
  -9   3   1    0.15    0.12 
  -9  -3   1    0.44    0.15 
   9  -3  -1    0.38    0.14 
   9   3   0    0.13    0.14 
   9  -3   0    0.02    0.13 
  -9  -3   0   -0.09    0.11 
   9   3   1    4.73    0.38 
   9  -3   1    5.04    0.38 
  -9  -3  -1    4.76    0.34 
   9   3   2    1.77    0.28 
   9  -3   2    2.68    0.32 
  -9  -3  -2    2.80    0.29 
   9   3   3    0.40    0.20 
   9  -3   3    0.44    0.20 
  -9   4   5    0.19    0.14 
  -9  -4   5    0.28    0.12 
  -9  -4   5    0.12    0.14 
  -9   4   4    0.21    0.14 
  -9  -4   4    0.41    0.16 
  -9   4   3    2.29    0.26 
   9   4  -3    2.11    0.24 
   9  -4  -3    2.02    0.23 
  -9  -4   3    2.15    0.25 
   9   4  -2    3.18    0.30 
  -9   4   2    2.54    0.26 
  -9  -4   2    3.20    0.30 
   9  -4  -2    3.08    0.29 
   9   4  -1    4.41    0.35 
   9  -4  -1    4.51    0.33 
  -9  -4   1    3.83    0.31 
   9   4   0    0.21    0.15 
   9  -4   0    0.12    0.14 
  -9  -4   0    0.51    0.16 
   9   4   1    0.40    0.18 
  -9  -4  -1    0.24    0.15 
   9  -4   1    0.66    0.19 
   9   4   2    0.12    0.18 
   9  -4   2    0.64    0.21 
  -9  -4  -2    0.59    0.21 
  -9  -5   5    0.04    0.11 
  -9  -5   5    0.19    0.16 
  -9  -5   4    0.06    0.11 
  -9  -5   4   -0.12    0.11 
   9   5  -3    0.74    0.17 
   9  -5  -3    0.62    0.14 
  -9  -5   3    0.74    0.19 
   9   5  -2    0.11    0.14 
  -9  -5   2    0.00    0.12 
   9  -5  -2    0.31    0.14 
   9   5  -1    0.01    0.13 
  -9  -5   1    0.03    0.13 
   9  -5  -1    0.23    0.14 
   9   5   0    6.69    0.42 
  -9  -5   0    5.43    0.37 
   9  -5   0    6.18    0.41 
   9   5   1    0.03    0.16 
  -9  -5  -1   -0.06    0.12 
   9  -5   1    0.17    0.15 
   9   5   2    1.62    0.28 
   9  -5   2    1.18    0.26 
  -9  -6   5    0.18    0.12 
  -9  -6   5    0.01    0.14 
  -9  -6   4    0.23    0.12 
  -9  -6   4    0.04    0.13 
   9   6  -3    0.07    0.12 
  -9  -6   3    0.02    0.14 
   9  -6  -3    0.01    0.10 
   9   6  -2   -0.03    0.13 
  -9  -6   2    0.10    0.15 
   9  -6  -2   -0.08    0.11 
   9   6  -1    3.28    0.32 
  -9  -6   1    2.71    0.30 
   9  -6  -1    3.02    0.32 
   9   6   0    0.16    0.15 
  -9  -6   0    0.03    0.14 
   9  -6   0    0.05    0.15 
   9   6   1    4.03    0.38 
  -9  -6  -1    4.22    0.34 
   9  -6   1    4.14    0.39 
   9   6   2    0.08    0.19 
   9  -6   2    0.35    0.20 
  -9  -7   5    1.26    0.24 
  -9  -7   5    0.99    0.19 
  -9  -7   4    0.00    0.12 
  -9  -7   4    0.05    0.14 
   9   7  -3    3.36    0.31 
   9  -7  -3    3.87    0.31 
  -9  -7   3    3.45    0.33 
   9   7  -2   -0.01    0.13 
  -9  -7   2   -0.09    0.11 
   9  -7  -2   -0.12    0.11 
   9   7  -1    0.06    0.15 
  -9  -7   1    0.19    0.14 
   9  -7  -1    0.06    0.12 
   9   7   0    1.23    0.24 
   9  -7   0    1.15    0.24 
  -9  -7   0    1.25    0.23 
   9   7   1    3.06    0.34 
  -9  -7  -1    2.57    0.29 
   9  -7   1    3.21    0.37 
   9   7   2    1.03    0.25 
   9  -7   2    1.00    0.25 
  -9  -8   4    0.64    0.18 
  -9  -8   4    0.37    0.18 
   9   8  -3    0.64    0.17 
  -9  -8   3    0.97    0.21 
   9  -8  -3    0.93    0.25 
   9   8  -2    0.06    0.14 
   9  -8  -2   -0.18    0.12 
  -9  -8   2    0.13    0.14 
   9   8  -1    1.11    0.23 
   9  -8  -1    0.73    0.15 
  -9  -8   1    0.62    0.19 
   9  -8  -1    0.58    0.19 
   9   8   0    0.41    0.19 
   9  -8   0    0.84    0.23 
  -9  -8   0    0.66    0.20 
   9   8   1    0.96    0.24 
  -9  -8  -1    1.04    0.23 
   9  -8   1    0.90    0.25 
  -9  -9   4    0.13    0.15 
  -9  -9   4    0.00    0.16 
   9   9  -3    0.14    0.15 
  -9  -9   3    0.06    0.15 
  -9  -9   3   -0.02    0.12 
   9   9  -2    0.22    0.16 
   9  -9  -2    0.11    0.14 
  -9  -9   2    0.12    0.16 
   9   9  -1    0.29    0.18 
   9  -9  -1    0.56    0.20 
  -9  -9   1    0.47    0.19 
   9   9   0    0.19    0.20 
   9  -9   0    0.45    0.20 
   9  -9   0    0.61    0.17 
  -9  -9   0    0.38    0.19 
   9   9   1    0.68    0.24 
   9  -9   1    0.92    0.27 
  -9  -9  -1    0.86    0.21 
   9  -9   1    0.68    0.20 
   9  10  -3    0.10    0.26 
  -9 -10   3   -0.10    0.16 
  -9 -10   3    0.14    0.14 
   9  10  -2    0.30    0.18 
  -9 -10   2    0.27    0.18 
   9 -10  -2    0.38    0.18 
   9  10  -1    0.62    0.22 
   9 -10  -1    0.37    0.19 
  -9 -10   1    0.33    0.19 
   9  10   0    0.12    0.20 
  -9 -10   0    0.05    0.16 
   9 -10   0    0.11    0.17 
   9 -10   0   -0.10    0.12 
   9  11  -2    0.00    0.18 
   9 -11  -2    0.08    0.16 
  -9 -11   2    0.11    0.18 
   9  11  -1    0.70    0.23 
  -9 -11   1    0.62    0.21 
   9 -11  -1    0.48    0.20 
 -10   0   5   -0.07    0.13 
 -10   0   4    0.19    0.14 
  10   0  -3    0.09    0.12 
 -10   0   3    0.22    0.14 
  10   0  -2    0.20    0.13 
 -10   0   2    0.21    0.14 
 -10   0   1   -0.11    0.12 
  10   0  -1   -0.15    0.12 
  10   0   0   10.58    0.53 
 -10   0   0   10.07    0.49 
 -10   0  -1    0.22    0.15 
  10   0   1    0.07    0.16 
  10   0   2    1.69    0.29 
 -10   1   5   -0.13    0.13 
 -10  -1   5    0.13    0.15 
 -10   1   4    0.13    0.13 
 -10  -1   4    0.04    0.13 
  10   1  -3    1.61    0.22 
 -10   1   3    1.86    0.25 
 -10  -1   3    1.26    0.22 
  10  -1  -3    1.65    0.23 
 -10   1   2    0.09    0.14 
  10   1  -2    0.36    0.16 
  10  -1  -2    0.54    0.16 
 -10  -1   2    0.12    0.14 
 -10   1   1    0.08    0.13 
  10   1  -1    0.37    0.16 
 -10  -1   1    0.35    0.16 
  10  -1  -1    0.33    0.16 
 -10   1   0    3.84    0.35 
  10   1   0    4.64    0.40 
 -10  -1   0    3.88    0.35 
  10  -1   0    4.82    0.39 
  10   1   1    2.68    0.33 
  10  -1   1    3.33    0.35 
 -10  -1  -1    2.86    0.30 
  10   1   2    1.01    0.26 
  10  -1   2    1.17    0.27 
 -10   2   5    0.17    0.16 
 -10  -2   5    0.21    0.15 
 -10   2   4    0.13    0.15 
 -10  -2   4    0.17    0.15 
 -10   2   3    0.61    0.18 
  10   2  -3    0.56    0.16 
 -10  -2   3    0.40    0.17 
  10  -2  -3    0.69    0.17 
 -10   2   2   -0.02    0.13 
  10   2  -2   -0.21    0.11 
  10  -2  -2    0.10    0.13 
 -10  -2   2   -0.11    0.12 
 -10   2   1    2.56    0.29 
  10   2  -1    3.26    0.32 
 -10  -2   1    2.54    0.28 
  10  -2  -1    3.39    0.33 
  10   2   0    0.75    0.20 
 -10   2   0    0.29    0.15 
 -10  -2   0    0.26    0.15 
  10  -2   0    0.64    0.20 
  10   2   1    0.65    0.21 
 -10  -2  -1    0.39    0.16 
  10  -2   1    1.12    0.25 
  10   2   2    0.07    0.19 
  10  -2   2    0.06    0.18 
 -10   3   5   -0.02    0.13 
 -10  -3   5    0.01    0.14 
 -10   3   4   -0.05    0.13 
 -10  -3   4   -0.04    0.14 
 -10   3   3    2.43    0.28 
  10   3  -3    2.14    0.26 
  10  -3  -3    2.59    0.27 
 -10  -3   3    2.33    0.28 
 -10   3   2    0.27    0.15 
  10   3  -2    0.48    0.17 
  10  -3  -2    0.37    0.15 
 -10  -3   2    0.30    0.16 
  10   3  -1    2.29    0.29 
 -10   3   1    2.32    0.28 
  10  -3  -1    1.93    0.26 
 -10  -3   1    2.20    0.28 
  10   3   0    3.60    0.36 
 -10  -3   0    3.16    0.32 
  10  -3   0    3.47    0.36 
  10   3   1    0.88    0.23 
 -10  -3  -1    0.78    0.20 
  10  -3   1    0.57    0.21 
  10   3   2    0.04    0.19 
  10  -3   2    0.40    0.21 
 -10   4   5    0.10    0.16 
 -10  -4   5   -0.08    0.14 
 -10   4   4    0.73    0.20 
 -10  -4   4    0.52    0.19 
 -10   4   3    0.25    0.15 
  10   4  -3   -0.05    0.13 
 -10  -4   3    0.41    0.17 
  10  -4  -3   -0.06    0.11 
  10   4  -2    0.77    0.20 
 -10   4   2    0.90    0.21 
  10  -4  -2    0.62    0.18 
 -10  -4   2    0.52    0.18 
  10   4  -1   -0.07    0.14 
 -10  -4   1   -0.05    0.12 
  10  -4  -1    0.14    0.15 
  10   4   0    3.33    0.35 
 -10  -4   0    2.91    0.31 
  10  -4   0    2.44    0.33 
  10   4   1    1.40    0.26 
 -10  -4  -1    1.27    0.24 
  10  -4   1    1.29    0.27 
 -10  -5   4    0.26    0.16 
  10   5  -3    1.18    0.21 
 -10  -5   3    1.52    0.25 
  10  -5  -3    1.08    0.20 
  10   5  -2   -0.10    0.13 
  10  -5  -2    0.02    0.13 
 -10  -5   2    0.10    0.14 
  10   5  -1    0.65    0.20 
 -10  -5   1    0.50    0.18 
  10  -5  -1    0.43    0.18 
  10   5   0    1.21    0.25 
 -10  -5   0    1.60    0.25 
  10  -5   0    1.47    0.27 
  10   5   1    0.37    0.21 
 -10  -5  -1    0.31    0.17 
  10  -5   1    0.33    0.19 
 -10  -6   4    0.34    0.17 
  10   6  -3   -0.19    0.13 
  10  -6  -3    0.08    0.23 
 -10  -6   3   -0.02    0.14 
  10   6  -2    0.13    0.15 
  10  -6  -2    0.23    0.16 
 -10  -6   2    0.28    0.16 
  10   6  -1    0.08    0.15 
 -10  -6   1    0.31    0.18 
  10  -6  -1    0.38    0.16 
  10   6   0   -0.01    0.17 
  10  -6   0    0.19    0.18 
 -10  -6   0    0.03    0.16 
  10   6   1    0.81    0.24 
  10  -6   1    0.45    0.22 
 -10  -6  -1    0.74    0.21 
 -10  -7   4    0.20    0.17 
  10   7  -3    0.60    0.19 
 -10  -7   3    0.44    0.18 
  10   7  -2    0.58    0.20 
  10  -7  -2    1.13    0.23 
 -10  -7   2    0.80    0.21 
  10   7  -1    4.41    0.40 
 -10  -7   1    4.16    0.39 
  10  -7  -1    3.84    0.37 
  10   7   0    0.14    0.19 
  10  -7   0    0.12    0.19 
 -10  -7   0    0.28    0.18 
  10   7   1    0.07    0.20 
  10  -7   1    0.11    0.21 
 -10  -8   3   -0.04    0.15 
  10   8  -2    1.17    0.25 
  10  -8  -2    0.58    0.20 
 -10  -8   2    0.75    0.22 
  10   8  -1    0.19    0.19 
 -10  -8   1    0.29    0.17 
  10  -8  -1    0.17    0.16 
  10   8   0    0.24    0.19 
  10  -8   0    0.28    0.20 
 -10  -8   0    0.52    0.20 
  10   9  -2    0.71    0.23 
  10  -9  -2    1.13    0.26 
 -10  -9   2    0.61    0.22 
  10   9  -1    0.28    0.19 
  10  -9  -1    0.48    0.22 
 -10  -9   1    0.69    0.22 
 -11   0   4    0.41    0.17 
 -11   0   3    0.00    0.14 
  11   0  -3    0.29    0.16 
 -11   0   2    6.93    0.44 
  11   0  -2    7.67    0.45 
 -11   0   1    0.05    0.15 
  11   0  -1   -0.15    0.15 
 -11   0   0    2.54    0.31 
  11   0   0    2.98    0.36 
 -11   1   4    0.09    0.16 
 -11  -1   4    0.11    0.15 
 -11   1   3    0.23    0.16 
  11   1  -3    0.00    0.14 
 -11  -1   3   -0.03    0.14 
  11  -1  -3    0.01    0.16 
  11   1  -2    0.32    0.17 
 -11   1   2    0.33    0.17 
  11  -1  -2    0.23    0.16 
 -11  -1   2    0.26    0.17 
  11   1  -1    0.35    0.18 
 -11   1   1    0.34    0.18 
 -11  -1   1    0.26    0.18 
  11  -1  -1    0.11    0.16 
  11   1   0    0.06    0.18 
 -11   1   0    0.01    0.15 
  11  -1   0   -0.19    0.16 
 -11  -1   0    0.07    0.16 
 -11   2   4    0.10    0.15 
 -11  -2   4   -0.01    0.15 
  11   2  -3    0.19    0.18 
 -11   2   3    0.02    0.13 
 -11  -2   3    0.04    0.15 
 -11   2   2    0.60    0.20 
  11   2  -2    0.62    0.20 
 -11  -2   2    0.66    0.20 
  11  -2  -2    0.78    0.19 
 -11   2   1    0.06    0.16 
  11   2  -1   -0.03    0.16 
  11  -2  -1    0.02    0.16 
 -11  -2   1    0.03    0.15 
  11   2   0    0.55    0.22 
 -11  -2   0    0.53    0.19 
  11  -2   0    1.06    0.24 
 -11   3   4    0.28    0.17 
 -11  -3   4    0.23    0.17 
  11   3  -3    0.47    0.24 
 -11   3   3    0.11    0.15 
 -11  -3   3   -0.06    0.14 
  11   3  -2    0.07    0.16 
 -11   3   2    0.36    0.17 
  11  -3  -2    0.18    0.15 
 -11  -3   2    0.02    0.15 
  11   3  -1    1.11    0.24 
  11  -3  -1    1.87    0.29 
 -11  -3   1    1.77    0.28 
  11   3   0    0.06    0.19 
  11  -3   0    0.02    0.17 
 -11  -3   0    0.08    0.17 
 -11   4   4    0.18    0.16 
 -11  -4   4    0.43    0.20 
 -11   4   3   -0.32    0.12 
 -11  -4   3   -0.20    0.14 
  11   4  -2    6.36    0.43 
  11  -4  -2    5.10    0.41 
 -11  -4   2    6.45    0.44 
  11   4  -1    0.11    0.18 
  11  -4  -1    0.42    0.20 
 -11  -4   1    0.14    0.16 
  11   4   0    1.97    0.31 
  11  -4   0    2.49    0.34 
 -11  -4   0    1.86    0.29 
 -11  -5   3    0.03    0.17 
  11   5  -2    0.37    0.19 
  11  -5  -2    0.15    0.18 
 -11  -5   2    0.66    0.20 
  11   5  -1    0.61    0.22 
  11  -5  -1    0.64    0.21 
 -11  -5   1    0.16    0.18 
  11   5   0    0.08    0.20 
  11  -5   0    0.28    0.20 
 -11  -5   0   -0.01    0.16 
 -11  -6   3    0.07    0.17 
  11   6  -2    0.59    0.21 
  11  -6  -2    0.95    0.23 
 -11  -6   2    1.03    0.24 
  11   6  -1   -0.01    0.18 
  11  -6  -1    0.00    0.18 
 -11  -6   1    0.07    0.17 
   0   0   0    0.00    0.00 
;
_shelx_hkl_checksum              59377
loop_
_space_group_symop_operation_xyz
'x, y, z'
'-x, y+1/2, -z+1/2'
'-x, -y, -z'
'x, -y-1/2, z-1/2'
loop_
_atom_site_label
_atom_site_type_symbol
_atom_site_fract_x
_atom_site_fract_y
_atom_site_fract_z
_atom_site_U_iso_or_equiv
_atom_site_adp_type
_atom_site_occupancy
_atom_site_site_symmetry_order
_atom_site_calc_flag
_atom_site_refinement_flags_posn
_atom_site_refinement_flags_adp
C1 C 0.9860(3) 0.6061(2) 0.7713(6) 0.0545(8) Uani 1 1 d . .
H1 H 1.0765 0.5921 0.7485 0.065 Uiso 1 1 calc R U
C2 C 0.8569(3) 0.6024(2) 0.6004(6) 0.0534(8) Uani 1 1 d . .
H2 H 0.8502 0.5861 0.4469 0.064 Uiso 1 1 calc R U
C3 C 0.7346(3) 0.62620(18) 0.6839(5) 0.0380(6) Uani 1 1 d . .
C4 C 0.7759(3) 0.64656(18) 0.9171(5) 0.0400(7) Uani 1 1 d . .
H4 H 0.7114 0.6623 1.0038 0.048 Uiso 1 1 calc R U
C5 C 0.5876(3) 0.63636(17) 0.5272(5) 0.0368(6) Uani 1 1 d . .
C6 C 0.4558(3) 0.62045(18) 0.6146(4) 0.0353(6) Uani 1 1 d . .
C7 C 0.3142(3) 0.6591(2) 0.4750(6) 0.0585(9) Uani 1 1 d . .
H7A H 0.2375 0.6361 0.5372 0.088 Uiso 1 1 calc R U
H7B H 0.2972 0.6387 0.3165 0.088 Uiso 1 1 calc R U
H7C H 0.3166 0.7272 0.4815 0.088 Uiso 1 1 calc R U
N1 N 0.4752(2) 0.56844(15) 0.7962(4) 0.0352(5) Uani 1 1 d . .
O1 O 0.5701(2) 0.65819(15) 0.3253(3) 0.0533(6) Uani 1 1 d . .
O2 O 0.34721(19) 0.55258(16) 0.8612(4) 0.0462(5) Uani 1 1 d . .
S1 S 0.95791(8) 0.63954(6) 1.02794(16) 0.0626(3) Uani 1 1 d . .
H1O H 0.375(3) 0.515(2) 0.965(6) 0.049(9) Uiso 1 1 d . .
loop_
_atom_site_aniso_label
_atom_site_aniso_U_11
_atom_site_aniso_U_22
_atom_site_aniso_U_33
_atom_site_aniso_U_23
_atom_site_aniso_U_13
_atom_site_aniso_U_12
C1 0.0348(15) 0.0600(18) 0.077(2) 0.0273(16) 0.0299(15) 0.0141(13)
C2 0.0557(19) 0.0601(19) 0.0533(19) 0.0128(15) 0.0298(15) 0.0081(15)
C3 0.0399(15) 0.0350(13) 0.0417(17) 0.0067(11) 0.0157(12) 0.0010(11)
C4 0.0320(14) 0.0433(14) 0.0435(18) -0.0014(12) 0.0081(12) 0.0006(11)
C5 0.0429(15) 0.0339(13) 0.0338(16) 0.0010(11) 0.0103(11) -0.0028(11)
C6 0.0338(14) 0.0404(14) 0.0293(14) 0.0006(11) 0.0043(11) -0.0010(10)
C7 0.0428(16) 0.082(2) 0.0450(19) 0.0158(16) 0.0020(13) 0.0094(16)
N1 0.0286(11) 0.0438(12) 0.0336(12) 0.0019(10) 0.0093(9) -0.0021(9)
O1 0.0576(13) 0.0707(14) 0.0325(12) 0.0086(10) 0.0133(9) -0.0078(10)
O2 0.0292(10) 0.0669(14) 0.0428(12) 0.0161(10) 0.0102(9) 0.0013(9)
S1 0.0385(5) 0.0683(6) 0.0730(7) 0.0073(4) 0.0008(4) 0.0004(4)
loop_
_atom_type_symbol
_atom_type_description
_atom_type_scat_dispersion_real
_atom_type_scat_dispersion_imag
_atom_type_scat_source
C C 0.0033 0.0016 'International Tables Vol C Tables 4.2.6.8 and 6.1.1.4'
H H 0.0000 0.0000 'International Tables Vol C Tables 4.2.6.8 and 6.1.1.4'
N N 0.0061 0.0033 'International Tables Vol C Tables 4.2.6.8 and 6.1.1.4'
O O 0.0106 0.0060 'International Tables Vol C Tables 4.2.6.8 and 6.1.1.4'
S S 0.1246 0.1234 'International Tables Vol C Tables 4.2.6.8 and 6.1.1.4'
loop_
_geom_angle_atom_site_label_1
_geom_angle_atom_site_label_2
_geom_angle_atom_site_label_3
_geom_angle
C2 C1 S1 110.8(2)
C2 C1 H1 124.6
S1 C1 H1 124.6
C1 C2 C3 112.8(3)
C1 C2 H2 123.6
C3 C2 H2 123.6
C4 C3 C2 111.2(3)
C4 C3 C5 126.4(2)
C2 C3 C5 122.1(3)
C3 C4 S1 112.0(2)
C3 C4 H4 124.0
S1 C4 H4 124.0
O1 C5 C3 120.9(2)
O1 C5 C6 118.4(3)
C3 C5 C6 120.7(2)
N1 C6 C7 126.0(2)
N1 C6 C5 115.6(2)
C7 C6 C5 118.1(2)
C6 C7 H7A 109.5
C6 C7 H7B 109.5
H7A C7 H7B 109.5
C6 C7 H7C 109.5
H7A C7 H7C 109.5
H7B C7 H7C 109.5
C6 N1 O2 112.7(2)
N1 O2 H1O 100(2)
C1 S1 C4 93.17(15)
loop_
_geom_bond_atom_site_label_1
_geom_bond_atom_site_label_2
_geom_bond_distance
C1 C2 1.378(5)
C1 S1 1.690(3)
C1 H1 0.9300
C2 C3 1.426(4)
C2 H2 0.9300
C3 C4 1.372(4)
C3 C5 1.473(4)
C4 S1 1.691(3)
C4 H4 0.9300
C5 O1 1.211(3)
C5 C6 1.501(4)
C6 N1 1.280(3)
C6 C7 1.491(4)
C7 H7A 0.9600
C7 H7B 0.9600
C7 H7C 0.9600
N1 O2 1.395(3)
O2 H1O 0.80(3)
loop_
_geom_torsion_atom_site_label_1
_geom_torsion_atom_site_label_2
_geom_torsion_atom_site_label_3
_geom_torsion_atom_site_label_4
_geom_torsion
S1 C1 C2 C3 -0.8(3)
C1 C2 C3 C4 -0.4(4)
C1 C2 C3 C5 173.7(2)
C2 C3 C4 S1 1.4(3)
C5 C3 C4 S1 -172.4(2)
C4 C3 C5 O1 146.8(3)
C2 C3 C5 O1 -26.4(4)
C4 C3 C5 C6 -32.9(4)
C2 C3 C5 C6 154.0(3)
O1 C5 C6 N1 157.4(2)
C3 C5 C6 N1 -22.9(3)
O1 C5 C6 C7 -17.8(4)
C3 C5 C6 C7 161.8(3)
C7 C6 N1 O2 -2.1(4)
C5 C6 N1 O2 -176.9(2)
C2 C1 S1 C4 1.3(2)
C3 C4 S1 C1 -1.6(2)
