#------------------------------------------------------------------------------
#$Date: 2017-03-18 03:10:53 +0200 (Sat, 18 Mar 2017) $
#$Revision: 194334 $
#$URL: file:///home/coder/svn-repositories/cod/cif/1/54/55/1545592.cif $
#------------------------------------------------------------------------------
#
# This file is available in the Crystallography Open Database (COD),
# http://www.crystallography.net/
#
# All data on this site have been placed in the public domain by the
# contributors.
#
data_1545592
loop_
_publ_author_name
'Kondoh, Azusa'
'Kamata, Yuji'
'Terada, Masahiro'
_publ_section_title
;
 Synthesis of Enantioenriched \g-Amino-\a,\b-unsaturated Esters Utilizing
 Palladium-Catalyzed Rearrangement of Allylic Carbamates for Direct
 Application to Formal [3 + 2] Cycloaddition
;
_journal_name_full               'Organic Letters'
_journal_paper_doi               10.1021/acs.orglett.7b00471
_journal_year                    2017
_chemical_absolute_configuration 'CHOOSE rm ad rmad syn or unk'
_chemical_formula_moiety         'C26 H26 N2 O5 S'
_chemical_formula_sum            'C26 H26 N2 O5 S'
_chemical_formula_weight         478.56
_space_group_crystal_system      monoclinic
_space_group_IT_number           4
_space_group_name_Hall           'P 2yb'
_space_group_name_H-M_alt        'P 1 21 1'
_symmetry_space_group_name_Hall  'P 2yb'
_symmetry_space_group_name_H-M   'P 1 21 1'
_atom_sites_solution_hydrogens   geom
_atom_sites_solution_primary     direct
_atom_sites_solution_secondary   difmap
_cell_angle_alpha                90.0000
_cell_angle_beta                 109.929(8)
_cell_angle_gamma                90.0000
_cell_formula_units_Z            4
_cell_length_a                   12.2554(7)
_cell_length_b                   15.2305(9)
_cell_length_c                   13.7518(9)
_cell_measurement_reflns_used    24354
_cell_measurement_temperature    150
_cell_measurement_theta_max      27.50
_cell_measurement_theta_min      3.00
_cell_volume                     2413.1(3)
_computing_cell_refinement       'CrystalClear-SM Auto 2.0 r15'
_computing_data_collection       'CrystalClear-SM Auto 2.0 r15 (Rigaku, 2011)'
_computing_data_reduction        'CrystalClear-SM Auto 2.0 r15'
_computing_molecular_graphics    'CrystalStructure 4.2'
_computing_publication_material  'CrystalStructure 4.2 (Rigaku, 2015)'
_computing_structure_refinement  'SHELXL Version 2013/4 (Sheldrick, 2008)'
_computing_structure_solution    'SHELXS (Sheldrick, 2008)'
_diffrn_ambient_temperature      150
_diffrn_detector_area_resol_mean 13.653
_diffrn_measured_fraction_theta_full 0.998
_diffrn_measured_fraction_theta_max 0.998
_diffrn_measurement_device_type  'Rigaku XtaLAB mini'
_diffrn_measurement_method       \w
_diffrn_radiation_type           'Mo K\a'
_diffrn_radiation_wavelength     0.71075
_diffrn_reflns_av_R_equivalents  0.0391
_diffrn_reflns_Laue_measured_fraction_full 0.998
_diffrn_reflns_Laue_measured_fraction_max 0.998
_diffrn_reflns_limit_h_max       15
_diffrn_reflns_limit_h_min       -15
_diffrn_reflns_limit_k_max       19
_diffrn_reflns_limit_k_min       -19
_diffrn_reflns_limit_l_max       17
_diffrn_reflns_limit_l_min       -17
_diffrn_reflns_number            25683
_diffrn_reflns_point_group_measured_fraction_full 0.996
_diffrn_reflns_point_group_measured_fraction_max 0.996
_diffrn_reflns_theta_full        25.242
_diffrn_reflns_theta_max         27.484
_diffrn_reflns_theta_min         3.043
_diffrn_standards_number         0
_exptl_absorpt_coefficient_mu    0.174
_exptl_absorpt_correction_T_max  0.988
_exptl_absorpt_correction_T_min  0.795
_exptl_absorpt_correction_type   multi-scan
_exptl_absorpt_process_details   'REQAB (Rigaku, 1998)'
_exptl_crystal_colour            colorless
_exptl_crystal_density_diffrn    1.317
_exptl_crystal_density_method    'not measured'
_exptl_crystal_description       platelet
_exptl_crystal_F_000             1008.00
_exptl_crystal_size_max          0.240
_exptl_crystal_size_mid          0.230
_exptl_crystal_size_min          0.070
_refine_diff_density_max         0.21
_refine_diff_density_min         -0.28
_refine_ls_abs_structure_details
;
 Flack x determined using 4163 quotients [(I+)-(I-)]/[(I+)+(I-)]
 (Parsons, Flack and Wagner, Acta Cryst. B69 (2013) 249-259).
;
_refine_ls_abs_structure_Flack   0.01(3)
_refine_ls_extinction_method     none
_refine_ls_goodness_of_fit_ref   1.036
_refine_ls_hydrogen_treatment    constr
_refine_ls_number_parameters     613
_refine_ls_number_reflns         11013
_refine_ls_number_restraints     1
_refine_ls_R_factor_all          0.0513
_refine_ls_R_factor_gt           0.0427
_refine_ls_shift/su_max          0.000
_refine_ls_structure_factor_coef Fsqd
_refine_ls_weighting_details
'w = 1/[\s^2^(Fo^2^)+(0.0532P)^2^+0.0605P] where P=(Fo^2^+2Fc^2^)/3'
_refine_ls_weighting_scheme      calc
_refine_ls_wR_factor_gt          0.0971
_refine_ls_wR_factor_ref         0.1009
_reflns_Friedel_coverage         0.923
_reflns_Friedel_fraction_full    0.993
_reflns_Friedel_fraction_max     0.993
_reflns_number_gt                9714
_reflns_number_total             11013
_reflns_threshold_expression     F^2^>2.0\s(F^2^)
_cod_data_source_file            ol7b00471_si_002.cif
_cod_data_source_block           01
_cod_database_code               1545592
_shelxl_version_number           2013-4
_shelx_res_file
;
TITL 01
CELL  0.71075 12.25540 15.23050 13.75180 90.00000 109.92900 90.00000
ZERR  4 0.00070 0.00090 0.00090 0.00000 0.00800 0.00000
LATT -1
SYMM    -X, .50+Y,    -Z
SFAC C H N O S
UNIT 104 104 8 20 4
L.S. 20
FMAP 2
PLAN 42
WPDB -2
HTAB
BOND $H
CONF
LIST 4
TEMP -123.0
ACTA
SIZE 0.240 0.230 0.070
WGHT    0.053200    0.060500
FVAR       1.41266
S1    5    0.902816    0.445948    0.154621    11.00000    0.02936    0.02840 =
         0.02799   -0.00138    0.01387   -0.00561
S2    5    0.589458   -0.098968    0.355611    11.00000    0.02683    0.02454 =
         0.02713    0.00306    0.00210    0.00198
O3    4    0.696405   -0.111992    0.338822    11.00000    0.02835    0.03905 =
         0.04069   -0.00023    0.00568    0.00837
O4    4    0.144455   -0.101193    0.177838    11.00000    0.03221    0.05589 =
         0.04222   -0.01538    0.01938   -0.01065
O6    4    0.871767    0.085751    0.211557    11.00000    0.03253    0.02389 =
         0.03745    0.00071    0.01506    0.00356
O11   4    0.852638    0.160145    0.346369    11.00000    0.05204    0.02924 =
         0.02221    0.00040    0.00650    0.00193
O12   4    0.642107    0.480438    0.058542    11.00000    0.03638    0.03509 =
         0.03062    0.01281    0.01451    0.00459
O13   4    0.162017   -0.211316    0.075345    11.00000    0.03135    0.03571 =
         0.04665   -0.01225    0.01028   -0.01373
O14   4    0.998112    0.387294    0.197818    11.00000    0.02895    0.03788 =
         0.04675   -0.00253    0.01833   -0.00009
O17   4    0.875874    0.478256    0.051720    11.00000    0.04792    0.04086 =
         0.02759   -0.00127    0.02006   -0.01294
O18   4    0.634116    0.047062    0.217242    11.00000    0.02383    0.04584 =
         0.04763    0.01181    0.01003   -0.00516
O28   4    0.521810   -0.172173    0.366567    11.00000    0.04248    0.02506 =
         0.03528    0.00685    0.00175   -0.00399
N5    3    0.788391    0.389769    0.159581    11.00000    0.02773    0.02121 =
         0.02651    0.00149    0.01057   -0.00186
N7    3    0.614574    0.383478    0.178516    11.00000    0.02332    0.02381 =
         0.01968    0.00208    0.00519   -0.00078
N9    3    0.435806    0.072441    0.154013    11.00000    0.02366    0.02216 =
         0.02071    0.00084    0.00835   -0.00372
N23   3    0.501453   -0.044587    0.253998    11.00000    0.02218    0.02566 =
         0.02447    0.00463    0.00367   -0.00108
C8    1    0.611124   -0.027878    0.461052    11.00000    0.02431    0.02909 =
         0.02192    0.00304    0.00184    0.00162
C10   1    0.495669    0.400008    0.166433    11.00000    0.02707    0.02427 =
         0.02647   -0.00640    0.00816   -0.00466
C15   1    0.846651    0.156412    0.256823    11.00000    0.02141    0.02505 =
         0.02645   -0.00221    0.00479   -0.00038
C16   1    0.200772   -0.141729    0.136636    11.00000    0.02844    0.02802 =
         0.02353    0.00246    0.00601   -0.00376
C19   1    0.800881    0.317898    0.233852    11.00000    0.02651    0.02305 =
         0.01962    0.00148    0.00841   -0.00165
AFIX  13
H19   2    0.870662    0.327950    0.296833    11.00000   -1.20000
AFIX   0
C20   1    0.688068    0.326985    0.261336    11.00000    0.02743    0.02028 =
         0.02031    0.00124    0.00891   -0.00323
AFIX  13
H20   2    0.650695    0.268170    0.258008    11.00000   -1.20000
AFIX   0
C21   1    0.374786   -0.048670    0.227416    11.00000    0.02162    0.02345 =
         0.01777   -0.00040    0.00481   -0.00267
AFIX  13
H21   2    0.354405   -0.057763    0.291188    11.00000   -1.20000
AFIX   0
C22   1    0.674980    0.424961    0.124492    11.00000    0.02645    0.01988 =
         0.02094   -0.00309    0.00841   -0.00307
C24   1    0.429016    0.141079    0.082659    11.00000    0.03494    0.02021 =
         0.01647   -0.00241    0.00589   -0.00667
C25   1    0.929200    0.674064    0.374014    11.00000    0.02472    0.03373 =
         0.02728    0.00056    0.00799   -0.00423
C26   1    0.312641    0.105275    0.259862    11.00000    0.02825    0.02198 =
         0.02220    0.00361    0.00978   -0.00149
C27   1    0.336731    0.044042    0.182346    11.00000    0.01963    0.02400 =
         0.01875    0.00024    0.00524   -0.00218
AFIX  13
H27   2    0.266154    0.039438    0.118890    11.00000   -1.20000
AFIX   0
C29   1    0.845043    0.608006    0.204517    11.00000    0.04031    0.02881 =
         0.02608    0.00327    0.00031   -0.00286
AFIX  43
H29   2    0.792611    0.610759    0.135361    11.00000   -1.20000
AFIX   0
C30   1    0.516158    0.153761    0.040161    11.00000    0.04394    0.03001 =
         0.03057   -0.00071    0.01519   -0.00962
AFIX  43
H30   2    0.583434    0.117699    0.060806    11.00000   -1.20000
AFIX   0
C31   1    0.556153    0.022836    0.601805    11.00000    0.04106    0.04516 =
         0.02847    0.00710    0.01312   -0.00179
AFIX  43
H31   2    0.507906    0.018179    0.642931    11.00000   -1.20000
AFIX   0
C32   1    0.990737    0.529843    0.340607    11.00000    0.02581    0.03494 =
         0.03025    0.00178    0.00484    0.00454
AFIX  43
H32   2    1.037736    0.479293    0.364228    11.00000   -1.20000
AFIX   0
C33   1    0.695699    0.036343    0.480774    11.00000    0.02985    0.03197 =
         0.02970    0.00132    0.00895   -0.00333
AFIX  43
H33   2    0.743019    0.041404    0.438852    11.00000   -1.20000
AFIX   0
C34   1    0.325622   -0.123459    0.150440    11.00000    0.02682    0.02344 =
         0.02145   -0.00184    0.00800   -0.00310
AFIX  23
H34A  2    0.332069   -0.107675    0.082772    11.00000   -1.20000
H34B  2    0.372051   -0.177244    0.175546    11.00000   -1.20000
AFIX   0
C35   1    0.430910    0.463271    0.097714    11.00000    0.03193    0.03619 =
         0.04445    0.00861    0.01393    0.00104
AFIX  43
H35   2    0.465535    0.497277    0.058110    11.00000   -1.20000
AFIX   0
C36   1    0.402775    0.141929    0.340383    11.00000    0.02753    0.02884 =
         0.02672    0.00027    0.00651    0.00268
AFIX  43
H36   2    0.480776    0.129859    0.346107    11.00000   -1.20000
AFIX   0
C37   1    0.812971    0.231749    0.182647    11.00000    0.03560    0.02652 =
         0.02360   -0.00166    0.01251    0.00075
AFIX  23
H37A  2    0.738232    0.217960    0.127875    11.00000   -1.20000
H37B  2    0.872289    0.238814    0.149173    11.00000   -1.20000
AFIX   0
C38   1    0.443279    0.352153    0.224540    11.00000    0.03078    0.03399 =
         0.02818   -0.00328    0.00997   -0.00560
AFIX  43
H38   2    0.486730    0.309457    0.272538    11.00000   -1.20000
AFIX   0
C39   1    0.915257    0.535023    0.239006    11.00000    0.02745    0.02337 =
         0.02699   -0.00034    0.00883   -0.00619
C40   1    0.640014    0.087691    0.624156    11.00000    0.03880    0.03218 =
         0.02660    0.00673    0.00592    0.00834
C41   1    0.535380    0.028569    0.207989    11.00000    0.02658    0.02559 =
         0.02451   -0.00173    0.00785   -0.00350
C42   1    0.780938    0.434763    0.567519    11.00000    0.03162    0.06143 =
         0.02735   -0.01387    0.01360   -0.00658
AFIX  43
H42   2    0.805318    0.458027    0.635680    11.00000   -1.20000
AFIX   0
C43   1    0.380415    0.196287    0.413080    11.00000    0.04137    0.03212 =
         0.02813   -0.00442    0.00980    0.00129
AFIX  43
H43   2    0.442922    0.220509    0.468263    11.00000   -1.20000
AFIX   0
C44   1    0.732107    0.456105    0.384852    11.00000    0.04128    0.03105 =
         0.02901   -0.00483    0.01744   -0.00642
AFIX  43
H44   2    0.721746    0.494574    0.328023    11.00000   -1.20000
AFIX   0
C45   1    0.267857    0.214712    0.404710    11.00000    0.05196    0.03441 =
         0.03675   -0.00477    0.02287    0.00487
AFIX  43
H45   2    0.252402    0.252372    0.453542    11.00000   -1.20000
AFIX   0
C46   1    0.852372    0.676479    0.271937    11.00000    0.04022    0.02712 =
         0.03138    0.00334    0.00231    0.00164
AFIX  43
H46   2    0.804162    0.726466    0.248578    11.00000   -1.20000
AFIX   0
C47   1    0.199811    0.123616    0.253082    11.00000    0.02889    0.03218 =
         0.03306   -0.00065    0.00824   -0.00069
AFIX  43
H47   2    0.137144    0.098601    0.198717    11.00000   -1.20000
AFIX   0
C48   1    0.328027    0.366568    0.212622    11.00000    0.03391    0.04312 =
         0.04226   -0.00661    0.01964   -0.01153
AFIX  43
H48   2    0.292877    0.333156    0.252301    11.00000   -1.20000
AFIX   0
C49   1    0.726708    0.311611    0.452290    11.00000    0.04251    0.03728 =
         0.02474    0.00188    0.01394    0.00252
AFIX  43
H49   2    0.712382    0.250433    0.441835    11.00000   -1.20000
AFIX   0
C50   1    0.765781    0.489484    0.484658    11.00000    0.04570    0.04235 =
         0.04073   -0.01844    0.02547   -0.01436
AFIX  43
H50   2    0.778452    0.550774    0.495711    11.00000   -1.20000
AFIX   0
C51   1    0.315929    0.476222    0.087554    11.00000    0.03306    0.04205 =
         0.05636    0.00703    0.00868    0.00715
AFIX  43
H51   2    0.271887    0.519145    0.040251    11.00000   -1.20000
AFIX   0
C52   1    0.331417    0.194772    0.051624    11.00000    0.03826    0.02400 =
         0.02230   -0.00089    0.00434   -0.00290
AFIX  43
H52   2    0.271713    0.186879    0.080326    11.00000   -1.20000
AFIX   0
C53   1    0.656248    0.150566    0.712051    11.00000    0.06601    0.04228 =
         0.03789   -0.00242    0.01489    0.00708
AFIX  33
H53A  2    0.719784    0.191100    0.716200    11.00000   -1.20000
H53B  2    0.675034    0.117712    0.776975    11.00000   -1.20000
H53C  2    0.584523    0.183931    0.700355    11.00000   -1.20000
AFIX   0
C54   1    0.713489    0.366420    0.367848    11.00000    0.02557    0.03046 =
         0.02046   -0.00156    0.00967   -0.00235
C55   1    0.321488    0.260303   -0.021851    11.00000    0.05130    0.02707 =
         0.02529    0.00278   -0.00162   -0.00321
AFIX  43
H55   2    0.254573    0.296741   -0.042995    11.00000   -1.20000
AFIX   0
C56   1    0.406805    0.272873   -0.063947    11.00000    0.06964    0.03049 =
         0.02848    0.00618    0.00832   -0.01746
AFIX  43
H56   2    0.399465    0.317578   -0.113958    11.00000   -1.20000
AFIX   0
C57   1    0.263745    0.428182    0.144600    11.00000    0.02729    0.04662 =
         0.05324   -0.00585    0.01365   -0.00214
AFIX  43
H57   2    0.184600    0.437678    0.136830    11.00000   -1.20000
AFIX   0
C58   1    0.709987    0.093007    0.562700    11.00000    0.03144    0.03045 =
         0.03366    0.00152    0.00591   -0.00095
AFIX  43
H58   2    0.768824    0.136622    0.577563    11.00000   -1.20000
AFIX   0
C59   1    0.503583    0.219496   -0.032473    11.00000    0.06290    0.04260 =
         0.03436    0.00093    0.02283   -0.02305
AFIX  43
H59   2    0.563035    0.228049   -0.061333    11.00000   -1.20000
AFIX   0
C60   1    0.996318    0.599233    0.406568    11.00000    0.02544    0.04166 =
         0.02368   -0.00083    0.00197    0.00177
AFIX  43
H60   2    1.047480    0.595697    0.476143    11.00000   -1.20000
AFIX   0
C61   1    0.540729   -0.035423    0.521101    11.00000    0.03058    0.03702 =
         0.03180    0.00877    0.00897   -0.00554
AFIX  43
H61   2    0.482965   -0.079824    0.507018    11.00000   -1.20000
AFIX   0
C62   1    0.901481    0.006100    0.273583    11.00000    0.02991    0.02400 =
         0.05081    0.00421    0.00851    0.00443
AFIX  23
H62A  2    0.850934   -0.000299    0.316012    11.00000   -1.20000
H62B  2    0.983208    0.008562    0.320472    11.00000   -1.20000
AFIX   0
C63   1    0.939200    0.750948    0.444950    11.00000    0.03646    0.04087 =
         0.03291   -0.00276    0.00815    0.00637
AFIX  33
H63A  2    0.996378    0.737714    0.513002    11.00000   -1.20000
H63B  2    0.863615    0.762400    0.452112    11.00000   -1.20000
H63C  2    0.964132    0.802889    0.416015    11.00000   -1.20000
AFIX   0
C64   1    0.884474   -0.069068    0.201337    11.00000    0.06032    0.02952 =
         0.07000   -0.00771    0.03270    0.00257
AFIX  33
H64A  2    0.903914   -0.123850    0.240887    11.00000   -1.20000
H64B  2    0.934983   -0.062063    0.159868    11.00000   -1.20000
H64C  2    0.803288   -0.070954    0.155521    11.00000   -1.20000
AFIX   0
C65   1    0.176874    0.178301    0.324951    11.00000    0.03369    0.04057 =
         0.05078   -0.00370    0.02296    0.00112
AFIX  43
H65   2    0.098963    0.190629    0.319311    11.00000   -1.20000
AFIX   0
C66   1    0.760772    0.346157    0.551723    11.00000    0.04239    0.05946 =
         0.02389    0.00594    0.01303    0.00513
AFIX  43
H66   2    0.770170    0.308428    0.609022    11.00000   -1.20000
AFIX   0
C67   1    0.042569   -0.237717    0.058288    11.00000    0.03330    0.05766 =
         0.07695   -0.01189    0.01192   -0.02228
AFIX  23
H67A  2   -0.011614   -0.202254    0.002089    11.00000   -1.20000
H67B  2    0.023596   -0.228569    0.122003    11.00000   -1.20000
AFIX   0
C68   1    0.031610   -0.332123    0.029537    11.00000    0.06931    0.06775 =
         0.07440   -0.00825    0.02164   -0.04183
AFIX  33
H68A  2   -0.048171   -0.351617    0.017329    11.00000   -1.20000
H68B  2    0.085172   -0.366628    0.085861    11.00000   -1.20000
H68C  2    0.050595   -0.340422   -0.033551    11.00000   -1.20000
AFIX   0
HKLF 4

REM  01
REM R1 =  0.0427 for    9714 Fo > 4sig(Fo)  and  0.0513 for all   11013 data
REM    613 parameters refined using      1 restraints

END

WGHT      0.0532      0.0605

REM Instructions for potential hydrogen bonds
EQIV $1 -x+1, y-1/2, -z
HTAB C27 O17_$1
HTAB C30 O18
HTAB C34 O12_$1
HTAB C34 O28
HTAB C35 O12
HTAB C62 O3
HTAB C62 O18
EQIV $2 x+1, y, z
HTAB C64 O4_$2

REM Highest difference peak  0.214,  deepest hole -0.284,  1-sigma level  0.043
Q1    1   0.8417  0.4105  0.1575  11.00000  0.05    0.21
Q2    1   0.0197 -0.2946  0.1014  11.00000  0.05    0.21
Q3    1   1.0272  0.7738  0.4522  11.00000  0.05    0.21
Q4    1   0.8668  0.7970  0.4201  11.00000  0.05    0.21
Q5    1   0.7553  0.4173  0.1600  11.00000  0.05    0.20
Q6    1   0.6717  0.2812  0.2573  11.00000  0.05    0.18
Q7    1   0.7610  0.4064  0.3742  11.00000  0.05    0.17
Q8    1   0.6556  0.5992  0.4591  11.00000  0.05    0.16
Q9    1   0.3309 -0.0078  0.2029  11.00000  0.05    0.16
Q10   1   0.3416 -0.0847  0.1850  11.00000  0.05    0.16
Q11   1   0.9406  0.7233  0.5230  11.00000  0.05    0.16
Q12   1   0.1114 -0.0258  0.1668  11.00000  0.05    0.16
Q13   1   0.5574  0.4010  0.1764  11.00000  0.05    0.15
Q14   1   0.3770  0.1650  0.0624  11.00000  0.05    0.15
Q15   1   0.6368  0.1969  0.6852  11.00000  0.05    0.15
Q16   1   0.0904  0.0431  0.1577  11.00000  0.05    0.15
Q17   1   0.8065  0.3891  0.5582  11.00000  0.05    0.15
Q18   1   0.8968  0.4932  0.1995  11.00000  0.05    0.14
Q19   1   0.7985  0.2767  0.2011  11.00000  0.05    0.14
Q20   1   0.5612  0.5065  0.0379  11.00000  0.05    0.14
Q21   1   0.8716  0.8869  0.4074  11.00000  0.05    0.14
Q22   1   0.0566 -0.3245  0.1647  11.00000  0.05    0.14
Q23   1   0.7055  0.4149  0.3786  11.00000  0.05    0.14
Q24   1   0.5374  0.1843  0.5403  11.00000  0.05    0.14
Q25   1   0.6375 -0.2664  0.3606  11.00000  0.05    0.14
Q26   1   0.7351  0.1507  0.7611  11.00000  0.05    0.14
Q27   1   0.6550  0.1146  0.1930  11.00000  0.05    0.14
Q28   1  -0.0139 -0.1849  0.0603  11.00000  0.05    0.14
Q29   1   0.9818  0.3506  0.2476  11.00000  0.05    0.13
Q30   1   0.4538  0.1261  0.0428  11.00000  0.05    0.13
Q31   1   0.1015  0.2965  0.3693  11.00000  0.05    0.13
Q32   1   0.7760  0.4971  0.0509  11.00000  0.05    0.13
Q33   1   0.6433  0.5585  0.2056  11.00000  0.05    0.13
Q34   1   0.1959  0.5548  0.0080  11.00000  0.05    0.13
Q35   1   0.6085 -0.0568  0.4133  11.00000  0.05    0.13
Q36   1   0.5645  0.1112  0.7659  11.00000  0.05    0.13
Q37   1   0.8244  0.5390  0.0592  11.00000  0.05    0.13
Q38   1   0.6584 -0.0067  0.4760  11.00000  0.05    0.13
Q39   1   0.6741  0.5368  0.0612  11.00000  0.05    0.13
Q40   1   0.7592  0.3099  0.2531  11.00000  0.05    0.13
Q41   1   0.6669  0.5746  0.4116  11.00000  0.05    0.13
Q42   1   0.6190 -0.0491  0.1431  11.00000  0.05    0.13
;
_shelx_res_checksum              25725
_shelx_hkl_file
;
   0   0   215984.18  328.96
   0   0   217179.90  371.78
   0   0   215829.08  349.09
   0   0  -217143.11  332.68
   0   0  -217172.78  312.31
   0   0   3 6194.50  158.20
   0   0  -3 6251.44  142.55
   0   0  -3 6257.43  129.07
   0   0   4 1260.97   40.94
   0   0  -4 1219.56   38.41
   0   0  -4 1208.51   34.89
   0   0   512020.87  412.44
   0   0  -512077.76  347.14
   0   0  -512049.02  379.77
   0   0   6  222.54   20.19
   0   0  -6  181.08   15.31
   0   0  -6  210.37   13.22
   0   0   7 7281.88  292.81
   0   0  -7 7245.05  240.87
   0   0  -7 7185.15  259.41
   0   0   8  180.33   21.59
   0   0  -8  189.06   14.28
   0   0  -8  148.38   16.80
   0   0   9 1352.92   77.10
   0   0  -9 1305.78   59.38
   0   0  -9 1250.42   54.66
   0   0  10 8524.01  440.48
   0   0 -10 8042.42  360.82
   0   0 -10 8070.84  333.48
   0   0  11  179.18   30.63
   0   0 -11  198.23   23.77
   0   0 -11  212.01   23.18
   0   0  12   41.04   25.18
   0   0 -12   26.67   22.52
   0   0 -12   67.74   13.48
   0   0  13   -0.79   20.58
   0   0 -13   -3.69   19.26
   0   0 -13   18.59   12.66
   0   0  14  212.13   40.46
   0   0 -14  248.23   29.00
   0   0 -14  171.73   27.67
   0   0  15   17.60   29.53
   0   0 -15   -0.09   17.25
   0   0  16  173.80   43.90
   0   0 -16  176.66   38.15
   0   1   210023.38  203.62
   0   1   2 9177.61  171.17
   0   1  -2 9623.17  199.39
   0  -1   2 9497.86  133.67
   0  -1  -2 9999.24  213.44
   0  -1  -210023.21  176.48
   0  -1   2 9411.28  215.47
   0   1  -323883.30  498.73
   0   1   324838.14  708.40
   0   1  -324150.73  683.13
   0  -1   323218.75  716.32
   0  -1  -324412.01  603.38
   0  -1  -323805.80  666.31
   0   1  -4 5356.82  115.70
   0   1   4 5513.36  160.49
   0   1  -4 5529.52  154.83
   0  -1   4 5703.27  170.82
   0  -1  -4 5718.74  145.28
   0  -1  -4 5566.66  150.10
   0   1  -5  242.43   12.80
   0   1   5  272.01   19.81
   0   1  -5  258.72   19.17
   0  -1   5  280.46   20.35
   0  -1  -5  243.17   17.67
   0  -1  -5  274.97   14.48
   0   1   6   45.02   13.72
   0   1  -6   38.89   10.07
   0   1  -6   36.64    8.96
   0  -1   6   48.64   14.72
   0  -1  -6   39.85   10.05
   0  -1  -6   55.91    9.83
   0   1   7  111.83   18.40
   0   1  -7  126.16   15.65
   0   1  -7  145.07   12.98
   0  -1   7   81.32   20.65
   0  -1  -7  199.93   14.80
   0  -1  -7  141.99   14.26
   0   1  -8 3390.40  140.57
   0   1   8 3482.01  152.38
   0   1  -8 3426.21  112.55
   0  -1   8 3445.38  155.94
   0  -1  -8 3379.74  125.95
   0  -1  -8 3499.11  127.75
   0   1   9  189.06   25.25
   0   1  -9  171.91   20.70
   0   1  -9  178.05   14.26
   0  -1   9  180.37   26.35
   0  -1  -9  164.38   23.21
   0  -1  -9  195.66   18.49
   0   1  10  230.04   31.62
   0   1 -10  220.29   25.55
   0   1 -10  276.71   19.53
   0  -1  10  257.38   39.45
   0  -1 -10  331.33   27.88
   0  -1 -10  274.37   24.62
   0   1  11  382.05   45.55
   0   1 -11  419.76   29.05
   0   1 -11  428.53   34.00
   0  -1  11  384.05   45.38
   0  -1 -11  429.12   37.43
   0  -1 -11  436.02   35.25
   0   1  12 1753.06  110.43
   0   1 -12 1610.42   88.70
   0   1 -12 1549.00   75.41
   0  -1  12 1703.16  109.82
   0  -1 -12 1522.70   77.88
   0  -1 -12 1519.57   91.81
   0   1  13  807.53   68.51
   0   1 -13  704.32   54.58
   0   1 -13  693.35   45.15
   0  -1  13  712.08   66.16
   0  -1 -13  733.38   52.96
   0  -1 -13  709.70   56.29
   0   1  14  277.70   45.76
   0   1 -14  299.65   36.18
   0  -1 -14  268.65   28.69
   0  -1 -14  336.31   40.36
   0  -1  14  379.95   46.32
   0   1  15   82.17   34.55
   0   1 -15   73.22   31.87
   0  -1  15  155.17   35.08
   0  -1 -15  111.27   28.72
   0   1  16  125.57   35.25
   0   1 -16   53.06   26.71
   0  -1  16  152.92   42.39
   0   2   1 2306.39   36.06
   0   2   1 2270.25   39.98
   0   2   1 2536.98   40.98
   0   2  -1 2377.17   28.57
   0   2  -1 2417.10   28.16
   0  -2   1 2632.92   50.06
   0  -2   1 2476.63   46.81
   0  -2  -1 2536.73   37.13
   0  -2  -1 2456.99   49.35
   0   2   2 8018.17  158.74
   0   2   2 9549.19  204.11
   0   2  -2 8651.69  205.19
   0  -2   2 8872.76  213.52
   0  -2  -2 8657.97  214.08
   0  -2  -2 9079.29  163.39
   0   2  -341131.37  760.39
   0   2   342885.33 1319.36
   0   2  -341321.05 1337.71
   0  -2   341725.44 1410.74
   0  -2  -341294.44 1369.82
   0  -2  -341736.07 1099.71
   0  -2   340282.92  782.76
   0   2   410045.62  304.72
   0   2  -4 9659.76  294.70
   0   2  -4 9649.74  190.87
   0  -2   4 9730.17  312.52
   0  -2  -4 9702.66  244.28
   0  -2  -4 9666.32  294.50
   0   2   5  471.28   24.69
   0   2  -5  451.01   14.41
   0   2  -5  419.17   27.53
   0  -2   5  452.91   26.59
   0  -2  -5  434.15   18.38
   0  -2  -5  439.55   22.66
   0   2   6 7596.78  287.77
   0   2  -6 7861.43  203.92
   0   2  -6 7923.63  289.72
   0  -2   6 7390.31  293.89
   0  -2  -6 7857.00  246.03
   0  -2  -6 8100.19  280.18
   0   2   7  782.65   41.53
   0   2  -7  770.12   25.76
   0   2  -7  767.98   36.02
   0  -2  -7  619.55   34.34
   0  -2   7  801.98   43.91
   0  -2  -7  761.12   32.31
   0   2  -8  342.90   17.13
   0   2   8  325.10   29.14
   0   2  -8  298.53   23.56
   0  -2  -8  381.54   24.14
   0  -2   8  312.39   29.83
   0  -2  -8  344.82   20.38
   0   2   9  139.42   21.45
   0   2  -9  111.09   10.28
   0   2  -9   76.71   18.88
   0  -2  -9  105.01   17.11
   0  -2   9  110.58   27.78
   0  -2  -9  126.81   18.09
   0   2  10 1727.14   95.52
   0   2 -10 1698.11   85.52
   0   2 -10 1648.06   64.34
   0  -2  10 1744.88  102.61
   0  -2 -10 1775.29   85.00
   0  -2 -10 1725.86   82.13
   0   2 -11  483.07   28.61
   0   2  11  571.97   48.14
   0   2 -11  482.15   39.74
   0  -2  11  518.78   49.39
   0  -2 -11  519.50   37.25
   0  -2 -11  491.85   40.72
   0   2  12   87.60   22.00
   0   2 -12   16.46   12.02
   0   2 -12   36.71   17.64
   0  -2  12    8.47   26.22
   0  -2 -12   -5.94   14.07
   0  -2 -12   23.05   15.51
   0   2  13  598.61   61.29
   0   2 -13  542.56   56.73
   0  -2 -13  625.30   51.08
   0  -2 -13  603.58   51.72
   0  -2  13  576.59   60.87
   0   2 -14  290.95   36.96
   0   2  14  235.08   44.83
   0  -2 -14  258.36   29.79
   0  -2  14  313.36   45.24
   0  -2 -14  288.18   36.92
   0   2 -15  236.47   40.30
   0   2  15  286.92   49.13
   0  -2 -15  309.60   42.40
   0  -2  15  313.18   50.70
   0  -2 -15  371.85   39.32
   0   2  16  126.86   37.46
   0   2 -16  110.99   37.59
   0  -2  16  116.45   39.42
   0  -3   0    1.57    4.93
   0  -3   0   -1.67    5.39
   0  -3   0   14.09    5.38
   0  -3   1 4003.39   67.30
   0  -3   1 4132.32   95.25
   0  -3   1 3927.00   88.01
   0  -3  -1 3984.83   99.76
   0  -3  -1 3992.39   76.56
   0  -3  -1 3903.70   78.84
   0   3   249423.34 1471.20
   0   3  -247406.93 1638.05
   0   3  -249961.65  903.05
   0  -3  -250313.74 1297.74
   0  -3   249471.32 1633.73
   0  -3  -249932.35 1705.60
   0   3   346986.29 1568.76
   0   3  -346762.49 1683.13
   0  -3  -345236.88 1699.22
   0  -3  -346774.33 1307.92
   0  -3   346591.75 1705.83
   0   3   418047.68  582.66
   0   3  -417777.71  613.46
   0  -3   418434.10  659.67
   0  -3  -418739.89  650.84
   0  -3  -417934.91  496.53
   0   3  -5 3539.01  116.95
   0   3   5 3393.39  113.53
   0   3  -5 3203.49   61.89
   0  -3   5 3417.00  121.74
   0  -3  -5 3409.46   93.02
   0  -3  -5 3276.29  115.14
   0   3  -6  605.61   38.45
   0  -3  -6  701.01   34.04
   0  -3  -6  674.93   29.25
   0  -3   6  628.08   36.94
   0   3   7 1380.39   61.74
   0   3  -7 1451.03   61.43
   0   3  -7 1377.81   37.05
   0  -3   7 1300.14   66.14
   0  -3  -7 1459.06   61.64
   0  -3  -7 1339.73   48.45
   0   3   8  897.28   50.02
   0   3  -8  930.24   47.64
   0  -3  -8  974.15   47.60
   0  -3  -8  941.74   38.64
   0  -3   8  872.93   54.44
   0   3   9  359.61   30.83
   0   3  -9  288.97   27.95
   0   3  -9  303.14   16.15
   0  -3   9  283.68   34.42
   0  -3  -9  337.09   27.81
   0  -3  -9  379.52   25.94
   0   3  10  403.08   39.11
   0   3 -10  352.83   20.16
   0   3 -10  386.48   33.43
   0  -3 -10  405.10   31.46
   0  -3  10  400.60   40.82
   0  -3 -10  454.95   32.84
   0   3  11 2246.57  129.08
   0   3 -11 2122.65  115.07
   0   3 -11 1981.84   76.42
   0  -3  11 2016.29  131.64
   0  -3 -11 2285.41  114.96
   0  -3 -11 2194.86  110.44
   0   3  12  865.32   67.23
   0   3 -12  817.69   60.31
   0  -3  12  863.45   71.88
   0  -3 -12  879.70   54.74
   0  -3 -12  824.03   50.64
   0   3  13  191.45   31.06
   0   3 -13  134.38   28.21
   0  -3  13  159.68   35.44
   0  -3 -13  115.13   24.39
   0  -3 -13  145.99   27.25
   0   3 -14  395.68   47.00
   0   3  14  501.76   56.47
   0  -3 -14  407.57   38.83
   0  -3  14  460.36   60.08
   0  -3 -14  479.28   40.77
   0   3  15  105.49   33.15
   0   3 -15   69.12   31.87
   0  -3  15  117.84   35.04
   0  -3 -15   51.52   28.02
   0   3  16  121.51   37.35
   0   3 -16   72.18   30.34
   0  -3  16  129.53   38.15
   0  -4   024042.23  661.51
   0  -4   023248.44  663.01
   0  -4   023118.79  643.87
   0  -4   1 3269.18   67.14
   0  -4   1 3148.85   84.27
   0  -4   1 3177.16   80.87
   0  -4  -1 3249.00   70.90
   0  -4  -1 3188.64   75.28
   0  -4  -1 3160.37   87.02
   0   4   233847.73 1061.31
   0  -4   234325.66 1162.85
   0  -4  -234961.40  962.56
   0  -4  -235281.16 1243.90
   0   4  -3 1352.74   19.51
   0   4   3 1387.78   39.34
   0   4  -3 1382.01   48.01
   0  -4   3 1342.51   47.49
   0  -4  -3 1356.15   34.07
   0  -4  -3 1375.61   50.36
   0   4   410646.48  330.18
   0   4  -410309.40  358.81
   0  -4  -410783.53  377.58
   0  -4  -410290.23  276.83
   0  -4   410102.12  363.63
   0   4   5 4655.20  155.50
   0   4  -5 4762.33  168.82
   0  -4   5 4634.99  173.79
   0  -4  -5 4929.12  176.68
   0  -4  -5 4649.37  127.27
   0   4   6 6916.85  260.07
   0   4  -6 6786.07  271.64
   0  -4   6 7099.58  285.12
   0  -4  -6 6810.38  210.75
   0  -4  -6 6883.76  271.28
   0   4   7  650.54   37.95
   0   4  -7  618.06   15.77
   0   4  -7  693.86   37.56
   0  -4   7  680.29   41.44
   0  -4  -7  708.59   30.04
   0  -4  -7  649.89   38.13
   0   4  -8  528.65   17.08
   0   4   8  477.24   35.27
   0   4  -8  605.79   37.67
   0  -4   8  609.39   40.03
   0  -4  -8  606.01   30.72
   0  -4  -8  634.98   37.30
   0   4   9 1749.14   89.19
   0   4  -9 1738.99   88.44
   0  -4   9 1612.83   94.13
   0  -4  -9 1775.78   88.07
   0  -4  -9 1644.90   66.72
   0   4  10 1448.96   86.28
   0   4 -10 1242.05   77.38
   0  -4 -10 1413.65   70.73
   0  -4 -10 1503.50   80.95
   0  -4  10 1364.04   88.53
   0   4 -11  598.20   51.15
   0   4  11  620.78   53.20
   0  -4 -11  667.58   54.57
   0  -4  11  696.07   57.02
   0  -4 -11  651.79   45.81
   0   4  12  411.99   37.54
   0   4 -12  212.51   33.03
   0  -4  12  246.40   38.20
   0  -4 -12  215.09   31.39
   0  -4 -12  259.87   30.33
   0   4 -13  305.57   42.52
   0   4  13  375.49   44.26
   0  -4 -13  352.34   36.64
   0  -4  13  389.13   49.83
   0  -4 -13  379.99   39.00
   0   4 -14  207.66   38.25
   0   4  14  304.02   43.32
   0  -4 -14  319.25   35.52
   0  -4  14  346.40   48.52
   0  -4 -14  253.60   35.52
   0   4 -15  101.11   32.10
   0   4  15  223.79   44.34
   0  -4 -15  151.87   33.40
   0  -4  15  105.29   39.94
   0   4  16  221.33   41.60
   0   4 -16   81.42   42.00
   0  -4  16  152.04   43.73
   0  -4 -16  154.51   30.38
   0  -5   0   -2.55    7.58
   0  -5   0    6.92    6.55
   0  -5   0   -2.72    6.59
   0  -5   1  111.91   11.69
   0  -5   1  155.00   12.89
   0  -5   1  149.64   10.33
   0  -5  -1  147.07   11.91
   0  -5  -1  125.07   10.17
   0  -5  -1  137.07   11.87
   0   5   2 8421.54  232.74
   0  -5   2 7898.96  244.26
   0  -5   2 8060.09  257.95
   0  -5  -2 8355.45  223.19
   0  -5  -2 8254.93  267.71
   0   5   3 3941.64  110.44
   0   5  -3 4006.34  135.44
   0  -5   3 3970.12  128.50
   0  -5  -3 3813.70  100.15
   0  -5  -3 4023.89  138.73
   0   5  -4 8548.45  316.06
   0   5   4 8627.02  285.70
   0  -5  -4 8514.54  236.12
   0  -5   4 8914.73  320.97
   0  -5  -4 8600.52  326.85
   0   5   5 7937.06  288.89
   0   5  -5 8037.24  313.98
   0  -5  -5 8435.71  334.86
   0  -5  -5 8193.25  244.83
   0  -5   5 8354.15  324.31
   0   5   6 1503.53   69.69
   0   5  -6 1941.03   86.84
   0  -5  -6 1867.45   59.72
   0  -5  -6 1962.43   82.19
   0  -5   6 1809.49   80.11
   0   5   7  441.05   32.37
   0   5  -7  457.48   32.33
   0  -5   7  603.74   38.15
   0  -5  -7  574.10   40.04
   0  -5  -7  475.68   22.13
   0   5   8 2672.12  132.43
   0   5  -8 2666.07  124.38
   0  -5   8 2451.22  127.59
   0  -5  -8 2749.43  100.18
   0  -5  -8 2712.64  125.05
   0   5  -9 2087.61  107.75
   0   5   9 2250.19  110.03
   0  -5  -9 2024.34  109.21
   0  -5   9 1840.80  112.47
   0  -5  -9 2084.90   86.69
   0   5  10  581.05   54.99
   0   5 -10  583.41   48.95
   0  -5  10  556.05   51.78
   0  -5 -10  571.67   37.05
   0  -5 -10  603.43   47.17
   0   5  11  908.32   66.29
   0   5 -11  888.69   63.25
   0  -5 -11  970.87   71.02
   0  -5 -11  928.87   54.05
   0  -5  11  952.54   77.71
   0   5  12  631.16   54.81
   0   5 -12  528.89   52.34
   0  -5  12  593.79   62.05
   0  -5 -12  571.28   41.82
   0  -5 -12  641.01   51.20
   0   5 -13  161.55   33.32
   0   5  13  267.85   34.76
   0  -5 -13  185.14   23.68
   0  -5  13  229.58   40.50
   0  -5 -13  216.80   31.26
   0   5 -14    3.62   21.30
   0  -5  14  -41.69   23.09
   0  -5 -14   -5.10   19.37
   0   5  15  188.55   43.10
   0   5 -15  105.32   34.14
   0  -5  15  161.63   41.82
   0  -5 -15  147.31   28.62
   0   5  16  -10.71   24.62
   0   5 -16  -12.99   23.26
   0  -5  16    6.52   28.59
   0  -5 -16    0.00   19.99
   0  -6   0   41.98    9.14
   0  -6   0   52.23    9.23
   0  -6   0   49.46    9.39
   0  -6   1 2747.06   83.74
   0  -6   1 2818.81   89.60
   0  -6   1 2851.93   74.11
   0  -6  -1 2698.49   79.90
   0  -6  -1 2800.92   85.35
   0  -6  -1 2818.32   87.46
   0   6   2 6202.11  181.38
   0   6  -2 6188.37  143.28
   0  -6   2 5902.83  205.53
   0  -6  -2 5873.52  200.31
   0  -6  -2 6001.00  173.47
   0  -6   2 5729.02  189.73
   0   6   314746.77  504.07
   0   6  -314699.41  559.31
   0   6  -313847.34  322.13
   0  -6  -314811.79  457.65
   0  -6   314129.68  519.06
   0  -6  -314393.01  568.02
   0   6   4 4716.42  161.26
   0   6  -4 5088.40  188.73
   0  -6   4 4909.70  185.72
   0  -6  -4 4974.33  143.42
   0  -6  -4 5016.98  195.01
   0   6   510760.37  410.82
   0   6  -510551.76  449.21
   0  -6  -511431.71  478.91
   0  -6  -510789.93  345.55
   0  -6   510709.52  457.71
   0   6   6 8473.28  338.75
   0   6  -6 9089.45  391.02
   0  -6   6 8864.96  393.75
   0  -6  -6 8884.37  291.06
   0  -6  -6 9664.11  414.55
   0   6   7  831.56   43.64
   0   6  -7  849.54   51.00
   0  -6   7  863.59   51.89
   0  -6  -7  834.61   32.61
   0  -6  -7  808.77   52.73
   0   6   8  429.18   31.29
   0   6  -8  416.85   33.77
   0  -6   8  340.90   36.41
   0  -6  -8  372.70   21.01
   0  -6  -8  409.93   35.75
   0   6  -9   97.71   22.71
   0   6   9   73.35   25.59
   0  -6  -9  109.01   22.40
   0  -6   9  110.37   25.59
   0  -6  -9  108.02   15.70
   0   6  10  409.07   45.67
   0   6 -10  475.60   44.58
   0  -6  10  439.74   48.49
   0  -6 -10  439.47   30.15
   0  -6 -10  381.45   38.21
   0   6  11   24.73   19.38
   0   6 -11    9.83   19.85
   0  -6  11   53.02   22.12
   0  -6 -11    3.04   14.54
   0  -6 -11   31.71   23.34
   0   6  12  115.92   28.79
   0   6 -12   97.23   29.40
   0  -6  12  192.12   33.23
   0  -6 -12  156.05   27.17
   0  -6 -12  110.39   21.82
   0   6  13  350.36   43.35
   0   6 -13  305.29   43.72
   0  -6  13  313.38   46.57
   0  -6 -13  366.09   40.73
   0   6  14   85.18   30.74
   0   6 -14  146.53   31.45
   0  -6  14   78.93   35.15
   0  -6 -14   68.20   33.68
   0   6  15  157.48   34.33
   0   6 -15  159.59   36.37
   0  -6  15  142.80   42.48
   0  -6 -15   98.16   30.72
   0  -7   0    0.60    7.89
   0  -7   0    3.84    7.86
   0  -7   0    4.35    8.35
   0  -7   1 3044.09   91.65
   0  -7   1 3149.36  114.30
   0  -7   1 2875.32   97.31
   0  -7  -1 2910.25   94.40
   0  -7  -1 2915.60   91.55
   0  -7  -1 2909.04  105.64
   0   7  -2  275.78   13.35
   0   7   2  288.62   15.55
   0  -7   2  342.15   26.35
   0  -7  -2  247.66   20.41
   0  -7   2  265.65   22.91
   0  -7  -2  303.50   15.52
   0   7  -3 7307.91  279.83
   0   7   3 7430.27  245.06
   0   7  -3 6827.50  165.38
   0  -7   3 7171.05  263.82
   0  -7  -3 7224.75  283.01
   0  -7  -3 7497.99  231.25
   0   7   4 1384.63   50.58
   0   7  -4 1288.26   27.98
   0   7  -4 1309.66   61.08
   0  -7  -4 1500.07   50.10
   0  -7   4 1376.74   58.26
   0  -7  -4 1406.81   63.79
   0   7  -5 2494.47  107.16
   0   7   5 2150.37   88.54
   0  -7  -5 2344.09   77.10
   0  -7   5 2525.41  114.35
   0  -7  -5 2545.80  108.30
   0   7   6 4665.64  185.92
   0   7  -6 4660.00  209.29
   0  -7   6 4617.30  208.05
   0  -7  -6 4348.72  153.16
   0  -7  -6 4810.55  213.90
   0   7   7 1075.64   59.51
   0   7  -7 1164.91   64.60
   0  -7  -7 1188.94   67.52
   0  -7  -7 1104.92   42.06
   0  -7   7 1093.69   66.59
   0   7   8  603.07   40.27
   0   7  -8  565.51   47.09
   0  -7   8  581.61   47.28
   0  -7  -8  607.40   30.90
   0  -7  -8  587.26   53.69
   0   7   9 1460.54   81.82
   0   7  -9 1549.73   96.91
   0  -7  -9 1406.66   91.07
   0  -7  -9 1456.42   64.68
   0  -7   9 1510.15   90.53
   0   7  10  158.59   25.90
   0   7 -10   90.44   29.36
   0  -7  10  216.23   31.12
   0  -7 -10  128.29   28.01
   0  -7 -10  151.44   18.67
   0   7  11  267.12   35.91
   0   7 -11  212.27   37.06
   0  -7  11  289.76   40.78
   0  -7 -11  248.87   24.90
   0  -7 -11  264.76   35.47
   0   7 -12   94.72   27.17
   0   7  12   96.73   31.48
   0  -7 -12   97.87   26.76
   0  -7  12   72.79   38.43
   0   7  13   99.83   28.25
   0   7 -13   95.89   30.07
   0  -7  13  150.23   35.27
   0  -7 -13  154.96   34.43
   0   7  14  150.23   32.54
   0   7 -14  192.34   38.47
   0  -7  14  232.99   42.39
   0  -7 -14  162.44   33.56
   0   7  15  277.54   43.16
   0   7 -15  252.34   47.83
   0  -7  15  292.65   52.45
   0  -7 -15  247.98   42.03
   0  -8   0  335.52   19.95
   0  -8   0  331.79   24.50
   0  -8   0  328.37   20.90
   0  -8   1  507.78   21.61
   0  -8   1  483.06   25.24
   0  -8   1  513.83   29.10
   0  -8  -1  456.09   26.94
   0  -8  -1  524.88   28.87
   0  -8  -1  459.93   31.13
   0   8  -2 1619.66   49.20
   0  -8   2 1700.36   65.47
   0  -8  -2 1724.60   69.90
   0  -8   2 1691.21   69.98
   0  -8  -2 1707.87   58.89
   0   8   3 2004.86   76.82
   0   8  -3 2495.47  102.65
   0   8  -3 2355.88   60.26
   0  -8  -3 2368.68   80.71
   0  -8   3 2332.17   91.05
   0  -8  -3 2371.92   97.25
   0   8   4  807.05   35.57
   0   8  -4  784.42   45.55
   0   8  -4  798.80   22.03
   0  -8   4  847.62   48.71
   0  -8  -4  819.23   45.60
   0  -8  -4  764.31   30.22
   0   8   5  182.01   16.24
   0   8  -5  159.87    6.85
   0   8  -5  159.86   23.32
   0  -8  -5  180.09   16.33
   0  -8   5  183.41   21.66
   0  -8  -5  187.98   23.31
   0   8   6 3034.23  127.47
   0   8  -6 3266.28  152.67
   0  -8   6 3438.35  165.18
   0  -8  -6 3267.63  166.55
   0  -8  -6 3061.75  105.81
   0   8  -7 1370.57   75.15
   0   8   7 1248.41   67.84
   0  -8  -7 1241.73   52.82
   0  -8   7 1289.62   77.78
   0  -8  -7 1312.25   74.47
   0   8   8  680.00   43.08
   0   8  -8  737.33   65.43
   0  -8   8  773.37   58.58
   0  -8  -8  672.97   49.93
   0  -8  -8  658.68   31.17
   0   8   9   49.25   19.35
   0   8  -9  113.67   24.21
   0  -8   9   37.42   31.44
   0  -8  -9   63.49   22.63
   0  -8  -9   55.30   14.15
   0   8  10  157.77   30.00
   0   8 -10  182.99   29.30
   0  -8  10  157.87   36.89
   0  -8 -10   98.05   29.01
   0  -8 -10  115.29   18.16
   0   8  11  678.04   55.68
   0   8 -11  842.30   68.02
   0  -8  11  759.47   68.39
   0  -8 -11  688.48   44.18
   0  -8 -11  757.05   62.24
   0   8  12  213.65   42.80
   0   8 -12  268.19   43.61
   0  -8  12  267.41   47.03
   0  -8 -12  353.87   41.65
   0   8  13  647.94   61.70
   0   8 -13  680.53   74.45
   0  -8  13  559.90   75.40
   0  -8 -13  704.92   73.62
   0   8  14   79.50   28.80
   0   8 -14   64.69   31.83
   0  -8  14   78.02   37.30
   0  -8 -14  102.53   28.77
   0   8  15   24.59   38.96
   0   8 -15  138.62   36.75
   0  -8  15  118.09   39.35
   0  -8 -15   93.82   29.63
   0  -9   0    1.74    9.34
   0  -9   0    3.62   11.38
   0  -9   0    3.13   11.14
   0  -9   1  626.97   33.93
   0  -9   1  708.10   29.76
   0  -9   1  689.28   35.38
   0  -9  -1  651.36   33.99
   0  -9  -1  665.34   31.65
   0  -9  -1  630.39   32.31
   0   9  -2  160.77   13.07
   0  -9   2  166.42   18.44
   0  -9  -2  137.66   18.32
   0  -9   2  161.09   16.99
   0  -9  -2  147.45   18.34
   0  -9  -2  164.07   14.77
   0   9   3  592.33   32.00
   0   9  -3  571.26   35.87
   0   9  -3  555.56   20.85
   0  -9   3  547.77   33.66
   0  -9  -3  557.39   26.33
   0  -9  -3  528.43   34.81
   0   9   4 2361.64   92.56
   0   9  -4 2256.41  103.26
   0  -9   4 2257.28   98.16
   0  -9  -4 2201.06   83.39
   0  -9  -4 2289.06  108.61
   0   9   5  305.31   25.82
   0   9  -5  265.32   10.11
   0   9  -5  274.05   29.51
   0  -9  -5  298.80   17.60
   0  -9   5  287.44   27.86
   0  -9  -5  326.48   29.94
   0   9   6 3262.39  145.56
   0   9  -6 3438.40  169.84
   0  -9   6 3147.61  157.07
   0  -9  -6 3218.77  124.04
   0  -9  -6 3112.89  163.97
   0   9   7  613.96   38.32
   0   9  -7  615.91   51.77
   0  -9   7  661.15   49.12
   0  -9  -7  605.71   50.07
   0  -9  -7  577.69   33.29
   0   9   8 1087.19   63.25
   0   9  -8 1212.30   82.28
   0  -9   8 1205.91   78.24
   0  -9  -8 1354.92   83.27
   0  -9  -8 1065.77   49.87
   0   9   9  616.77   46.12
   0   9  -9  633.23   60.48
   0  -9   9  707.98   57.20
   0  -9  -9  573.47   35.94
   0  -9  -9  666.19   55.13
   0   9 -10 1285.98   94.90
   0   9  10 1156.67   86.24
   0  -9 -10 1036.87   55.01
   0  -9  10 1286.93   92.72
   0  -9 -10 1200.99   84.85
   0   9  11  228.13   35.70
   0   9 -11  286.11   40.84
   0  -9  11  344.32   43.66
   0  -9 -11  255.99   39.06
   0   9  12  255.30   47.94
   0   9 -12  412.37   49.13
   0  -9  12  339.86   52.51
   0  -9 -12  371.84   45.46
   0   9  13   12.70   20.17
   0   9 -13  -10.54   22.77
   0  -9  13   17.38   26.54
   0  -9 -13   -2.97   26.00
   0   9  14   93.63   28.54
   0   9 -14   75.95   34.06
   0  -9  14  125.44   38.54
   0  -9 -14   75.08   31.50
   0 -10   0 1195.33   52.18
   0 -10   0 1212.45   59.03
   0 -10   0 1164.85   54.05
   0 -10   1 1271.01   54.66
   0 -10   1 1165.01   54.53
   0 -10   1 1310.43   60.88
   0 -10  -1 1143.01   51.67
   0 -10  -1 1144.95   50.65
   0 -10  -1 1207.53   56.83
   0  10  -2  989.35   39.42
   0 -10   2 1073.32   52.56
   0 -10   2  973.46   50.18
   0 -10  -2  984.09   51.41
   0 -10  -2 1045.55   51.90
   0 -10  -2  946.76   45.47
   0  10  -3  752.45   46.14
   0  10   3  770.98   39.43
   0  10  -3  696.06   27.99
   0 -10   3  715.20   41.45
   0 -10  -3  683.95   44.82
   0 -10  -3  809.97   40.70
   0  10   4  518.75   30.63
   0  10  -4  526.78   45.45
   0  10  -4  489.93   18.04
   0 -10   4  484.32   35.48
   0 -10  -4  502.35   44.65
   0 -10  -4  524.10   25.70
   0  10   5  294.66   27.48
   0  10  -5  333.72   30.75
   0 -10   5  317.75   30.19
   0 -10  -5  256.31   19.07
   0 -10  -5  269.88   30.48
   0  10   6  141.30   20.24
   0  10  -6  134.57   24.60
   0 -10   6   80.21   23.48
   0 -10  -6   77.64   23.89
   0 -10  -6   94.17   15.15
   0  10   7  467.37   33.78
   0  10  -7  499.78   46.79
   0 -10   7  547.23   46.99
   0 -10  -7  555.91   46.30
   0 -10  -7  460.73   29.34
   0  10   8  600.22   40.44
   0  10  -8  760.92   54.17
   0 -10  -8  559.28   35.42
   0 -10  -8  567.83   53.89
   0 -10   8  638.16   54.98
   0  10   9  320.33   31.30
   0  10  -9  327.04   43.07
   0 -10   9  328.64   40.17
   0 -10  -9  256.01   24.92
   0 -10  -9  252.14   40.05
   0  10 -10  128.29   33.98
   0  10  10  169.13   32.19
   0 -10 -10  161.80   39.00
   0 -10  10  108.46   34.40
   0  10  11   90.54   26.23
   0  10 -11  180.46   34.60
   0 -10  11  124.20   42.04
   0 -10 -11   93.78   29.96
   0  10 -12   63.43   28.81
   0  10  12   57.20   22.41
   0 -10 -12   80.42   34.04
   0 -10  12   10.60   30.58
   0  10 -13  509.75   64.80
   0  10  13  443.27   48.20
   0 -10 -13  447.77   60.60
   0 -10  13  487.12   66.35
   0  10  14   60.72   26.19
   0  10 -14   36.42   30.31
   0 -10  14  117.81   39.47
   0 -10 -14   -2.44   29.57
   0 -11   0    5.40   14.76
   0 -11   0   -1.95   11.25
   0 -11   0  -11.79   11.35
   0 -11   1  143.79   16.17
   0 -11   1  144.99   21.65
   0 -11   1  164.82   23.92
   0 -11  -1  136.54   19.23
   0 -11  -1  135.20   17.17
   0 -11  -1   96.15   20.62
   0  11  -2  515.23   27.31
   0 -11   2  496.49   37.20
   0 -11  -2  537.41   35.67
   0 -11  -2  489.08   30.32
   0 -11   2  451.43   35.12
   0 -11  -2  461.24   31.12
   0  11   3  114.96   15.00
   0  11  -3   79.61   12.32
   0  11  -3  146.29   21.49
   0 -11  -3   89.88   19.93
   0 -11   3  129.26   19.30
   0 -11  -3  121.43   16.19
   0  11   4  327.42   26.26
   0  11  -4  335.96   16.97
   0  11  -4  411.69   34.39
   0 -11   4  361.99   30.96
   0 -11  -4  317.29   41.58
   0 -11  -4  343.86   23.70
   0  11   5 4581.50  199.35
   0  11  -5 4597.88  234.79
   0 -11   5 4270.71  217.92
   0 -11  -5 4308.82  227.81
   0 -11  -5 4163.34  170.72
   0  11   6  294.56   25.97
   0  11  -6  275.69   34.52
   0 -11  -6  294.98   37.30
   0 -11  -6  287.98   19.99
   0 -11   6  294.17   34.66
   0  11   7   29.31   14.85
   0  11  -7   20.52   21.64
   0 -11   7  104.12   21.73
   0 -11  -7   38.51   13.74
   0 -11  -7    1.75   21.74
   0  11   8  142.36   22.17
   0  11  -8  106.72   29.36
   0 -11  -8  114.63   17.19
   0 -11  -8  125.93   30.77
   0 -11   8  134.93   28.77
   0  11   9  417.16   39.24
   0  11  -9  539.76   56.12
   0 -11   9  568.49   52.25
   0 -11  -9  537.58   55.84
   0  11  10  211.61   30.16
   0  11 -10  208.44   42.47
   0 -11  10  239.03   39.62
   0 -11 -10  236.45   39.08
   0  11 -11  296.63   52.66
   0  11  11  359.85   46.71
   0 -11 -11  386.17   49.75
   0 -11  11  384.18   49.27
   0  11 -12   25.47   32.86
   0  11  12   64.51   29.60
   0 -11 -12   37.88   30.33
   0 -11  12  113.43   32.30
   0  11 -13  136.65   40.23
   0  11  13   79.69   36.44
   0 -11 -13  111.28   36.33
   0 -11  13  177.43   47.39
   0 -12   0  402.64   31.78
   0 -12   0  457.60   32.14
   0 -12   0  428.17   34.90
   0 -12   1  513.63   37.29
   0 -12   1  463.45   33.92
   0 -12  -1  414.43   32.65
   0 -12  -1  498.27   38.61
   0 -12  -1  457.53   40.08
   0  12  -2   71.75   14.34
   0 -12   2   74.49   23.39
   0 -12   2  120.79   20.55
   0 -12  -2   75.13   19.94
   0 -12  -2  106.84   16.48
   0  12  -3 1632.17   88.86
   0  12   3 1556.43   71.40
   0  12  -3 1526.83   60.86
   0 -12   3 1442.53   81.24
   0 -12  -3 1491.11   68.33
   0 -12  -3 1471.05   86.99
   0  12   4   70.82   18.82
   0  12  -4   43.53    9.81
   0  12  -4   84.31   20.26
   0 -12   4   64.91   19.29
   0 -12  -4   77.27   17.38
   0 -12  -4   71.22   26.15
   0  12   5  282.51   27.76
   0  12  -5  199.61   30.90
   0 -12   5  194.64   28.79
   0 -12  -5  152.36   30.74
   0 -12  -5  203.70   20.36
   0  12   6  741.95   46.94
   0  12  -6  739.65   73.72
   0 -12   6  807.04   69.70
   0 -12  -6  751.19   43.41
   0 -12  -6  712.74   60.54
   0  12   7  751.87   52.14
   0  12  -7  943.20   70.91
   0 -12   7  997.99   70.86
   0 -12  -7 1020.19   73.92
   0 -12  -7  843.05   46.15
   0  12  -8  191.03   33.16
   0  12   8  169.42   27.33
   0 -12  -8   99.29   19.84
   0 -12   8  168.23   31.55
   0 -12  -8  171.14   30.80
   0  12   9   95.23   20.47
   0  12  -9   98.78   31.12
   0 -12   9   58.93   29.25
   0 -12  -9   79.84   28.51
   0  12  10  229.70   30.61
   0  12 -10  236.40   46.01
   0 -12  10  262.31   42.21
   0 -12 -10  290.71   51.04
   0  12 -11  729.40   72.60
   0  12  11  673.51   59.13
   0 -12 -11  718.32   77.55
   0 -12  11  732.13   74.07
   0  12  12  186.94   40.20
   0  12 -12  317.20   55.94
   0 -12  12  201.48   46.88
   0 -12 -12  177.98   44.81
   0  12  13  188.27   39.11
   0  12 -13  251.73   52.51
   0 -12  13  364.46   63.55
   0 -12 -13  292.33   48.45
   0 -13   0   -1.92   14.16
   0 -13   0   15.21   15.91
   0 -13   0   16.92   16.04
   0  13  -1  978.12   52.01
   0 -13   1  884.49   60.15
   0 -13   1  811.15   54.43
   0 -13  -1  823.70   52.81
   0 -13  -1  964.65   64.27
   0 -13  -1  948.88   64.10
   0  13   2 1627.24   76.40
   0  13  -2 1497.56   82.90
   0  13  -2 1960.98   79.90
   0 -13   2 1859.32  100.00
   0 -13  -2 1911.74  100.15
   0 -13  -2 1990.46   94.53
   0  13   3  964.65   53.79
   0  13  -3 1142.03   80.14
   0  13  -3  859.71   44.56
   0 -13   3  955.18   62.95
   0 -13  -3  890.76   50.79
   0 -13  -3  999.25   62.50
   0  13  -4  402.47   22.58
   0  13   4  402.52   32.72
   0  13  -4  395.53   42.51
   0 -13   4  402.33   37.33
   0 -13  -4  384.73   28.52
   0 -13  -4  408.20   47.76
   0  13   5 1881.89  103.61
   0  13  -5 2101.95  127.63
   0 -13  -5 2074.78   99.93
   0 -13  -5 2165.86  140.87
   0 -13   5 2076.38  122.91
   0  13  -6  337.52   40.57
   0  13   6  339.92   29.92
   0 -13  -6  248.57   23.33
   0 -13   6  274.75   36.40
   0 -13  -6  315.49   41.38
   0  13   7  122.81   20.38
   0  13  -7  117.11   29.39
   0 -13   7   95.45   26.68
   0 -13  -7   96.24   37.83
   0 -13  -7   90.76   18.90
   0  13  -8    2.39   24.36
   0  13   8   60.64   20.49
   0 -13  -8   25.49   31.48
   0 -13   8   -4.06   27.49
   0  13  -9  327.04   54.01
   0  13   9  255.95   31.36
   0 -13  -9  245.06   44.30
   0 -13   9  278.51   44.28
   0  13  10  113.93   32.47
   0  13 -10  146.08   39.50
   0 -13  10  210.15   36.58
   0 -13 -10  142.24   36.65
   0  13  11   53.69   23.11
   0  13 -11    5.54   33.63
   0 -13  11   93.55   31.77
   0 -13 -11   90.00   30.55
   0  13 -12  141.29   40.64
   0  13  12  106.87   35.23
   0 -13 -12   86.94   47.30
   0 -13  12  151.76   40.08
   0 -14   0 2716.11  144.13
   0 -14   0 2920.88  147.95
   0 -14   0 2849.85  166.69
   0  14  -1  629.12   40.03
   0 -14   1  667.74   48.65
   0 -14   1  715.36   58.60
   0 -14  -1  638.19   56.41
   0 -14  -1  615.96   52.62
   0 -14  -1  716.85   53.22
   0  14   2 1445.36   79.73
   0  14  -2 1598.13  102.15
   0  14  -2 1386.12   71.81
   0 -14  -2 1400.90   88.79
   0 -14   2 1428.16   85.07
   0 -14  -2 1403.47   91.35
   0  14  -3  396.26   27.76
   0  14   3  419.09   33.69
   0  14  -3  411.11   44.51
   0 -14   3  402.36   39.94
   0 -14  -3  420.70   39.23
   0 -14  -3  445.16   33.18
   0  14   4   91.04   21.12
   0  14  -4  214.96   29.24
   0 -14   4  165.74   26.05
   0 -14  -4  174.29   20.36
   0 -14  -4  186.45   33.80
   0  14  -5  628.46   55.37
   0  14   5  609.17   49.23
   0 -14  -5  621.90   66.11
   0 -14   5  572.55   61.02
   0 -14  -5  550.87   43.56
   0  14   6  290.14   36.31
   0  14  -6  331.06   42.65
   0 -14   6  301.26   38.67
   0 -14  -6  252.11   43.28
   0 -14  -6  275.05   29.73
   0  14   7  675.14   57.76
   0  14  -7  726.94   64.19
   0 -14   7  659.48   62.36
   0 -14  -7  718.36   71.44
   0  14   8   30.28   19.05
   0  14  -8   70.90   27.95
   0 -14   8   38.49   25.68
   0 -14  -8   69.07   27.66
   0  14   9    5.52   15.29
   0  14  -9    8.31   30.21
   0 -14   9    2.03   21.49
   0 -14  -9  -16.67   22.86
   0  14  10   82.28   25.84
   0  14 -10  121.79   39.91
   0 -14  10  183.29   37.12
   0 -14 -10  176.55   39.44
   0  14 -11  368.63   64.71
   0 -14  11  441.79   58.29
   0 -14 -11  373.39   58.81
   0  15   0    2.11   13.57
   0 -15   0    3.73   15.57
   0 -15   0    2.62   16.75
   0  15  -1   12.92   14.14
   0  15  -1    4.48   13.18
   0 -15  -1  -13.97   21.03
   0 -15   1   16.60   19.61
   0 -15  -1   91.39   21.78
   0 -15  -1   26.76   15.59
   0  15   2  187.49   25.54
   0  15  -2  209.86   30.44
   0  15  -2  193.21   21.16
   0 -15   2  124.38   26.94
   0 -15  -2  234.06   27.77
   0 -15  -2  217.28   29.13
   0  15   3   57.52   21.42
   0  15  -3   40.82   14.23
   0  15  -3   19.28   23.91
   0 -15  -3  101.37   21.93
   0 -15   3   45.48   25.93
   0 -15  -3   68.25   22.66
   0  15   4  482.93   44.99
   0  15  -4  485.86   50.70
   0 -15   4  372.12   43.67
   0 -15  -4  426.92   35.67
   0 -15  -4  417.35   56.61
   0  15   5  504.03   49.44
   0  15  -5  507.45   56.41
   0 -15   5  467.64   60.26
   0 -15  -5  593.78   63.79
   0 -15  -5  483.91   42.48
   0  15   6  137.06   31.30
   0  15  -6  173.30   45.68
   0 -15   6  205.80   31.90
   0 -15  -6  153.03   24.51
   0 -15  -6  154.09   35.84
   0  15  -7  180.07   39.77
   0 -15   7  177.75   36.13
   0 -15  -7  267.64   39.99
   0  15  -8  708.40   71.21
   0  15   8  620.27   61.37
   0 -15  -8  643.89   72.60
   0 -15   8  705.92   70.29
   0  15   9  239.86   37.74
   0  15  -9  259.01   47.53
   0 -15   9  223.09   43.65
   0 -15  -9  205.17   45.12
   0  15 -10  129.85   46.58
   0 -15  10  182.42   41.33
   0 -15 -10  192.01   42.35
   0  16   0 1180.28   73.15
   0 -16   0 1181.39   80.40
   0 -16   0 1268.10   86.12
   0  16  -1  156.74   33.56
   0  16  -1  126.09   22.05
   0 -16  -1  126.59   31.34
   0 -16   1  220.52   30.68
   0 -16  -1  139.75   30.27
   0  16   2  181.70   30.50
   0  16  -2  142.12   23.69
   0  16  -2  163.33   31.56
   0 -16  -2  182.99   28.08
   0 -16   2  144.14   26.02
   0 -16  -2  228.62   30.36
   0  16   3  441.12   41.76
   0  16  -3  559.38   61.95
   0 -16   3  500.93   47.26
   0 -16  -3  556.00   50.51
   0 -16  -3  519.99   42.21
   0  16   4  218.35   28.35
   0  16  -4  227.59   35.51
   0 -16   4  180.05   32.36
   0 -16  -4  169.28   40.65
   0 -16  -4  185.46   25.81
   0  16   5   70.00   21.77
   0  16  -5   79.82   29.07
   0 -16   5   93.23   26.59
   0 -16  -5   70.63   29.51
   0 -16  -5   84.81   22.10
   0  16   6   87.64   27.42
   0  16  -6  131.15   33.93
   0 -16   6   91.41   29.14
   0 -16  -6   99.17   32.06
   0  16   7  732.96   58.56
   0  16  -7  797.23   77.28
   0 -16   7  697.61   72.28
   0 -16  -7  712.41   80.54
   0  16  -8   -2.52   24.63
   0 -16   8   -4.80   22.31
   0 -16  -8    9.54   24.30
   0  16  -9   48.27   34.75
   0 -16   9   25.71   29.84
   0 -16  -9   95.12   32.97
   0  17   0   -1.41   17.02
   0  17   0   -9.48   14.32
   0 -17   0    5.50   16.62
   0  17   1  166.10   28.50
   0  17  -1  154.52   24.90
   0  17  -1  209.68   33.62
   0 -17   1  196.92   30.12
   0 -17  -1  266.28   37.08
   0 -17  -1  195.72   30.47
   0  17   2  236.60   36.83
   0  17  -2  279.35   37.64
   0 -17   2  246.14   33.53
   0 -17  -2  273.89   37.56
   0 -17  -2  222.77   38.77
   0  17  -3  132.63   30.88
   0  17   3  129.27   24.39
   0 -17  -3  125.88   30.85
   0 -17   3  109.18   28.02
   0 -17  -3  179.16   31.19
   0  17   4  573.41   50.90
   0  17  -4  563.05   62.19
   0 -17   4  575.94   58.01
   0 -17  -4  585.86   54.67
   0 -17  -4  578.79   69.59
   0  17   5  121.91   31.66
   0  17  -5  129.30   40.52
   0 -17   5  148.43   30.39
   0 -17  -5  118.34   33.76
   0  17  -6  144.38   40.36
   0  17   6  205.94   28.61
   0 -17  -6  123.84   47.49
   0 -17   6  169.85   36.98
   0  17  -7   73.72   35.57
   0 -17   7   98.11   32.55
   0 -17  -7  142.89   35.86
   0  17  -8  220.97   47.51
   0 -17   8  249.11   43.16
   0 -17  -8  221.76   46.65
   0  18   0  128.03   27.23
   0  18   0  229.82   38.84
   0 -18   0  177.73   31.07
   0  18   1   96.11   24.75
   0  18   1   69.21   23.28
   0  18   1   87.10   21.80
   0  18  -1   46.19   34.54
   0 -18   1  101.42   25.38
   0  18   2  557.30   50.30
   0  18   2  522.74   51.47
   0  18  -2  549.47   57.84
   0 -18   2  560.48   61.80
   0 -18  -2  500.70   60.18
   0  18   3   40.55   25.38
   0  18  -3   55.48   25.02
   0 -18   3   63.05   22.65
   0 -18  -3   27.58   21.10
   0 -18  -3   38.40   26.21
   0  18  -4  153.41   38.55
   0 -18   4  163.39   41.05
   0 -18  -4  143.82   36.16
   0  18  -5  132.36   41.42
   0 -18   5   70.76   28.77
   0 -18  -5   85.69   39.92
   0  18  -6  208.65   43.58
   0 -18   6  201.26   39.70
   0 -18  -6  230.40   55.68
   0  19   0   -4.61   24.05
   0 -19   0   26.80   19.66
   0  19  -1   94.90   27.53
   0  19   1   73.79   24.09
   0  19   1   56.14   30.08
   0 -19   1   71.79   26.11
   0  19   2  529.46   61.84
   0  19  -2  650.94   62.46
   0 -19   2  526.85   57.21
   0  19   3   54.48   30.84
   0  19  -3  138.47   33.27
   0 -19   3   57.17   28.57
   0  19  -4  480.93   71.76
   0 -19   4  340.14   51.23
  -1   0  17   72.51   34.78
   1   0 -16   94.16   37.38
  -1   0  16  209.53   46.07
   1   0 -15   33.52   27.20
  -1   0  15   29.19   27.50
   1   0 -14   15.49   25.50
   1   0 -14   50.41   14.23
  -1   0  14   33.25   25.98
   1   0 -13  101.63   19.68
   1   0 -13   91.43   28.40
  -1   0  13   71.21   28.28
   1   0 -12   32.13   14.69
   1   0 -12   -2.11   20.93
  -1   0  12   21.39   20.32
   1   0 -11  320.34   24.64
   1   0 -11  216.90   29.96
  -1   0  11  221.22   33.79
   1   0 -10  718.45   44.14
   1   0 -10  723.71   33.66
  -1   0  10  684.24   50.55
   1   0  -9 3449.08  130.21
   1   0  -9 3428.83  146.42
  -1   0   9 3493.15  170.59
   1   0  -8    7.74   12.00
   1   0  -8   12.61    9.77
  -1   0   8   21.94   13.31
   1   0  -7   97.66   10.64
   1   0  -7  115.41   14.55
  -1   0   7  108.21   16.94
   1   0  -6 1826.41   65.53
   1   0  -6 1849.67   54.27
  -1   0   6 1883.21   70.16
   1   0  -5 1503.99   51.19
   1   0  -5 1514.36   40.93
  -1   0   5 1558.25   52.80
   1   0  -4  576.66   23.72
   1   0  -4  522.55   18.47
  -1   0   4  512.19   23.04
   1   0  -3  691.09   23.22
   1   0  -3  647.09   16.51
  -1   0   3  673.62   21.28
   1   0  -2  435.72   13.02
   1   0  -2  400.99   10.78
  -1   0   2  456.57   11.96
  -1   0   2  402.49    9.66
  -1   0   2  392.25    9.68
   1   0   2 4534.19  109.30
  -1   0  -2 4483.10   79.02
  -1   0  -2 4495.46   97.57
   1   0   3 8462.93  240.63
  -1   0  -3 8569.43  207.05
  -1   0  -3 8275.34  183.88
   1   0   4  487.27   25.72
  -1   0  -4  520.22   19.54
  -1   0  -4  495.54   18.63
   1   0   5   90.82   15.98
  -1   0  -5  116.01   10.75
  -1   0  -5  123.40   11.90
   1   0   6 3775.72  149.68
  -1   0  -6 3575.60  108.77
  -1   0  -6 3830.69  118.04
   1   0   7 6980.96  291.48
  -1   0  -7 6765.39  237.84
  -1   0  -7 6523.09  228.08
   1   0   8 2638.05  128.43
  -1   0  -8 2696.94  105.43
  -1   0  -8 2745.07  107.70
   1   0   9 2680.41  141.16
  -1   0  -9 2706.73  105.28
  -1   0  -9 2788.12  117.10
   1   0  10   81.51   23.82
  -1   0 -10   71.41   15.16
  -1   0 -10   68.84   16.90
   1   0  11   46.02   24.95
  -1   0 -11   28.59   17.30
  -1   0 -11   64.94   16.24
   1   0  12  218.19   41.40
  -1   0 -12  262.52   29.13
  -1   0 -12  289.14   33.76
   1   0  13  -10.55   24.62
  -1   0 -13  -14.52   14.95
  -1   0 -13   25.00   13.34
   1   0  14  103.34   38.12
  -1   0 -14   54.75   16.31
  -1   0 -14   66.04   25.46
   1   0  15  167.24   46.21
  -1   0 -15   79.73   28.22
   1   0  16    4.77   27.46
   1   1 -17   76.34   27.25
  -1   1  17   62.19   35.76
  -1  -1  17   97.01   37.07
   1   1 -16  110.89   32.09
  -1   1  16  173.64   38.70
   1  -1 -16  182.75   39.11
  -1  -1  16  175.10   38.51
  -1   1  15  242.35   44.14
   1   1 -15  194.49   32.77
   1  -1 -15  183.76   24.25
  -1  -1  15  193.88   41.02
   1  -1 -15  116.65   35.90
   1   1 -14   60.07   28.10
  -1   1  14  118.49   27.41
   1  -1 -14   43.23   16.94
   1  -1 -14   31.81   20.61
  -1  -1  14   91.64   27.91
   1   1 -13   86.44   14.07
  -1   1  13   97.29   27.98
   1   1 -13   93.46   22.37
   1  -1 -13   58.88   15.79
  -1  -1  13   82.97   26.80
   1  -1 -13  106.71   22.10
   1   1 -12   81.41   22.65
   1   1 -12   71.75   16.77
  -1   1  12  151.31   27.44
   1  -1 -12  158.52   26.53
   1  -1 -12   73.64   17.06
  -1  -1  12  166.20   33.33
   1   1 -11 1614.16   89.70
  -1   1  11 1806.59  113.00
   1   1 -11 1727.01   70.16
   1  -1 -11 1612.25   73.63
   1  -1 -11 1595.94   86.38
  -1  -1  11 1637.63   97.13
   1   1 -10  728.46   43.95
   1   1 -10  712.79   31.42
  -1   1  10  766.06   52.00
   1  -1 -10  769.48   42.41
   1  -1 -10  686.92   41.44
  -1  -1  10  775.63   59.43
   1   1  -9  359.75   21.55
   1   1  -9  346.83   28.60
  -1   1   9  414.87   32.45
   1  -1  -9  400.95   26.70
   1  -1  -9  396.01   23.37
  -1  -1   9  377.36   30.94
   1   1  -8  626.70   26.04
  -1   1   8  597.31   41.69
   1   1  -8  568.34   35.00
   1  -1  -8  587.98   32.20
   1  -1  -8  567.10   28.12
  -1  -1   8  582.04   36.86
   1   1  -7 4261.68  157.49
  -1   1   7 4329.12  158.67
   1   1  -7 4277.45  122.74
   1  -1  -7 4173.04  148.52
   1  -1  -7 4145.96  145.15
  -1  -1   7 4206.70  163.23
   1   1  -6 2095.59   55.66
   1   1  -6 1939.07   73.03
  -1   1   6 1960.03   72.84
   1  -1  -6 2004.54   69.65
   1  -1  -6 2354.72   71.50
  -1  -1   6 1993.22   77.07
   1   1  -5 3647.78   83.94
   1   1  -5 3597.53  114.06
  -1   1   5 3524.27  106.38
   1  -1  -5 3705.80  108.33
  -1  -1   5 3705.27  117.21
   1  -1  -5 3636.03  108.62
  -1   1   4 1385.07   40.60
   1   1  -4 1460.30   46.23
   1  -1  -4 1490.62   45.58
   1  -1  -4 1420.76   43.65
  -1  -1   4 1434.33   46.69
   1   1  -324143.29  685.08
   1   1  -323812.29  440.67
  -1   1   324092.27  603.02
   1  -1  -324842.97  670.59
   1  -1  -324364.75  645.05
  -1  -1   323415.52  463.96
  -1  -1   325522.35  706.74
  -1   1   2 4519.70   72.57
   1   1  -2 4410.83   93.70
   1  -1  -2 4612.06   91.52
  -1  -1   2 4592.82   55.78
   1  -1  -2 4711.15   92.70
  -1  -1   2 4545.44   91.39
   1   1   1 1121.41   23.87
  -1   1  -1 1106.14   20.91
  -1   1  -1 1027.04   19.98
   1  -1   1 1052.06   22.24
  -1  -1  -1 1042.82   24.25
   1  -1   1 1022.66   21.59
   1   1   2  883.43   29.08
  -1   1  -2  969.64   22.80
  -1   1  -2  966.49   22.94
   1  -1   2  947.62   29.16
  -1  -1  -2  945.09   25.88
  -1  -1  -2  906.13   14.74
   1   1   3 4623.10  133.28
  -1   1  -3 4708.29  111.47
  -1   1  -3 4559.06  101.54
  -1  -1  -3 4472.92   88.66
   1  -1   3 4441.96  128.34
  -1  -1  -3 4742.37  123.33
   1   1   4 1797.67   61.46
  -1   1  -4 1866.11   45.42
  -1   1  -4 1810.69   49.98
   1  -1   4 1703.12   61.59
  -1  -1  -4 1838.22   55.14
  -1  -1  -4 1700.25   42.36
   1   1   5 4441.95  159.07
  -1   1  -5 4386.32  116.47
  -1   1  -5 4423.85  133.29
   1  -1   5 4582.05  160.39
  -1  -1  -5 4527.53  141.59
  -1  -1  -5 4437.83  119.45
   1   1   6 1138.37   54.70
  -1   1  -6 1094.52   46.78
  -1   1  -6 1101.73   39.11
   1  -1   6  995.47   52.53
  -1  -1  -6 1181.57   47.86
  -1  -1  -6 1048.06   37.92
   1   1   7  656.37   40.62
  -1   1  -7  666.95   29.06
  -1   1  -7  680.39   34.62
   1  -1   7  780.07   42.05
  -1  -1  -7  698.25   28.19
  -1  -1  -7  692.63   35.67
   1   1   8   16.62   16.45
  -1   1  -8    9.44    8.84
  -1   1  -8   37.29   10.96
   1  -1   8   28.86   16.60
  -1  -1  -8   24.03   13.33
  -1  -1  -8   28.91    9.96
  -1   1  -9 7218.62  314.07
   1   1   9 7299.37  360.33
  -1   1  -9 7309.26  282.15
   1  -1   9 7339.13  373.91
  -1  -1  -9 7315.66  311.14
  -1  -1  -9 7156.60  286.88
   1   1  10 1215.48   78.86
  -1   1 -10 1108.23   57.71
  -1   1 -10 1101.35   54.16
  -1  -1 -10 1189.57   64.33
   1  -1  10 1160.04   82.55
  -1  -1 -10 1199.84   63.11
   1   1  11  362.46   41.83
  -1   1 -11  334.98   24.07
  -1   1 -11  338.12   30.77
   1  -1  11  370.96   44.54
  -1  -1 -11  318.34   28.14
  -1  -1 -11  301.14   32.87
  -1   1 -12  407.65   31.89
   1   1  12  409.32   48.79
  -1   1 -12  397.93   34.80
   1  -1  12  425.97   48.48
  -1  -1 -12  363.50   33.54
  -1  -1 -12  391.67   32.18
   1   1  13  671.08   63.30
  -1   1 -13  531.91   52.94
  -1   1 -13  547.33   37.49
   1  -1  13  579.63   63.42
  -1  -1 -13  634.35   44.42
  -1  -1 -13  610.28   42.99
   1   1  14  100.03   35.79
  -1   1 -14   90.59   30.24
   1  -1  14  139.49   37.61
  -1  -1 -14  138.65   26.88
  -1  -1 -14  100.89   21.93
   1   1  15  498.94   62.63
  -1   1 -15  413.85   47.05
   1  -1  15  530.62   66.00
   1   1  16  237.38   49.98
   1  -1  16  249.00   50.95
   1   2 -17  129.11   35.49
  -1   2  17  215.52   40.66
  -1  -2  17   91.25   54.06
   1   2 -16   81.96   30.56
  -1   2  16   36.72   27.45
   1  -2 -16   15.17   21.68
  -1  -2  16   23.74   29.65
  -1   2  15  266.61   42.93
   1   2 -15  222.35   38.60
   1  -2 -15  291.85   38.05
  -1  -2  15  353.12   46.48
   1  -2 -15  238.23   33.60
   1   2 -14  444.21   45.29
  -1   2  14  429.44   51.59
   1  -2 -14  352.49   47.94
  -1  -2  14  452.00   52.62
   1  -2 -14  480.11   44.22
   1   2 -13    6.46   23.56
  -1   2  13    2.74   21.34
   1  -2 -13   22.92   16.63
  -1  -2  13   22.61   22.25
   1  -2 -13   26.71   17.54
   1   2 -12 1504.90   95.31
   1   2 -12 1462.24   64.23
  -1   2  12 1666.83  103.37
   1  -2 -12 1598.32   84.35
   1  -2 -12 1574.55   89.57
  -1  -2  12 1487.14  102.59
   1   2 -11  479.58   41.67
  -1   2  11  560.34   45.96
   1   2 -11  500.39   26.15
   1  -2 -11  540.19   35.15
   1  -2 -11  522.59   38.09
  -1  -2  11  487.75   47.80
   1   2 -10 1047.44   42.46
  -1   2  10 1266.10   67.56
   1   2 -10 1190.40   73.65
   1  -2 -10 1181.91   62.23
   1  -2 -10 1191.29   58.18
  -1  -2  10 1095.20   71.25
   1   2  -9 2505.38  109.11
   1   2  -9 2316.36   75.69
  -1   2   9 2518.82  113.44
   1  -2  -9 2637.70  102.79
   1  -2  -9 2549.17  111.85
  -1  -2   9 2583.30  121.45
   1   2  -8 5015.87  208.63
  -1   2   8 5132.06  208.99
   1   2  -8 4947.95  143.69
   1  -2  -8 5206.01  196.55
   1  -2  -8 5760.68  214.03
  -1  -2   8 5185.51  222.69
   1   2  -7 1653.57   43.33
  -1   2   7 1674.80   66.50
   1   2  -7 1662.44   69.84
  -1  -2   7 1581.05   71.84
   1  -2  -7 1660.03   69.06
   1   2  -6   46.04    5.84
   1   2  -6   47.16   12.37
  -1   2   6   50.04   11.99
   1  -2  -6   51.15   11.16
   1  -2  -6   45.63   11.11
  -1  -2   6   31.95   13.06
   1   2  -5  480.88   24.03
  -1   2   5  526.86   22.95
   1  -2  -5  512.70   23.32
   1  -2  -5  526.85   23.11
  -1  -2   5  558.63   27.25
   1   2  -4 3192.14   46.69
   1   2  -4 3531.44  103.32
  -1   2   4 3382.33   84.13
   1  -2  -4 3441.84   91.50
   1  -2  -4 3457.27  104.14
  -1  -2   4 3525.55  104.33
  -1   2   3 9973.15  232.69
   1   2  -311042.11  302.39
   1  -2  -310763.38  267.52
   1  -2  -310492.07  283.86
  -1  -2   310765.34  293.16
   1   2  -217460.57  436.09
  -1   2   216883.02  305.05
   1  -2  -217705.89  415.81
   1  -2  -216178.68  316.68
   1  -2  -216991.26  434.68
  -1  -2   216557.14  188.50
  -1  -2   217988.57  435.42
  -1   2   1  405.17    6.76
  -1   2   1  400.02   10.42
   1   2  -1  377.03    7.96
   1   2  -1  394.46   10.50
   1  -2  -1  397.79    5.92
  -1  -2   1  414.28    8.80
   1  -2  -1  418.20   12.21
  -1  -2   1  399.95   10.85
  -1   2   0 7441.21  115.43
   1   2   0 7472.34  112.92
   1   2   0 7844.79  111.29
  -1   2   0 7806.31  142.36
   1  -2   0 7636.07  115.47
   1  -2   0 7422.44  144.98
  -1  -2   0 7896.93  148.94
   1  -2   0 7812.73  156.72
  -1  -2   0 7637.50  152.99
   1   2   122111.95  542.69
  -1   2  -121496.75  441.87
   1  -2   121205.54  488.64
   1  -2   121948.87  531.91
   1  -2   120066.67  460.58
  -1  -2  -121226.56  254.88
  -1  -2  -121591.56  557.10
  -1   2  -2 1910.08   38.29
   1   2   2 1930.55   53.27
   1  -2   2 1848.81   50.07
  -1  -2  -2 1815.94   45.58
   1  -2   2 1896.45   52.06
   1   2   3 5535.39  158.36
  -1   2  -3 5432.72  143.44
  -1   2  -3 5609.03  117.35
   1  -2   3 5734.04  165.77
  -1  -2  -3 5491.43  102.52
  -1  -2  -3 5379.04  157.48
   1   2   4 3054.08   98.37
  -1   2  -4 3093.89   87.55
  -1   2  -4 2925.99   67.71
  -1  -2  -4 2837.54   90.44
   1  -2   4 3141.86  102.19
  -1  -2  -4 2843.85   63.76
  -1   2  -5 1514.39   52.69
   1   2   5 1556.60   63.26
  -1   2  -5 1671.73   43.54
   1  -2   5 1643.26   64.47
  -1  -2  -5 1454.87   39.28
  -1  -2  -5 1542.10   54.75
  -1   2  -6 1243.21   38.51
   1   2   6 1244.47   60.08
  -1   2  -6 1247.21   54.30
   1  -2   6 1252.62   61.86
  -1  -2  -6 1199.29   49.71
  -1  -2  -6 1253.65   40.65
   1   2   7 3184.89  138.10
  -1   2  -7 3298.12  122.17
  -1   2  -7 3280.95   99.45
   1  -2   7 3258.72  143.69
  -1  -2  -7 2717.58  114.69
  -1  -2  -7 3177.83  103.30
   1   2   8  664.60   42.82
  -1   2  -8  645.74   34.78
  -1   2  -8  621.67   24.38
  -1  -2  -8  635.01   40.34
   1  -2   8  709.15   47.79
  -1  -2  -8  599.45   30.71
   1   2   9  273.43   31.15
  -1   2  -9  210.34   18.10
  -1   2  -9  210.95   21.85
   1  -2   9  217.90   31.34
  -1  -2  -9  235.37   21.85
  -1  -2  -9  207.65   21.20
  -1   2 -10  209.42   23.42
   1   2  10  164.98   30.21
  -1   2 -10  183.83   18.96
   1  -2  10  207.77   31.72
  -1  -2 -10  210.46   23.14
  -1  -2 -10  203.24   27.90
   1   2  11 1431.50   95.11
  -1   2 -11 1420.87   86.27
  -1   2 -11 1344.81   62.56
   1  -2  11 1500.33  102.41
  -1  -2 -11 1439.05   72.90
  -1  -2 -11 1328.06   66.21
  -1   2 -12  674.87   61.57
   1   2  12  782.59   66.05
  -1   2 -12  679.56   40.24
  -1  -2 -12  784.77   50.63
   1  -2  12  706.85   69.80
  -1  -2 -12  748.34   50.03
   1   2  13  567.04   57.96
  -1   2 -13  460.84   54.53
   1  -2  13  657.73   64.18
  -1  -2 -13  543.84   49.59
  -1  -2 -13  501.52   46.09
   1   2  14   19.96   37.66
  -1   2 -14   50.78   26.54
   1  -2  14   87.62   31.44
  -1  -2 -14   77.43   19.43
  -1  -2 -14   32.95   21.36
   1   2  15   85.12   33.60
  -1   2 -15   97.47   29.61
   1  -2  15   35.13   33.77
  -1  -2 -15   55.71   20.32
   1   2  16  213.57   45.88
   1  -2  16  168.69   45.86
   1   3 -16   14.14   27.40
  -1   3  16  -27.31   23.60
  -1  -3  16    7.55   24.98
  -1   3  15  167.00   36.67
   1   3 -15  145.09   34.76
   1  -3 -15  171.49   26.95
   1  -3 -15  130.41   27.44
  -1  -3  15  216.25   48.71
  -1   3  14  439.06   49.63
   1   3 -14  362.96   48.50
   1  -3 -14  361.03   43.02
   1  -3 -14  343.81   36.10
  -1  -3  14  335.06   48.71
   1   3 -13   95.30   26.56
  -1   3  13   94.63   32.33
   1  -3 -13  154.59   25.98
   1  -3 -13   97.76   20.69
  -1  -3  13   28.75   28.86
   1   3 -12  158.41   28.34
  -1   3  12  178.27   29.03
   1  -3 -12  176.82   29.17
   1  -3 -12  128.58   27.57
  -1  -3  12  155.54   31.81
   1   3 -11 2215.92   79.69
  -1   3  11 2501.00  135.72
   1   3 -11 2595.61  135.90
   1  -3 -11 2548.93  121.45
   1  -3 -11 2532.40  113.54
  -1  -3  11 2560.66  144.58
   1   3 -10  169.48   26.37
   1   3 -10  180.58   12.88
  -1   3  10  238.01   31.23
   1  -3 -10  212.53   21.57
   1  -3 -10  185.75   22.87
  -1  -3  10  210.78   29.92
   1   3  -9   56.53    7.31
   1   3  -9   32.72   16.32
  -1   3   9   56.11   15.89
   1  -3  -9   48.03   13.60
  -1  -3   9   59.86   18.97
   1  -3  -9   42.45   14.81
   1   3  -8  313.29   24.08
  -1   3   8  335.13   25.11
   1  -3  -8  316.97   24.21
   1  -3  -8  332.35   22.36
  -1  -3   8  269.48   27.54
   1   3  -7  316.91   29.54
  -1   3   7  297.08   28.56
   1   3  -7  350.04   11.56
   1  -3  -7  374.57   28.67
   1  -3  -7  368.44   25.50
  -1  -3   7  399.18   26.96
   1   3  -6  298.81   26.58
   1   3  -6  268.71    7.52
  -1   3   6  249.64   21.21
   1  -3  -6  260.25   23.86
   1  -3  -6  285.59   17.83
  -1  -3   6  288.79   22.98
   1   3  -5 2714.98   92.03
   1   3  -5 2521.68   33.27
  -1   3   5 2815.97   82.01
   1  -3  -5 2775.18   91.59
  -1  -3   5 2664.19   95.93
   1  -3  -5 2781.87   84.09
   1   3  -4 2971.29   99.37
  -1   3   4 3254.67   83.53
   1  -3  -4 3217.06   87.51
  -1  -3   4 3181.88  102.39
   1  -3  -4 3196.58   99.97
  -1   3   3 4784.67  105.55
   1   3  -3 4673.09  133.20
   1  -3  -3 4568.25  134.73
   1  -3  -3 4571.80  119.71
  -1  -3   3 4412.89  130.52
   1   3  -2 2791.09   71.21
  -1   3   2 2830.90   50.01
   1  -3  -2 2748.53   77.20
  -1  -3   2 2771.87   36.50
   1  -3  -2 2832.98   65.30
  -1  -3   2 2833.24   74.72
   1   3  -1 2745.81   57.08
  -1   3   1 2576.47   45.52
   1  -3  -1 2844.11   46.14
   1  -3  -1 2932.87   68.85
  -1  -3   1 2756.14   68.83
   1  -3  -1 2770.05   67.80
  -1  -3   1 2675.98   49.33
  -1   3   012373.49  284.36
   1  -3   011830.03  299.61
  -1  -3   012692.39  300.68
  -1  -3   012478.00  249.69
   1  -3   012354.92  245.90
  -1  -3   012679.13  311.88
   1   3   1  251.28    8.21
   1   3   1  275.15   13.72
  -1   3  -1  253.01    9.15
   1  -3   1  283.69   14.54
  -1  -3  -1  278.96   15.45
  -1  -3  -1  268.28    7.74
   1  -3   1  228.45   11.69
   1   3   218274.97  340.89
   1   3   220528.51  592.37
  -1   3  -219058.84  417.26
   1  -3   218852.78  581.87
  -1  -3  -218826.48  325.15
  -1  -3  -218464.12  576.63
   1  -3   219436.15  565.41
   1   3   321620.82  710.02
  -1   3  -322201.60  715.46
  -1   3  -319522.83  483.55
   1  -3   321086.13  702.74
  -1  -3  -321301.80  712.07
  -1  -3  -319838.51  412.13
   1   3   4 3748.71  117.96
  -1   3  -4 3707.64  114.50
   1  -3   4 3707.48  121.52
  -1  -3  -4 3553.07   75.35
  -1  -3  -4 3346.55  113.91
  -1   3  -5 2146.35   75.90
   1   3   5 2202.97   81.79
  -1   3  -5 2178.29   51.83
  -1  -3  -5 2194.72   79.76
   1  -3   5 2266.29   85.86
  -1  -3  -5 2120.06   54.26
   1   3   6 2542.29  104.44
  -1   3  -6 2380.26   63.95
  -1   3  -6 2608.21   94.19
   1  -3   6 2391.63  102.24
  -1  -3  -6 2503.36   94.97
  -1  -3  -6 2494.27   71.07
   1   3   7 4636.80  198.98
  -1   3  -7 4663.14  181.54
  -1   3  -7 4436.10  130.06
  -1  -3  -7 4570.79  179.24
   1  -3   7 4470.51  199.24
  -1  -3  -7 4461.85  143.60
  -1   3  -8   41.74   12.69
   1   3   8    6.56   18.03
  -1   3  -8    1.12    7.31
   1  -3   8    0.50   15.59
  -1  -3  -8   25.91   13.06
  -1  -3  -8    6.97    9.96
  -1   3  -9 1903.29   66.91
   1   3   9 1931.39  103.84
  -1   3  -9 2009.30   95.15
   1  -3   9 1848.00  108.30
  -1  -3  -9 2115.04   96.44
  -1  -3  -9 1978.97   79.32
   1   3  10  247.32   33.01
  -1   3 -10  263.25   18.05
  -1   3 -10  229.25   26.57
   1  -3  10  263.45   34.09
  -1  -3 -10  281.03   26.96
  -1  -3 -10  244.84   20.55
  -1   3 -11    7.96   16.86
   1   3  11   84.65   20.54
  -1   3 -11   14.53   10.93
   1  -3  11   -7.63   21.47
  -1  -3 -11   16.14   11.48
  -1  -3 -11   13.70   16.06
   1   3  12  228.89   36.71
  -1   3 -12  196.91   27.87
   1  -3  12  213.72   36.21
  -1  -3 -12  163.84   30.84
  -1  -3 -12  206.75   26.22
   1   3  13  864.18   87.40
  -1   3 -13  971.41   74.33
   1  -3  13 1149.69   90.01
  -1  -3 -13 1008.44   65.13
  -1  -3 -13 1131.99   73.33
   1   3  14   -3.44   25.49
   1  -3  14   61.15   33.53
  -1  -3 -14   23.69   21.83
   1   3  15  206.18   47.02
  -1   3 -15  184.11   34.75
   1  -3  15  250.92   48.94
  -1  -3 -15  244.94   31.81
   1   3  16   -4.06   26.18
  -1   3 -16   -6.47   20.97
   1  -3  16   31.40   29.08
   1   4 -16  134.43   33.62
  -1   4  16  122.73   35.84
   1  -4 -16   89.82   27.49
  -1  -4  16  138.25   37.90
  -1   4  15  177.74   33.20
   1   4 -15  132.76   32.73
   1  -4 -15  142.86   27.15
   1  -4 -15   91.55   25.46
  -1  -4  15  151.06   38.28
  -1   4  14  113.56   35.17
   1   4 -14   55.56   28.94
   1  -4 -14  100.31   23.50
  -1  -4  14  170.32   33.27
   1  -4 -14   84.68   22.05
  -1   4  13  419.56   45.38
   1   4 -13  450.26   45.84
   1  -4 -13  390.91   36.62
  -1  -4  13  429.86   52.04
   1  -4 -13  458.76   41.37
  -1   4  12  728.53   64.31
   1   4 -12  674.40   66.18
   1  -4 -12  640.87   50.06
   1  -4 -12  700.50   52.44
  -1  -4  12  710.20   62.80
  -1   4  11  701.97   51.16
   1   4 -11  650.97   51.52
   1  -4 -11  713.13   48.69
   1  -4 -11  689.09   50.26
  -1  -4  11  711.15   61.30
  -1   4  10 2149.47  108.35
   1   4 -10 2164.43  114.12
   1  -4 -10 2132.97  105.19
   1  -4 -10 2165.88  103.40
  -1  -4  10 2041.41  117.02
   1   4  -9 2599.54  122.50
  -1   4   9 2781.57  121.16
   1  -4  -9 2619.08  121.53
  -1  -4   9 2546.37  132.06
   1  -4  -9 2596.54  112.85
  -1   4   8  732.84   39.17
   1   4  -8  727.24   48.84
   1  -4  -8  692.90   34.05
   1  -4  -8  677.31   41.72
  -1  -4   8  718.09   45.57
   1   4  -7  869.84   46.79
  -1   4   7  836.69   43.07
   1  -4  -7  872.08   39.71
   1  -4  -7  948.27   44.49
  -1  -4   7  896.37   48.98
   1   4  -6 5855.84  226.14
  -1   4   6 6054.87  214.83
   1  -4  -6 6174.88  200.07
   1  -4  -6 5674.81  223.87
  -1  -4   6 5805.26  232.94
   1   4  -524507.49 1024.64
  -1   4   524790.25  882.28
   1  -4  -525633.61  906.08
  -1  -4   525424.42 1051.70
   1  -4  -525548.48 1051.46
   1   4  -4 2092.44   77.05
  -1   4   4 2466.32   64.70
   1  -4  -4 2248.18   64.83
   1  -4  -4 2300.86   80.44
  -1  -4   4 2314.94   80.03
  -1   4   3 7462.12  172.66
   1   4  -3 6942.52  216.26
   1  -4  -3 7441.30  201.33
   1  -4  -3 6720.51  215.12
  -1  -4   3 6908.53  218.04
   1   4  -2 7879.47  223.87
  -1   4   2 8180.69  177.15
   1  -4  -2 8413.67  219.80
   1  -4  -2 8146.13  243.97
  -1  -4   2 8155.92  235.56
  -1  -4   2 8142.90  147.42
   1   4  -1 1713.30   44.29
   1  -4  -1 1693.06   46.64
   1  -4  -1 1824.23   38.63
   1  -4  -1 1815.87   50.80
  -1  -4   1 1782.14   52.00
  -1  -4   1 1765.89   37.45
  -1   4   0  589.10   20.93
   1  -4   0  639.20   17.56
   1  -4   0  681.32   25.37
  -1  -4   0  625.10   19.82
  -1  -4   0  670.36   23.88
  -1  -4   0  649.83   21.73
  -1   4  -1  308.61   10.29
   1  -4   1  290.36   16.52
  -1  -4  -1  298.73   16.18
   1  -4   1  300.45   13.07
  -1  -4  -1  316.12   16.71
  -1  -4  -1  331.73   11.19
  -1   4  -2 1627.48   32.27
   1   4   2 1583.58   48.63
   1  -4   2 1524.93   45.40
  -1  -4  -2 1534.45   29.39
   1  -4   2 1636.85   54.19
  -1  -4  -2 1591.41   52.40
   1   4   3 1421.76   49.36
  -1   4  -3 1449.54   32.30
   1  -4   3 1510.00   51.65
   1  -4   3 1502.20   54.16
  -1  -4  -3 1426.49   52.18
  -1  -4  -3 1455.43   29.24
   1   4   4 5908.80  200.06
  -1   4  -4 5814.40  125.55
  -1   4  -4 5751.04  195.98
   1  -4   4 5892.59  206.95
  -1  -4  -4 5703.22  203.17
   1   4   5 1982.45   76.63
  -1   4  -5 2014.02   46.63
  -1   4  -5 1944.70   75.18
  -1  -4  -5 2049.21   50.23
   1  -4   5 2047.04   82.97
  -1  -4  -5 1927.76   77.40
   1   4   6 1806.48   78.05
  -1   4  -6 1836.20   81.00
   1  -4   6 1800.55   81.30
  -1  -4  -6 1858.72   77.10
  -1  -4  -6 1729.00   49.97
  -1   4  -7 1043.32   51.78
   1   4   7  975.29   53.08
  -1   4  -7 1033.58   30.29
   1  -4   7 1032.07   56.09
  -1  -4  -7  997.51   35.64
  -1  -4  -7 1000.59   58.28
  -1   4  -8  999.20   33.65
   1   4   8 1187.02   62.24
  -1   4  -8 1115.54   63.93
   1  -4   8 1071.14   65.85
  -1  -4  -8 1136.87   42.60
  -1  -4  -8 1175.60   58.80
   1   4   9   37.88   20.53
  -1   4  -9   49.38    8.90
  -1   4  -9   79.98   17.66
   1  -4   9   77.12   21.76
  -1  -4  -9   54.94   17.33
  -1  -4  -9   56.89   13.25
   1   4  10 2162.49  122.94
  -1   4 -10 2082.99  112.02
  -1   4 -10 1848.65   68.91
  -1  -4 -10 2088.38   86.93
   1  -4  10 2057.68  125.10
  -1  -4 -10 2189.58  109.20
   1   4  11  215.05   38.29
  -1   4 -11  264.03   35.18
  -1  -4 -11  290.00   26.34
  -1  -4 -11  265.10   31.73
   1  -4  11  295.14   42.40
   1   4  12   56.00   26.53
  -1   4 -12   73.57   23.35
   1  -4  12   65.35   29.10
  -1  -4 -12   78.65   18.17
  -1  -4 -12   86.82   27.04
   1   4  13  110.01   31.27
  -1   4 -13  100.50   26.43
   1  -4  13  151.54   33.47
  -1  -4 -13   74.33   24.75
   1   4  14  253.81   44.20
  -1   4 -14  212.74   37.10
   1  -4  14  234.74   46.91
  -1  -4 -14  227.63   34.68
   1   4  15  335.58   57.52
  -1   4 -15  418.76   56.81
   1  -4  15  520.36   76.66
  -1  -4 -15  459.60   54.36
   1   4  16   80.40   33.95
  -1   4 -16   93.60   34.87
   1  -4  16    2.16   38.82
   1   5 -16   13.55   29.91
  -1   5  16    7.31   25.54
   1  -5 -16   -0.67   20.48
  -1  -5  16   62.15   35.12
   1   5 -15  197.10   40.07
  -1   5  15  252.45   41.44
   1  -5 -15  229.15   35.46
  -1  -5  15  227.91   46.72
   1   5 -14  375.37   52.42
  -1   5  14  527.01   50.60
   1  -5 -14  422.85   44.16
   1  -5 -14  470.97   45.78
  -1  -5  14  425.06   57.48
   1   5 -13   43.22   31.06
  -1   5  13  125.91   28.41
   1  -5 -13   49.52   17.59
  -1  -5  13   44.17   34.05
   1  -5 -13   61.41   21.54
  -1   5  12  306.40   34.75
   1   5 -12  217.22   36.50
   1  -5 -12  269.48   33.48
  -1  -5  12  302.06   40.50
   1  -5 -12  297.59   28.63
  -1   5  11  665.53   51.11
   1   5 -11  744.23   55.80
   1  -5 -11  653.05   40.94
  -1  -5  11  580.79   57.60
   1  -5 -11  690.32   50.43
  -1   5  10  160.97   30.93
   1   5 -10  192.99   25.93
   1  -5 -10  178.84   19.66
  -1  -5  10  182.46   27.12
   1  -5 -10  170.35   24.82
   1   5  -9  239.16   29.22
  -1   5   9  239.05   23.72
   1  -5  -9  207.77   23.77
   1  -5  -9  184.14   26.25
  -1  -5   9  202.77   29.60
  -1   5   8  914.71   47.24
   1   5  -8  962.45   55.67
   1  -5  -8  933.05   47.52
  -1  -5   8  914.13   58.02
   1  -5  -8 1031.54   62.68
   1   5  -7 2992.44  130.84
  -1   5   7 3077.26  118.51
   1  -5  -7 2937.58  131.61
   1  -5  -7 2942.33  108.33
  -1  -5   7 3096.19  136.54
  -1   5   6  348.78   25.67
   1   5  -6  436.25   28.57
   1  -5  -6  370.99   28.96
   1  -5  -6  387.14   19.48
  -1  -5   6  380.37   30.51
  -1   5   5 1234.33   47.38
   1   5  -5 1296.08   59.26
   1  -5  -5 1401.85   49.91
  -1  -5   5 1376.90   60.07
   1  -5  -5 1251.40   59.33
  -1   5   4 2022.77   57.35
   1   5  -4 1994.40   72.59
   1  -5  -4 1907.91   74.78
  -1  -5   4 1919.40   73.83
   1  -5  -4 1946.66   59.27
  -1   5   3 2195.99   52.22
   1   5  -3 2083.18   70.46
   1  -5  -3 1905.24   68.41
   1  -5  -3 2142.45   61.26
  -1  -5   3 1988.47   32.20
  -1  -5   3 2118.83   72.85
   1   5  -2 3603.07  108.86
  -1   5   2 3864.73   87.90
   1  -5  -2 3644.44  119.20
   1  -5  -2 3656.06  105.35
  -1  -5   2 3815.29   80.96
  -1  -5   2 3724.20  115.88
   1  -5  -1 3984.68   92.86
   1  -5  -1 4077.53  115.67
   1  -5  -1 4092.85  119.69
  -1  -5   1 4035.11   99.82
  -1  -5   1 4118.34  120.30
  -1   5   0 2238.70   58.96
   1  -5   0 2220.48   58.34
   1  -5   0 2378.76   69.75
  -1  -5   0 2263.86   67.52
  -1  -5   0 2324.25   58.44
  -1  -5   0 2341.46   66.66
  -1   5  -1 1978.81   48.74
   1  -5   1 1961.30   63.24
  -1  -5  -1 1912.48   61.26
  -1  -5  -1 1905.23   58.63
   1  -5   1 1908.08   52.58
  -1  -5  -1 1899.83   45.99
  -1   5  -2 1337.46   32.81
   1   5   2 1346.46   44.80
   1  -5   2 1437.87   50.11
  -1  -5  -2 1500.86   51.23
   1  -5   2 1395.33   53.49
  -1  -5  -2 1428.09   32.64
   1   5   3 8601.04  283.64
  -1   5  -3 8028.72  186.74
   1  -5   3 8142.09  284.89
   1  -5   3 8380.59  298.63
  -1  -5  -3 8223.24  295.42
  -1  -5  -3 8704.63  202.94
   1   5   4 2362.23   83.74
  -1   5  -4 2282.13   50.45
  -1   5  -4 2397.40   89.66
  -1  -5  -4 2067.65   88.90
   1  -5   4 2227.51   84.50
  -1  -5  -4 2248.10   51.52
   1   5   5  188.04   22.24
  -1   5  -5  153.97   18.45
  -1   5  -5  174.69    9.22
   1  -5   5  168.13   20.75
  -1  -5  -5  200.73   10.56
  -1  -5  -5  198.61   20.34
   1   5   6 2284.32   93.83
  -1   5  -6 2313.82   97.46
  -1   5  -6 2186.94   52.73
   1  -5   6 2323.31  103.76
  -1  -5  -6 2237.30   99.67
  -1  -5  -6 2396.36   63.66
   1   5   7 2967.60  130.18
  -1   5  -7 3088.66  144.21
   1  -5   7 3085.40  144.02
  -1  -5  -7 2967.15  132.91
  -1  -5  -7 3013.31   91.93
   1   5   8 1920.38   95.73
  -1   5  -8 1977.05   92.92
  -1   5  -8 1644.92   48.47
   1  -5   8 1928.74  103.00
  -1  -5  -8 1907.50   67.31
  -1  -5  -8 1935.32   93.41
   1   5   9  434.96   42.32
  -1   5  -9  418.69   18.55
  -1   5  -9  543.02   40.93
   1  -5   9  544.10   45.74
  -1  -5  -9  554.25   27.31
  -1  -5  -9  568.55   41.93
   1   5  10  345.94   36.59
  -1   5 -10  273.76   34.14
  -1  -5 -10  285.62   22.71
  -1  -5 -10  273.33   32.01
   1  -5  10  289.41   39.00
   1   5  11  632.48   57.36
  -1   5 -11  675.08   53.89
  -1  -5 -11  601.57   37.59
  -1  -5 -11  673.64   61.39
   1  -5  11  656.04   59.36
  -1   5 -12   74.42   22.98
   1   5  12   93.83   25.35
  -1  -5 -12   96.04   29.19
   1  -5  12   56.19   30.31
  -1   5 -13  -11.20   23.72
   1   5  13  -25.88   21.27
  -1  -5 -13    4.40   22.12
   1  -5  13    9.05   24.79
  -1   5 -14  -27.71   19.20
   1   5  14   75.99   23.25
  -1  -5 -14  -16.10   19.34
   1  -5  14   12.62   23.74
   1   5  15  154.25   36.29
  -1   5 -15  121.52   34.07
   1  -5  15  189.47   43.01
  -1  -5 -15  100.84   30.05
  -1   6  16  392.04   68.32
   1   6 -16  423.74   56.78
  -1  -6  16  483.87   64.51
   1  -6 -16  450.87   52.11
   1   6 -15   23.06   29.30
  -1   6  15  -18.00   21.82
   1  -6 -15   -2.60   19.24
  -1  -6  15   45.03   25.32
   1   6 -14  321.89   43.63
  -1   6  14  299.98   41.08
   1  -6 -14  251.16   36.06
  -1  -6  14  208.83   47.34
   1  -6 -14  225.94   37.42
  -1   6  13  300.82   36.09
   1   6 -13  287.97   39.60
   1  -6 -13  215.32   26.49
  -1  -6  13  243.83   51.27
   1  -6 -13  278.13   35.09
   1   6 -12  473.61   48.80
  -1   6  12  417.65   45.03
   1  -6 -12  541.34   45.70
   1  -6 -12  472.84   40.68
  -1  -6  12  483.93   53.30
  -1   6  11  927.62   62.40
   1   6 -11  855.38   64.68
   1  -6 -11  932.53   66.09
   1  -6 -11  876.03   49.14
  -1  -6  11  809.76   69.92
   1   6 -10  272.06   36.26
  -1   6  10  322.65   34.59
   1  -6 -10  264.93   24.13
  -1  -6  10  299.10   38.18
   1  -6 -10  353.62   32.40
  -1   6   9  554.94   42.10
   1   6  -9  589.48   44.89
   1  -6  -9  477.28   30.28
   1  -6  -9  499.92   41.94
  -1  -6   9  530.21   45.36
  -1   6   8 3268.74  138.97
   1   6  -8 3146.88  154.61
   1  -6  -8 3235.92  129.98
   1  -6  -8 3263.22  166.17
  -1  -6   8 3333.36  168.31
  -1   6   7  810.09   40.68
   1   6  -7  807.08   50.39
   1  -6  -7  882.57   38.30
   1  -6  -7  816.40   49.14
  -1  -6   7  849.37   52.32
  -1   6   6 2179.82   82.37
   1   6  -6 2273.12  101.83
   1  -6  -6 2095.76   94.86
  -1  -6   6 2216.56   98.97
   1  -6  -6 2171.02   80.54
  -1   6   5 7737.80  257.82
   1   6  -5 7788.09  307.75
   1  -6  -5 7714.87  267.50
  -1  -6   5 8046.82  323.98
   1  -6  -5 7449.48  310.37
   1   6  -4  321.48   22.18
  -1   6   4  236.53   13.76
   1  -6  -4  324.25   19.54
  -1  -6   4  331.65   27.19
   1  -6  -4  274.74   22.92
   1   6  -3 8471.59  307.08
  -1   6   3 8814.36  253.19
   1  -6  -3 9356.57  292.46
   1  -6  -3 8298.61  307.56
  -1  -6   3 8794.87  308.96
  -1  -6   3 8584.12  184.42
   1   6  -2 1590.84   54.46
   1  -6  -2 1563.94   44.80
   1  -6  -2 1660.41   62.15
   1  -6  -2 1498.99   51.33
  -1  -6   2 1631.22   41.18
  -1  -6   2 1589.29   58.14
   1  -6  -1  908.04   33.92
   1  -6  -1  939.11   40.87
   1  -6  -1  910.98   30.56
  -1  -6   1  913.29   30.28
  -1  -6   1  867.35   32.49
  -1  -6   1  936.35   36.78
  -1   6   0 1054.49   32.89
   1  -6   0 1060.14   35.75
   1  -6   0 1180.68   43.47
  -1  -6   0 1099.94   34.24
  -1  -6   0 1067.83   39.47
  -1  -6   0 1105.69   36.62
  -1   6  -1  108.90    7.65
   1  -6   1   85.84    9.80
  -1  -6  -1   97.65   11.78
   1  -6   1   81.39   15.62
  -1  -6  -1   81.94   10.14
  -1  -6  -1  108.68   12.25
   1   6   2 3260.50  103.00
  -1   6  -2 3430.57   83.11
   1  -6   2 3237.06  116.57
   1  -6   2 3025.12   97.39
  -1  -6  -2 3263.09   82.30
  -1  -6  -2 3068.76  109.35
   1   6   3 3222.54  109.22
  -1   6  -3 2950.41   70.68
   1  -6   3 3050.47  106.00
   1  -6   3 3202.98  119.45
  -1  -6  -3 3058.76   76.09
  -1  -6  -3 2977.85  115.39
   1   6   4 4714.78  171.07
  -1   6  -4 4917.87  186.97
  -1   6  -4 4292.62  103.19
   1  -6   4 4594.54  173.96
  -1  -6  -4 4481.29  179.12
  -1  -6  -4 4783.81  122.17
   1   6   5 3397.60  137.86
  -1   6  -5 3396.95  137.27
  -1   6  -5 3179.79   74.02
   1  -6   5 3327.67  135.48
  -1  -6  -5 3335.61  138.44
  -1  -6  -5 3290.25   87.71
  -1   6  -6 1123.10   57.82
   1   6   6 1023.77   53.16
  -1  -6  -6 1114.65   33.81
   1  -6   6 1162.51   58.41
  -1  -6  -6 1217.65   60.97
   1   6   7  665.58   44.46
  -1   6  -7  802.95   48.93
   1  -6   7  894.20   50.25
  -1  -6  -7  785.36   28.76
  -1  -6  -7  825.34   49.26
   1   6   8 2364.11  117.76
  -1   6  -8 2408.77  132.46
   1  -6   8 2150.13  119.05
  -1  -6  -8 2268.80  118.67
  -1  -6  -8 2205.61   75.63
   1   6   9  478.04   48.15
  -1   6  -9  508.57   44.61
   1  -6   9  552.71   48.37
  -1  -6  -9  578.52   51.02
  -1  -6  -9  485.37   26.89
  -1   6 -10 1903.59  111.14
   1   6  10 1803.88  120.73
  -1  -6 -10 1648.94   72.49
   1  -6  10 1735.92  113.52
  -1  -6 -10 1687.79  105.86
   1   6  11   22.07   21.56
  -1   6 -11   37.80   25.71
   1  -6  11   50.98   24.61
  -1  -6 -11   21.20   20.83
   1   6  12  372.95   47.31
  -1   6 -12  330.44   41.97
   1  -6  12  372.52   51.32
  -1  -6 -12  465.70   44.53
   1   6  13   31.39   25.40
  -1   6 -13   56.55   23.42
   1  -6  13   76.63   29.74
  -1  -6 -13   30.05   26.57
  -1   6 -14   75.78   35.38
   1   6  14   93.56   31.22
  -1  -6 -14   70.88   32.96
   1  -6  14   90.94   34.16
   1   6  15  301.87   56.10
  -1   6 -15  380.32   62.26
   1  -6  15  385.80   64.48
  -1  -6 -15  426.35   47.85
   1   7 -16  214.49   46.73
  -1   7  16  137.65   39.95
   1  -7 -16  216.41   47.09
  -1  -7  16  247.13   60.27
   1   7 -15   52.91   34.20
  -1   7  15   85.08   29.28
   1  -7 -15  121.55   30.26
  -1  -7  15  110.76   37.21
   1   7 -14  293.97   45.51
  -1   7  14  247.60   40.84
   1  -7 -14  285.09   41.33
  -1  -7  14  319.91   52.45
  -1   7  13   60.63   23.79
   1   7 -13   94.63   28.57
   1  -7 -13   70.67   20.97
   1  -7 -13   54.49   26.12
  -1  -7  13   53.48   31.32
   1   7 -12  228.11   37.79
  -1   7  12  297.03   35.49
   1  -7 -12  238.52   46.07
  -1  -7  12  330.70   52.24
   1  -7 -12  307.41   27.52
   1   7 -11 1147.74   85.11
  -1   7  11 1170.55   87.94
   1  -7 -11 1229.03   72.19
   1  -7 -11 1284.38   96.13
  -1  -7  11 1193.29   93.60
   1   7 -10  916.83   68.99
  -1   7  10  937.19   67.18
   1  -7 -10  973.91   54.81
  -1  -7  10  867.92   72.43
   1  -7 -10  982.60   65.58
  -1   7   9  228.04   29.63
   1   7  -9  199.70   30.69
   1  -7  -9  291.94   30.17
   1  -7  -9  162.43   23.19
  -1  -7   9  208.94   33.15
  -1   7   8 3882.30  173.72
   1   7  -8 3539.15  185.89
   1  -7  -8 3812.31  159.43
   1  -7  -8 3866.71  188.70
  -1  -7   8 4028.11  202.56
   1   7  -7  704.20   51.03
  -1   7   7  750.71   38.45
   1  -7  -7  877.11   51.08
   1  -7  -7  774.74   35.69
  -1  -7   7  851.42   52.39
   1   7  -6 4096.68  180.50
  -1   7   6 4070.59  152.02
   1  -7  -6 4301.82  155.27
   1  -7  -6 4137.56  186.30
  -1  -7   6 4141.36  187.09
  -1   7   5  432.63   21.30
   1   7  -5  464.15   31.39
   1  -7  -5  408.61   31.76
   1  -7  -5  475.58   23.00
  -1  -7   5  416.98   30.90
   1   7  -4  685.65   38.35
  -1   7   4  670.05   29.16
   1  -7  -4  738.12   32.36
   1  -7  -4  654.19   37.28
  -1  -7   4  714.60   38.85
   1   7  -3 2016.98   79.87
  -1   7   3 2247.43   68.02
   1  -7  -3 2015.16   81.78
   1  -7  -3 2130.79   70.20
  -1  -7   3 2015.66   79.46
   1   7  -2  373.18   21.69
   1  -7  -2  378.82   29.44
   1  -7  -2  343.39   23.66
   1  -7  -2  343.93   16.51
  -1  -7   2  374.82   23.67
  -1  -7   2  354.33   16.31
   1  -7  -1 1983.21   70.06
   1  -7  -1 1883.66   67.80
   1  -7  -1 1970.00   62.75
  -1  -7   1 1977.69   62.65
  -1  -7   1 1992.90   72.62
  -1  -7   1 1938.50   66.45
   1  -7   0 2124.46   78.79
   1  -7   0 2192.44   70.69
  -1  -7   0 2031.36   73.60
  -1  -7   0 2112.77   69.57
  -1  -7   0 2125.99   65.98
  -1   7  -1 1840.24   53.84
   1  -7   1 1501.39   61.28
  -1  -7  -1 1639.10   48.68
  -1  -7  -1 1645.03   61.93
   1  -7   1 1622.98   55.31
  -1  -7  -1 1673.33   61.17
   1   7   2   65.41   11.01
  -1   7  -2   60.02    7.79
   1  -7   2   52.76   10.91
  -1  -7  -2   48.47    9.12
  -1  -7  -2   75.62   13.71
   1  -7   2   50.24   13.76
   1   7   3 3409.97  118.79
  -1   7  -3 3249.68   84.21
   1  -7   3 3242.59  130.69
  -1  -7  -3 3201.37   88.63
   1  -7   3 3237.24  115.92
  -1  -7  -3 3335.12  130.46
   1   7   4 5036.56  197.13
  -1   7  -4 4574.12  115.19
  -1   7  -4 5094.09  203.52
   1  -7   4 4683.50  187.36
  -1  -7  -4 4668.68  197.86
  -1  -7  -4 4839.94  134.39
  -1   7  -5   74.54   17.11
   1   7   5   52.27   13.64
  -1   7  -5   56.98    7.66
  -1  -7  -5   61.11   17.23
   1  -7   5   48.98   16.28
  -1  -7  -5   75.69    8.75
   1   7   6  462.79   30.68
  -1   7  -6  455.78   41.44
  -1   7  -6  404.40   13.34
  -1  -7  -6  415.44   33.55
   1  -7   6  472.05   34.34
  -1  -7  -6  434.86   19.03
   1   7   7 1326.32   69.22
  -1   7  -7 1364.16   75.61
   1  -7   7 1388.86   80.96
  -1  -7  -7 1354.12   45.78
  -1  -7  -7 1533.40   80.21
   1   7   8  453.69   37.63
  -1   7  -8  424.87   40.12
   1  -7   8  482.41   42.87
  -1  -7  -8  430.08   21.61
  -1  -7  -8  484.90   39.47
   1   7   9  532.67   41.71
  -1   7  -9  501.56   43.19
   1  -7   9  495.91   47.07
  -1  -7  -9  451.28   43.54
  -1  -7  -9  412.41   24.18
   1   7  10  335.95   38.92
  -1   7 -10  369.89   40.43
   1  -7  10  336.85   41.19
  -1  -7 -10  326.95   38.34
   1   7  11   73.92   27.21
  -1   7 -11   90.59   29.22
   1  -7  11  145.28   30.59
  -1  -7 -11  112.65   27.65
   1   7  12  428.56   59.02
  -1   7 -12  467.95   54.88
   1  -7  12  462.79   58.56
  -1  -7 -12  524.23   50.30
   1   7  13   96.55   31.18
  -1   7 -13  121.74   30.51
   1  -7  13  121.47   37.92
  -1  -7 -13  134.04   30.34
  -1   7 -14    2.78   31.73
   1   7  14   35.66   26.50
  -1  -7 -14   36.73   30.37
   1  -7  14   65.40   29.18
   1   7  15  190.06   44.04
  -1   7 -15  161.21   43.37
   1  -7  15  302.15   49.42
  -1  -7 -15  242.35   45.63
   1   8 -15  145.06   37.62
  -1   8  15  107.70   37.81
   1  -8 -15  127.22   33.00
  -1  -8  15  120.64   41.54
   1   8 -14  172.76   39.95
  -1   8  14  192.27   40.27
   1  -8 -14  183.96   37.07
  -1  -8  14  167.11   43.65
  -1   8  13  119.63   31.33
   1   8 -13  194.73   46.78
  -1  -8  13  265.50   42.45
   1  -8 -13  237.11   43.79
   1   8 -12  353.09   42.09
  -1   8  12  288.80   34.49
   1  -8 -12  259.53   30.60
  -1  -8  12  314.43   48.32
   1  -8 -12  292.96   39.89
  -1   8  11   98.72   24.46
   1   8 -11  160.44   31.36
   1  -8 -11  165.32   30.51
   1  -8 -11  106.13   22.90
  -1  -8  11  162.87   33.21
   1   8 -10  664.68   61.97
  -1   8  10  549.44   44.50
   1  -8 -10  634.20   54.15
  -1  -8  10  638.53   58.91
   1  -8 -10  633.65   44.01
   1   8  -9  758.33   61.13
  -1   8   9  708.82   53.97
   1  -8  -9  771.96   45.95
   1  -8  -9  751.57   58.38
  -1  -8   9  842.52   60.31
  -1   8   8 1124.40   63.72
   1   8  -8 1218.56   78.20
   1  -8  -8 1251.49   76.91
   1  -8  -8 1135.74   58.77
  -1  -8   8 1283.38   79.05
  -1   8   7 1163.79   57.63
   1   8  -7 1232.55   74.07
   1  -8  -7 1164.53   55.21
   1  -8  -7 1232.03   71.62
  -1  -8   7 1353.50   83.99
   1   8  -6 2195.10  103.64
  -1   8   6 1954.86   78.76
   1  -8  -6 2071.52  102.83
  -1  -8   6 2129.23  102.36
   1  -8  -6 2099.87   85.35
   1   8  -5  315.88   27.40
  -1   8   5  289.88   20.74
   1  -8  -5  296.62   27.59
   1  -8  -5  271.42   17.60
  -1  -8   5  258.56   26.41
   1   8  -4 1094.59   54.40
   1   8  -4 1080.02   26.03
  -1   8   4 1074.14   40.47
   1  -8  -4 1150.65   56.50
  -1  -8   4 1167.40   61.21
   1  -8  -4 1182.40   49.72
   1   8  -3 2771.68  106.28
  -1   8   3 2668.69   88.42
   1  -8  -3 2704.29  111.07
   1  -8  -3 2891.94  105.99
  -1  -8   3 2707.18  109.37
  -1  -8   3 2756.49   73.06
   1   8  -2 2414.40   88.76
   1  -8  -2 2181.94   72.34
   1  -8  -2 2436.01   97.78
   1  -8  -2 2260.52   81.76
  -1  -8   2 2478.63   73.58
  -1  -8   2 2359.28   92.95
   1  -8  -1  921.59   41.03
   1  -8  -1  919.75   37.09
   1  -8  -1  894.54   41.46
  -1  -8   1  924.02   33.54
  -1  -8   1  908.20   41.81
  -1  -8   1  931.52   39.29
   1  -8   0  430.29   23.96
   1  -8   0  392.51   24.92
  -1  -8   0  427.56   24.91
  -1  -8   0  413.39   22.03
  -1  -8   0  393.69   21.72
  -1   8  -1 1094.83   39.65
   1  -8   1 1017.64   41.08
  -1  -8  -1 1071.73   45.17
   1  -8   1 1067.38   50.45
  -1  -8  -1 1046.79   37.68
  -1  -8  -1 1101.38   44.70
  -1   8  -2 1633.28   48.15
   1   8   2 1747.91   66.38
   1  -8   2 1671.90   62.32
   1  -8   2 1731.91   74.88
  -1  -8  -2 1787.52   74.14
  -1  -8  -2 1715.54   57.02
   1   8   3  676.22   37.78
  -1   8  -3  837.26   26.48
   1  -8   3  842.65   45.35
   1  -8   3  875.52   39.47
  -1  -8  -3  813.07   27.69
  -1  -8  -3  805.50   45.05
   1   8   4 2455.27   97.08
  -1   8  -4 2270.05   60.11
  -1   8  -4 2347.74  107.42
   1  -8   4 2334.79   94.47
  -1  -8  -4 2212.15   64.74
  -1  -8  -4 2387.79  105.60
   1   8   5  244.29   22.76
  -1   8  -5  262.03   12.31
  -1   8  -5  270.07   27.61
   1  -8   5  296.94   25.88
  -1  -8  -5  255.36   15.03
  -1  -8  -5  297.50   26.59
  -1   8  -6  925.96   60.14
   1   8   6  891.66   54.13
  -1  -8  -6  963.50   61.15
   1  -8   6 1058.16   57.67
  -1  -8  -6  964.23   36.73
   1   8   7 1399.41   71.93
  -1   8  -7 1350.60   79.14
   1  -8   7 1361.64   80.17
  -1  -8  -7 1395.81   81.76
  -1  -8  -7 1308.74   48.87
   1   8   8   10.95   16.12
  -1   8  -8   43.95   17.80
   1  -8   8   52.55   18.64
  -1  -8  -8   15.61   20.22
  -1  -8  -8   11.18    8.48
   1   8   9  952.52   73.57
  -1   8  -9 1097.64   75.04
   1  -8   9 1076.95   75.86
  -1  -8  -9 1059.83   71.76
  -1  -8  -9  888.52   39.65
   1   8  10   56.31   22.69
  -1   8 -10   75.44   24.13
   1  -8  10   84.80   27.04
  -1  -8 -10   44.91   24.73
   1   8  11   -3.08   20.29
  -1   8 -11   52.30   22.60
   1  -8  11    6.68   23.28
  -1  -8 -11   33.15   22.33
   1   8  12  139.75   30.38
  -1   8 -12  166.57   41.29
   1  -8  12  140.30   34.92
  -1  -8 -12  117.14   31.06
   1   8  13   41.72   26.36
  -1   8 -13   51.92   26.62
   1  -8  13   43.20   31.18
  -1  -8 -13   60.85   27.06
  -1   8 -14  214.76   42.13
   1   8  14  208.43   51.86
  -1  -8 -14  309.49   50.94
   1  -8  14  276.89   47.80
   1   9 -15  159.74   51.21
  -1   9  15  112.02   31.42
   1  -9 -15  156.12   35.93
  -1  -9  15  209.54   41.37
  -1   9  14  526.30   55.44
   1   9 -14  587.68   69.63
  -1  -9  14  571.04   74.39
   1  -9 -14  560.29   64.13
   1   9 -13   37.05   27.38
  -1   9  13   12.92   26.94
   1  -9 -13   65.90   26.60
  -1  -9  13   96.95   32.74
  -1   9  12  302.01   35.49
   1   9 -12  296.60   45.56
  -1  -9  12  328.09   48.62
   1  -9 -12  330.36   43.74
  -1   9  11  150.66   26.09
   1   9 -11  287.39   42.80
   1  -9 -11  171.41   34.92
   1  -9 -11  173.08   20.22
  -1  -9  11  141.72   37.03
  -1   9  10  858.47   53.06
   1   9 -10  913.01   68.38
   1  -9 -10  802.69   66.40
   1  -9 -10  747.55   44.06
  -1  -9  10  877.29   71.57
  -1   9   9 1737.76   89.89
   1   9  -9 1693.77  110.96
   1  -9  -9 1811.82  108.47
   1  -9  -9 1769.41   87.97
  -1  -9   9 1823.83  116.55
   1   9  -8 4518.67  245.36
  -1   9   8 4182.42  187.44
   1  -9  -8 4144.77  185.73
   1  -9  -8 4233.28  226.02
  -1  -9   8 4482.20  239.85
  -1   9   7  330.74   24.78
   1   9  -7  367.25   38.88
   1  -9  -7  400.83   38.04
  -1  -9   7  477.50   37.95
   1  -9  -7  335.73   23.45
   1   9  -6  134.37   23.08
  -1   9   6  130.66   14.40
   1  -9  -6  106.54   15.90
  -1  -9   6  171.39   23.23
   1  -9  -6  150.32   23.64
  -1   9   5   56.40   10.30
   1   9  -5   66.63   18.33
   1  -9  -5   74.80   18.86
   1  -9  -5   69.92   14.93
  -1  -9   5   70.74   16.98
   1   9  -4 1911.68   89.95
   1   9  -4 1817.37   47.34
  -1   9   4 2054.16   71.57
   1  -9  -4 1945.44   80.72
   1  -9  -4 1927.91   92.87
  -1  -9   4 1869.39   85.27
   1   9  -3  681.45   38.15
  -1   9   3  706.65   32.72
   1  -9  -3  651.33   32.01
  -1  -9   3  709.28   26.07
  -1  -9   3  680.82   39.18
   1  -9  -3  716.20   39.80
   1   9  -2 1603.44   72.54
   1  -9  -2 1686.11   74.79
   1  -9  -2 1662.90   66.26
   1  -9  -2 1501.55   60.46
  -1  -9   2 1534.59   56.29
  -1  -9   2 1597.92   76.88
   1  -9  -1  611.52   34.97
   1  -9  -1  627.68   33.43
   1  -9  -1  561.18   31.03
  -1  -9   1  650.72   34.44
  -1  -9   1  600.82   31.83
  -1  -9   1  567.01   27.30
  -1   9   0  673.87   29.74
   1  -9   0  576.02   27.50
   1  -9   0  529.55   32.39
  -1  -9   0  559.27   33.30
  -1  -9   0  565.20   32.90
  -1  -9   0  583.55   29.26
  -1   9  -1 2779.61   92.76
   1  -9   1 2752.26  116.08
  -1  -9  -1 2674.15  107.63
   1  -9   1 2598.68   96.90
  -1  -9  -1 2747.61  108.13
  -1  -9  -1 2760.83  100.01
  -1   9  -2 1520.93   51.37
   1   9   2 1522.04   62.76
   1  -9   2 1492.31   61.49
  -1  -9  -2 1583.72   58.27
   1  -9   2 1705.72   77.87
  -1  -9  -2 1540.68   69.86
  -1   9  -3  787.77   27.71
   1   9   3  765.65   40.89
   1  -9   3  776.34   47.75
  -1  -9  -3  891.19   49.32
   1  -9   3  850.26   47.34
  -1  -9  -3  841.89   31.81
   1   9   4   50.47   14.15
  -1   9  -4   56.39    7.42
  -1   9  -4   78.86   17.68
  -1  -9  -4   95.63   22.80
   1  -9   4   60.06   15.38
  -1  -9  -4   65.32   11.17
   1   9   5   69.92   17.33
  -1   9  -5   38.02    6.12
  -1   9  -5   57.08   17.73
   1  -9   5   22.12   16.13
  -1  -9  -5   33.32    9.66
  -1  -9  -5   42.76   18.39
   1   9   6 2071.04   95.69
  -1   9  -6 2105.49  107.94
   1  -9   6 1949.62  102.68
  -1  -9  -6 1734.18   64.72
  -1  -9  -6 1947.03  112.45
  -1   9  -7   46.15   20.50
   1   9   7   52.98   16.39
  -1  -9  -7   35.54   20.62
   1  -9   7   21.37   19.80
  -1  -9  -7   34.12    9.52
   1   9   8 2636.03  150.82
  -1   9  -8 2941.54  181.79
   1  -9   8 3056.96  164.79
  -1  -9  -8 2497.30   98.90
  -1  -9  -8 2952.02  164.63
  -1   9  -9  839.91   68.33
   1   9   9  691.43   65.20
  -1  -9  -9  777.49   66.95
   1  -9   9  869.09   68.10
   1   9  10   14.90   17.23
  -1   9 -10  -10.17   23.91
   1  -9  10  -15.56   22.10
  -1  -9 -10   13.10   19.89
   1   9  11  174.16   31.69
  -1   9 -11  130.88   35.15
   1  -9  11  224.83   47.17
  -1  -9 -11  255.13   35.07
   1   9  12   47.85   24.22
  -1   9 -12   68.81   27.94
   1  -9  12   10.26   30.77
  -1  -9 -12   66.52   31.09
   1   9  13  245.13   49.73
  -1   9 -13  264.87   46.99
   1  -9  13  237.96   48.57
  -1  -9 -13  327.97   45.65
  -1   9 -14  393.46   65.24
   1   9  14  354.72   52.88
  -1  -9 -14  421.91   54.68
   1  -9  14  457.83   66.68
   1  10 -14  118.64   35.41
  -1  10  14  104.01   33.28
   1 -10 -14  126.12   41.40
  -1 -10  14   46.77   40.09
   1  10 -13  378.22   49.83
  -1  10  13  288.99   38.78
   1 -10 -13  282.75   49.97
  -1 -10  13  394.71   56.45
   1  10 -12  582.16   58.72
  -1  10  12  408.45   42.18
   1 -10 -12  472.67   56.49
  -1 -10  12  444.86   59.75
   1  10 -11  252.71   42.22
  -1  10  11  245.47   28.53
   1 -10 -11  195.92   27.54
  -1 -10  11  214.57   41.61
   1 -10 -11  207.39   38.36
  -1  10  10 1148.18   78.38
   1  10 -10 1407.61  115.88
   1 -10 -10 1117.04   65.96
   1 -10 -10 1241.18   93.35
  -1 -10  10 1192.78   94.70
  -1  10   9   90.37   18.88
   1  10  -9  126.68   30.00
   1 -10  -9   87.99   25.72
   1 -10  -9   80.39   17.56
  -1 -10   9  106.54   27.41
  -1  10   8  430.29   35.02
   1  10  -8  502.01   44.56
   1 -10  -8  366.69   30.20
   1 -10  -8  424.71   50.23
  -1 -10   8  332.34   42.95
   1  10  -7 1197.45   76.01
  -1  10   7 1100.99   60.63
   1 -10  -7 1160.92   78.52
  -1 -10   7 1217.30   78.69
   1 -10  -7 1120.10   61.62
   1  10  -6  959.05   63.26
  -1  10   6  944.79   49.48
   1 -10  -6  979.12   51.48
   1 -10  -6  976.41   62.22
  -1 -10   6 1023.09   64.36
   1  10  -5  134.91   23.01
  -1  10   5  147.40   14.60
   1 -10  -5  151.68   24.22
   1 -10  -5  134.53   18.79
  -1 -10   5  137.31   23.89
   1  10  -4 1912.10   56.41
  -1  10   4 2129.91   80.94
   1  10  -4 2136.20  100.30
   1 -10  -4 2059.69   87.58
   1 -10  -4 2178.90  114.65
  -1 -10   4 2083.91  101.32
   1  10  -3  297.10   26.31
  -1  10   3  306.75   19.65
   1 -10  -3  338.06   23.10
   1 -10  -3  348.18   34.96
  -1 -10   3  319.63   28.41
   1  10  -2 1102.72   55.81
   1 -10  -2 1324.49   63.10
   1 -10  -2 1227.62   55.51
   1 -10  -2 1184.62   46.49
  -1 -10   2 1262.02   48.29
  -1 -10   2 1272.42   61.80
   1 -10  -1   61.03   16.08
   1 -10  -1   95.75   12.11
   1 -10  -1   88.91   21.05
  -1 -10   1  115.74   16.93
  -1 -10   1   65.46   14.89
  -1 -10   1   90.14   14.69
  -1  10   0   52.17   14.03
   1 -10   0   58.44   14.88
   1 -10   0   56.40   15.14
  -1 -10   0   40.34   12.70
  -1 -10   0   73.09   16.70
  -1 -10   0   54.19   12.26
  -1  10  -1  413.89   26.21
   1 -10   1  391.65   32.15
   1 -10   1  403.78   25.80
  -1 -10  -1  438.89   28.41
  -1 -10  -1  429.52   33.72
  -1 -10  -1  431.38   28.50
   1  10   2  674.80   42.86
  -1  10  -2  691.90   28.02
   1 -10   2  705.36   37.19
   1 -10   2  722.08   46.03
  -1 -10  -2  804.41   32.98
  -1 -10  -2  678.60   43.33
   1  10   3 1965.48   90.24
  -1  10  -3 1688.70   60.73
   1 -10   3 1823.14   90.44
   1 -10   3 1802.93   79.83
  -1 -10  -3 1857.49   68.81
  -1 -10  -3 1878.04   89.75
  -1  10  -4 2056.24   67.32
   1  10   4 2414.61  106.14
  -1  10  -4 2376.93  118.89
   1 -10   4 2249.72  104.34
  -1 -10  -4 2317.71  120.95
  -1 -10  -4 2400.82   87.12
   1  10   5  301.71   26.55
  -1  10  -5  236.22   12.72
  -1  10  -5  293.88   28.88
  -1 -10  -5  256.77   18.57
   1 -10   5  266.05   33.85
  -1 -10  -5  240.78   32.25
   1  10   6 1246.43   65.14
  -1  10  -6 1271.45   77.90
   1 -10   6 1322.28   74.49
  -1 -10  -6 1126.04   46.58
  -1 -10  -6 1359.65   85.08
  -1  10  -7  136.91   25.10
   1  10   7   80.47   19.16
  -1 -10  -7   54.05   11.88
   1 -10   7   73.69   23.09
  -1 -10  -7  122.72   24.82
   1  10   8 1152.86   72.08
  -1  10  -8 1144.77   83.90
   1 -10   8 1248.25   84.37
  -1 -10  -8 1234.72   87.91
   1  10   9   66.01   25.23
  -1  10  -9   75.29   24.91
   1 -10   9  108.75   32.41
  -1 -10  -9   55.12   27.76
   1  10  10 1396.06   97.60
  -1  10 -10 1578.36  112.68
   1 -10  10 1452.52  126.02
  -1 -10 -10 1441.57  105.73
   1  10  11   75.50   28.22
  -1  10 -11   18.04   27.50
   1 -10  11   34.64   28.54
  -1 -10 -11   49.69   32.19
   1  10  12   -2.02   31.29
  -1  10 -12   98.00   29.37
   1 -10  12    4.90   36.66
  -1 -10 -12   87.12   29.14
  -1  10 -13  126.38   39.77
   1  10  13   93.40   32.75
  -1 -10 -13  142.02   36.03
   1 -10  13  160.32   42.02
   1  10  14   10.00   28.64
  -1  10 -14  103.99   30.65
   1 -10  14   50.91   44.87
  -1 -10 -14   78.57   31.16
   1  11 -14  259.12   49.45
   1 -11 -14  294.48   56.78
  -1 -11  14  198.07   51.40
   1  11 -13  241.58   43.92
  -1  11  13  119.75   39.12
   1 -11 -13  276.34   45.65
  -1 -11  13  236.06   47.72
   1  11 -12  174.90   40.53
  -1  11  12  155.11   33.14
   1 -11 -12  126.31   45.96
  -1 -11  12  166.85   38.50
   1  11 -11  110.22   41.96
  -1  11  11  110.08   30.38
   1 -11 -11   92.95   31.66
  -1 -11  11  138.53   42.15
  -1  11  10  258.73   27.74
   1  11 -10  225.04   42.35
   1 -11 -10  264.84   38.19
   1 -11 -10  239.43   23.73
  -1 -11  10  192.89   42.45
   1  11  -9  105.32   28.95
  -1  11   9   73.32   17.53
   1 -11  -9   69.87   19.17
   1 -11  -9   90.33   27.35
  -1 -11   9  110.98   27.84
   1  11  -8  456.79   52.17
  -1  11   8  447.46   36.77
   1 -11  -8  475.22   32.82
   1 -11  -8  479.03   48.96
  -1 -11   8  513.66   49.31
   1  11  -7  114.31   25.57
  -1  11   7   83.70   18.17
   1 -11  -7   79.54   15.14
   1 -11  -7   93.92   25.15
  -1 -11   7   82.77   24.01
   1  11  -6  337.12   35.98
  -1  11   6  324.61   23.31
   1 -11  -6  314.01   36.03
  -1 -11   6  313.82   36.59
   1 -11  -6  301.98   28.65
  -1  11   5  396.60   29.38
   1  11  -5  458.13   39.60
   1 -11  -5  484.13   38.70
  -1 -11   5  359.03   36.49
   1 -11  -5  374.38   25.98
   1  11  -4 3365.91  159.06
  -1  11   4 3261.57  128.88
   1  11  -4 3121.67   99.14
   1 -11  -4 3135.48  134.97
   1 -11  -4 3423.33  167.64
  -1 -11   4 3340.66  165.42
   1  11  -3  244.80   15.53
  -1  11   3  273.67   22.62
   1  11  -3  319.32   31.46
   1 -11  -3  258.67   27.67
   1 -11  -3  300.40   28.97
  -1 -11   3  276.81   34.01
   1  11  -2 1036.80   55.81
   1 -11  -2 1101.76   64.10
   1 -11  -2 1071.79   58.96
   1 -11  -2  970.43   51.88
  -1 -11   2 1004.56   58.87
  -1 -11   2 1049.46   47.62
   1 -11  -1  366.67   27.52
   1 -11  -1  418.41   32.21
   1 -11  -1  374.10   29.03
  -1 -11   1  386.02   25.28
  -1 -11   1  408.31   30.78
  -1  11   0  313.78   25.62
   1 -11   0  315.86   27.94
  -1 -11   0  301.30   27.47
   1 -11   0  316.40   21.90
  -1 -11   0  306.07   24.86
  -1 -11   0  299.45   25.61
  -1  11  -1 1607.06   64.84
   1 -11   1 1613.48   83.02
   1 -11   1 1573.84   69.91
  -1 -11  -1 1610.12   70.10
  -1 -11  -1 1587.17   76.96
  -1 -11  -1 1581.99   82.52
   1  11   2 2230.42  107.28
  -1  11  -2 2243.67   82.63
   1 -11   2 2282.18  117.56
  -1 -11  -2 2164.08  107.15
  -1 -11  -2 2250.87   88.74
   1 -11   2 2110.41   97.13
   1  11   3 1419.97   69.08
  -1  11  -3 1417.53   54.59
   1 -11   3 1441.17   85.48
   1 -11   3 1325.92   79.26
  -1 -11  -3 1365.03   58.90
  -1 -11  -3 1540.52   81.06
   1  11   4  822.29   47.11
  -1  11  -4  704.90   30.49
  -1  11  -4  788.85   58.35
   1 -11   4  818.29   55.02
  -1 -11  -4  774.79   38.34
  -1 -11  -4  857.15   55.90
  -1  11  -5   57.41   22.02
   1  11   5   52.75   16.78
  -1 -11  -5   48.35   13.11
   1 -11   5   35.04   23.35
  -1 -11  -5   59.28   21.58
  -1  11  -6  732.76   65.31
   1  11   6  729.49   48.79
  -1 -11  -6  651.34   58.51
   1 -11   6  722.03   50.91
  -1 -11  -6  652.61   33.54
   1  11   7   73.81   21.80
  -1  11  -7  105.14   27.43
  -1 -11  -7  110.43   27.09
  -1 -11  -7   95.64   13.33
  -1  11  -8  118.00   32.18
   1  11   8  157.91   24.82
  -1 -11  -8  144.96   29.05
   1 -11   8  125.36   30.81
   1  11   9  721.40   57.50
  -1  11  -9  744.18   69.65
   1 -11   9  781.87   69.04
  -1 -11  -9  778.24   68.64
  -1  11 -10  182.80   35.90
   1  11  10  145.09   29.33
  -1 -11 -10  189.99   36.63
   1 -11  10  113.94   37.06
   1  11  11  318.09   43.02
  -1  11 -11  404.57   51.91
   1 -11  11  375.29   50.72
  -1 -11 -11  320.39   53.10
   1  11  12  120.46   32.22
  -1  11 -12  132.42   42.23
   1 -11  12  180.44   39.03
  -1 -11 -12  145.97   38.67
  -1  11 -13  380.85   58.47
   1  11  13  324.05   47.10
  -1 -11 -13  339.71   55.73
   1 -11  13  420.17   61.45
   1  12 -13  145.11   42.35
   1 -12 -13   94.75   48.75
  -1 -12  13  198.39   42.87
   1  12 -12  211.24   51.98
  -1  12  12  141.73   31.92
   1 -12 -12  162.67   39.03
  -1 -12  12   98.67   50.42
  -1  12  11   35.54   18.01
   1  12 -11   37.90   29.03
  -1 -12  11   23.21   33.06
   1 -12 -11   27.46   27.50
   1  12 -10  286.73   45.25
  -1  12  10  257.60   34.52
   1 -12 -10  329.24   45.59
  -1 -12  10  255.21   47.92
   1  12  -9  149.25   33.72
  -1  12   9  144.17   25.30
   1 -12  -9   92.34   21.19
   1 -12  -9  131.91   32.90
  -1 -12   9   86.39   39.36
  -1  12   8  106.05   17.68
   1  12  -8  172.91   30.72
   1 -12  -8   68.93   19.73
   1 -12  -8   85.00   29.94
  -1 -12   8   85.11   27.93
  -1  12   7   61.69   16.17
   1  12  -7  118.99   26.84
   1 -12  -7  165.08   27.34
   1 -12  -7   79.25   15.92
  -1 -12   7   51.43   25.94
   1  12  -6 1058.18   75.48
  -1  12   6 1084.02   61.92
   1 -12  -6 1225.55   83.76
   1 -12  -6 1146.63   57.40
  -1 -12   6 1136.26   76.05
   1  12  -5  281.50   33.23
  -1  12   5  256.62   26.27
   1 -12  -5  287.08   28.94
   1 -12  -5  295.85   36.47
  -1 -12   5  293.60   32.28
   1  12  -4  857.45   34.66
   1  12  -4  972.14   61.87
  -1  12   4  790.28   49.41
   1 -12  -4  973.28   61.95
   1 -12  -4  927.32   51.52
  -1 -12   4  929.30   61.49
   1  12  -3  236.55   27.30
   1  12  -3  266.16   18.93
  -1  12   3  254.20   25.17
   1 -12  -3  303.75   29.45
   1 -12  -3  259.87   30.74
  -1 -12   3  235.68   28.52
   1  12  -2  513.79   36.62
   1 -12  -2  501.49   39.58
   1 -12  -2  450.35   29.99
   1 -12  -2  428.31   40.43
  -1 -12   2  484.51   32.09
  -1 -12   2  444.40   44.99
   1  12  -1 1125.73   60.27
   1 -12  -1 1102.52   53.33
   1 -12  -1 1170.37   63.12
   1 -12  -1 1148.16   65.79
  -1 -12   1 1070.00   62.41
  -1 -12   1 1150.01   61.57
  -1  12   0 2488.84  118.57
   1 -12   0 2504.80  122.07
  -1 -12   0 2419.32  119.72
   1 -12   0 2463.27  110.50
  -1 -12   0 2598.07  116.70
  -1 -12   0 2477.90  112.92
  -1  12  -1  699.85   43.78
   1 -12   1  729.27   53.67
  -1 -12  -1  677.96   44.83
  -1 -12  -1  817.92   42.40
   1 -12   1  691.49   42.61
  -1 -12  -1  736.06   44.31
  -1  12  -2  269.15   19.07
   1  12   2  276.81   25.24
   1 -12   2  264.78   30.78
   1 -12   2  319.45   39.60
  -1 -12  -2  274.06   28.77
  -1 -12  -2  294.79   27.28
  -1  12  -3  193.97   17.50
   1  12   3  194.37   22.91
   1 -12   3  173.51   24.64
   1 -12   3  237.61   29.97
  -1 -12  -3  248.48   19.28
  -1 -12  -3  157.53   27.90
  -1  12  -4 2439.73  136.29
   1  12   4 2450.88  127.64
  -1  12  -4 2128.42   82.44
  -1 -12  -4 2279.60   97.18
   1 -12   4 2266.42  115.53
  -1 -12  -4 2430.27  133.04
   1  12   5 1028.02   60.47
  -1  12  -5  951.99   69.89
  -1 -12  -5  865.93   44.73
  -1 -12  -5  884.40   67.62
   1 -12   5  915.83   60.85
   1  12   6  550.83   42.96
  -1  12  -6  543.59   52.48
   1 -12   6  573.73   46.88
  -1 -12  -6  511.82   31.89
  -1 -12  -6  540.56   54.05
   1  12   7  375.35   46.60
  -1  12  -7  385.68   47.01
   1 -12   7  450.80   44.73
  -1 -12  -7  462.00   48.81
   1  12   8  357.95   35.54
  -1  12  -8  323.37   44.33
   1 -12   8  294.55   42.77
  -1 -12  -8  280.93   45.56
   1  12   9  323.28   38.41
  -1  12  -9  342.17   46.94
   1 -12   9  368.47   54.57
  -1 -12  -9  349.32   48.41
   1  12  10  678.56   67.26
  -1  12 -10  692.83   77.86
   1 -12  10  730.86   72.93
  -1 -12 -10  696.77   71.91
   1  12  11  854.21   75.27
  -1  12 -11  835.57   90.82
   1 -12  11  930.04   89.90
  -1 -12 -11  872.31   88.61
   1  12  12   89.72   28.43
  -1  12 -12  111.91   35.15
   1 -12  12   70.56   33.48
  -1 -12 -12   29.32   32.34
   1  13 -12  254.60   46.60
   1 -13 -12  195.33   46.53
  -1 -13  12  169.34   46.27
   1  13 -11  -43.32   26.63
  -1  13  11   -2.80   17.26
   1 -13 -11   -5.84   24.93
  -1 -13  11    8.87   24.88
   1  13 -10   73.50   31.89
  -1  13  10   73.85   24.83
   1 -13 -10  122.62   32.08
  -1 -13  10   59.20   29.94
  -1  13   9  136.61   27.88
   1  13  -9  194.71   38.62
   1 -13  -9  150.88   20.26
  -1 -13   9  153.46   42.19
   1 -13  -9  173.40   36.29
  -1  13   8 1591.78   87.58
   1  13  -8 1937.25  132.79
   1 -13  -8 1570.98   80.57
   1 -13  -8 1791.02  127.29
  -1 -13   8 1667.26  121.33
   1  13  -7  141.04   31.36
  -1  13   7   98.08   18.41
   1 -13  -7  118.81   29.71
   1 -13  -7   88.36   21.49
  -1 -13   7  142.87   28.32
  -1  13   6  138.32   21.28
   1  13  -6   77.14   27.11
   1 -13  -6  109.53   22.62
   1 -13  -6  103.95   29.58
  -1 -13   6  130.50   27.33
   1  13  -5  880.81   67.86
  -1  13   5  968.17   53.73
   1 -13  -5  903.96   71.90
   1 -13  -5  903.01   53.48
  -1 -13   5  946.39   66.50
   1  13  -4 1090.25   46.01
  -1  13   4 1250.89   68.40
   1  13  -4 1306.38   83.03
   1 -13  -4 1226.95   77.61
  -1 -13   4 1242.69   75.98
   1 -13  -4 1251.92   74.72
   1  13  -3  840.13   41.33
  -1  13   3  840.70   46.01
   1  13  -3  928.70   65.02
   1 -13  -3  839.02   63.63
   1 -13  -3  891.31   62.10
  -1 -13   3  860.86   58.55
   1  13  -2 1971.25  113.54
   1 -13  -2 1696.57   86.42
   1 -13  -2 2042.00  108.98
   1 -13  -2 1892.82   99.64
  -1 -13   2 1889.29   83.50
  -1 -13   2 1759.24  104.50
   1  13  -1 3535.62  177.50
  -1  13   1 3502.28  168.96
   1 -13  -1 3357.70  187.50
   1 -13  -1 3146.96  159.19
  -1 -13   1 3363.26  150.20
  -1 -13   1 3196.78  178.08
  -1  13   0 1744.94   85.84
   1 -13   0 1686.57   95.53
   1 -13   0 1680.53   93.38
  -1 -13   0 1775.42   94.73
  -1 -13   0 1642.02   93.86
  -1 -13   0 1686.39   98.24
  -1  13  -1  637.95   42.34
   1 -13   1  674.61   51.21
  -1 -13  -1  554.75   42.62
   1 -13   1  546.14   39.49
  -1 -13  -1  676.96   47.56
  -1 -13  -1  593.15   43.34
  -1  13  -2 1571.22   73.55
   1  13   2 1658.73   87.04
   1 -13   2 1532.95   83.74
  -1 -13  -2 1579.01   89.04
   1 -13   2 1570.15   98.01
  -1 -13  -2 1831.21   90.32
   1  13   3  622.64   43.89
  -1  13  -3  609.36   33.28
   1 -13   3  638.00   51.41
  -1 -13  -3  595.83   42.60
  -1 -13  -3  670.85   49.70
   1  13   4  586.28   42.31
  -1  13  -4  639.44   51.35
  -1  13  -4  481.25   27.39
   1 -13   4  508.82   42.71
  -1 -13  -4  523.65   36.12
  -1 -13  -4  607.66   49.48
   1  13   5  729.93   50.61
  -1  13  -5  649.26   57.36
   1 -13   5  678.76   50.07
  -1 -13  -5  590.95   33.36
  -1 -13  -5  642.61   71.90
   1  13   6 1060.12   66.66
  -1  13  -6 1042.07   79.63
   1 -13   6 1017.42   81.59
  -1 -13  -6 1032.61   79.07
  -1 -13  -6  880.11   48.96
   1  13   7  146.64   26.04
  -1  13  -7  162.14   33.26
   1 -13   7  108.24   28.88
  -1 -13  -7   96.61   33.06
   1  13   8  216.60   31.30
  -1  13  -8  261.76   42.09
   1 -13   8  192.91   35.92
  -1 -13  -8  244.76   38.61
   1  13   9  497.46   45.60
  -1  13  -9  570.49   60.84
   1 -13   9  544.02   59.57
  -1 -13  -9  506.12   60.80
   1  13  10  252.55   48.58
  -1  13 -10  421.82   56.26
   1 -13  10  363.48   61.85
  -1 -13 -10  373.90   63.79
   1  13  11  180.74   34.24
  -1  13 -11  227.58   48.21
   1 -13  11  226.31   51.66
  -1 -13 -11  165.39   44.20
   1  13  12   13.19   21.08
  -1  13 -12  -27.06   29.54
   1 -13  12   -4.28   27.28
  -1 -13 -12   34.46   27.52
   1  14 -12  118.63   35.99
   1 -14 -12   32.87   33.06
  -1 -14  12   23.80   33.54
   1  14 -11  318.50   48.86
   1 -14 -11  210.02   50.54
  -1 -14  11  220.47   46.47
   1  14 -10   30.18   32.88
   1 -14 -10   16.95   27.87
  -1 -14  10   26.75   26.99
   1  14  -9   89.44   29.97
  -1  14   9   74.29   21.11
   1 -14  -9   81.79   30.58
  -1 -14   9   12.69   36.21
   1  14  -8   96.57   27.96
  -1  14   8   54.66   17.63
   1 -14  -8  102.63   27.93
   1 -14  -8   62.00   19.29
  -1 -14   8   41.51   26.91
   1  14  -7  176.59   31.95
  -1  14   7   92.24   17.97
   1 -14  -7  103.87   31.53
  -1 -14   7  103.78   31.00
   1 -14  -7   95.06   23.54
  -1  14   6  334.23   28.28
   1  14  -6  384.24   43.31
   1 -14  -6  329.84   53.09
   1 -14  -6  326.89   30.13
  -1 -14   6  321.75   41.85
   1  14  -5  275.55   47.65
  -1  14   5  293.17   29.64
   1 -14  -5  284.27   29.90
   1 -14  -5  279.18   38.67
  -1 -14   5  259.82   36.84
  -1  14   4   59.66   18.89
   1  14  -4   67.34   23.92
   1 -14  -4   51.38   22.90
   1 -14  -4   62.63   22.83
  -1 -14   4   75.36   22.36
   1  14  -3   83.15   20.69
  -1  14   3   78.93   19.39
   1  14  -3   62.04   14.94
   1 -14  -3   46.00   22.43
   1 -14  -3   56.95   22.35
  -1 -14   3   86.37   21.16
   1  14  -2  379.87   43.43
   1 -14  -2  379.63   42.21
   1 -14  -2  359.94   39.00
  -1 -14   2  361.90   38.12
   1  14  -1  396.96   33.46
  -1  14   1  337.36   32.58
   1 -14  -1  339.80   29.72
   1 -14  -1  328.48   35.44
  -1 -14   1  335.52   35.92
  -1 -14   1  319.38   35.86
  -1  14   0 1244.98   65.92
   1 -14   0 1113.41   72.97
  -1 -14   0 1006.50   61.29
   1 -14   0 1025.97   68.77
  -1 -14   0  968.40   68.32
  -1  14  -1 1424.18   74.10
   1 -14   1 1294.88   75.73
   1 -14   1 1417.41   92.25
  -1 -14  -1 1324.30   81.97
  -1 -14  -1 1428.55   80.46
  -1 -14  -1 1487.96   87.46
   1  14   2   34.62   16.47
  -1  14  -2   19.26   14.17
   1 -14   2   63.80   20.25
  -1 -14  -2   15.10   18.69
  -1 -14  -2   49.64   14.67
   1 -14   2   10.18   19.94
   1  14   3  177.45   25.25
  -1  14  -3  177.43   20.27
  -1  14  -3  214.31   31.70
   1 -14   3  140.82   29.39
  -1 -14  -3  210.31   35.78
  -1 -14  -3  188.48   22.10
   1  14   4  947.50   61.62
  -1  14  -4  953.60   74.64
   1 -14   4  850.78   62.56
  -1 -14  -4  897.64   54.98
  -1 -14  -4  923.69   68.62
  -1  14  -5   44.16   27.76
   1  14   5   96.52   20.92
  -1 -14  -5   96.52   27.07
   1 -14   5   80.23   23.66
  -1 -14  -5   56.52   17.40
   1  14   6  101.66   24.68
  -1  14  -6  120.80   32.11
   1 -14   6  134.42   27.75
  -1 -14  -6  122.90   33.53
   1  14   7   84.86   22.60
  -1  14  -7   89.85   30.52
   1 -14   7  115.35   27.44
  -1 -14  -7   36.77   29.89
   1  14   8  127.93   33.16
  -1  14  -8  114.55   36.70
   1 -14   8  148.92   30.92
  -1 -14  -8  111.98   33.07
   1  14   9  129.97   29.80
  -1  14  -9  161.76   39.96
   1 -14   9  184.49   34.72
  -1 -14  -9  162.35   40.53
   1  14  10  307.49   40.58
  -1  14 -10  252.95   51.37
   1 -14  10  272.01   49.92
  -1 -14 -10  333.13   51.15
   1  14  11  347.54   44.81
  -1  14 -11  374.02   58.52
   1 -14  11  326.03   55.53
  -1 -14 -11  251.50   56.97
   1  15 -11  260.33   57.23
   1 -15 -11  301.50   53.94
  -1 -15  11  276.47   52.10
   1  15 -10  187.07   52.67
   1 -15 -10  153.02   43.50
  -1 -15  10  157.53   40.09
   1  15  -9   99.39   34.10
   1 -15  -9  115.32   34.31
  -1 -15   9   32.88   39.71
   1  15  -8  232.22   53.56
  -1  15   8  167.41   31.23
   1 -15  -8  237.68   43.34
  -1 -15   8  266.02   41.20
  -1  15   7   59.26   17.91
   1  15  -7  103.13   30.91
   1 -15  -7   74.89   22.58
   1 -15  -7   90.31   37.40
  -1 -15   7   85.98   27.15
   1  15  -6   87.15   35.27
  -1  15   6   92.92   19.08
   1 -15  -6   89.15   27.72
   1 -15  -6   80.34   20.24
  -1 -15   6   97.25   28.48
   1  15  -5   72.10   26.30
  -1  15   5   74.07   20.02
   1 -15  -5   25.45   17.83
  -1 -15   5   69.94   28.98
   1 -15  -5  101.01   26.63
   1  15  -4  842.65   73.92
  -1  15   4  655.23   45.10
   1 -15  -4  670.76   58.18
   1 -15  -4  738.14   60.51
  -1 -15   4  652.24   57.35
   1  15  -3  539.19   36.90
   1  15  -3  600.50   49.34
  -1  15   3  581.97   40.93
   1 -15  -3  522.96   61.44
   1 -15  -3  593.98   47.28
  -1 -15   3  575.57   60.52
  -1  15   2 1881.78  107.94
   1  15  -2 1808.27   96.51
   1  15  -2 1825.91  122.05
  -1  15   2 1808.61   98.05
   1 -15  -2 1953.78  110.99
  -1 -15   2 1790.70  112.48
   1  15  -1  705.55   52.57
  -1  15   1  669.12   50.83
   1 -15  -1  703.36   55.46
  -1 -15   1  659.17   44.98
  -1 -15   1  703.69   53.48
   1 -15  -1  640.63   45.00
   1  15   0  855.93   59.98
  -1  15   0  785.93   57.00
   1 -15   0  721.77   59.11
   1 -15   0  738.90   59.51
  -1 -15   0  698.97   65.17
  -1 -15   0  749.12   56.69
  -1  15  -1   88.60   18.37
   1 -15   1  109.40   20.48
   1 -15   1  104.79   32.14
  -1 -15  -1   71.73   20.91
  -1 -15  -1   89.03   23.65
  -1 -15  -1  103.96   25.95
   1  15   2  510.30   42.09
  -1  15  -2  481.66   35.46
   1 -15   2  514.74   50.97
   1 -15   2  523.39   48.65
  -1 -15  -2  495.22   39.51
  -1 -15  -2  507.96   52.84
   1  15   3  348.53   36.22
  -1  15  -3  444.78   44.85
  -1  15  -3  282.54   27.96
   1 -15   3  296.17   43.71
  -1 -15  -3  365.54   37.84
  -1 -15  -3  418.05   39.81
   1  15   4  190.08   36.29
  -1  15  -4  242.60   36.41
   1 -15   4  195.40   30.75
  -1 -15  -4  279.76   35.88
  -1 -15  -4  236.07   29.23
  -1  15  -5  539.43   57.23
   1  15   5  533.81   47.61
  -1 -15  -5  515.52   56.08
   1 -15   5  467.01   58.07
  -1  15  -6  754.74   76.78
   1  15   6  799.54   69.95
  -1 -15  -6  799.99   71.08
   1 -15   6  635.25   64.29
   1  15   7  173.36   31.12
  -1  15  -7  162.45   37.23
   1 -15   7  198.34   34.30
  -1 -15  -7  187.18   36.27
   1  15   8  173.20   33.18
  -1  15  -8  194.31   40.12
   1 -15   8  210.11   37.38
  -1 -15  -8  239.73   46.46
   1  15   9  252.75   35.72
  -1  15  -9  215.46   47.01
   1 -15   9  274.40   54.02
  -1 -15  -9  219.25   54.25
  -1  15 -10  227.38   46.10
   1  15  10  182.38   35.14
  -1 -15 -10  199.83   45.03
   1 -15  10  147.71   43.24
   1  16 -10   26.65   26.03
   1 -16 -10   -3.14   29.34
  -1 -16  10  -32.05   29.62
   1  16  -9   16.48   30.61
   1 -16  -9  115.84   36.76
  -1 -16   9  -29.47   32.77
   1  16  -8  280.40   47.99
   1 -16  -8  213.96   43.88
  -1 -16   8  208.83   50.13
   1  16  -7  122.73   35.38
   1 -16  -7  153.71   36.89
  -1 -16   7  131.10   33.30
  -1  16   6  293.02   30.42
   1  16  -6  585.82   52.01
   1 -16  -6  297.31   47.91
   1 -16  -6  229.28   36.99
  -1 -16   6  289.21   43.42
  -1  16   5  107.22   19.63
   1  16  -5  105.47   28.69
   1 -16  -5   53.15   29.50
   1 -16  -5   76.93   25.31
  -1 -16   5   70.03   27.29
  -1  16   4  118.24   25.87
   1  16  -4  179.41   31.38
   1 -16  -4   93.48   27.82
  -1 -16   4  100.89   29.20
   1 -16  -4  186.87   38.64
   1  16  -3  238.43   36.30
  -1  16   3  224.31   26.87
  -1  16   3  386.46   28.35
  -1 -16   3  239.47   37.29
   1 -16  -3  221.19   33.40
   1  16  -2   63.44   20.18
   1  16  -2   30.97   17.23
  -1  16   2   29.84   16.02
  -1  16   2   51.99   19.71
  -1 -16   2   14.07   20.82
   1 -16  -2   36.74   21.34
   1  16  -1    1.51   15.63
  -1  16   1  -19.04   19.09
   1  16  -1   -3.29    8.96
   1 -16  -1   -4.73   18.71
   1 -16  -1    6.58   14.56
  -1 -16   1   41.42   16.95
   1  16   0 1222.79   77.88
  -1  16   0 1171.10   75.47
   1 -16   0 1035.18   69.82
  -1 -16   0 1158.00   84.03
  -1 -16   0 1203.59   80.77
   1 -16   0 1312.31   98.10
  -1  16  -1  367.66   35.88
   1  16   1  300.46   32.32
   1 -16   1  343.26   41.48
   1 -16   1  265.22   33.55
  -1 -16  -1  273.54   33.46
   1  16   2   24.34   18.36
  -1  16  -2   30.50   16.05
  -1  16  -2   20.03   22.95
  -1 -16  -2   22.45   16.13
   1 -16   2   44.17   20.13
  -1 -16  -2   21.65   20.25
   1  16   3  780.18   65.86
  -1  16  -3  793.94   83.55
   1 -16   3  697.84   67.26
  -1 -16  -3  715.43   51.72
  -1 -16  -3  745.39   65.34
   1  16   4  172.42   27.45
  -1  16  -4  181.99   34.78
   1 -16   4  158.05   34.09
  -1 -16  -4  132.18   22.04
  -1 -16  -4  116.95   31.67
  -1  16  -5  190.34   36.64
   1  16   5  219.11   36.41
  -1 -16  -5  207.06   36.06
   1 -16   5  170.07   32.14
   1  16   6   16.37   24.61
  -1  16  -6   25.65   28.38
   1 -16   6   35.93   28.87
  -1 -16  -6   38.42   30.29
   1  16   7  155.52   31.81
  -1  16  -7  214.25   51.12
   1 -16   7  223.40   36.41
  -1 -16  -7  132.85   43.31
   1  16   8   86.27   26.28
  -1  16  -8  108.85   34.59
   1 -16   8   76.42   37.10
  -1 -16  -8   47.87   35.11
  -1  16  -9  260.92   49.36
   1 -16   9  184.29   44.03
  -1 -16  -9  220.97   48.57
   1  17  -8  343.38   55.10
   1 -17  -8  332.94   54.85
  -1 -17   8  265.41   50.50
   1  17  -7   64.94   30.50
   1 -17  -7   12.05   31.94
  -1 -17   7   72.39   29.33
   1  17  -6  -19.44   24.73
   1 -17  -6    8.64   24.54
  -1 -17   6  -31.39   28.81
   1  17  -5   94.98   40.01
   1 -17  -5  146.46   32.97
   1 -17  -5   89.50   27.93
  -1 -17   5  128.38   29.38
  -1  17   4   53.79   19.87
   1  17  -4  128.37   30.32
  -1  17   4  105.67   26.26
   1 -17  -4   89.33   28.36
  -1 -17   4  106.79   27.93
   1  17  -3  139.85   32.22
  -1  17   3  113.90   29.05
  -1  17   3  143.59   28.62
   1 -17  -3  230.47   33.96
  -1 -17   3  136.94   31.36
   1  17  -2   76.14   24.29
  -1  17   2   64.02   24.06
  -1  17   2  130.08   28.74
   1 -17  -2   55.07   25.41
  -1 -17   2  124.39   31.16
   1  17  -1  361.27   38.48
  -1  17   1  429.59   47.03
   1  17  -1  437.86   40.66
   1 -17  -1  375.24   44.96
   1 -17  -1  273.37   43.38
  -1 -17   1  349.60   41.21
   1  17   0  490.35   43.77
  -1  17   0  433.79   41.33
   1 -17   0  425.27   49.32
   1 -17   0  432.26   40.75
  -1 -17   0  395.75   40.86
  -1 -17   0  419.19   44.22
   1  17   1  338.64   38.60
   1  17   1  348.71   39.35
  -1  17  -1  377.66   34.16
   1 -17   1  396.93   44.85
  -1 -17  -1  341.99   39.03
   1  17   2  637.78   49.54
   1  17   2  690.56   53.01
  -1  17  -2  775.65   68.39
   1 -17   2  536.70   53.31
  -1 -17  -2  623.73   56.42
   1  17   3  346.68   39.63
  -1  17  -3  458.90   51.16
   1 -17   3  347.49   50.72
  -1 -17  -3  442.52   52.50
  -1 -17  -3  362.02   36.42
   1  17   4  222.13   38.69
  -1  17  -4  191.72   40.49
   1 -17   4  152.35   39.08
  -1 -17  -4  222.96   36.77
   1  17   5  285.46   37.39
  -1  17  -5  276.36   44.53
   1 -17   5  197.58   35.98
  -1 -17  -5  205.22   42.66
   1  17   6    9.82   18.86
  -1  17  -6  -15.49   31.15
   1 -17   6   23.22   19.54
  -1 -17  -6  -26.28   23.28
   1  17   7   89.65   27.64
  -1  17  -7   68.15   35.38
   1 -17   7   74.21   30.45
  -1 -17  -7  103.17   34.06
  -1  17  -8  -11.10   28.32
   1 -17   8  -20.88   24.38
  -1 -17  -8  -13.29   28.43
   1  18  -7   87.32   36.95
   1 -18  -7   91.52   37.20
  -1 -18   7  151.79   43.24
   1  18  -6   15.61   34.21
  -1 -18   6   29.52   25.74
   1  18  -5  326.90   49.66
  -1  18   5  291.49   44.22
  -1 -18   5  273.96   44.20
  -1  18   4  111.68   30.13
   1  18  -4  134.95   32.19
  -1 -18   4  105.83   30.61
   1 -18  -4   80.75   27.27
  -1  18   3   84.57   29.02
   1  18  -3  164.68   35.81
  -1 -18   3  193.32   40.34
   1 -18  -3  207.01   31.97
   1  18  -2  258.84   43.03
  -1  18   2  288.84   39.67
   1 -18  -2  334.23   43.09
  -1 -18   2  415.41   50.38
   1  18  -1  259.67   36.35
  -1  18   1  251.46   34.40
   1 -18  -1  326.03   41.76
  -1 -18   1  228.57   38.65
   1  18   0  233.02   38.48
   1  18   0  214.00   33.80
  -1  18   0  259.23   37.17
   1 -18   0  201.55   31.72
   1 -18   0  195.11   39.27
  -1 -18   0  223.27   42.19
   1  18   1  284.46   45.24
   1  18   1  351.59   42.39
  -1  18  -1  400.06   54.38
   1 -18   1  259.19   36.22
  -1 -18  -1  339.62   48.78
   1  18   2   53.31   23.85
  -1  18  -2   98.51   30.26
   1 -18   2   75.18   28.33
  -1 -18  -2   63.78   31.58
   1  18   3  112.00   26.91
  -1  18  -3  120.90   32.66
   1 -18   3   64.41   25.35
  -1 -18  -3   90.15   28.74
   1  18   4   19.48   26.92
  -1  18  -4   38.45   27.52
   1 -18   4   36.76   23.13
  -1  18  -5  703.01   74.10
   1  18   5  577.86   70.02
  -1 -18  -5  589.00   79.35
   1 -18   5  512.18   57.86
  -1  18  -6  -20.00   32.27
   1 -18   6   17.34   21.46
  -1 -18  -6    5.41   25.47
   1  19  -4   25.98   26.86
  -1  19   4   36.22   25.43
  -1 -19   4   41.07   26.37
   1  19  -3  273.26   54.39
  -1  19   3  211.63   38.85
   1 -19  -3  292.75   45.55
  -1 -19   3  222.82   40.97
   1  19  -2   56.05   33.20
  -1  19   2   63.16   24.06
   1 -19  -2   85.42   27.02
  -1 -19   2   35.75   25.93
  -1  19   1  237.49   39.21
   1  19  -1  327.29   40.94
  -1 -19   1  310.69   43.32
   1 -19  -1  305.23   47.74
   1  19   0   29.92   19.13
  -1  19   0   -2.90   21.70
  -1 -19   0    5.78   21.21
   1  19   1   -5.93   17.13
   1  19   1   27.67   18.68
  -1  19  -1   -9.21   22.37
   1  19   2   35.14   25.03
  -1  19  -2   24.11   31.87
   1 -19   2   -0.68   19.47
  -1 -19  -2   24.39   20.61
  -1  19  -3  541.20   64.56
   1 -19   3  431.43   51.42
  -1 -19  -3  509.64   57.51
  -1  19  -4   45.09   32.04
   1 -19   4   36.96   24.44
  -1 -19  -4   53.86   28.31
   2   0 -17  652.98   67.82
  -2   0  17  768.37   79.69
   2   0 -16  539.90   57.97
  -2   0  16  606.65   68.45
   2   0 -15  684.41   61.98
  -2   0  15  685.06   65.29
   2   0 -14  164.93   29.03
   2   0 -14   96.54   22.48
  -2   0  14  205.56   38.56
   2   0 -13   46.70   13.46
   2   0 -13   92.86   27.88
  -2   0  13   82.58   23.51
   2   0 -12  545.18   36.42
   2   0 -12  536.55   43.69
  -2   0  12  495.32   45.95
   2   0 -11   87.98   21.85
   2   0 -11  113.79   16.99
  -2   0  11  104.40   22.46
   2   0 -10   24.35   10.14
   2   0 -10   12.87   18.93
  -2   0  10   29.69   15.84
   2   0  -9   18.10    9.29
   2   0  -9   43.51   16.82
  -2   0   9   22.46   13.66
   2   0  -8 1766.92   78.13
   2   0  -8 1733.17   62.50
  -2   0   8 1776.25   73.21
   2   0  -7  450.12   35.88
   2   0  -7  515.40   22.74
  -2   0   7  515.51   28.12
   2   0  -6  712.00   34.59
   2   0  -6  708.08   23.92
  -2   0   6  741.12   31.16
   2   0  -5  765.35   26.28
   2   0  -5  735.57   32.76
  -2   0   5  740.40   32.14
   2   0  -4 5703.94  170.39
  -2   0   4 5758.47  134.78
  -2   0   4 5885.92  150.52
   2   0  -321077.60  630.52
  -2   0   321528.91  519.31
  -2   0   321632.68  522.10
   2   0  -2 1067.43   31.44
   2   0  -2 1017.38   20.13
  -2   0   2 1092.57   20.94
  -2   0   2 1174.21   25.68
   2   0  -111428.43  233.69
   2   0  -110996.28  198.72
  -2   0   111233.43  239.87
  -2   0   111474.56  189.54
   2   0   0 1493.10   29.68
   2   0   0 1488.19   26.07
  -2   0   0 1611.27   36.56
   2   0   145221.81  965.27
   2   0   144733.40 1286.82
  -2   0  -142379.30 1022.18
  -2   0  -144367.54 1316.08
   2   0   2 2378.65   69.86
   2   0   2 2389.12   46.04
  -2   0  -2 2466.13   64.73
   2   0   3   64.25   10.58
  -2   0  -3   44.99    8.93
  -2   0  -3   50.13    5.72
   2   0   4 4612.04  158.97
  -2   0  -4 4540.20  115.13
  -2   0  -4 4537.70  136.63
   2   0   5 1820.31   79.44
  -2   0  -5 1985.35   57.68
  -2   0  -5 1986.28   69.64
   2   0   6  217.17   22.11
  -2   0  -6  179.11   15.61
  -2   0  -6  174.94   12.14
   2   0   7 4376.94  201.22
  -2   0  -7 4634.11  166.34
  -2   0  -7 4336.55  148.40
   2   0   8 1124.29   68.74
  -2   0  -8 1161.09   52.69
  -2   0  -8 1208.22   58.25
   2   0   9  272.27   35.23
  -2   0  -9  273.46   21.40
  -2   0  -9  282.27   25.47
   2   0  10   36.07   24.95
  -2   0 -10   74.01   14.46
  -2   0 -10   33.72   16.82
   2   0  11   80.22   29.24
  -2   0 -11  131.20   18.28
  -2   0 -11  118.57   22.11
   2   0  12  453.85   58.93
  -2   0 -12  368.08   36.82
  -2   0 -12  336.66   30.31
   2   0  13   35.26   28.23
  -2   0 -13   28.00   17.24
  -2   0 -13   17.60   15.65
   2   0  14  223.75   41.67
  -2   0 -14  123.92   24.50
  -2   0 -14  166.43   22.93
   2   0  15  113.13   40.36
   2   1 -17   69.55   36.85
  -2   1  17  101.64   35.06
   2  -1 -17   62.63   33.44
  -2  -1  17   76.83   35.83
   2   1 -16  246.65   37.71
  -2   1  16  202.61   41.83
   2  -1 -16  217.27   45.23
  -2  -1  16  267.86   51.61
   2   1 -15  331.60   46.19
  -2   1  15  317.16   58.12
   2  -1 -15  352.08   32.41
  -2  -1  15  413.28   51.03
   2  -1 -15  436.95   43.28
  -2   1  14  181.27   35.35
   2   1 -14  170.04   33.91
   2  -1 -14  240.88   40.92
   2  -1 -14  227.85   25.53
  -2  -1  14  324.10   37.88
   2   1 -13 1505.67   72.92
  -2   1  13 1483.02  112.00
   2   1 -13 1537.85  110.27
   2  -1 -13 1512.77   95.69
   2  -1 -13 1575.30   87.37
  -2  -1  13 1694.80  105.25
   2   1 -12  512.29   26.54
   2   1 -12  505.93   45.48
  -2   1  12  418.87   41.96
   2  -1 -12  469.87   38.01
  -2  -1  12  469.34   48.59
   2  -1 -12  485.93   42.58
   2   1 -11   76.39   19.55
   2   1 -11   48.97   12.56
  -2   1  11   30.79   18.87
   2  -1 -11   45.60   13.60
   2  -1 -11   58.42   18.45
  -2  -1  11    3.10   19.47
   2   1 -10  226.13   18.11
  -2   1  10  261.71   31.70
   2   1 -10  274.28   28.62
   2  -1 -10  283.38   25.64
   2  -1 -10  292.81   27.13
  -2  -1  10  268.51   27.35
   2   1  -9 1075.18   57.18
  -2   1   9 1172.03   62.52
   2   1  -9 1043.10   39.82
   2  -1  -9 1105.63   47.37
   2  -1  -9 1107.64   63.54
  -2  -1   9 1111.12   56.51
   2   1  -8  582.61   34.80
   2   1  -8  555.14   22.94
  -2   1   8  591.08   32.21
   2  -1  -8  559.75   31.46
   2  -1  -8  543.17   34.54
  -2  -1   8  563.65   38.53
   2   1  -7  296.28   15.51
   2   1  -7  265.09   23.87
  -2   1   7  276.15   20.96
   2  -1  -7  315.24   21.19
  -2  -1   7  315.56   26.43
   2  -1  -7  312.80   23.76
   2   1  -6  511.11   28.14
  -2   1   6  516.52   24.49
   2  -1  -6  492.68   27.67
  -2  -1   6  494.46   30.02
   2  -1  -6  497.22   26.13
  -2   1   5  105.05    9.51
   2   1  -5   78.41   13.23
   2  -1  -5   65.67    9.21
   2  -1  -5   91.52   12.17
  -2  -1   5   73.67   12.25
  -2  -1   5   71.45    7.45
   2   1  -4 6797.33  207.14
  -2   1   4 6854.41  163.11
   2  -1  -4 6986.85  206.00
  -2  -1   4 6691.59  139.71
  -2  -1   4 6861.32  187.48
   2   1  -3  157.83   14.47
  -2   1   3  162.54   11.38
  -2   1   3  151.81    8.52
   2  -1  -3  161.65   14.07
  -2  -1   3  195.14    8.66
  -2  -1   3  185.53   10.42
   2   1  -210743.56  252.13
  -2   1   210774.57  244.69
  -2   1   210079.18  140.30
   2  -1  -2 9644.50  139.03
  -2  -1   211014.87  229.94
   2  -1  -210361.91  254.47
  -2  -1   2 9940.19  198.75
  -2   1   1 1333.62   32.86
   2   1  -1 1368.48   28.06
  -2  -1   1 1295.81   29.15
   2  -1  -1 1375.29   32.29
  -2  -1   1 1422.20   29.09
   2   1   023216.88  556.42
  -2   1   023767.30  591.45
   2   1   023051.28  395.76
  -2   1   022074.56  473.48
   2  -1   023426.46  533.00
  -2  -1   022414.41  407.32
   2  -1   023226.52  463.94
  -2  -1   023190.37  580.49
   2   1   117553.33  238.74
   2   1   116989.03  465.85
  -2   1  -116886.43  443.06
   2  -1   116867.35  396.09
  -2  -1  -118667.24  497.85
   2  -1   116807.49  429.77
   2   1   2 1701.65   53.71
  -2   1  -2 1705.16   45.87
   2  -1   2 1760.63   43.52
  -2  -1  -2 1680.91   24.64
   2  -1   2 1737.94   51.14
  -2  -1  -2 1813.85   51.50
  -2  -1  -2 1643.22   24.67
  -2   1  -3 2078.08   56.74
   2   1   3 1978.86   65.52
  -2   1  -3 2123.01   51.32
  -2  -1  -3 1962.58   36.91
   2  -1   3 1918.98   63.94
  -2  -1  -3 2023.65   64.01
  -2   1  -4  767.72   26.29
   2   1   4  714.07   35.24
  -2   1  -4  803.00   25.37
  -2  -1  -4  799.72   35.49
   2  -1   4  759.57   35.89
  -2   1  -5  492.30   24.41
   2   1   5  456.29   31.03
  -2   1  -5  499.54   22.81
  -2  -1  -5  430.85   17.52
   2  -1   5  477.87   31.82
  -2  -1  -5  489.63   25.28
   2   1   6 2187.98  100.48
  -2   1  -6 2306.00   77.23
  -2   1  -6 2299.28   77.03
  -2  -1  -6 2332.28   69.44
   2  -1   6 2271.12  102.03
  -2  -1  -6 2683.64   91.13
  -2   1  -7 5469.16  193.99
   2   1   7 5589.03  245.05
  -2   1  -7 5539.20  191.78
  -2  -1  -7 5495.44  214.42
   2  -1   7 5311.55  240.40
  -2  -1  -7 5034.90  167.89
   2   1   8  119.77   23.85
  -2   1  -8   79.55   16.31
  -2   1  -8  114.57   14.32
  -2  -1  -8  133.47   16.51
   2  -1   8  166.87   23.97
  -2  -1  -8  124.84   13.22
   2   1   9  865.97   62.89
  -2   1  -9  782.08   42.31
  -2   1  -9  781.87   46.28
   2  -1   9  942.50   62.59
  -2  -1  -9  807.82   37.43
  -2  -1  -9  860.87   46.23
   2   1  10 1438.86   93.05
  -2   1 -10 1334.29   65.98
  -2   1 -10 1400.79   64.68
   2  -1  10 1432.57   94.34
  -2  -1 -10 1339.08   61.38
  -2  -1 -10 1441.03   76.51
   2   1  11   97.79   28.03
  -2   1 -11   79.46   19.96
  -2   1 -11   69.02   18.51
   2  -1  11  123.69   29.92
  -2  -1 -11   63.48   17.12
  -2  -1 -11   58.58   19.01
   2   1  12  486.26   55.92
  -2   1 -12  502.38   38.58
  -2   1 -12  403.16   38.17
  -2  -1 -12  478.01   39.64
   2  -1  12  563.00   69.95
  -2  -1 -12  540.69   38.21
  -2   1 -13   45.83   18.08
   2   1  13  102.27   29.06
  -2   1 -13   16.87   18.77
   2  -1  13   59.74   29.60
  -2  -1 -13   54.53   16.78
  -2  -1 -13   70.20   18.44
  -2   1 -14  236.45   38.99
   2   1  14  335.67   53.92
  -2  -1 -14  310.51   39.07
   2  -1  14  285.12   51.37
   2   1  15  231.75   55.24
   2  -1  15  153.18   47.53
   2   2 -17  387.74   54.49
  -2   2  17  458.68   59.70
  -2  -2  17  445.53   62.13
   2   2 -16  291.86   46.64
  -2   2  16  342.51   48.81
   2  -2 -16  330.59   40.89
  -2  -2  16  355.67   51.24
  -2   2  15   91.55   27.17
   2   2 -15   52.35   25.86
   2  -2 -15   59.30   19.65
  -2  -2  15   98.92   28.83
   2  -2 -15   62.23   24.04
  -2   2  14  974.01   76.07
   2   2 -14  919.50   75.65
   2  -2 -14 1066.26   71.14
   2  -2 -14  913.90   59.77
  -2  -2  14 1069.93   82.95
   2   2 -13  675.67   53.83
  -2   2  13  559.41   54.38
   2  -2 -13  611.35   49.33
   2  -2 -13  567.35   47.36
  -2  -2  13  586.56   57.62
   2   2 -12 3949.43  217.65
  -2   2  12 4085.96  219.45
   2   2 -12 3698.73  145.90
   2  -2 -12 4089.42  204.81
   2  -2 -12 4220.31  210.33
  -2  -2  12 4541.45  250.82
   2   2 -11  170.02   29.05
  -2   2  11  266.87   28.61
   2   2 -11  196.60   16.03
   2  -2 -11  234.54   27.88
   2  -2 -11  229.36   26.67
  -2  -2  11  191.00   29.83
   2   2 -10  445.51   38.21
  -2   2  10  434.09   35.09
   2  -2 -10  477.39   34.40
  -2  -2  10  425.27   36.73
   2  -2 -10  405.72   32.21
   2   2  -9   92.34   18.90
  -2   2   9   89.92   16.88
   2   2  -9   77.03    9.23
   2  -2  -9   64.10   13.84
  -2  -2   9   72.29   18.24
   2  -2  -9   86.20   16.22
   2   2  -8  719.10   41.68
   2   2  -8  681.05   22.54
  -2   2   8  712.44   36.45
   2  -2  -8  684.85   38.34
  -2  -2   8  717.59   39.96
   2  -2  -8  793.89   40.82
   2   2  -7  966.74   48.43
  -2   2   7  984.54   39.71
  -2  -2   7 1022.27   46.21
  -2  -2   7  874.96   23.80
   2  -2  -7 1060.40   44.52
   2   2  -6  920.85   45.29
   2  -2  -6  990.93   42.58
   2  -2  -6 1015.75   40.01
  -2  -2   6 1024.93   43.03
  -2   2   5 1805.40   49.43
   2   2  -5 1757.57   65.77
   2  -2  -5 1738.31   57.70
   2  -2  -5 1708.77   57.33
  -2  -2   5 1747.55   60.22
  -2   2   4 9806.29  233.43
   2   2  -410068.64  320.69
   2  -2  -4 9843.68  307.18
   2  -2  -410307.76  310.30
  -2  -2   410149.91  308.09
  -2   2   3 2192.10   61.31
   2   2  -3 2201.10   67.28
  -2  -2   3 2188.30   36.90
   2  -2  -3 2315.90   64.82
  -2  -2   3 2194.38   60.56
   2   2  -264574.54 2095.30
  -2   2   264812.58 2192.99
   2  -2  -262678.50 2159.40
  -2  -2   263762.98 2096.58
  -2  -2   266157.58 1685.32
   2   2  -114369.52  307.02
  -2   2   113680.97  358.86
   2  -2  -113825.71  351.55
  -2  -2   114439.46  359.85
  -2  -2   113480.57  310.92
  -2   2   0 2976.18   51.64
   2   2   0 3293.58   46.02
  -2   2   0 3316.73   80.72
   2  -2   0 3224.35   55.11
  -2  -2   0 3030.35   46.49
  -2  -2   0 3062.09   75.89
   2  -2   0 3165.41   74.96
  -2  -2   0 3306.52   78.61
   2   2   123302.52  712.31
  -2   2  -123509.77  638.26
   2  -2   123987.41  620.92
  -2  -2  -123552.42  704.13
   2  -2   124359.04  678.36
  -2   2  -2  668.13   23.95
   2   2   2  635.49   27.11
   2  -2   2  687.66   24.28
   2  -2   2  654.98   24.83
  -2  -2  -2  645.75   28.12
   2   2   3 3015.66  100.09
  -2   2  -3 3268.20   79.08
   2  -2   3 3081.72   94.75
   2  -2   3 3154.64   92.43
  -2  -2  -3 2910.73   44.19
  -2  -2  -3 3110.95   96.41
   2   2   4 1079.40   48.64
  -2   2  -4 1160.09   36.38
  -2   2  -4 1123.81   37.71
   2  -2   4 1141.72   47.62
  -2  -2  -4 1123.98   23.98
  -2  -2  -4 1191.74   44.25
  -2   2  -5 1350.19   39.55
   2   2   5 1305.67   59.56
  -2   2  -5 1273.87   44.42
   2  -2   5 1244.97   57.70
  -2  -2  -5 1175.72   50.16
  -2  -2  -5 1216.63   31.73
   2   2   6 1232.12   62.29
  -2   2  -6 1290.20   46.23
  -2   2  -6 1238.02   48.67
  -2  -2  -6 1322.10   55.94
   2  -2   6 1342.28   63.92
  -2  -2  -6 1211.13   37.28
  -2   2  -7  534.68   23.46
   2   2   7  490.82   36.46
  -2   2  -7  485.24   28.37
   2  -2   7  529.18   38.36
  -2  -2  -7  500.49   22.35
  -2  -2  -7  476.80   30.61
  -2   2  -8 1043.76   46.36
   2   2   8 1067.38   64.41
  -2   2  -8 1053.12   54.63
   2  -2   8 1056.22   66.79
  -2  -2  -8  912.60   49.37
  -2  -2  -8 1070.23   41.16
   2   2   9  263.51   35.02
  -2   2  -9  315.73   28.71
  -2   2  -9  249.86   22.83
   2  -2   9  331.15   34.73
  -2  -2  -9  268.32   22.27
   2   2  10 1224.30   86.23
  -2   2 -10 1183.85   69.65
  -2   2 -10 1098.29   55.79
   2  -2  10 1252.17   85.91
  -2  -2 -10 1199.23   66.24
  -2  -2 -10 1209.71   58.45
   2   2  11  862.87   68.49
  -2   2 -11  763.03   49.93
  -2   2 -11  736.97   40.39
   2  -2  11  929.62   74.28
  -2  -2 -11  753.60   50.22
  -2  -2 -11  741.39   45.07
   2   2  12 1174.62   93.66
  -2   2 -12 1048.44   70.59
  -2   2 -12  990.50   60.35
   2  -2  12 1125.49   95.13
  -2  -2 -12 1135.91   65.29
  -2  -2 -12 1246.20   70.96
   2   2  13  177.94   36.17
  -2   2 -13  149.35   24.12
   2  -2  13  104.30   37.03
  -2  -2 -13  115.74   24.04
   2   2  14  373.48   53.22
  -2   2 -14  352.44   45.42
   2  -2  14  411.86   59.83
  -2  -2 -14  359.41   39.26
   2   2  15  199.03   47.33
   2  -2  15  159.73   45.73
   2   3 -17  264.37   53.58
  -2   3  17  294.67   46.89
  -2  -3  17  175.58   49.56
  -2   3  16  729.92   67.64
   2   3 -16  571.62   66.37
   2  -3 -16  571.83   52.21
  -2  -3  16  621.30   72.23
   2  -3 -16  607.62   58.31
   2   3 -15  132.41   33.26
  -2   3  15  139.87   31.66
   2  -3 -15  128.11   27.57
   2  -3 -15  161.31   25.76
  -2  -3  15  148.74   37.37
   2   3 -14  367.12   45.31
  -2   3  14  345.55   44.22
   2  -3 -14  398.69   43.34
  -2  -3  14  439.92   57.54
   2  -3 -14  378.60   46.33
   2   3 -13  209.87   35.64
  -2   3  13  143.19   27.49
   2  -3 -13  144.35   25.02
   2  -3 -13   84.83   22.58
  -2  -3  13  122.85   31.43
  -2   3  12 1121.78   72.39
   2   3 -12 1070.51   76.18
   2  -3 -12 1018.23   66.05
   2  -3 -12 1117.59   63.16
  -2  -3  12 1027.31   74.87
   2   3 -11  235.13   31.74
  -2   3  11  213.61   28.28
   2  -3 -11  249.15   27.26
  -2  -3  11  226.48   40.74
   2  -3 -11  272.41   25.32
  -2   3  10 1627.12   82.37
   2   3 -10 1699.72   89.43
   2  -3 -10 1582.39   77.02
   2  -3 -10 1744.48   80.68
  -2  -3  10 1635.18   93.14
  -2   3   9  658.45   34.28
   2   3  -9  620.22   40.28
   2  -3  -9  427.30   33.31
   2  -3  -9  629.21   39.46
  -2  -3   9  632.93   40.62
  -2  -3   9  493.65   16.48
  -2   3   8  253.85   23.11
   2   3  -8  164.59   24.69
   2  -3  -8  280.05   20.71
   2  -3  -8  262.97   21.12
  -2  -3   8  220.75   24.02
   2   3  -7 7384.32  297.97
  -2   3   7 7499.47  258.48
   2  -3  -7 7817.56  305.41
  -2  -3   7 7137.27  297.53
   2  -3  -7 7436.40  280.00
   2   3  -6 3321.11  126.33
  -2   3   6 3259.41  108.81
   2  -3  -6 3457.72  116.77
  -2  -3   6 3397.46  127.88
   2  -3  -6 3638.45  128.13
  -2  -3   6 3254.79   55.71
   2   3  -5  197.21   19.07
  -2   3   5  177.95   11.61
   2  -3  -5  213.43   17.37
   2  -3  -5  255.74   16.76
  -2  -3   5  226.63    5.28
  -2  -3   5  234.15   18.93
  -2   3   4 8973.77  205.81
   2   3  -4 8436.57  287.13
   2  -3  -4 8872.15  283.71
   2  -3  -4 8903.60  276.14
  -2  -3   4 8696.43  280.64
   2   3  -3 2019.19   61.29
  -2   3   3 2054.73   35.82
  -2  -3   3 1924.03   31.75
  -2  -3   3 1943.89   60.17
   2  -3  -3 2018.44   61.06
   2   3  -2  904.06   28.64
  -2   3   2  923.82   33.33
   2  -3  -2  927.10   31.45
  -2  -3   2  893.38   20.71
  -2  -3   2  948.10   31.41
  -2   3   1 1046.66   33.16
   2   3  -1 1202.35   26.01
   2  -3  -1 1037.69   15.05
   2  -3  -1 1077.94   32.20
  -2  -3   1 1104.93   27.92
  -2  -3   1 1136.99   35.05
  -2   3   0  837.45   25.61
   2   3   0  851.27   16.99
   2  -3   0  757.92   17.86
   2  -3   0  744.78   27.68
  -2  -3   0  766.66   27.62
  -2  -3   0  751.71   29.01
   2   3   1 4016.98  111.88
  -2   3  -1 3846.12   93.39
   2  -3   1 3923.95   89.84
  -2  -3  -1 3828.73  108.74
   2  -3   1 3794.42  108.28
  -2   3  -213940.74  380.08
   2   3   214172.21  460.09
   2  -3   213925.32  437.28
  -2  -3  -213318.48  439.39
   2  -3   213850.75  422.43
   2   3   3 4291.57  141.54
  -2   3  -3 4006.17  108.40
   2  -3   3 4371.72  134.09
   2  -3   3 4358.18  144.28
  -2  -3  -3 4200.39  141.57
   2   3   4  268.76   19.41
  -2   3  -4  190.94   10.98
  -2   3  -4  220.13   16.42
   2  -3   4  242.94   19.96
  -2  -3  -4  237.47   19.13
   2   3   5  989.10   46.95
  -2   3  -5 1077.07   35.57
  -2   3  -5 1016.57   41.40
   2  -3   5 1024.05   51.20
  -2  -3  -5 1004.84   46.96
  -2  -3  -5  976.46   24.71
   2   3   6 3316.82  143.95
  -2   3  -6 3394.32  105.07
  -2   3  -6 3358.96  122.97
  -2  -3  -6 3254.96  131.49
   2  -3   6 3422.12  149.44
   2   3   7 1261.04   68.50
  -2   3  -7 1190.09   61.22
  -2   3  -7 1180.75   42.80
  -2  -3  -7 1223.84   58.63
   2  -3   7 1201.33   66.30
  -2  -3  -7 1159.48   38.71
   2   3   8  153.70   27.07
  -2   3  -8  196.97   13.87
  -2   3  -8  166.17   19.64
   2  -3   8  255.76   28.18
  -2  -3  -8  194.57   14.77
  -2  -3  -8  176.91   23.68
   2   3   9  796.71   55.28
  -2   3  -9  735.26   32.06
  -2   3  -9  721.32   43.84
   2  -3   9  746.06   59.92
  -2  -3  -9  686.86   34.47
  -2  -3  -9  836.09   49.53
   2   3  10 1569.67   99.37
  -2   3 -10 1621.71   86.79
  -2   3 -10 1401.49   62.63
   2  -3  10 1667.36  108.32
  -2  -3 -10 1438.32   65.94
  -2  -3 -10 1551.14   83.66
   2   3  11  748.82   60.36
  -2   3 -11  635.25   54.90
  -2   3 -11  592.37   36.06
   2  -3  11  732.78   65.10
  -2  -3 -11  642.21   34.83
  -2  -3 -11  646.60   54.33
   2   3  12  337.84   48.86
  -2   3 -12  365.67   37.10
  -2  -3 -12  463.77   39.63
  -2  -3 -12  301.63   31.39
   2  -3  12  400.70   51.70
   2   3  13   54.62   29.51
  -2   3 -13   36.36   25.08
   2  -3  13  124.66   30.84
  -2  -3 -13   42.20   20.62
   2   3  14  260.02   40.76
  -2   3 -14  174.22   31.98
   2  -3  14  217.28   44.54
  -2  -3 -14  176.43   38.24
   2   3  15    6.26   26.42
  -2   3 -15   19.07   19.64
   2  -3  15  -32.53   26.92
  -2  -3 -15   14.34   22.83
   2   4 -17  225.23   42.24
  -2   4  17  177.95   40.40
  -2  -4  17  199.56   56.32
  -2   4  16  540.91   56.37
   2   4 -16  490.25   73.64
   2  -4 -16  444.79   57.87
   2  -4 -16  537.75   59.92
  -2  -4  16  549.01   69.27
   2   4 -15  956.18   88.15
  -2   4  15 1001.74   83.78
   2  -4 -15  978.28   80.25
   2  -4 -15  976.66   73.88
  -2  -4  15 1014.68   90.35
   2   4 -14   94.01   27.21
  -2   4  14   81.86   33.07
   2  -4 -14   85.49   23.38
   2  -4 -14  105.68   28.09
  -2  -4  14   94.04   31.07
  -2   4  13   85.65   26.09
   2   4 -13  108.95   32.78
   2  -4 -13   90.28   20.89
   2  -4 -13   67.71   22.21
  -2  -4  13  108.44   27.66
  -2   4  12  514.76   49.78
   2   4 -12  502.42   50.00
   2  -4 -12  563.10   45.23
   2  -4 -12  568.44   42.35
  -2  -4  12  559.35   51.39
  -2   4  11 1168.79   67.33
   2   4 -11 1127.97   75.88
   2  -4 -11 1101.58   63.12
   2  -4 -11 1152.54   66.50
  -2  -4  11 1127.32   73.92
   2   4 -10  628.36   50.41
  -2   4  10  696.37   43.55
   2  -4 -10  691.92   44.83
   2  -4 -10  664.34   48.67
  -2  -4  10  602.17   51.13
   2   4  -9   69.17   18.92
  -2   4   9   54.56   16.72
   2  -4  -9   29.33   15.95
  -2  -4   9   51.15   17.00
   2   4  -8  309.42   26.84
  -2   4   8  324.06   22.19
   2  -4  -8  337.42   25.53
   2  -4  -8  296.76   22.88
  -2  -4   8  272.36   27.92
  -2   4   7  680.61   37.37
   2   4  -7  648.63   38.71
   2  -4  -7  696.50   34.27
   2  -4  -7  722.36   38.28
  -2  -4   7  747.34   42.01
  -2   4   6  126.89   11.56
   2   4  -6   65.77   16.01
   2  -4  -6   88.83   16.33
   2  -4  -6   68.30   15.65
  -2  -4   6   52.40   16.68
  -2   4   5 2018.86   63.86
   2   4  -5 2326.69   86.75
   2  -4  -5 2431.25   81.06
   2  -4  -5 2423.36   88.99
  -2  -4   5 2433.85   87.83
  -2   4   4 2662.34   59.20
   2   4  -4 2577.27   87.52
   2  -4  -4 2554.03   88.86
   2  -4  -4 2649.27   84.76
  -2  -4   4 2563.40   90.49
  -2   4   3 3107.00   57.94
   2   4  -3 3086.42   95.90
   2  -4  -3 3291.75  105.52
   2  -4  -3 3288.60   95.44
  -2  -4   3 3132.37   54.71
  -2  -4   3 3196.28   99.81
   2   4  -2  918.44   29.60
  -2   4   2 1002.87   17.77
  -2   4   2  921.71   33.45
   2  -4  -2  939.56   32.61
  -2  -4   2  898.71   35.31
  -2  -4   2  899.49   22.59
   2   4  -1  669.93   21.22
  -2   4   1  666.81   26.32
   2  -4  -1  706.86   28.50
  -2  -4   1  710.22   28.18
  -2  -4   1  704.03   20.57
   2   4   0 2146.68   43.83
  -2   4   0 2252.43   58.91
   2  -4   0 2105.88   45.72
  -2  -4   0 2247.94   61.99
  -2  -4   0 2064.31   64.63
   2  -4   0 2134.90   65.79
   2   4   1 3178.71   94.61
   2   4   1 2917.23   48.12
  -2   4  -1 3161.30   78.30
   2  -4   1 3424.65  102.31
  -2  -4  -1 3295.34   95.67
   2  -4   1 3116.90   79.32
  -2   4  -2 8408.05  224.04
   2   4   2 8788.01  278.78
   2  -4   2 8346.77  264.91
  -2  -4  -2 8433.35  282.34
   2  -4   2 8551.02  246.69
  -2  -4  -2 8009.85  117.25
   2   4   3  231.54   19.51
  -2   4  -3  253.90   14.17
   2  -4   3  276.37   18.27
  -2  -4  -3  265.64   20.03
   2  -4   3  238.36   17.40
   2   4   4 8258.87  317.75
  -2   4  -4 8296.90  306.07
  -2   4  -4 8697.66  241.13
  -2  -4  -4 8001.31  312.48
   2  -4   4 8105.27  304.26
  -2   4  -5 4434.88  119.99
   2   4   5 4132.68  161.19
  -2   4  -5 4215.65  151.92
   2  -4   5 4118.63  162.04
  -2  -4  -5 3913.35   83.95
  -2  -4  -5 4092.51  161.42
   2   4   6  449.98   33.54
  -2   4  -6  468.51   20.49
  -2   4  -6  502.78   30.18
   2  -4   6  488.97   34.10
  -2  -4  -6  503.47   31.28
  -2  -4  -6  440.05   16.29
   2   4   7 1110.56   67.05
  -2   4  -7 1122.88   39.26
  -2   4  -7 1176.72   55.61
   2  -4   7 1084.13   62.37
  -2  -4  -7 1030.10   57.27
  -2  -4  -7 1062.42   35.51
  -2   4  -8  733.06   30.24
   2   4   8  787.95   51.61
  -2   4  -8  802.75   45.37
   2  -4   8  759.89   54.87
  -2  -4  -8  697.02   29.33
  -2  -4  -8  775.43   46.38
   2   4   9  475.31   43.93
  -2   4  -9  485.35   40.69
  -2   4  -9  389.98   24.30
   2  -4   9  415.48   43.87
  -2  -4  -9  463.24   35.51
  -2  -4  -9  441.32   24.19
  -2   4 -10 1760.86  104.44
   2   4  10 1636.16  108.24
  -2   4 -10 1469.67   65.18
   2  -4  10 1749.76  111.07
  -2  -4 -10 1594.22   68.00
  -2  -4 -10 1720.09   91.63
   2   4  11  167.92   30.28
  -2   4 -11  103.62   22.27
   2  -4  11  109.89   30.59
  -2  -4 -11  114.64   17.20
  -2  -4 -11  123.28   24.46
   2   4  12  436.23   47.71
  -2   4 -12  309.42   38.14
   2  -4  12  373.61   51.05
  -2  -4 -12  391.03   38.89
   2   4  13  121.13   32.25
  -2   4 -13  111.83   31.90
   2  -4  13  127.24   37.91
  -2  -4 -13   84.62   26.72
   2   4  14  109.59   40.08
  -2   4 -14   62.67   25.50
   2  -4  14   47.87   34.47
  -2  -4 -14  100.80   26.24
   2   4  15   49.86   33.76
  -2   4 -15   81.65   33.25
   2  -4  15   88.52   38.12
  -2  -4 -15   93.60   26.46
  -2   5  16   96.68   33.56
   2   5 -16  127.40   33.25
  -2  -5  16   85.39   37.04
   2  -5 -16  135.98   28.29
   2   5 -15  152.36   35.47
  -2   5  15   72.45   32.22
   2  -5 -15  224.55   35.00
   2  -5 -15   95.01   33.78
  -2  -5  15  159.12   35.02
   2   5 -14   75.94   29.40
  -2   5  14   95.61   27.42
   2  -5 -14  115.25   25.24
   2  -5 -14   76.11   22.89
  -2  -5  14   88.84   30.45
   2   5 -13  265.68   36.21
  -2   5  13  221.98   31.81
   2  -5 -13  176.80   31.24
   2  -5 -13  213.07   33.28
  -2  -5  13  211.73   36.07
   2   5 -12  173.51   43.18
  -2   5  12  219.15   29.68
   2  -5 -12  271.45   31.82
   2  -5 -12  233.74   32.56
  -2  -5  12  193.03   36.21
  -2   5  11  474.99   43.43
   2   5 -11  386.14   43.01
   2  -5 -11  437.50   33.11
   2  -5 -11  416.36   37.12
  -2  -5  11  402.02   44.96
  -2   5  10  913.15   53.09
   2   5 -10  918.91   62.95
   2  -5 -10  914.55   52.30
   2  -5 -10  924.59   59.33
  -2  -5  10  923.48   66.07
   2   5  -9 2205.70  114.61
  -2   5   9 2399.42  109.09
   2  -5  -9 2384.69  116.65
   2  -5  -9 2429.19  111.78
  -2  -5   9 2384.88  126.50
  -2   5   8  362.30   25.22
   2   5  -8  402.40   32.86
   2  -5  -8  472.72   31.54
   2  -5  -8  450.54   33.51
  -2  -5   8  427.37   36.05
   2   5  -7 2169.40   98.19
  -2   5   7 2038.55   80.80
   2  -5  -7 2118.11   83.63
   2  -5  -7 2267.64   98.35
  -2  -5   7 2308.08  104.08
   2   5  -6 1562.34   71.08
  -2   5   6 1616.23   56.60
   2  -5  -6 1642.43   62.32
  -2  -5   6 1573.44   70.69
   2  -5  -6 1651.49   71.86
  -2   5   5 6457.43  180.62
   2   5  -5 6204.58  241.03
   2  -5  -5 6346.19  251.36
   2  -5  -5 6451.82  225.40
  -2  -5   5 6352.04  240.65
  -2   5   4 3612.57   84.39
   2   5  -4 3732.15  131.59
   2  -5  -4 3933.61  123.36
  -2  -5   4 4005.30  134.42
   2  -5  -4 3665.28  130.68
  -2  -5   4 3540.51   51.11
   2   5  -3 3580.52  122.05
  -2   5   3 3739.36   77.05
   2  -5  -3 3602.45  114.52
   2  -5  -3 3608.47  127.28
  -2  -5   3 3747.96  124.26
   2   5  -2  262.56   14.10
  -2   5   2  222.63   17.80
   2  -5  -2  267.73   16.43
   2  -5  -2  252.69    9.50
  -2  -5   2  290.77   18.41
  -2  -5   2  284.73   10.51
  -2   5   1 1250.24   42.70
   2   5  -1 1225.12   35.82
   2  -5  -1 1235.46   43.74
  -2  -5   1 1332.71   47.18
   2  -5  -1 1249.86   28.84
  -2  -5   1 1348.67   36.51
   2   5   0  108.92    6.95
  -2   5   0  103.06    9.88
   2  -5   0   92.36   12.06
  -2  -5   0   99.03   12.35
  -2  -5   0   85.29   10.69
   2  -5   0   79.30    8.09
   2   5   1 9731.07  322.99
  -2   5  -1 9302.84  270.54
   2  -5   1 9832.70  333.27
  -2  -5  -1 9520.14  319.94
   2  -5   1 9339.32  263.25
   2   5   2 2675.04   88.85
  -2   5  -2 2544.05   65.64
   2  -5   2 2697.44   92.35
   2  -5   2 2599.21   82.41
  -2  -5  -2 2472.54   44.46
  -2  -5  -2 2607.27   91.36
   2   5   3 6411.41  237.46
  -2   5  -3 6707.86  178.66
   2  -5   3 6336.49  233.56
   2  -5   3 6356.27  215.05
  -2  -5  -3 6211.03  231.43
  -2  -5  -3 6260.30  111.68
   2   5   4  728.04   38.75
  -2   5  -4  730.85   23.13
   2  -5   4  733.75   34.98
   2  -5   4  681.89   36.98
  -2  -5  -4  713.96   15.46
  -2  -5  -4  687.10   38.89
  -2   5  -5    2.09    6.84
   2   5   5   12.99   11.85
  -2   5  -5    9.68   13.96
   2  -5   5   21.85   12.72
  -2  -5  -5   14.35    3.42
  -2  -5  -5    0.88   12.61
   2   5   6 1563.43   75.29
  -2   5  -6 1665.81   76.68
  -2   5  -6 1659.18   50.76
   2  -5   6 1650.97   79.19
  -2  -5  -6 1664.98   78.40
   2   5   7 2498.77  122.67
  -2   5  -7 2475.30  114.21
   2  -5   7 2594.17  124.22
  -2  -5  -7 2404.11   67.38
  -2  -5  -7 2684.70  120.75
   2   5   8  390.66   33.49
  -2   5  -8  320.49   17.12
  -2   5  -8  334.77   34.94
   2  -5   8  320.00   33.90
  -2  -5  -8  361.35   32.74
  -2  -5  -8  301.86   16.74
   2   5   9 3161.21  167.32
  -2   5  -9 2784.55  102.23
  -2   5  -9 3210.67  162.56
   2  -5   9 3149.23  176.29
  -2  -5  -9 2926.12  103.06
  -2  -5  -9 3500.47  165.19
   2   5  10  140.22   27.21
  -2   5 -10   82.31   23.68
   2  -5  10  115.92   29.87
  -2  -5 -10  115.09   25.27
   2   5  11  515.88   55.98
  -2   5 -11  539.36   47.65
   2  -5  11  586.10   58.22
  -2  -5 -11  517.22   49.28
   2   5  12   20.23   22.89
  -2   5 -12  -11.33   23.42
   2  -5  12   16.55   24.32
  -2  -5 -12   53.03   23.89
   2   5  13  492.03   72.46
  -2   5 -13  546.50   53.04
   2  -5  13  728.10   69.35
  -2  -5 -13  567.35   54.86
  -2   5 -14  194.39   50.73
   2   5  14  237.00   61.03
  -2  -5 -14  360.46   40.87
   2  -5  14  348.30   52.37
   2   5  15  139.21   41.07
  -2   5 -15  108.47   33.05
   2  -5  15  255.10   54.26
  -2  -5 -15  131.52   31.88
   2   6 -16  220.98   48.11
  -2   6  16  250.50   41.87
   2  -6 -16  264.20   40.32
  -2  -6  16  222.53   61.08
  -2   6  15  379.15   46.28
   2   6 -15  372.38   61.76
   2  -6 -15  372.00   53.40
   2  -6 -15  352.49   43.58
  -2  -6  15  308.91   56.00
   2   6 -14  137.58   34.08
  -2   6  14  108.09   28.93
   2  -6 -14   85.31   28.51
   2  -6 -14  141.84   23.90
  -2  -6  14  120.33   33.48
   2   6 -13  112.00   39.53
  -2   6  13   63.52   29.07
   2  -6 -13   96.61   21.78
   2  -6 -13  161.66   26.96
  -2  -6  13  170.97   33.52
   2   6 -12  668.28   62.04
  -2   6  12  674.96   49.09
   2  -6 -12  717.36   57.84
   2  -6 -12  667.63   55.11
  -2  -6  12  609.85   61.66
   2   6 -11   12.71   23.13
  -2   6  11   47.39   22.14
   2  -6 -11   42.08   16.96
   2  -6 -11   57.44   21.70
  -2  -6  11   93.10   23.97
  -2   6  10  364.41   35.32
   2   6 -10  320.16   36.69
   2  -6 -10  315.54   33.54
   2  -6 -10  443.68   37.01
  -2  -6  10  342.74   41.25
   2   6  -9  681.45   52.72
  -2   6   9  736.25   41.82
   2  -6  -9  777.29   41.77
  -2  -6   9  699.19   55.79
   2  -6  -9  709.71   52.07
   2   6  -8 1209.66   69.17
  -2   6   8 1152.94   56.25
   2  -6  -8 1240.29   78.23
  -2  -6   8 1124.60   69.60
   2  -6  -8 1158.01   54.25
  -2   6   7  360.07   23.52
   2   6  -7  341.11   30.91
   2  -6  -7  334.07   23.76
   2  -6  -7  358.75   30.53
  -2  -6   7  387.95   31.41
  -2   6   6  454.46   23.18
   2   6  -6  503.05   32.94
   2  -6  -6  396.45   30.91
   2  -6  -6  460.92   33.36
  -2  -6   6  460.98   32.38
   2   6  -5 1407.61   61.37
  -2   6   5 1320.41   37.74
   2  -6  -5 1321.87   58.61
  -2  -6   5 1451.69   62.99
   2  -6  -5 1476.77   63.86
   2   6  -4 9941.09  373.51
  -2   6   4 9426.84  263.13
   2  -6  -4 9855.02  392.51
   2  -6  -4 9676.01  346.72
  -2  -6   4 9768.32  190.16
  -2  -6   4 9676.04  377.25
   2   6  -3  607.06   28.67
  -2   6   3  576.48   18.77
   2  -6  -3  583.06   27.42
   2  -6  -3  679.55   34.92
  -2  -6   3  682.31   31.50
  -2  -6   3  607.92   16.65
   2   6  -2 2107.29   66.16
  -2   6   2 2087.74   76.04
   2  -6  -2 2115.62   50.47
  -2  -6   2 2181.26   56.87
  -2  -6   2 2180.51   77.47
   2  -6  -2 2333.33   78.12
   2   6  -1 2606.37   68.24
  -2   6   1 2334.73   78.59
   2  -6  -1 2404.88   84.68
  -2  -6   1 2317.01   68.42
  -2  -6   1 2365.77   84.84
   2  -6  -1 2326.97   59.37
  -2   6   0   30.20    8.96
   2   6   0   60.80    8.10
   2  -6   0   71.12   12.28
   2  -6   0   50.18    7.08
  -2  -6   0   40.48    9.89
  -2  -6   0   47.97   11.91
  -2   6  -1 4854.52  132.13
   2  -6   1 4381.70  159.36
  -2  -6  -1 4437.55  152.38
   2  -6   1 4136.37  119.31
  -2  -6  -1 4177.83  144.92
  -2  -6  -1 4375.38  107.06
   2   6   2 2117.62   75.76
  -2   6  -2 2098.95   58.97
   2  -6   2 1951.50   70.33
  -2  -6  -2 1907.54   42.42
  -2  -6  -2 2012.38   77.85
   2  -6   2 1991.36   78.52
   2   6   3 2913.11  111.37
  -2   6  -3 2838.69   79.94
   2  -6   3 2735.80   99.10
   2  -6   3 2981.17  126.32
  -2  -6  -3 2794.14  112.52
  -2  -6  -3 2865.82   61.81
   2   6   4 3309.26  128.82
  -2   6  -4 3272.67   90.74
   2  -6   4 3020.72  120.75
   2  -6   4 3094.59  127.66
  -2  -6  -4 3115.23  129.39
  -2  -6  -4 3052.13   63.03
   2   6   5 5391.71  230.22
  -2   6  -5 5583.08  237.36
  -2   6  -5 5716.04  164.01
   2  -6   5 5421.98  222.00
  -2  -6  -5 5233.37  119.51
  -2  -6  -5 5148.46  229.35
   2   6   6  599.29   39.01
  -2   6  -6  553.64   22.08
  -2   6  -6  583.24   39.29
   2  -6   6  613.28   40.23
  -2  -6  -6  642.66   39.96
  -2  -6  -6  567.04   17.24
  -2   6  -7  760.23   45.38
   2   6   7  678.52   45.43
  -2   6  -7  599.87   24.15
  -2  -6  -7  712.06   46.63
   2  -6   7  705.52   47.78
   2   6   8  599.84   49.98
  -2   6  -8  695.37   54.28
  -2   6  -8  585.00   24.60
  -2  -6  -8  656.82   25.43
   2  -6   8  683.73   52.11
  -2  -6  -8  695.65   47.81
  -2   6  -9  230.75   31.54
   2   6   9  322.44   34.18
  -2  -6  -9  249.76   31.67
   2  -6   9  199.93   36.50
   2   6  10   60.60   26.94
  -2   6 -10   98.72   24.17
   2  -6  10  127.54   26.96
  -2  -6 -10   95.83   25.09
   2   6  11  161.91   32.04
  -2   6 -11  119.10   36.03
   2  -6  11  170.88   35.26
  -2  -6 -11  163.71   30.27
   2   6  12  293.51   44.96
  -2   6 -12  333.98   40.69
   2  -6  12  342.43   49.03
  -2  -6 -12  295.77   42.35
   2   6  13   -1.86   30.97
  -2   6 -13   27.84   20.98
   2  -6  13   60.43   26.59
  -2  -6 -13   -0.05   22.08
  -2   6 -14  139.73   34.78
   2   6  14  163.22   36.26
  -2  -6 -14  179.76   32.83
   2  -6  14  154.53   42.93
   2   6  15  259.75   58.77
  -2   6 -15  277.13   53.71
   2  -6  15  280.09   58.25
  -2  -6 -15  309.72   52.78
   2   7 -16  154.18   36.30
  -2   7  16  110.50   36.97
   2  -7 -16  105.80   32.41
  -2  -7  16   58.24   39.97
  -2   7  15   35.25   24.97
   2   7 -15    8.16   38.70
  -2  -7  15  108.65   33.57
   2  -7 -15   90.92   27.07
  -2   7  14  127.14   27.14
   2   7 -14  153.68   36.45
   2  -7 -14  133.71   29.65
   2  -7 -14  142.53   37.26
  -2  -7  14   83.76   37.87
  -2   7  13  303.00   32.99
   2   7 -13  168.77   50.89
   2  -7 -13  270.31   30.46
   2  -7 -13  217.15   37.66
  -2  -7  13  308.94   53.23
   2   7 -12  769.20   67.29
  -2   7  12  761.44   55.56
   2  -7 -12  750.82   58.02
  -2  -7  12  773.73   71.76
   2  -7 -12  604.32   71.85
  -2   7  11  920.45   56.21
   2   7 -11  907.09   79.16
   2  -7 -11  862.64   58.57
   2  -7 -11  794.32   63.58
  -2  -7  11  881.17   73.12
  -2   7  10 1643.09   84.79
   2   7 -10 1690.01  108.01
   2  -7 -10 1798.16  107.84
   2  -7 -10 1798.36   87.94
  -2  -7  10 1792.39  115.12
  -2   7   9 1433.97   69.43
   2   7  -9 1568.44   90.26
   2  -7  -9 1573.85   91.58
   2  -7  -9 1509.56   74.58
  -2  -7   9 1642.62   96.29
  -2   7   8  134.60   18.56
   2   7  -8   88.58   24.45
   2  -7  -8  135.09   20.29
   2  -7  -8  106.90   22.96
  -2  -7   8   96.26   24.55
  -2   7   7  941.13   41.63
   2   7  -7  987.95   57.05
   2  -7  -7  968.59   57.65
   2  -7  -7  979.56   46.85
  -2  -7   7 1029.60   58.51
   2   7  -6 2045.97   97.95
  -2   7   6 1906.33   62.62
   2  -7  -6 2195.97   98.49
   2  -7  -6 2139.94   81.11
  -2  -7   6 2192.70   99.06
  -2   7   5  120.03   10.59
   2   7  -5   58.19   17.38
   2  -7  -5  113.54   13.81
   2  -7  -5  108.92   17.55
  -2  -7   5   97.36   17.81
   2   7  -4  531.86   32.05
  -2   7   4  546.64   18.89
   2  -7  -4  618.79   36.40
   2  -7  -4  585.35   28.65
  -2  -7   4  555.11   14.17
  -2  -7   4  632.77   41.22
   2   7  -3 5268.66  195.14
  -2   7   3 5254.47  144.97
   2  -7  -3 5614.85  216.72
   2  -7  -3 5540.69  198.31
  -2  -7   3 5276.15  207.11
  -2  -7   3 5291.09  137.63
   2   7  -2 5059.66  166.89
  -2   7   2 5095.09  181.89
   2  -7  -2 5123.25  179.76
  -2  -7   2 5001.57  143.27
   2  -7  -2 4856.21  133.04
  -2  -7   2 5064.73  191.32
  -2   7   1  934.14   37.12
   2   7  -1  899.00   34.32
   2  -7  -1  855.38   37.85
   2  -7  -1  889.91   29.74
  -2  -7   1  899.77   42.39
  -2  -7   1  924.32   31.78
  -2   7   0  612.48   27.05
   2   7   0  755.12   27.27
   2  -7   0  608.67   33.93
   2  -7   0  657.28   26.01
  -2  -7   0  656.04   29.03
  -2  -7   0  697.21   33.51
  -2   7  -1 3292.86  100.80
   2  -7   1 2953.23  116.24
  -2  -7  -1 2928.91  108.48
   2  -7   1 2998.10   92.51
  -2  -7  -1 2989.19  110.70
  -2  -7  -1 3095.91   85.29
   2   7   2  864.16   40.30
  -2   7  -2  834.81   28.18
   2  -7   2  861.00   43.46
   2  -7   2  798.76   33.93
  -2  -7  -2  827.90   42.08
  -2  -7  -2  858.99   25.10
   2   7   3 2598.12   99.88
  -2   7  -3 2470.78   72.09
   2  -7   3 2450.63  102.84
   2  -7   3 2439.07   90.68
  -2  -7  -3 2283.66  101.70
  -2  -7  -3 2341.35   56.07
   2   7   4 2657.10  110.59
  -2   7  -4 2633.31   76.38
   2  -7   4 2592.74  114.75
   2  -7   4 2517.13  101.63
  -2  -7  -4 2433.36   60.14
  -2  -7  -4 2474.88  108.29
   2   7   5 1455.74   71.49
  -2   7  -5 1542.54   72.89
  -2   7  -5 1237.36   42.84
   2  -7   5 1437.58   65.82
  -2  -7  -5 1348.49   35.28
  -2  -7  -5 1430.39   70.63
   2   7   6  294.38   27.57
  -2   7  -6  264.89   13.19
  -2   7  -6  301.50   26.47
   2  -7   6  313.11   26.65
  -2  -7  -6  255.18   29.46
  -2  -7  -6  235.84   11.39
   2   7   7 1211.24   70.56
  -2   7  -7 1280.18   76.26
   2  -7   7 1204.31   75.96
  -2  -7  -7 1244.20   75.21
   2   7   8  451.59   44.78
  -2   7  -8  633.71   47.99
   2  -7   8  666.10   58.85
  -2  -7  -8  600.63   47.55
  -2   7  -9   23.81   19.10
   2   7   9   38.10   18.39
  -2  -7  -9    3.26   18.98
   2  -7   9    2.16   20.41
   2   7  10  100.26   33.14
  -2   7 -10  196.68   30.35
   2  -7  10  243.70   35.29
  -2  -7 -10  228.46   31.56
  -2   7 -11  141.50   27.37
   2   7  11   74.86   29.01
  -2  -7 -11  101.59   29.03
   2  -7  11   94.56   31.68
   2   7  12  241.34   40.95
  -2   7 -12  299.83   39.81
   2  -7  12  183.01   45.67
  -2  -7 -12  313.88   41.40
   2   7  13  215.55   43.37
  -2   7 -13  214.05   40.88
   2  -7  13  229.51   45.40
  -2  -7 -13  323.32   40.70
   2   7  14  130.57   34.40
  -2   7 -14   92.41   32.87
   2  -7  14   82.40   38.84
  -2  -7 -14  114.53   32.98
  -2   8  15  248.19   38.46
   2   8 -15  245.34   50.45
  -2  -8  15  353.01   55.53
   2  -8 -15  293.14   44.77
   2   8 -14   54.20   30.52
  -2   8  14   54.23   22.62
   2  -8 -14   68.34   28.21
  -2  -8  14   72.49   32.55
  -2   8  13  206.86   30.23
   2   8 -13  274.60   39.74
   2  -8 -13  224.06   34.03
   2  -8 -13  229.04   39.33
  -2  -8  13  225.88   43.76
   2   8 -12  345.41   45.80
  -2   8  12  324.20   34.53
   2  -8 -12  408.92   43.50
   2  -8 -12  301.41   38.77
  -2  -8  12  374.56   49.20
  -2   8  11  305.20   38.90
   2   8 -11  264.77   40.39
   2  -8 -11  394.48   36.58
   2  -8 -11  395.29   42.28
  -2  -8  11  362.13   47.03
  -2   8  10    3.60   15.82
   2   8 -10   24.09   21.64
   2  -8 -10  -10.89   13.09
   2  -8 -10   20.67   18.48
  -2  -8  10   39.80   21.36
   2   8  -9  691.50   67.57
  -2   8   9  650.86   40.58
   2  -8  -9  710.40   47.53
  -2  -8   9  684.30   69.21
   2  -8  -9  741.84   59.11
  -2   8   8  722.08   39.46
   2   8  -8  792.91   54.19
   2  -8  -8  796.48   55.71
   2  -8  -8  733.60   42.39
  -2  -8   8  813.47   55.10
   2   8  -7   88.27   23.11
  -2   8   7   97.74   12.01
   2  -8  -7   83.94   17.92
  -2  -8   7  121.06   22.53
   2  -8  -7   80.26   27.36
   2   8  -6  985.29   56.12
  -2   8   6  918.04   39.04
   2  -8  -6  928.16   44.75
   2  -8  -6  990.53   57.51
  -2  -8   6  916.34   56.86
   2   8  -5  968.29   52.76
  -2   8   5  984.28   35.56
   2  -8  -5 1025.78   54.41
   2  -8  -5  976.68   45.39
  -2  -8   5 1060.73   55.96
   2   8  -4  903.66   44.64
  -2   8   4  846.45   31.40
   2  -8  -4  926.06   47.74
   2  -8  -4  900.21   50.28
  -2  -8   4  884.45   46.55
  -2  -8   4  849.23   22.77
   2   8  -3 1340.36   54.39
  -2   8   3 1266.14   42.76
   2  -8  -3 1267.09   55.38
  -2  -8   3 1229.03   58.38
  -2  -8   3 1261.03   38.56
   2  -8  -3 1312.53   63.81
   2   8  -2 2539.00   90.40
  -2   8   2 2698.79  101.89
   2  -8  -2 2534.13   99.70
   2  -8  -2 2549.21   73.02
  -2  -8   2 2519.90  103.56
  -2  -8   2 2471.89   75.67
  -2   8   1 2333.71   93.52
   2   8  -1 2424.81   78.88
   2  -8  -1 2397.14   72.79
   2  -8  -1 2245.90   93.83
  -2  -8   1 2211.09   92.87
  -2  -8   1 2249.98   76.70
  -2   8   0 1016.60   39.94
   2   8   0  996.97   34.74
   2  -8   0  952.77   37.69
  -2  -8   0  950.95   40.63
   2  -8   0 1018.25   49.88
  -2  -8   0  998.94   51.46
  -2   8  -1 3834.04  128.83
   2  -8   1 3849.00  153.38
  -2  -8  -1 3923.45  117.34
   2  -8   1 3790.03  123.50
  -2  -8  -1 3893.07  147.56
  -2  -8  -1 4011.60  152.48
   2   8   2 1877.75   75.05
  -2   8  -2 1850.96   58.55
   2  -8   2 1804.20   66.84
   2  -8   2 1867.38   80.10
  -2  -8  -2 1830.70   56.40
  -2  -8  -2 1877.91   79.60
   2   8   3   94.63   14.37
  -2   8  -3   66.98    9.35
   2  -8   3   84.66   17.29
  -2  -8  -3   77.40    8.29
  -2  -8  -3   74.63   16.79
   2  -8   3   39.82   13.00
   2   8   4  615.09   36.52
   2  -8   4  527.47   32.39
   2  -8   4  561.50   39.35
  -2  -8  -4  535.59   19.31
  -2  -8  -4  501.54   38.35
   2   8   5 1218.45   67.85
  -2   8  -5 1309.65   68.96
   2  -8   5 1178.80   60.37
  -2  -8  -5 1131.64   33.29
  -2  -8  -5 1144.39   66.55
   2   8   6 2895.71  167.46
  -2   8  -6 3600.03  109.14
  -2   8  -6 4081.55  187.17
  -2  -8  -6 3921.48  189.14
   2  -8   6 4029.50  197.04
   2   8   7 1082.89   68.05
  -2   8  -7 1176.44   73.65
   2  -8   7 1197.19   71.80
  -2  -8  -7 1155.92   74.11
   2   8   8 1456.87   85.31
  -2   8  -8 1562.26   95.63
   2  -8   8 1491.35   94.64
  -2  -8  -8 1460.13   95.14
   2   8   9   57.26   25.61
  -2   8  -9   58.71   21.76
   2  -8   9   33.59   24.08
  -2  -8  -9   38.69   22.38
   2   8  10  341.61   43.03
  -2   8 -10  329.82   41.10
   2  -8  10  355.38   43.31
  -2  -8 -10  316.28   45.76
   2   8  11   92.90   29.52
  -2   8 -11  106.20   29.60
   2  -8  11  105.88   32.66
  -2  -8 -11  136.45   29.78
   2   8  12   21.49   30.18
  -2   8 -12   12.09   25.99
   2  -8  12   47.55   26.83
  -2  -8 -12   60.44   25.01
   2   8  13  113.68   33.30
  -2   8 -13  132.10   32.59
   2  -8  13   81.90   38.86
  -2  -8 -13  135.84   40.33
   2   8  14   46.34   31.57
  -2   8 -14  145.24   36.63
   2  -8  14  103.88   33.79
  -2  -8 -14  -17.56   37.04
   2   9 -15  227.97   48.48
   2  -9 -15  172.37   42.48
  -2  -9  15  237.45   51.55
   2   9 -14  160.58   37.33
  -2   9  14  117.13   33.05
   2  -9 -14  153.19   43.02
  -2  -9  14  112.56   37.72
  -2   9  13  135.11   31.36
   2   9 -13  123.06   38.01
   2  -9 -13  161.33   28.49
  -2  -9  13  192.85   39.91
   2  -9 -13  139.45   42.89
  -2   9  12  -26.08   15.74
   2   9 -12   13.65   22.81
   2  -9 -12   -7.20   21.58
  -2  -9  12   65.50   24.04
   2  -9 -12   27.61   14.39
  -2   9  11  537.54   41.85
   2   9 -11  512.21   58.60
   2  -9 -11  584.46   57.24
  -2  -9  11  631.23   58.17
   2  -9 -11  527.14   47.66
   2   9 -10  547.10   54.36
  -2   9  10  477.66   36.81
   2  -9 -10  629.88   51.42
   2  -9 -10  518.50   38.02
  -2  -9  10  472.64   51.20
   2   9  -9  534.59   52.04
  -2   9   9  489.75   34.52
   2  -9  -9  557.16   38.43
  -2  -9   9  567.19   53.15
   2  -9  -9  585.66   52.18
  -2   9   8  234.78   21.07
   2   9  -8  326.01   34.84
   2  -9  -8  286.66   23.89
  -2  -9   8  235.22   35.46
   2  -9  -8  315.98   36.59
   2   9  -7 3468.93  180.58
   2  -9  -7 3482.42  180.46
   2  -9  -7 3397.17  159.37
  -2  -9   7 3504.77  182.10
   2   9  -6  535.56   40.18
  -2   9   6  421.09   25.03
   2  -9  -6  469.52   33.86
   2  -9  -6  473.96   39.24
  -2  -9   6  482.81   38.83
  -2   9   5  989.38   40.26
   2   9  -5 1031.47   55.94
   2  -9  -5 1064.80   50.54
   2  -9  -5  948.97   55.58
  -2  -9   5 1085.31   60.64
  -2   9   4   92.54    9.17
   2   9  -4   94.65   17.70
   2  -9  -4  122.05   18.41
   2  -9  -4   95.28   19.93
  -2  -9   4   90.10    9.06
  -2  -9   4   88.45   18.36
   2   9  -3  355.73   25.08
  -2   9   3  323.85   16.18
   2  -9  -3  394.42   36.15
  -2  -9   3  278.01   27.74
  -2  -9   3  325.91   16.94
   2  -9  -3  353.02   29.14
   2   9  -2 1178.21   48.16
  -2   9   2 1154.70   52.07
   2  -9  -2 1066.36   49.32
  -2  -9   2 1097.41   43.71
   2  -9  -2 1103.93   41.58
  -2  -9   2 1099.90   55.54
   2   9  -1 1085.81   43.13
  -2   9   1 1103.84   56.53
   2  -9  -1 1074.97   38.07
  -2  -9   1 1146.62   53.59
  -2  -9   1 1090.97   47.63
   2  -9  -1 1039.20   53.02
  -2   9   0  174.97   14.62
   2   9   0  162.29   12.34
   2  -9   0  131.94   16.30
  -2  -9   0  168.16   18.45
   2  -9   0  115.69   19.54
  -2  -9   0  147.55   16.43
  -2   9  -1  572.72   25.07
   2  -9   1  590.14   26.78
   2  -9   1  540.12   35.46
  -2  -9  -1  626.68   27.50
  -2  -9  -1  642.75   34.98
  -2  -9  -1  570.90   34.97
  -2   9  -2   60.14   11.47
   2   9   2   91.64   15.01
   2  -9   2   59.96   12.47
   2  -9   2   82.28   17.01
  -2  -9  -2   75.84    9.04
  -2  -9  -2  146.83   20.31
  -2   9  -3 1690.36   55.43
   2   9   3 1730.32   80.69
   2  -9   3 1809.17   74.41
   2  -9   3 1792.25   88.16
  -2  -9  -3 1890.23   89.18
  -2  -9  -3 1758.44   55.05
   2   9   4  108.75   25.47
  -2   9  -4  156.42   12.54
   2  -9   4  154.71   23.26
  -2  -9  -4  151.03   10.83
  -2  -9  -4  184.62   24.57
   2  -9   4  163.12   24.06
   2   9   5  464.72   38.36
  -2   9  -5  459.29   39.06
  -2   9  -5  422.93   21.41
  -2  -9  -5  478.07   40.50
   2  -9   5  466.75   34.86
  -2  -9  -5  452.13   18.72
   2   9   6  153.04   24.76
  -2   9  -6  159.05   25.88
  -2   9  -6  139.10   11.32
   2  -9   6  181.12   25.32
  -2  -9  -6  121.63   27.32
  -2   9  -7  369.29   38.75
   2   9   7  391.22   37.56
  -2  -9  -7  435.43   41.88
   2  -9   7  383.43   40.14
   2   9   8  408.39   42.91
  -2   9  -8  457.29   45.60
   2  -9   8  450.18   48.41
  -2  -9  -8  512.40   49.27
   2   9   9  373.77   48.76
  -2   9  -9  362.16   45.33
   2  -9   9  351.89   45.27
  -2  -9  -9  420.93   47.33
   2   9  10   86.80   26.37
  -2   9 -10   66.82   35.14
   2  -9  10   72.54   28.28
  -2  -9 -10  100.77   28.41
  -2   9 -11   58.78   26.30
   2   9  11   65.69   26.11
  -2  -9 -11   45.77   28.48
   2  -9  11   62.65   29.73
  -2   9 -12   49.18   30.48
   2  -9  12   16.58   27.63
  -2  -9 -12   17.24   24.91
   2   9  13 1461.19  100.07
  -2   9 -13  725.42   81.61
   2  -9  13  770.62   89.38
  -2  -9 -13  806.92   86.30
   2   9  14  126.05   35.50
  -2   9 -14  137.96   34.57
   2  -9  14   27.37   38.00
  -2  -9 -14  116.89   35.29
   2  10 -15  105.71   36.71
   2 -10 -15   97.93   33.76
  -2 -10  15   60.69   38.55
   2  10 -14  217.59   46.72
   2 -10 -14  224.53   43.69
  -2 -10  14  273.98   60.79
  -2  10  13  243.73   32.17
   2  10 -13   72.52   35.82
  -2 -10  13  112.50   35.96
   2 -10 -13   50.79   34.29
   2  10 -12   12.27   21.82
  -2  10  12   -6.54   14.32
   2 -10 -12    2.51   22.18
   2 -10 -12  -13.62   14.00
  -2 -10  12   10.62   22.79
   2  10 -11  428.93   51.85
  -2  10  11  377.09   34.61
   2 -10 -11  391.48   33.27
   2 -10 -11  505.78   51.44
  -2 -10  11  504.41   56.06
   2  10 -10   41.30   23.10
  -2  10  10    4.16   18.48
   2 -10 -10   85.30   23.53
   2 -10 -10   22.69   14.81
  -2 -10  10   15.13   24.53
   2  10  -9  398.86   45.62
  -2  10   9  383.17   33.38
   2 -10  -9  380.68   45.59
   2 -10  -9  338.11   30.00
  -2 -10   9  456.72   46.75
  -2  10   8  145.55   16.60
   2  10  -8  149.54   28.60
   2 -10  -8  112.61   28.77
  -2 -10   8  172.00   28.43
   2 -10  -8  112.18   17.89
  -2  10   7 2065.58   84.49
   2  10  -7 2188.23  124.34
   2 -10  -7 2209.89  104.11
   2 -10  -7 2394.25  148.28
  -2 -10   7 2230.23  125.77
  -2  10   6  228.03   20.59
   2  10  -6  270.47   33.98
   2 -10  -6  262.07   29.91
   2 -10  -6  245.31   32.92
  -2 -10   6  283.28   31.69
  -2  10   5  868.31   39.07
   2  10  -5  953.08   57.43
   2 -10  -5  986.03   56.61
   2 -10  -5  932.14   58.37
  -2 -10   5 1050.65   62.06
   2  10  -4 1014.97   54.70
  -2  10   4  859.93   34.43
   2 -10  -4  933.34   47.43
  -2 -10   4  898.52   55.88
  -2 -10   4  898.53   32.62
   2 -10  -4  992.56   60.64
  -2  10   3 1191.64   46.56
   2  10  -3 1246.58   59.17
   2 -10  -3 1287.04   68.20
  -2 -10   3 1099.21   63.82
   2 -10  -3 1074.80   56.10
  -2 -10   3 1102.98   42.47
   2  10  -2   45.59   11.84
  -2  10   2   22.58   13.83
   2 -10  -2   39.54   14.63
  -2 -10   2   69.96   15.60
  -2 -10   2   42.38   11.55
   2 -10  -2   30.26    8.91
   2  10  -1  609.95   33.28
  -2  10   1  630.35   34.16
   2 -10  -1  649.43   38.52
  -2 -10   1  589.41   45.23
  -2 -10   1  590.48   33.15
   2 -10  -1  538.44   26.36
   2  10   0  383.54   21.39
  -2  10   0  377.02   23.53
   2 -10   0  375.02   28.86
   2 -10   0  349.40   21.73
  -2 -10   0  346.11   28.58
  -2 -10   0  342.20   29.65
  -2  10  -1 3181.80  123.85
   2 -10   1 3407.59  154.75
   2 -10   1 3255.67  125.45
  -2 -10  -1 3442.73  124.37
  -2 -10  -1 3422.69  146.32
  -2 -10  -1 3185.57  143.73
  -2  10  -2  131.85   12.72
   2  10   2   89.80   18.54
   2 -10   2  119.07   15.71
   2 -10   2  221.00   22.61
  -2 -10  -2  168.52   20.41
  -2 -10  -2  148.77   15.25
   2  10   3 1006.09   62.61
  -2  10  -3 1054.90   42.28
   2 -10   3 1086.50   66.24
  -2 -10  -3  991.99   40.15
  -2 -10  -3 1098.73   60.48
   2 -10   3 1047.94   50.99
   2  10   4  798.02   50.24
  -2  10  -4  727.91   31.15
   2 -10   4  740.07   43.63
   2 -10   4  816.80   56.52
  -2 -10  -4  802.01   54.29
  -2 -10  -4  741.45   29.80
  -2  10  -5 3390.06  174.38
   2  10   5 3310.92  162.29
  -2  10  -5 2938.97  104.11
   2 -10   5 3212.91  160.85
  -2 -10  -5 3219.74  172.30
  -2 -10  -5 2963.10   94.44
   2  10   6  634.58   57.18
  -2  10  -6  646.79   52.48
   2 -10   6  642.25   56.90
  -2 -10  -6  608.51   54.53
  -2  10  -7  104.37   28.30
   2  10   7  113.55   24.04
  -2 -10  -7   87.13   30.69
   2 -10   7  131.27   25.60
   2  10   8  413.86   42.98
  -2  10  -8  467.40   57.94
   2 -10   8  449.94   48.07
  -2 -10  -8  517.30   49.25
   2  10   9  234.85   35.93
  -2  10  -9  285.42   39.96
   2 -10   9  288.79   40.51
  -2 -10  -9  300.19   49.75
  -2  10 -10  659.81   69.52
   2  10  10  684.59   61.67
  -2 -10 -10  729.89   66.98
   2 -10  10  737.01   73.54
   2  10  11 1201.70  111.94
  -2  10 -11 1183.08  112.41
   2 -10  11 1508.77  127.03
  -2 -10 -11 1278.67  103.63
   2  10  12  179.50   38.74
  -2  10 -12  225.99   49.78
   2 -10  12  185.93   42.87
  -2 -10 -12  178.31   40.18
   2  10  13  170.20   41.38
  -2  10 -13  153.41   45.71
   2 -10  13  295.29   49.48
  -2 -10 -13  257.90   47.04
   2  11 -14   30.25   34.06
   2 -11 -14   26.56   30.10
  -2 -11  14   71.81   30.95
   2  11 -13  254.10   51.37
   2 -11 -13  304.40   49.03
  -2 -11  13  397.79   53.75
   2  11 -12   30.18   27.51
  -2  11  12   22.24   20.69
   2 -11 -12  -12.53   33.45
  -2 -11  12   74.80   28.72
   2  11 -11 1031.34   86.98
  -2  11  11  877.38   63.46
   2 -11 -11  759.86   60.94
   2 -11 -11 1004.72   80.75
  -2 -11  11  911.81   86.51
  -2  11  10  -26.92   15.55
   2 -11 -10   15.16   14.46
  -2 -11  10   -7.07   21.74
   2 -11 -10   35.66   21.32
   2  11  -9  369.84   43.69
  -2  11   9  264.55   29.49
   2 -11  -9  338.79   41.78
   2 -11  -9  299.15   32.87
  -2 -11   9  346.33   43.41
  -2  11   8  316.10   22.48
   2  11  -8  379.28   41.28
   2 -11  -8  333.70   41.05
  -2 -11   8  306.15   42.11
   2 -11  -8  322.65   30.00
  -2  11   7  643.54   38.79
   2  11  -7  780.47   59.08
   2 -11  -7  691.79   43.00
   2 -11  -7  705.42   57.79
  -2 -11   7  691.54   57.09
  -2  11   6 1246.51   59.69
   2  11  -6 1342.74   88.32
   2 -11  -6 1410.16   73.90
   2 -11  -6 1384.70   85.57
  -2 -11   6 1378.65   87.36
  -2  11   5 1040.61   44.56
   2  11  -5 1174.66   71.13
   2 -11  -5 1155.66   60.89
   2 -11  -5 1203.53   73.04
  -2 -11   5 1245.65   73.95
   2  11  -4  220.61   25.47
  -2  11   4  193.45   14.71
   2 -11  -4  173.32   21.41
  -2 -11   4  196.11   14.07
  -2 -11   4  148.49   24.97
   2 -11  -4  234.11   27.81
   2  11  -3  943.64   49.66
   2 -11  -3  814.90   47.06
   2 -11  -3  896.30   57.02
  -2 -11   3  795.65   53.45
  -2 -11   3  813.53   37.70
   2  11  -2  758.65   39.84
  -2  11   2  719.53   44.99
   2 -11  -2  702.67   45.66
   2 -11  -2  670.14   32.34
  -2 -11   2  745.25   33.52
  -2 -11   2  733.83   47.55
   2  11  -1 2601.31  107.46
  -2  11   1 2821.44  122.32
   2 -11  -1 2785.29  132.36
  -2 -11   1 2583.98  103.23
   2 -11  -1 2501.12   97.88
  -2 -11   1 2565.96  124.16
   2  11   0   75.37   16.55
  -2  11   0   88.39   15.09
   2 -11   0   98.60   19.15
  -2 -11   0   87.94   21.58
  -2 -11   0  109.11   16.23
   2 -11   0  105.65   13.22
  -2  11  -1  288.64   21.72
   2 -11   1  330.46   23.14
  -2 -11  -1  343.02   30.36
  -2 -11  -1  344.82   28.35
   2 -11   1  334.99   31.88
   2  11   2   40.20   15.83
  -2  11  -2   23.01   12.53
   2 -11   2   44.14   12.91
   2 -11   2   91.16   18.83
  -2 -11  -2   27.79   10.24
  -2 -11  -2   76.40   16.71
   2  11   3 1745.68   99.44
  -2  11  -3 2149.14   77.49
   2 -11   3 2176.70  121.98
  -2 -11  -3 2222.60   82.79
  -2 -11  -3 2335.07  120.64
   2 -11   3 2007.02   97.31
   2  11   4 2183.82  110.12
  -2  11  -4 1910.94   72.92
   2 -11   4 2129.41  122.04
   2 -11   4 2159.16  112.92
  -2 -11  -4 2020.43   74.90
  -2 -11  -4 2146.39  121.80
   2  11   5  114.01   27.05
  -2  11  -5  114.64   25.08
  -2  11  -5   84.49   11.37
   2 -11   5   85.35   20.74
  -2 -11  -5   81.38   11.62
  -2 -11  -5   95.16   25.22
   2  11   6  308.91   36.39
  -2  11  -6  366.14   41.01
   2 -11   6  326.99   34.86
  -2 -11  -6  343.12   41.78
   2  11   7  152.05   26.47
  -2  11  -7  107.15   30.09
   2 -11   7  114.51   26.87
  -2 -11  -7  147.38   31.16
  -2  11  -8  151.95   31.01
   2  11   8  147.26   27.31
  -2 -11  -8  174.24   39.44
   2 -11   8   99.51   29.58
   2  11   9  430.46   58.14
  -2  11  -9  578.62   56.66
   2 -11   9  480.21   55.84
  -2 -11  -9  500.11   55.56
   2  11  10   38.67   25.43
  -2  11 -10   43.31   29.98
   2 -11  10  128.02   29.96
  -2 -11 -10   63.93   36.63
  -2  11 -11  264.49   60.93
   2  11  11  278.94   42.58
  -2 -11 -11  256.02   48.07
   2 -11  11  305.54   49.44
   2  11  12  202.50   41.27
  -2  11 -12  224.88   47.05
   2 -11  12  288.80   57.85
  -2 -11 -12  287.93   46.15
  -2  11 -13  107.34   36.44
   2  11  13   27.24   30.93
  -2 -11 -13  115.43   37.93
   2 -11  13  107.05   44.62
   2  12 -13  465.74   66.06
   2 -12 -13  458.51   64.57
  -2 -12  13  528.73   69.53
   2  12 -12  266.56   50.61
   2 -12 -12  297.77   55.02
  -2 -12  12  220.03   48.96
   2  12 -11   33.79   30.48
  -2  12  11   54.92   21.06
   2 -12 -11   51.52   28.78
   2 -12 -11   33.39   17.58
  -2 -12  11   69.29   30.43
   2  12 -10  181.91   42.72
  -2  12  10  262.01   25.20
   2 -12 -10  247.38   32.00
   2 -12 -10  216.67   42.85
  -2 -12  10  217.63   40.84
  -2  12   9  199.40   25.04
   2  12  -9  326.93   42.83
   2 -12  -9  372.37   44.29
   2 -12  -9  294.12   33.95
  -2 -12   9  264.40   38.07
  -2  12   8  196.66   23.20
   2  12  -8  181.39   33.22
   2 -12  -8  199.50   36.50
  -2 -12   8  139.06   33.95
   2 -12  -8  230.16   23.07
  -2  12   7   85.35   14.24
   2  12  -7  101.98   27.46
   2 -12  -7   71.16   26.67
  -2 -12   7   77.45   26.32
   2 -12  -7   87.92   18.54
   2  12  -6  764.95   57.15
  -2  12   6  698.86   38.77
   2 -12  -6  677.68   57.02
   2 -12  -6  649.63   44.01
  -2 -12   6  604.66   55.84
  -2  12   5  165.65   18.19
   2  12  -5  203.37   27.14
   2 -12  -5  147.30   28.06
   2 -12  -5  139.39   20.99
  -2 -12   5  132.43   27.22
   2  12  -4 1555.37   95.02
  -2  12   4 1433.50   66.67
   2 -12  -4 1440.28   84.78
  -2 -12   4 1522.34   91.44
   2 -12  -4 1572.14   93.62
   2  12  -3  590.63   42.15
  -2  12   3  638.05   31.39
  -2  12   3  554.19   36.29
   2 -12  -3  610.32   42.21
  -2 -12   3  608.83   32.42
  -2 -12   3  573.60   46.66
   2  12  -2  692.28   41.49
  -2  12   2  784.82   48.41
   2 -12  -2  781.13   50.59
  -2 -12   2  679.01   57.74
  -2 -12   2  655.57   35.98
   2 -12  -2  663.40   34.77
   2  12  -1 1329.86   62.47
  -2  12   1 1420.34   72.03
   2 -12  -1 1240.16   56.83
  -2 -12   1 1327.94   60.25
   2 -12  -1 1288.25   73.46
  -2 -12   1 1335.58   77.21
   2  12   0   62.12   17.89
  -2  12   0   66.14   19.66
   2 -12   0  112.96   18.37
   2 -12   0   49.75   20.51
  -2 -12   0   98.39   23.46
  -2 -12   0   94.36   17.06
   2  12   1  389.88   25.68
  -2  12  -1  423.20   26.97
   2 -12   1  464.56   39.11
   2 -12   1  483.14   30.24
  -2 -12  -1  436.56   36.43
  -2 -12  -1  433.38   33.72
   2  12   2  687.52   47.30
  -2  12  -2  725.36   35.40
   2 -12   2  747.40   42.53
   2 -12   2  702.10   55.19
  -2 -12  -2  704.89   48.38
  -2 -12  -2  730.94   40.06
  -2  12  -3  175.46   15.54
   2  12   3  124.92   30.14
   2 -12   3  235.83   31.50
   2 -12   3  201.29   23.14
  -2 -12  -3  170.21   28.53
  -2 -12  -3  205.41   20.46
   2  12   4  832.43   53.48
  -2  12  -4  653.72   33.19
   2 -12   4  636.73   53.62
  -2 -12  -4  724.52   37.25
  -2 -12  -4  789.61   67.26
   2  12   5  690.36   51.33
  -2  12  -5  620.39   58.33
   2 -12   5  573.97   46.83
  -2 -12  -5  655.93   54.42
   2  12   6  183.03   27.93
  -2  12  -6  102.72   30.31
   2 -12   6  136.44   26.27
  -2 -12  -6  114.01   36.93
   2  12   7   61.07   22.98
  -2  12  -7   52.64   26.94
   2 -12   7   61.66   22.91
  -2 -12  -7   42.26   27.39
   2  12   8   66.06   26.18
  -2  12  -8   99.89   29.38
   2 -12   8   79.85   25.38
  -2 -12  -8   95.06   30.12
   2  12   9  309.88   47.50
  -2  12  -9  302.17   58.25
   2 -12   9  365.68   45.52
  -2 -12  -9  351.97   51.08
   2  12  10  127.99   27.48
  -2  12 -10   61.56   34.32
   2 -12  10  102.37   33.14
  -2 -12 -10   93.92   33.64
  -2  12 -11  242.41   45.12
   2  12  11  187.09   39.51
  -2 -12 -11  266.70   55.02
   2 -12  11  213.55   45.53
  -2  12 -12  153.81   42.73
   2  12  12  113.88   35.94
  -2 -12 -12  249.95   41.91
   2 -12  12  145.55   42.92
   2  13 -13   90.77   36.42
   2 -13 -13   70.13   37.69
  -2 -13  13   98.84   35.94
   2  13 -12   -7.23   31.69
   2 -13 -12   55.66   29.85
  -2 -13  12   48.34   30.75
   2  13 -11  965.66   79.68
   2 -13 -11  410.16   66.77
  -2 -13  11  589.99   70.68
   2  13 -10  163.90   40.16
   2 -13 -10  214.46   39.56
   2 -13 -10  129.92   27.11
  -2 -13  10  186.94   39.78
   2  13  -9  207.84   41.84
  -2  13   9  195.86   27.59
   2 -13  -9  226.45   42.59
   2 -13  -9  233.30   31.03
  -2 -13   9  252.62   41.16
   2  13  -8  397.42   55.71
  -2  13   8  303.12   25.11
   2 -13  -8  360.36   37.07
  -2 -13   8  333.94   45.83
   2 -13  -8  386.68   48.11
  -2  13   7  269.49   26.33
   2  13  -7  264.47   38.77
   2 -13  -7  289.30   28.57
   2 -13  -7  241.69   41.59
  -2 -13   7  313.95   40.89
   2  13  -6  113.01   38.68
  -2  13   6  256.04   21.09
   2 -13  -6  193.22   33.84
   2 -13  -6  123.19   22.37
  -2 -13   6  119.62   30.89
   2  13  -5  381.65   36.42
  -2  13   5  280.86   22.66
   2 -13  -5  352.53   48.15
   2 -13  -5  276.70   29.99
  -2 -13   5  288.59   45.00
   2  13  -4  122.46   14.00
   2  13  -4  214.02   30.48
  -2  13   4  115.39   15.56
   2 -13  -4  108.97   27.42
   2 -13  -4  120.26   22.87
  -2 -13   4  107.40   26.08
   2  13  -3   46.30   15.02
  -2  13   3   -6.53   12.98
  -2  13   3    8.45   21.65
  -2 -13   3   23.65   17.61
   2 -13  -3   32.03   16.77
  -2 -13   3    4.65   12.30
   2  13  -2  217.50   27.55
  -2  13   2  158.44   30.79
   2 -13  -2  230.88   29.54
  -2 -13   2  173.96   27.99
   2 -13  -2  194.09   22.77
  -2 -13   2  226.97   19.48
  -2  13   1  756.45   48.80
   2  13  -1  779.46   45.06
   2 -13  -1  676.23   39.26
   2 -13  -1  719.45   52.23
  -2 -13   1  683.53   52.15
  -2 -13   1  705.58   42.07
  -2  13   0 1135.00   60.91
   2  13   0 1195.31   65.10
   2 -13   0 1046.99   61.54
  -2 -13   0 1029.92   74.53
   2 -13   0 1094.01   70.41
  -2 -13   0 1038.07   57.37
   2  13   1  283.88   23.04
  -2  13  -1  220.24   26.52
   2 -13   1  286.27   33.46
   2 -13   1  188.10   29.66
  -2 -13  -1  280.85   37.49
  -2 -13  -1  218.29   26.82
  -2  13  -2 1299.07   58.74
   2  13   2 1295.98   83.78
   2 -13   2 1289.51   86.27
   2 -13   2 1219.90   66.73
  -2 -13  -2 1225.75   79.06
   2  13   3 1119.55   78.02
  -2  13  -3 1025.74   53.01
   2 -13   3 1254.87   82.97
  -2 -13  -3 1057.29   49.93
  -2 -13  -3 1069.17   74.27
   2 -13   3 1046.73   60.01
   2  13   4  479.96   46.21
  -2  13  -4  362.60   25.27
  -2  13  -4  456.34   47.39
  -2 -13  -4  463.29   45.71
   2 -13   4  493.68   44.68
  -2 -13  -4  433.96   29.82
   2  13   5   27.70   19.52
  -2  13  -5   30.57   22.17
   2 -13   5   42.26   17.92
  -2 -13  -5    1.04   21.49
   2  13   6  277.71   34.51
  -2  13  -6  243.24   39.10
   2 -13   6  210.28   39.07
  -2 -13  -6  257.18   39.42
   2  13   7  766.78   64.27
  -2  13  -7  721.01   71.31
   2 -13   7  778.71   62.38
  -2 -13  -7  797.67   73.26
   2  13   8  119.07   26.63
  -2  13  -8  101.11   33.26
   2 -13   8  106.43   30.16
  -2 -13  -8   89.58   34.06
   2  13   9  567.05   73.93
  -2  13  -9  630.47   72.18
   2 -13   9 1058.02   83.82
  -2 -13  -9  608.96   75.63
   2  13  10   81.99   30.14
  -2  13 -10   75.54   36.50
   2 -13  10   95.02   34.32
  -2 -13 -10  242.68   38.19
   2  13  11   16.25   26.96
  -2  13 -11   99.76   34.77
   2 -13  11   71.24   32.19
  -2 -13 -11   45.04   33.34
   2  14 -12  118.11   41.38
   2 -14 -12   37.58   36.03
  -2 -14  12  150.63   41.08
   2  14 -11    0.02   38.27
   2 -14 -11   16.23   37.94
  -2 -14  11   78.76   30.00
   2  14 -10  104.73   38.40
   2 -14 -10  210.94   40.48
  -2 -14  10  132.72   48.38
   2  14  -9  762.00   73.13
   2 -14  -9  854.84   89.85
   2 -14  -9  599.08   48.97
  -2 -14   9  645.62   81.02
  -2  14   8    8.85   10.84
   2  14  -8   25.23   24.48
   2 -14  -8   -8.41   14.89
   2 -14  -8   47.07   24.99
  -2 -14   8   35.91   23.57
  -2  14   7  159.11   22.37
   2  14  -7  108.87   35.11
   2 -14  -7  148.94   22.98
  -2 -14   7  177.72   33.12
   2 -14  -7  199.97   33.07
  -2  14   6  105.61   16.54
   2  14  -6  109.99   29.12
   2 -14  -6  156.44   27.87
   2 -14  -6  140.52   36.77
  -2 -14   6   96.27   35.49
  -2  14   5  187.71   22.64
   2  14  -5  169.93   31.87
   2 -14  -5  228.69   32.15
   2 -14  -5  177.72   33.15
  -2 -14   5  182.49   32.63
   2  14  -4  929.41   65.47
  -2  14   4  872.55   52.44
  -2  14   4 1013.85   69.16
   2 -14  -4  908.26   62.75
  -2 -14   4  928.02   68.85
   2  14  -3   87.93   27.17
  -2  14   3   66.65   18.24
  -2  14   3  101.53   23.52
  -2 -14   3  125.17   29.96
   2 -14  -3   79.49   23.41
  -2 -14   3  116.79   17.82
   2  14  -2  200.57   27.29
  -2  14   2  200.13   29.33
   2 -14  -2  183.49   28.72
   2 -14  -2  219.93   26.35
  -2 -14   2  195.96   20.49
  -2 -14   2  264.68   31.37
   2  14  -1  939.55   53.18
  -2  14   1  965.92   59.81
   2 -14  -1  901.24   74.13
  -2 -14   1  903.11   50.80
  -2 -14   1  823.60   60.90
   2 -14  -1  813.39   47.26
   2  14   0  139.99   24.53
  -2  14   0  148.37   21.70
   2 -14   0  118.62   19.43
  -2 -14   0  167.75   25.98
  -2 -14   0  131.87   21.59
   2 -14   0  102.36   27.55
  -2  14  -1 3758.45  180.19
   2  14   1 4098.79  195.02
   2 -14   1 3693.55  200.21
  -2 -14  -1 3652.68  198.13
   2 -14   1 4039.36  232.66
   2  14   2  380.71   35.77
  -2  14  -2  378.44   27.23
   2  14   2  341.76   27.88
   2 -14   2  407.49   43.51
   2 -14   2  390.34   39.16
  -2 -14  -2  348.14   44.07
   2  14   3  163.81   25.03
  -2  14  -3  144.18   19.00
   2 -14   3  119.97   28.47
   2 -14   3  182.01   38.31
  -2 -14  -3  132.95   28.23
  -2 -14  -3  118.27   17.00
   2  14   4  431.49   46.95
  -2  14  -4  420.87   49.78
   2 -14   4  420.77   37.92
  -2 -14  -4  399.24   45.28
  -2 -14  -4  391.19   26.94
   2  14   5  631.81   55.29
  -2  14  -5  676.19   62.77
   2 -14   5  642.64   50.69
  -2 -14  -5  641.30   61.01
   2  14   6   79.87   26.62
  -2  14  -6   69.63   29.19
   2 -14   6  115.28   25.54
  -2 -14  -6  103.88   28.76
   2  14   7  412.82   47.59
  -2  14  -7  406.59   56.05
   2 -14   7  418.81   46.73
  -2 -14  -7  461.23   54.77
   2  14   8  168.36   33.65
  -2  14  -8  116.37   37.12
   2 -14   8  177.50   40.12
  -2 -14  -8  170.49   39.89
   2  14   9  184.85   36.75
  -2  14  -9  211.85   54.50
   2 -14   9  191.86   41.41
  -2 -14  -9  250.58   41.73
   2  14  10   59.47   27.23
  -2  14 -10  105.90   36.14
   2 -14  10   69.73   32.80
  -2 -14 -10   55.83   35.08
   2  15 -11  268.55   48.94
   2 -15 -11  165.57   48.72
  -2 -15  11  153.91   43.35
   2  15 -10   21.77   30.63
   2 -15 -10   55.19   30.19
  -2 -15  10   41.99   31.05
   2  15  -9  231.19   50.72
   2 -15  -9  274.67   52.95
  -2 -15   9  380.65   51.13
   2  15  -8   36.55   28.80
   2 -15  -8  114.72   29.69
   2 -15  -8   18.50   17.81
  -2 -15   8   51.19   33.09
   2  15  -7  624.46   61.98
   2 -15  -7  645.60   67.62
   2 -15  -7  518.63   46.18
  -2 -15   7  639.92   62.70
  -2  15   6  211.75   23.43
   2  15  -6  190.55   35.63
   2 -15  -6  200.68   28.08
   2 -15  -6  145.29   35.98
  -2 -15   6  116.74   34.97
   2  15  -5  241.70   40.21
  -2  15   5  211.59   25.44
  -2  15   5  186.95   27.34
   2 -15  -5  237.95   37.01
  -2 -15   5  230.88   44.19
   2  15  -4  607.45   52.61
  -2  15   4  602.48   52.55
  -2  15   4  555.51   41.03
   2 -15  -4  623.05   51.06
  -2 -15   4  539.43   55.08
   2  15  -3   86.64   23.84
  -2  15   3  138.49   26.29
  -2  15   3   92.13   20.85
  -2 -15   3  129.80   32.31
   2 -15  -3   95.59   24.37
   2  15  -2  358.98   37.02
  -2  15   2  413.59   41.15
   2 -15  -2  380.76   39.27
   2 -15  -2  360.41   30.08
  -2 -15   2  385.18   29.58
  -2 -15   2  322.19   41.66
  -2  15   1   66.00   20.63
   2  15  -1   51.27   18.51
   2 -15  -1   54.82   17.02
   2 -15  -1   89.05   23.74
  -2 -15   1   77.35   22.74
  -2 -15   1   75.82   16.55
   2  15   0 1712.43   92.08
  -2  15   0 1850.63   98.26
   2 -15   0 1698.14  112.78
  -2 -15   0 1607.71   95.20
  -2 -15   0 1516.47  104.80
   2 -15   0 1582.15   92.88
   2  15   1  340.18   37.00
   2  15   1  387.93   36.87
  -2  15  -1  372.25   29.50
   2 -15   1  377.29   44.67
  -2 -15  -1  362.36   34.95
   2 -15   1  296.84   30.86
   2  15   2   46.71   15.12
   2  15   2   67.57   20.39
  -2  15  -2   62.35   18.04
   2 -15   2   66.05   18.06
   2 -15   2   44.48   26.42
  -2 -15  -2   79.44   20.93
   2  15   3  111.43   16.48
   2  15   3  134.93   24.65
  -2  15  -3   91.39   17.72
  -2  15  -3   10.68   20.38
   2 -15   3  130.96   21.56
  -2 -15  -3   96.32   26.02
   2  15   4  345.52   37.87
  -2  15  -4  318.26   46.58
   2 -15   4  345.45   41.99
  -2 -15  -4  303.41   40.25
  -2  15  -5  232.07   40.70
   2  15   5  209.89   33.88
  -2 -15  -5  281.59   40.28
   2 -15   5  196.41   32.60
   2  15   6  204.50   35.67
  -2  15  -6  220.36   39.42
   2 -15   6  168.44   31.56
  -2 -15  -6  203.49   38.27
   2  15   7  563.80   59.75
  -2  15  -7  555.27   67.78
   2 -15   7  535.08   55.60
  -2 -15  -7  565.42   77.87
   2  15   8   70.82   23.65
  -2  15  -8   46.75   26.61
   2 -15   8   13.88   24.06
  -2 -15  -8  -38.22   26.10
   2  15   9   10.49   27.11
  -2  15  -9  -20.98   29.22
   2 -15   9   27.60   24.21
  -2 -15  -9   30.79   28.89
   2  16 -10  334.41   55.44
   2 -16 -10  346.65   59.11
  -2 -16  10  268.39   54.18
   2  16  -9  208.42   45.75
   2 -16  -9  178.79   47.26
  -2 -16   9  173.76   43.31
   2  16  -8  200.19   40.44
   2 -16  -8  170.57   42.45
  -2 -16   8  136.45   39.01
   2  16  -7    6.62   25.84
   2 -16  -7    9.80   21.03
  -2 -16   7   29.43   24.27
  -2  16   6  478.28   52.73
   2  16  -6  428.30   54.46
  -2 -16   6  352.84   50.72
   2 -16  -6  410.86   49.03
   2  16  -5   80.73   26.30
  -2  16   5   73.62   26.71
   2 -16  -5   79.94   21.77
  -2 -16   5   52.23   27.97
  -2  16   4   38.64   17.12
   2  16  -4   34.80   22.64
  -2  16   4   47.76   27.15
  -2 -16   4   12.74   22.93
   2 -16  -4   36.16   19.35
  -2  16   3  952.00   72.18
   2  16  -3  988.48   71.13
  -2  16   3  933.06   62.52
  -2 -16   3  889.83   74.25
   2 -16  -3  834.91   66.81
   2  16  -2  437.27   37.62
  -2  16   2  403.69   41.15
  -2  16   2  292.64   31.59
  -2 -16   2  332.40   43.35
   2 -16  -2  358.09   43.37
  -2 -16   2  345.51   36.67
   2  16  -1   93.41   21.10
  -2  16   1  103.78   27.63
   2 -16  -1   63.93   18.31
  -2 -16   1   76.71   25.44
  -2 -16   1   70.23   23.04
   2 -16  -1   84.45   25.12
   2  16   0 1113.93   68.82
  -2  16   0  991.20   76.59
   2 -16   0 1021.44   64.73
  -2 -16   0 1077.01   67.98
  -2 -16   0 1034.24   87.84
   2 -16   0 1169.05   87.66
   2  16   1   84.28   22.65
   2  16   1   93.02   28.31
  -2  16  -1   58.09   18.49
   2 -16   1   60.10   19.71
   2 -16   1  133.41   27.70
  -2 -16  -1   88.35   27.99
   2  16   2   99.46   23.39
   2  16   2   99.87   22.18
  -2  16  -2   83.41   21.02
   2 -16   2  109.71   29.75
  -2 -16  -2   71.65   22.96
   2 -16   2   85.23   20.28
   2  16   3   13.34   18.79
  -2  16  -3   25.54   23.40
   2 -16   3   17.99   17.04
  -2 -16  -3   28.18   25.50
   2  16   4  178.94   31.33
  -2  16  -4  188.26   37.96
   2 -16   4  126.55   28.25
  -2 -16  -4  177.03   39.66
   2  16   5  279.87   36.92
  -2  16  -5  211.48   42.28
   2 -16   5  204.93   32.47
  -2 -16  -5  204.34   40.08
   2  16   6   59.58   25.31
  -2  16  -6   76.41   32.04
   2 -16   6   43.04   24.14
  -2 -16  -6   66.02   29.79
   2  16   7  457.77   53.87
  -2  16  -7  352.26   78.41
   2 -16   7  392.65   61.05
  -2 -16  -7  439.81   57.62
   2  16   8   21.88   30.05
  -2  16  -8   58.15   29.87
   2 -16   8   30.18   31.89
  -2 -16  -8   31.44   29.04
   2  17  -9  125.31   34.54
  -2  17   9    6.27   23.01
  -2 -17   9   74.89   38.97
   2  17  -8   77.42   32.54
  -2  17   8   34.38   20.85
  -2 -17   8   87.89   32.95
   2  17  -7  205.98   42.18
  -2  17   7  204.62   42.07
  -2 -17   7  153.41   39.37
   2  17  -6  183.49   34.24
  -2  17   6  114.21   32.61
   2 -17  -6   77.01   24.69
  -2 -17   6  163.16   34.23
   2  17  -5   88.15   27.66
  -2  17   5   83.78   33.66
   2 -17  -5   64.15   22.69
  -2 -17   5   60.83   28.71
   2  17  -4  588.95   56.89
  -2  17   4  612.30   59.60
   2 -17  -4  532.50   50.95
  -2 -17   4  514.66   58.78
   2  17  -3   64.79   24.05
  -2  17   3  121.02   26.50
   2 -17  -3   45.66   23.88
  -2 -17   3   75.48   25.45
  -2  17   2  104.02   23.94
   2  17  -2   43.50   22.89
  -2 -17   2   36.52   24.91
   2 -17  -2   36.73   31.11
  -2  17   1  127.22   25.05
   2  17  -1  116.16   24.59
   2 -17  -1  115.63   31.85
   2 -17  -1   92.85   21.44
  -2 -17   1  125.64   28.09
  -2 -17   1   82.81   28.61
   2  17   0  226.23   32.83
  -2  17   0  235.71   32.90
   2 -17   0  222.02   45.61
  -2 -17   0  134.15   33.02
  -2 -17   0  200.36   34.11
   2 -17   0  179.76   27.36
   2  17   1   39.07   18.16
   2  17   1   95.02   22.95
  -2  17  -1   49.14   18.38
   2 -17   1   83.27   28.80
   2 -17   1   41.44   23.28
  -2 -17  -1   54.34   21.41
   2  17   2  198.65   31.82
   2 -17   2  123.28   34.39
  -2 -17  -2  230.80   33.20
   2  17   3    9.96   24.30
  -2  17  -3    6.78   30.69
   2 -17   3   16.89   18.13
  -2 -17  -3   22.92   21.67
   2  17   4  209.47   44.35
  -2  17  -4  254.37   43.82
   2 -17   4  206.31   33.24
  -2 -17  -4  248.67   40.61
   2  17   5  115.08   37.19
  -2  17  -5   91.82   35.00
   2 -17   5  129.79   33.10
  -2 -17  -5   96.93   33.93
   2  17   6  352.02   47.96
  -2  17  -6  374.90   65.08
   2 -17   6  266.60   51.83
  -2 -17  -6  354.73   51.78
   2  17   7  107.06   32.90
  -2  17  -7  176.39   40.32
   2 -17   7  104.98   32.78
  -2 -17  -7  111.64   37.22
   2  18  -7    9.17   34.51
  -2  18   7   40.02   26.03
  -2 -18   7   -4.68   27.24
   2  18  -6  428.79   68.32
  -2  18   6  403.53   52.42
  -2 -18   6  332.41   53.01
   2  18  -5  263.42   51.97
  -2  18   5  242.24   43.97
   2 -18  -5  242.28   35.64
  -2 -18   5  200.46   43.25
   2  18  -4  122.65   26.83
  -2  18   4   19.28   28.67
   2 -18  -4   33.15   25.65
  -2 -18   4   82.48   28.08
  -2  18   3  162.00   31.95
   2  18  -3  124.85   31.64
  -2 -18   3  107.16   32.21
   2 -18  -3  192.43   32.59
   2  18  -2  286.26   38.35
  -2  18   2  290.46   47.75
   2 -18  -2  288.15   42.94
  -2 -18   2  289.74   41.04
  -2  18   1   75.92   29.23
   2  18  -1   62.73   26.72
  -2 -18   1   93.76   27.93
   2 -18  -1   69.99   29.41
   2  18   0  346.31   37.41
  -2  18   0  318.87   37.17
   2 -18   0  361.13   58.45
  -2 -18   0  291.24   37.92
   2  18   1  242.81   37.21
   2 -18   1  221.30   44.70
   2 -18   1  242.37   37.34
  -2 -18  -1  262.38   34.66
   2  18   2  220.59   33.88
  -2  18  -2  250.01   44.35
   2 -18   2  211.55   38.41
  -2 -18  -2  251.32   36.65
   2  18   3   70.55   30.27
  -2  18  -3   94.70   30.16
   2 -18   3   34.42   22.47
  -2 -18  -3   44.45   30.71
   2  18   4  134.27   32.86
  -2  18  -4  129.39   41.52
   2 -18   4  173.48   31.23
  -2 -18  -4  167.20   36.96
   2  18   5   46.98   25.58
  -2  18  -5   24.47   31.79
   2 -18   5   38.40   24.28
  -2 -18  -5   45.41   27.28
   2  19  -4  633.84   65.16
  -2  19   4  567.86   75.65
   2 -19  -4  572.52   73.61
  -2 -19   4  564.14   76.25
   2  19  -3  120.95   29.90
  -2  19   3  113.07   36.67
   2 -19  -3  106.74   32.11
  -2 -19   3   95.45   32.56
  -2  19   2   -0.73   23.54
   2  19  -2   14.85   28.28
  -2 -19   2   90.39   25.04
   2 -19  -2   39.86   27.01
   2  19  -1  285.99   38.05
   2 -19  -1  300.10   44.82
  -2 -19   1  284.59   43.59
   2  19   0  258.16   39.02
   2 -19   0  239.86   55.32
   2  19   1   64.71   30.65
  -2  19  -1   60.34   29.42
  -2 -19  -1   19.71   29.08
   2  19   2  157.88   32.49
  -2  19  -2  146.78   38.69
  -2 -19  -2  102.76   36.86
   2  19   3  213.19   41.48
  -2  19  -3  144.21   41.87
  -2 -19  -3  143.91   35.59
   3   0 -17   72.78   29.85
  -3   0  17   99.00   31.10
   3   0 -16  -16.44   21.69
  -3   0  16   29.69   21.51
   3   0 -15   92.40   28.83
  -3   0  15  105.20   29.00
   3   0 -14   32.97   22.24
  -3   0  14   61.10   21.34
  -3   0  14   23.05   12.14
   3   0 -13 1385.27   90.04
  -3   0  13 1222.89   59.85
  -3   0  13 1386.20   86.47
   3   0 -12 1114.65   69.37
  -3   0  12 1155.54   67.06
  -3   0  12  792.79   44.53
   3   0 -11 1226.85   71.88
  -3   0  11 1083.80   66.91
   3   0 -10  277.61   27.76
  -3   0  10  232.12   25.12
  -3   0  10  224.26   15.91
   3   0  -9  -10.11   16.69
  -3   0   9   -6.12   14.43
  -3   0   9   19.89    9.31
   3   0  -8  357.56   28.12
  -3   0   8  317.50   19.71
  -3   0   8  325.99   22.34
   3   0  -7  169.48   20.72
  -3   0   7  162.68   15.69
  -3   0   7  158.00   12.02
   3   0  -6 1558.72   64.34
  -3   0   6 1585.57   50.83
  -3   0   6 1595.35   51.82
   3   0  -5   58.78   15.64
  -3   0   5  105.66   10.12
  -3   0   5  129.58    9.19
   3   0  -4  224.10   18.87
  -3   0   4  243.72   12.88
  -3   0   4  239.99   11.33
   3   0  -3 2660.06   81.37
  -3   0   3 2879.95   62.21
  -3   0   3 2688.47   69.04
   3   0  -2 4603.70  124.16
  -3   0   2 4623.15  120.08
  -3   0   2 4881.43   95.00
   3   0  -114921.34  339.07
   3   0  -115041.71  384.68
  -3   0   115015.55  421.82
   3   0   0  163.95   10.71
   3   0   0  181.84    8.79
  -3   0   0  180.92   13.90
   3   0   1 2663.31   73.11
   3   0   1 2773.42   57.67
  -3   0  -1 2969.53   83.25
   3   0   2 4305.80  121.12
   3   0   2 3788.92   84.45
  -3   0  -2 4194.80  120.61
   3   0   3 1145.46   47.03
  -3   0  -3 1152.51   42.77
   3   0   4 1462.78   63.48
  -3   0  -4 1448.55   39.70
  -3   0  -4 1435.14   53.57
   3   0   5   84.05   16.02
  -3   0  -5   41.99    8.91
  -3   0  -5   50.22   14.31
   3   0   6    7.56   14.01
  -3   0  -6   14.67   10.37
  -3   0  -6    3.18    8.06
   3   0   7  253.01   27.56
  -3   0  -7  197.50   17.00
  -3   0  -7  182.22   22.11
   3   0   8  -12.19   17.86
  -3   0  -8    6.98    8.31
  -3   0  -8   19.29   12.04
   3   0   9  841.90   71.21
  -3   0  -9 1020.52   50.85
  -3   0  -9  813.79   46.87
   3   0  10   87.22   29.63
  -3   0 -10   77.74   17.53
  -3   0 -10  122.44   18.55
   3   0  11  883.85   72.01
  -3   0 -11  674.62   39.65
  -3   0 -11  740.94   47.82
   3   0  12   32.69   26.30
  -3   0 -12   24.86   16.51
  -3   0 -12   16.24   15.73
   3   0  13 1136.58   95.39
  -3   0 -13  873.84   70.61
   3   0  14  -29.12   29.48
   3   0  15  -11.11   37.16
  -3   1  17  246.69   40.11
   3   1 -17  190.63   41.49
  -3  -1  17  181.39   42.26
   3  -1 -17  188.39   45.96
   3   1 -16   53.00   25.30
  -3   1  16   43.93   26.62
   3  -1 -16   24.60   24.29
  -3  -1  16   67.40   26.66
   3   1 -15  246.87   41.20
  -3   1  15  297.61   31.96
  -3   1  15  234.19   40.30
  -3  -1  15  312.23   42.69
   3  -1 -15  259.17   46.52
   3   1 -14  984.16   90.20
  -3   1  14 1002.17   75.74
   3  -1 -14  992.28   75.62
  -3  -1  14 1051.69   78.91
  -3   1  13  289.83   42.82
   3   1 -13  365.39   37.82
   3  -1 -13  322.41   37.10
  -3  -1  13  218.80   36.48
   3  -1 -13  304.82   27.84
  -3  -1  13  283.29   19.91
   3   1 -12 3293.04  189.99
  -3   1  12 3233.77  165.84
   3  -1 -12 3548.72  150.20
   3  -1 -12 3369.26  176.59
  -3  -1  12 2765.74  120.70
  -3  -1  12 3117.80  171.58
  -3   1  11  681.79   45.50
   3   1 -11  642.98   49.79
   3  -1 -11  667.13   57.01
   3  -1 -11  751.98   37.99
  -3  -1  11  705.45   46.84
  -3  -1  11  609.81   30.34
   3   1 -10  411.95   35.84
  -3   1  10  398.65   30.43
   3  -1 -10  414.30   26.72
   3  -1 -10  412.56   34.99
  -3  -1  10  474.13   32.40
  -3  -1  10  331.95   21.18
   3   1  -9 3647.83  168.13
  -3   1   9 3539.58  144.20
   3  -1  -9 3912.74  148.92
   3  -1  -9 3765.51  162.92
  -3  -1   9 3773.73  163.43
  -3  -1   9 3484.81  115.66
   3   1  -8 2012.40   90.85
  -3   1   8 2141.48   82.13
   3  -1  -8 1850.10   84.68
  -3  -1   8 1859.96   61.52
  -3  -1   8 2014.27   81.84
  -3   1   7  636.94   30.21
   3   1  -7  658.21   42.44
  -3   1   7  626.58   25.45
   3  -1  -7  579.51   36.85
  -3  -1   7  596.16   29.97
  -3  -1   7  557.35   22.57
   3   1  -6 5065.85  189.00
  -3   1   6 5042.31  150.18
  -3   1   6 5035.22  157.78
   3  -1  -6 5001.19  184.66
  -3  -1   6 5098.32  166.58
  -3  -1   6 4892.28  131.81
  -3   1   5  950.66   30.79
   3   1  -5  974.38   44.03
  -3   1   5 1054.28   37.56
   3  -1  -5  960.86   40.09
  -3  -1   5 1028.08   35.23
  -3  -1   5 1018.10   29.82
  -3   1   4   98.79    7.99
   3   1  -4   81.40   14.18
  -3   1   4  123.79   10.81
   3  -1  -4  126.16   14.14
  -3  -1   4   91.32    9.70
  -3  -1   4  109.61    8.20
  -3   1   3  743.98   24.87
   3   1  -3  627.12   27.08
  -3   1   3  663.09   14.56
  -3  -1   3  617.21   23.67
   3  -1  -3  596.57   27.37
  -3  -1   3  635.63   19.58
  -3   1   2  787.45   28.79
   3   1  -2  792.66   27.13
  -3   1   2  817.82   14.49
   3  -1  -2  839.25   29.44
  -3  -1   2  781.08   25.08
  -3  -1   2  837.14   23.16
   3  -1  -2  745.19   13.85
  -3   1   138117.77 1234.71
   3   1  -137284.00 1021.96
   3  -1  -137096.48  825.40
   3  -1  -136771.41 1143.02
  -3  -1   138298.04 1193.19
  -3  -1   138194.44 1097.07
   3   1   010299.36  266.26
   3   1   010164.50  201.55
  -3   1   010654.53  292.95
   3  -1   0 9791.81  242.73
   3  -1   010276.73  233.25
  -3  -1   010200.73  278.98
   3   1   1 9322.94  163.10
   3   1   1 8351.32  247.22
  -3   1  -1 8293.33  249.69
   3  -1   1 8324.77  226.09
  -3  -1  -1 8415.81  257.21
   3  -1   1 8306.79  207.20
   3   1   2 2093.03   36.39
   3   1   2 2153.94   67.48
  -3   1  -2 2072.95   65.00
   3  -1   2 2146.05   57.02
  -3  -1  -2 2144.83   68.61
   3  -1   2 2156.26   66.72
  -3   1  -3 1934.46   59.95
   3   1   3 1682.39   64.83
   3  -1   3 1781.97   72.18
   3  -1   3 2098.97   52.75
  -3  -1  -3 1872.06   63.33
  -3  -1  -3 1658.46   35.07
   3   1   4 2974.80  119.50
  -3   1  -4 3382.53  107.58
  -3   1  -4 3208.67   90.66
   3  -1   4 3054.00  118.14
  -3  -1  -4 3257.49  113.64
   3   1   5  628.88   38.51
  -3   1  -5  611.07   26.38
  -3   1  -5  659.26   28.22
   3  -1   5  672.89   37.63
  -3  -1  -5  582.17   20.09
  -3  -1  -5  633.38   32.44
  -3   1  -6   28.34    8.93
   3   1   6   74.40   16.75
  -3   1  -6   39.15   11.02
   3  -1   6   59.57   16.70
  -3  -1  -6   18.44   14.58
  -3  -1  -6   37.91    7.73
   3   1   7 3891.01  185.61
  -3   1  -7 3942.88  141.77
  -3   1  -7 3995.91  157.02
  -3  -1  -7 3677.53  122.68
   3  -1   7 3883.12  187.27
  -3  -1  -7 4240.31  171.63
   3   1   8  594.84   46.82
  -3   1  -8  555.55   30.38
  -3   1  -8  598.28   38.74
   3  -1   8  678.41   49.94
  -3  -1  -8  553.82   29.17
  -3  -1  -8  622.49   43.09
   3   1   9  130.89   31.00
  -3   1  -9  193.81   20.30
  -3   1  -9  151.89   21.12
   3  -1   9  267.25   34.11
  -3  -1  -9  196.08   17.59
  -3  -1  -9  212.01   22.50
  -3   1 -10 1066.83   56.43
   3   1  10 1189.42   82.23
  -3   1 -10 1149.14   62.57
   3  -1  10 1192.86   85.90
  -3  -1 -10 1025.17   48.31
  -3  -1 -10 1079.87   62.06
   3   1  11 1005.26   77.09
  -3   1 -11  908.93   53.85
  -3   1 -11  931.43   53.22
   3  -1  11 1109.36   81.93
  -3  -1 -11  921.78   55.28
  -3  -1 -11  990.24   71.94
   3   1  12   98.15   27.99
  -3   1 -12   53.45   16.48
  -3   1 -12   79.69   19.85
  -3  -1 -12   21.91   18.57
   3  -1  12   42.94   29.90
  -3  -1 -12   48.58   18.25
  -3   1 -13  484.44   39.98
   3   1  13  579.81   66.70
  -3   1 -13  470.83   38.39
   3  -1  13  541.01   66.04
  -3  -1 -13  489.89   42.39
   3   1  14   30.63   30.67
  -3  -1 -14   16.26   21.85
   3   1  15  176.34   45.57
   3  -1  15  171.98   48.00
   3   2 -17  280.17   45.31
  -3   2  17  267.46   43.98
   3  -2 -17  280.75   41.51
  -3  -2  17  262.70   50.20
   3   2 -16   18.66   23.57
  -3   2  16  -15.35   22.37
   3  -2 -16   20.51   21.45
  -3  -2  16   21.64   23.59
  -3   2  15   33.98   29.49
   3   2 -15   87.84   26.08
  -3  -2  15   31.42   27.62
   3  -2 -15   43.81   29.38
  -3   2  14   25.20   21.72
   3   2 -14   47.85   25.00
   3  -2 -14   63.53   22.07
  -3  -2  14   56.57   30.06
   3  -2 -14   54.46   28.12
  -3   2  13  262.12   31.42
   3   2 -13  203.30   36.90
   3  -2 -13  256.59   40.80
   3  -2 -13  250.37   33.14
  -3  -2  13  241.59   34.83
   3   2 -12  362.43   41.06
  -3   2  12  325.89   37.61
   3  -2 -12  366.40   36.67
   3  -2 -12  360.49   37.00
  -3  -2  12  367.54   37.86
  -3  -2  12  272.56   19.67
   3   2 -11 1714.38  101.00
  -3   2  11 1886.63  101.37
   3  -2 -11 1843.91   86.62
  -3  -2  11 1861.32   97.25
   3  -2 -11 1742.56   94.07
  -3  -2  11 1514.05   57.05
   3   2 -10  398.43   35.37
  -3   2  10  355.19   33.24
   3  -2 -10  387.08   32.48
   3  -2 -10  440.83   29.03
  -3  -2  10  424.61   39.26
  -3  -2  10  351.35   18.75
   3   2  -9  729.23   48.86
  -3   2   9  838.34   38.75
   3  -2  -9  724.98   46.12
  -3  -2   9  719.39   25.88
   3  -2  -9  793.54   40.23
  -3  -2   9  810.86   51.28
  -3   2   8  456.64   27.78
   3   2  -8  455.99   32.82
   3  -2  -8  446.74   32.05
  -3  -2   8  473.47   31.12
   3  -2  -8  535.41   28.07
  -3  -2   8  445.31   17.30
   3   2  -711686.32  498.23
  -3   2   712402.92  420.56
   3  -2  -711494.56  472.49
  -3  -2   711756.37  470.50
  -3  -2   711596.48  328.23
  -3   2   6 1816.70   69.97
   3   2  -6 1917.71   79.77
  -3  -2   6 1860.02   44.72
   3  -2  -6 1833.81   74.68
  -3  -2   6 1895.93   69.80
  -3   2   5 5807.45  192.85
   3   2  -5 6224.79  214.23
  -3   2   5 5815.63  147.11
  -3  -2   5 6346.74  198.15
   3  -2  -5 6516.14  215.97
  -3  -2   5 6222.24  141.06
  -3   2   4 1329.55   28.24
   3   2  -4 1354.92   51.50
  -3   2   4 1462.53   47.10
  -3  -2   4 1391.93   33.50
   3  -2  -4 1421.75   49.92
  -3  -2   4 1403.83   44.45
  -3   2   3 7545.34  227.41
   3   2  -3 7789.39  232.54
  -3  -2   3 8261.63  224.88
   3  -2  -3 7782.11  240.47
  -3  -2   3 7924.05  187.29
  -3   2   215951.20  489.17
   3   2  -215808.34  443.18
  -3  -2   215920.84  454.17
   3  -2  -215764.14  490.23
  -3  -2   215634.34  412.07
  -3   2   1 4173.83   64.64
   3   2  -1 4566.51   98.67
  -3   2   1 4589.24  126.04
   3  -2  -1 4417.68   69.13
  -3  -2   1 4496.05  114.91
   3  -2  -1 4222.68  117.61
  -3  -2   1 4311.41  111.75
   3   2   0 1126.49   37.63
  -3   2   0 1168.71   40.48
   3   2   0 1192.46   23.24
   3  -2   0 1222.08   37.29
  -3  -2   0 1203.04   39.64
   3  -2   0 1221.66   27.91
  -3   2  -1 3544.46   99.75
   3   2   1 3463.32  102.97
   3  -2   1 3337.14   88.32
   3  -2   1 3508.40   90.76
  -3  -2  -1 3278.92   45.20
  -3  -2  -1 3644.15  106.81
  -3   2  -2 2164.83   65.96
   3   2   2 2215.18   74.68
   3  -2   2 2242.15   64.55
  -3  -2  -2 2224.16   72.40
   3  -2   2 2140.42   66.49
   3   2   3 7064.89  255.82
  -3   2  -3 7451.30  228.13
   3  -2   3 7201.49  250.14
  -3  -2  -3 7613.28  264.40
   3  -2   3 7535.54  231.39
   3   2   4 1255.84   55.00
  -3   2  -4 1448.71   47.26
  -3   2  -4 1361.93   43.95
   3  -2   4 1293.26   56.81
  -3  -2  -4 1204.02   24.92
  -3  -2  -4 1311.25   53.99
   3   2   5 3792.32  157.04
  -3   2  -5 3681.27  125.35
  -3   2  -5 4078.90  133.36
   3  -2   5 3950.10  159.05
  -3  -2  -5 3940.43  147.94
  -3  -2  -5 3717.74   86.94
   3   2   6  184.71   24.77
  -3   2  -6  170.04   15.70
  -3   2  -6  200.97   16.05
   3  -2   6  190.55   23.04
  -3  -2  -6  213.73   12.16
  -3  -2  -6  221.31   21.10
   3   2   7  185.15   25.24
  -3   2  -7  159.64   16.07
  -3   2  -7  174.32   15.34
   3  -2   7   85.79   24.22
  -3  -2  -7  128.86   11.99
  -3  -2  -7  151.23   19.99
   3   2   8  123.62   25.80
  -3   2  -8  147.01   15.76
  -3   2  -8  112.86   14.33
   3  -2   8  129.48   25.22
  -3  -2  -8  125.71   12.50
  -3  -2  -8   89.63   19.89
   3   2   9 1476.27   93.44
  -3   2  -9 1285.71   61.70
  -3   2  -9 1426.51   69.21
  -3  -2  -9 1443.60   84.18
   3  -2   9 1599.36   94.63
  -3  -2  -9 1366.35   52.63
   3   2  10  340.42   42.10
  -3   2 -10  329.61   24.95
  -3   2 -10  251.35   30.88
   3  -2  10  284.24   43.90
  -3  -2 -10  319.77   31.23
  -3  -2 -10  280.35   24.14
   3   2  11  404.74   47.99
  -3   2 -11  326.25   31.20
  -3   2 -11  343.26   36.95
   3  -2  11  347.63   50.39
  -3  -2 -11  420.79   34.67
  -3  -2 -11  323.04   27.73
  -3   2 -12   38.49   15.25
   3   2  12   61.92   32.95
  -3   2 -12   73.51   17.49
   3  -2  12   42.50   29.69
  -3  -2 -12   67.32   18.98
   3   2  13  372.09   52.75
  -3   2 -13  338.50   35.99
   3  -2  13  425.42   57.82
  -3  -2 -13  359.61   39.15
   3   2  14   30.67   26.83
   3  -2  14  -27.22   36.29
  -3  -2 -14   22.77   23.19
   3   2  15  565.05   83.14
   3  -2  15  655.94   82.13
  -3   3  17  156.19   36.10
   3   3 -17  155.88   40.67
  -3  -3  17  215.95   43.52
   3  -3 -17  154.43   35.05
   3   3 -16   17.49   24.80
  -3   3  16   22.08   22.08
  -3   3  16    3.71   12.31
  -3  -3  16  -15.33   24.96
   3  -3 -16   49.78   20.91
  -3   3  15  169.51   34.25
   3   3 -15  223.67   39.65
   3  -3 -15  225.68   34.99
  -3  -3  15  184.02   44.69
   3  -3 -15  176.65   32.80
  -3   3  14  425.02   43.37
   3   3 -14  438.22   50.92
   3  -3 -14  412.16   44.21
   3  -3 -14  402.40   45.94
  -3  -3  14  455.04   49.65
  -3   3  13  279.52   34.97
   3   3 -13  284.08   40.53
   3  -3 -13  261.77   33.58
   3  -3 -13  385.15   32.77
  -3  -3  13  293.67   39.33
  -3   3  12  581.86   52.56
   3   3 -12  586.19   52.52
   3  -3 -12  691.54   52.39
   3  -3 -12  627.11   47.97
  -3  -3  12  603.30   53.07
  -3   3  11  956.26   57.25
   3   3 -11 1027.81   72.33
   3  -3 -11 1032.62   63.26
   3  -3 -11 1102.35   60.78
  -3  -3  11  995.09   67.94
  -3   3  10 1581.95   73.81
   3   3 -10 1539.24   88.29
   3  -3 -10 1494.23   80.22
   3  -3 -10 1604.36   78.72
  -3  -3  10 1473.74   80.12
  -3   3   9 1429.48   65.93
   3   3  -9 1480.26   72.17
   3  -3  -9 1415.12   68.16
   3  -3  -9 1170.48   70.79
  -3  -3   9 1509.63   71.38
  -3  -3   9 1331.47   37.45
  -3   3   8 1613.62   65.46
   3   3  -8 1641.13   80.07
   3  -3  -8 1593.63   72.39
   3  -3  -8 1848.75   74.85
  -3  -3   8 1507.64   38.42
  -3  -3   8 1664.28   77.26
   3   3  -7  736.60   43.33
  -3   3   7  756.19   33.07
   3  -3  -7  772.18   39.86
  -3  -3   7  828.40   42.79
   3  -3  -7  880.39   39.42
  -3  -3   7  762.83   19.03
   3   3  -6  428.21   28.28
  -3   3   6  312.33   17.65
  -3   3   6  381.79   15.99
   3  -3  -6  400.06   26.00
  -3  -3   6  404.83   11.85
  -3  -3   6  449.75   25.22
   3   3  -5  480.38   28.20
  -3   3   5  477.89   16.52
  -3   3   5  542.80   24.69
  -3  -3   5  492.73   25.51
   3  -3  -5  588.14   32.70
  -3  -3   5  459.07   13.01
   3   3  -4 1019.75   40.14
  -3   3   4  975.07   39.25
   3  -3  -4 1068.22   40.92
  -3  -3   4 1012.14   37.84
  -3  -3   4  940.06   22.95
   3   3  -3 9579.64  290.50
  -3   3   3 9228.10  298.72
   3  -3  -3 9757.20  314.27
  -3  -3   3 9796.53  301.36
  -3  -3   3 8994.95  215.47
  -3   3   2  477.28   22.91
   3   3  -2  508.67   18.55
  -3  -3   2  446.16   22.39
   3  -3  -2  449.57   23.46
  -3  -3   2  460.14   18.93
   3   3  -1 3539.76   77.63
  -3   3   1 3530.11  104.86
   3  -3  -1 3326.78   97.19
   3  -3  -1 3465.57   50.17
  -3  -3   1 3637.56   99.60
  -3  -3   1 3599.99   95.85
   3   3   0 1042.76   38.65
   3   3   0 1188.72   22.82
  -3   3   0 1081.67   38.15
   3  -3   0 1117.88   26.49
   3  -3   0  991.52   35.92
  -3  -3   0 1064.11   36.78
   3   3   110289.55  337.59
   3   3   110329.77  126.76
  -3   3  -110321.69  307.75
   3  -3   110267.25  273.70
   3  -3   110039.19  310.63
  -3  -3  -110279.00  341.53
   3   3   2 8159.18  275.27
  -3   3  -2 7598.16  228.59
   3  -3   2 7939.41  246.56
  -3  -3  -2 7652.96  265.83
   3  -3   2 7882.24  238.59
   3   3   3   72.69   13.87
  -3   3  -3   41.67   10.88
   3  -3   3   52.40   10.96
   3  -3   3   74.27   12.49
  -3  -3  -3   41.72   12.84
  -3   3  -4 3690.18  117.36
   3   3   4 3236.71  132.62
   3  -3   4 3466.47  139.97
   3  -3   4 3359.18  123.13
  -3  -3  -4 3632.55  134.81
   3   3   5    2.44   12.49
  -3   3  -5   33.88    9.80
  -3   3  -5   11.29    8.88
   3  -3   5    5.53   11.95
  -3  -3  -5   13.33   11.61
  -3  -3  -5    3.20    3.71
   3   3   6  167.47   22.03
  -3   3  -6  169.82   15.82
  -3   3  -6  193.19   16.32
   3  -3   6  209.60   27.37
  -3  -3  -6  161.95    9.65
  -3  -3  -6  132.36   20.03
  -3   3  -7  506.29   30.32
   3   3   7  549.94   40.50
  -3   3  -7  541.28   29.91
   3  -3   7  564.94   42.28
  -3  -3  -7  548.49   41.33
  -3  -3  -7  460.29   19.96
   3   3   8  143.82   23.74
  -3   3  -8   87.06   16.36
  -3   3  -8   99.20   12.34
   3  -3   8  115.28   25.93
  -3  -3  -8   72.15   22.73
  -3  -3  -8   71.07   10.72
  -3   3  -9  146.51   15.73
   3   3   9   82.11   28.27
  -3   3  -9  140.91   19.78
   3  -3   9  171.20   30.76
  -3  -3  -9  163.08   26.69
  -3  -3  -9  117.67   13.85
   3   3  10 2994.20  174.86
  -3   3 -10 2974.32  161.50
  -3   3 -10 2937.81  133.58
   3  -3  10 2951.61  180.53
  -3  -3 -10 2589.12  109.16
  -3  -3 -10 3075.74  171.06
  -3   3 -11  737.51   45.64
   3   3  11  898.02   74.01
  -3   3 -11  783.05   59.51
  -3  -3 -11  900.63   60.70
   3  -3  11  929.97   82.03
   3   3  12  265.67   41.76
  -3   3 -12  262.05   37.35
   3  -3  12  232.43   46.05
  -3  -3 -12  229.14   31.72
   3   3  13  202.36   39.13
  -3   3 -13  139.82   31.97
   3  -3  13  154.51   48.66
  -3  -3 -13  148.41   29.24
   3   3  14   -6.95   38.25
  -3   3 -14   48.78   22.12
  -3  -3 -14   71.44   22.04
   3   3  15  524.68   76.31
   3  -3  15  645.12   78.51
   3   4 -17  366.40   66.26
  -3   4  17  376.03   49.03
  -3  -4  17  284.64   56.71
  -3   4  16   63.89   28.42
   3   4 -16  109.15   32.59
   3  -4 -16   92.86   25.34
   3  -4 -16   46.44   23.91
  -3  -4  16   71.81   38.59
  -3   4  15   84.81   25.94
   3   4 -15   83.82   30.83
   3  -4 -15   91.61   25.25
  -3  -4  15   90.53   30.81
   3  -4 -15   79.24   23.75
   3   4 -14  204.78   35.72
  -3   4  14  152.28   29.59
   3  -4 -14  119.82   34.41
  -3  -4  14  196.16   35.84
   3  -4 -14  162.00   33.75
  -3   4  13  732.38   60.29
   3   4 -13  631.58   63.01
   3  -4 -13  680.66   54.49
   3  -4 -13  700.20   60.58
  -3  -4  13  694.33   60.61
  -3   4  12 1116.62   72.55
   3   4 -12 1001.48   78.32
   3  -4 -12  989.21   68.45
   3  -4 -12 1083.62   66.64
  -3  -4  12 1097.31   75.03
   3   4 -11  226.51   30.54
  -3   4  11  173.39   22.91
   3  -4 -11  188.16   31.61
   3  -4 -11  245.89   31.29
  -3  -4  11  171.09   30.26
   3   4 -10 1957.56  111.41
  -3   4  10 2099.92   93.90
   3  -4 -10 1960.82  100.01
  -3  -4  10 2101.47  113.90
   3  -4 -10 2199.87  104.64
   3   4  -9  858.01   55.94
  -3   4   9  913.69   42.37
   3  -4  -9  940.37   52.52
   3  -4  -9  873.12   56.28
  -3  -4   9  961.92   58.63
  -3   4   8 1302.23   50.27
   3   4  -8 1361.94   71.13
   3  -4  -8 1342.12   70.42
   3  -4  -8 1650.61   78.55
  -3  -4   8 1437.61   72.39
  -3   4   7 2417.37   76.04
   3   4  -7 2573.57  111.56
   3  -4  -7 2635.63  105.13
   3  -4  -7 2880.20  112.30
  -3  -4   7 2551.63  109.04
  -3   4   6  514.43   20.76
   3   4  -6  545.18   33.34
   3  -4  -6  547.47   29.99
   3  -4  -6  513.65   33.02
  -3  -4   6  587.75   31.85
   3   4  -5 2451.48   88.65
  -3   4   5 2313.75   54.07
  -3   4   5 2472.22   87.18
   3  -4  -5 2584.58   95.70
  -3  -4   5 2508.13   89.06
  -3  -4   5 2278.85   42.00
   3   4  -4  661.48   31.05
  -3   4   4  650.39   14.08
  -3   4   4  758.77   34.19
   3  -4  -4  792.37   32.39
  -3  -4   4  664.71   31.82
  -3  -4   4  712.48   17.70
   3   4  -3  457.92   21.80
  -3   4   3  454.25   23.80
   3  -4  -3  462.08   23.96
  -3  -4   3  462.66   15.78
  -3  -4   3  481.79   25.22
   3   4  -2  767.63   24.53
  -3   4   2  793.23   31.88
  -3  -4   2  727.03   22.29
  -3  -4   2  744.15   31.42
   3  -4  -2  783.69   31.01
  -3   4   1  378.35   21.29
   3   4  -1  398.76   14.37
   3  -4  -1  380.90   22.39
   3  -4  -1  372.53    8.50
  -3  -4   1  374.53   20.94
  -3  -4   1  391.13   17.71
   3   4   0 2016.28   40.33
  -3   4   0 1999.47   63.83
   3  -4   0 1999.87   44.52
   3  -4   0 1917.22   63.82
  -3  -4   0 2120.10   66.44
  -3  -4   0 1930.80   65.79
   3   4   1 4229.06  144.10
   3   4   1 4471.49   64.00
  -3   4  -1 4532.03  132.36
   3  -4   1 4643.85  147.29
   3  -4   1 4333.42  113.35
  -3  -4  -1 4514.92  148.52
   3   4   2 2612.00   97.05
  -3   4  -2 2704.14   82.72
   3  -4   2 2365.38   83.87
  -3  -4  -2 2432.60   91.75
   3  -4   2 2655.42   84.04
  -3   4  -3 1762.03   56.71
   3   4   3 1731.81   73.49
   3  -4   3 1762.26   69.52
  -3  -4  -3 1696.30   71.54
   3  -4   3 1786.45   67.24
  -3   4  -4 2809.99   92.19
   3   4   4 2531.36  109.17
   3  -4   4 2692.77  100.48
  -3  -4  -4 2590.59  108.33
   3  -4   4 2611.06  105.16
   3   4   5 1315.87   64.64
  -3   4  -5 1290.99   48.33
  -3   4  -5 1370.60   64.43
   3  -4   5 1341.10   64.29
  -3  -4  -5 1404.22   65.39
   3   4   6  671.66   45.60
  -3   4  -6  784.42   33.90
  -3   4  -6  664.89   35.74
  -3  -4  -6  653.30   17.06
   3  -4   6  862.53   45.61
  -3  -4  -6  804.50   44.83
   3   4   7    1.38   16.49
  -3   4  -7   20.49   10.11
  -3   4  -7    6.77   11.66
   3  -4   7   22.65   15.33
  -3  -4  -7    2.34    6.17
  -3  -4  -7   21.06   14.06
  -3   4  -8  452.16   35.07
   3   4   8  447.18   44.35
  -3   4  -8  456.39   28.24
  -3  -4  -8  508.24   37.92
   3  -4   8  527.10   41.62
  -3  -4  -8  422.73   18.63
  -3   4  -9 1521.93   65.83
   3   4   9 1641.46  106.74
  -3   4  -9 1752.33   90.45
  -3  -4  -9 1666.18   94.64
   3  -4   9 1810.52  109.91
   3   4  10   33.20   26.09
  -3   4 -10   45.98   12.23
  -3   4 -10  100.33   23.29
  -3  -4 -10   49.39   20.44
   3  -4  10   36.79   33.30
  -3   4 -11 1056.58   58.48
   3   4  11 1189.80   97.97
  -3   4 -11 1240.87   85.77
   3  -4  11 1271.57   96.49
  -3  -4 -11 1281.03   80.65
   3   4  12  677.30   79.17
  -3   4 -12  632.65   58.88
   3  -4  12  689.17   74.51
  -3  -4 -12  697.69   66.99
   3   4  13   75.55   35.90
  -3   4 -13   48.52   22.84
   3  -4  13  117.91   33.53
  -3  -4 -13   40.38   23.86
   3   4  14  566.67   64.60
  -3   4 -14  462.01   48.91
   3  -4  14  444.76   70.73
  -3  -4 -14  530.93   51.84
   3   5 -17   87.70   35.05
  -3   5  17   90.67   28.25
  -3  -5  17   36.60   44.56
   3   5 -16  610.92   72.53
  -3   5  16  554.22   61.29
   3  -5 -16  663.77   61.74
  -3  -5  16  737.29   74.94
   3  -5 -16  563.47   67.61
   3   5 -15   85.49   30.09
  -3   5  15   33.99   23.60
   3  -5 -15   64.92   23.07
   3  -5 -15   64.68   23.35
  -3  -5  15   47.61   36.04
  -3   5  14  583.15   53.86
   3   5 -14  664.85   65.55
   3  -5 -14  746.93   58.89
   3  -5 -14  578.40   62.69
  -3  -5  14  660.01   66.45
  -3   5  13 1360.14   83.24
   3   5 -13 1274.17  106.98
   3  -5 -13 1267.44   86.34
  -3  -5  13 1194.34   92.94
   3  -5 -13 1206.15   91.84
  -3   5  12   74.15   18.33
   3   5 -12   33.86   23.46
   3  -5 -12   38.42   24.91
  -3  -5  12   12.27   23.43
   3  -5 -12   55.84   23.95
  -3   5  11 1417.72   82.83
   3   5 -11 1414.61   90.98
   3  -5 -11 1487.67   83.77
   3  -5 -11 1477.47   85.13
  -3  -5  11 1345.17   90.66
  -3   5  10  840.69   44.29
   3   5 -10  847.21   60.73
   3  -5 -10  787.79   52.46
   3  -5 -10  910.53   56.73
  -3  -5  10  882.56   61.80
  -3   5   9  120.86   19.43
   3   5  -9  156.99   24.51
   3  -5  -9  174.20   20.90
   3  -5  -9  142.58   22.64
  -3  -5   9  137.55   25.03
  -3   5   8  137.99   13.47
   3   5  -8  168.99   27.59
   3  -5  -8  177.21   24.08
  -3  -5   8  157.38   24.30
   3  -5  -8  172.97   19.86
  -3   5   7 1147.40   43.45
   3   5  -7 1094.76   58.81
   3  -5  -7 1314.34   58.29
   3  -5  -7 1334.28   63.14
  -3  -5   7 1277.74   62.38
   3   5  -6  652.87   38.99
  -3   5   6  680.10   25.73
   3  -5  -6  826.69   37.59
   3  -5  -6  782.52   43.14
  -3  -5   6  803.18   42.11
   3   5  -5 2436.94   93.44
  -3   5   5 2452.63   94.27
  -3   5   5 2424.54   58.02
   3  -5  -5 2551.75   95.18
  -3  -5   5 2454.07   95.69
  -3  -5   5 2304.27   41.25
   3   5  -4 3251.57  113.30
  -3   5   4 3164.12  117.84
  -3  -5   4 3248.68   68.62
  -3  -5   4 3399.99  119.68
   3  -5  -4 3317.52  118.42
   3   5  -3 1247.83   43.44
  -3   5   3 1233.40   50.23
   3  -5  -3 1219.82   48.92
  -3  -5   3 1349.88   52.35
  -3  -5   3 1281.50   33.13
   3   5  -2 2018.98   58.06
  -3   5   2 1984.10   69.78
   3  -5  -2 1985.30   69.68
  -3  -5   2 2011.41   58.10
  -3  -5   2 1968.27   72.37
  -3   5   1 3090.59   98.54
   3   5  -1 3171.23   77.61
   3  -5  -1 2977.25   58.07
   3  -5  -1 2898.71  101.23
  -3  -5   1 3146.96   90.04
  -3  -5   1 3014.96  105.30
   3   5   0 1992.01   45.23
  -3   5   0 2061.70   74.20
   3  -5   0 1949.47   47.44
  -3  -5   0 1974.87   66.14
  -3  -5   0 1978.97   69.88
   3  -5   0 1998.73   71.58
   3   5   1  473.26   27.08
   3   5   1  478.76   11.50
  -3   5  -1  494.74   25.10
   3  -5   1  489.10   26.87
   3  -5   1  446.22   18.02
  -3  -5  -1  448.43   26.42
   3   5   2  935.69   42.69
  -3   5  -2  878.55   32.43
   3  -5   2  888.28   33.79
   3  -5   2  891.81   41.55
  -3  -5  -2  908.40   41.68
   3   5   3 2387.82   98.16
  -3   5  -3 2398.63   78.90
   3  -5   3 2215.29   90.49
  -3  -5  -3 2343.82   94.67
   3  -5   3 2236.47   80.52
   3   5   4 8173.26  340.87
  -3   5  -4 8245.54  274.74
   3  -5   4 7635.53  320.64
   3  -5   4 7833.93  309.32
  -3  -5  -4 7692.78  333.78
   3   5   5 1578.38   79.74
  -3   5  -5 1720.97   55.93
  -3   5  -5 1782.12   75.91
  -3  -5  -5 1669.18   80.21
   3  -5   5 1596.32   75.45
  -3   5  -6  236.11   21.84
   3   5   6  202.46   26.20
  -3   5  -6  234.95   17.17
   3  -5   6  208.44   25.23
  -3  -5  -6  221.22   25.64
   3   5   7  747.14   54.34
  -3   5  -7  814.18   49.99
  -3   5  -7  798.86   34.85
   3  -5   7  826.12   54.20
  -3  -5  -7  875.11   51.68
   3   5   8 1087.85   72.67
  -3   5  -8 1094.27   47.50
  -3   5  -8 1070.53   64.87
   3  -5   8 1121.85   75.17
  -3  -5  -8 1041.93   69.10
   3   5   9  116.09   25.63
  -3   5  -9   92.23   24.09
  -3   5  -9   47.73   12.98
   3  -5   9   72.00   24.91
  -3  -5  -9   75.72   22.25
   3   5  10  254.76   46.08
  -3   5 -10  212.59   29.59
  -3   5 -10  182.41   18.82
   3  -5  10  211.25   38.10
  -3  -5 -10  230.59   29.70
   3   5  11  661.85   64.91
  -3   5 -11  605.91   53.37
   3  -5  11  721.10   71.97
  -3  -5 -11  723.02   66.35
   3   5  12  102.45   34.79
  -3   5 -12  118.99   27.42
   3  -5  12  120.11   36.26
  -3  -5 -12  177.70   29.02
  -3   5 -13  108.65   32.56
   3   5  13   97.46   34.24
  -3  -5 -13  145.03   35.84
   3  -5  13  149.60   40.87
   3   5  14  308.96   62.01
  -3   5 -14  305.88   49.77
   3  -5  14  334.06   59.76
  -3  -5 -14  299.55   44.99
   3   6 -16  116.06   33.11
  -3   6  16   30.24   31.99
   3  -6 -16   57.45   33.27
  -3  -6  16   96.45   34.48
  -3   6  15  129.62   27.52
   3   6 -15  170.13   45.78
   3  -6 -15  129.03   31.44
  -3  -6  15  192.92   39.37
   3  -6 -15  127.21   27.28
  -3   6  14   32.38   20.96
   3   6 -14   32.52   26.89
   3  -6 -14   46.55   25.40
   3  -6 -14   50.15   23.34
  -3  -6  14   37.07   27.85
  -3   6  13  117.43   28.74
   3   6 -13   98.78   32.45
   3  -6 -13  169.66   29.65
   3  -6 -13   71.99   27.80
  -3  -6  13  122.39   33.49
  -3   6  12  162.08   23.72
   3   6 -12  210.10   34.20
   3  -6 -12  167.35   34.08
  -3  -6  12  144.84   32.57
   3  -6 -12  125.60   25.88
   3   6 -11  437.17   44.58
  -3   6  11  413.14   37.13
   3  -6 -11  492.21   41.26
   3  -6 -11  351.67   34.21
  -3  -6  11  352.74   43.59
   3   6 -10  649.16   52.47
  -3   6  10  664.08   43.51
   3  -6 -10  756.16   51.72
   3  -6 -10  600.08   43.88
  -3  -6  10  639.57   56.81
   3   6  -9  343.70   36.60
  -3   6   9  417.42   28.47
   3  -6  -9  414.16   31.58
   3  -6  -9  359.83   35.23
  -3  -6   9  415.82   38.70
   3   6  -8 4709.52  225.08
  -3   6   8 4785.36  172.04
   3  -6  -8 5308.88  244.76
   3  -6  -8 5306.84  235.36
  -3  -6   8 5287.36  246.33
   3   6  -7  354.02   32.34
  -3   6   7  433.01   22.31
   3  -6  -7  420.58   29.31
  -3  -6   7  465.16   31.76
   3  -6  -7  478.81   36.65
  -3   6   6  401.77   18.98
   3   6  -6  479.09   32.18
   3  -6  -6  421.46   28.15
   3  -6  -6  450.21   32.29
  -3  -6   6  436.18   31.14
   3   6  -5  174.02   19.88
  -3   6   5  164.11    9.13
   3  -6  -5  184.46   21.15
  -3  -6   5  178.42   19.95
   3   6  -4  652.85   33.80
  -3   6   4  642.79   36.74
   3  -6  -4  749.45   33.94
  -3  -6   4  678.48   37.18
  -3  -6   4  661.24   18.89
   3   6  -3 2714.43   91.53
  -3   6   3 2658.29  103.44
   3  -6  -3 2685.23  100.17
  -3  -6   3 2829.89  110.92
  -3  -6   3 2746.91   71.85
   3   6  -2  429.87   17.54
  -3   6   2  361.54   23.78
   3  -6  -2  340.16   10.33
   3  -6  -2  378.07   24.98
  -3  -6   2  381.26   20.10
  -3  -6   2  353.59   24.06
   3   6  -1 3717.21  103.53
  -3   6   1 3826.62  130.25
   3  -6  -1 3847.74   87.22
  -3  -6   1 3823.93  139.54
  -3  -6   1 4040.37  123.61
   3  -6  -1 3771.80  135.78
  -3   6   0 5035.46  166.19
   3   6   0 5005.51  127.61
   3  -6   0 4904.42  179.18
   3  -6   0 4948.55  127.21
  -3  -6   0 5205.48  176.52
  -3  -6   0 5177.35  185.13
   3   6   1  298.84   22.73
   3   6   1  303.38   10.46
  -3   6  -1  337.47   17.31
   3  -6   1  302.79   22.79
   3  -6   1  300.12   17.90
  -3  -6  -1  328.31   22.54
  -3   6  -2 2538.23   80.31
   3   6   2 2574.39  104.27
   3  -6   2 2486.82   86.92
   3  -6   2 2470.79   99.17
  -3  -6  -2 2576.11  102.92
   3   6   3 3776.87  152.62
  -3   6  -3 3568.71  112.84
   3  -6   3 3725.06  150.11
   3  -6   3 3586.70  128.70
  -3  -6  -3 3695.74  152.58
   3   6   4 1594.10   77.46
  -3   6  -4 1510.52   51.35
   3  -6   4 1609.97   75.78
   3  -6   4 1485.73   65.88
  -3  -6  -4 1495.22   71.61
  -3   6  -5  168.16   12.99
   3   6   5  146.80   21.41
  -3   6  -5  175.68   21.41
   3  -6   5  123.68   20.38
  -3  -6  -5  148.24   22.31
  -3   6  -6  475.63   23.24
   3   6   6  455.61   38.28
  -3   6  -6  480.17   33.94
   3  -6   6  543.86   37.18
  -3  -6  -6  526.76   39.44
  -3   6  -7 2795.03  101.33
   3   6   7 2635.07  145.70
  -3   6  -7 2845.65  144.00
   3  -6   7 2772.46  145.95
  -3  -6  -7 2740.15  146.65
  -3   6  -8 1376.43   57.45
   3   6   8 1441.90   89.54
  -3   6  -8 1609.76   88.82
   3  -6   8 1603.73   98.55
  -3  -6  -8 1505.75   89.36
   3   6   9  143.33   30.27
  -3   6  -9  253.59   30.72
  -3   6  -9  122.10   14.64
   3  -6   9  157.65   38.51
  -3  -6  -9  190.45   28.19
   3   6  10  -13.34   20.71
  -3   6 -10   11.95   17.89
   3  -6  10   30.13   20.65
  -3  -6 -10   -4.23   17.83
   3   6  11  335.37   45.28
  -3   6 -11  370.09   40.23
   3  -6  11  401.66   49.24
  -3  -6 -11  267.04   41.64
   3   6  12  365.22   54.09
  -3   6 -12  497.32   46.96
   3  -6  12  379.60   68.81
  -3  -6 -12  459.02   61.09
   3   6  13  194.03   43.92
  -3   6 -13  107.18   35.05
   3  -6  13  153.51   39.59
  -3  -6 -13  109.90   32.10
   3   6  14   37.96   27.86
  -3   6 -14   29.96   23.18
   3  -6  14   -1.44   34.86
  -3  -6 -14   27.20   24.62
   3   7 -16  224.00   47.41
   3  -7 -16  169.26   39.64
  -3  -7  16  218.60   45.39
  -3   7  15  137.05   36.39
   3   7 -15  204.73   41.38
   3  -7 -15  178.85   35.16
   3  -7 -15  111.64   33.27
  -3  -7  15  103.11   49.72
  -3   7  14  829.31   64.67
   3   7 -14  876.14   83.35
   3  -7 -14  847.69   74.29
   3  -7 -14  890.04   77.62
  -3  -7  14  808.45   84.02
   3   7 -13  172.04   37.63
  -3   7  13  212.59   24.76
   3  -7 -13  159.78   33.23
  -3  -7  13  141.28   35.22
   3  -7 -13  171.06   27.20
   3   7 -12   45.47   23.03
  -3   7  12   13.61   18.19
   3  -7 -12    6.79   19.88
   3  -7 -12   16.43   20.62
  -3  -7  12   24.31   22.76
   3   7 -11  624.61   55.45
  -3   7  11  548.40   44.61
   3  -7 -11  672.34   52.04
  -3  -7  11  636.09   59.27
   3  -7 -11  444.11   51.07
   3   7 -10 1969.31  141.11
  -3   7  10 2014.53  100.36
   3  -7 -10 2112.77  120.79
   3  -7 -10 2115.42  109.54
  -3  -7  10 2228.16  130.33
  -3   7   9  836.27   48.00
   3   7  -9  904.51   56.52
   3  -7  -9  912.86   53.82
   3  -7  -9  866.90   61.83
  -3  -7   9  921.61   67.79
  -3   7   8  121.81   15.63
   3   7  -8  118.88   23.62
   3  -7  -8  172.30   19.64
   3  -7  -8  163.39   24.97
  -3  -7   8  144.45   25.70
   3   7  -7 1881.30   99.40
  -3   7   7 2043.46   70.26
   3  -7  -7 1940.98  101.17
   3  -7  -7 2067.59   91.98
  -3  -7   7 1985.83  100.95
  -3   7   6  495.29   19.94
   3   7  -6  467.47   34.10
   3  -7  -6  509.28   38.55
  -3  -7   6  482.23   36.21
   3  -7  -6  540.75   31.45
   3   7  -5 1132.33   51.92
  -3   7   5 1008.76   28.57
   3  -7  -5 1114.85   56.96
  -3  -7   5 1085.42   53.53
  -3  -7   5 1033.28   22.55
  -3   7   4 2062.01   88.15
   3   7  -4 1974.97   80.74
  -3  -7   4 2171.07   90.51
   3  -7  -4 1924.09   80.92
   3   7  -3 4645.16  158.05
  -3   7   3 4125.33   97.12
  -3   7   3 4428.06  174.91
   3  -7  -3 4300.53  169.34
  -3  -7   3 4211.30  117.97
  -3  -7   3 4443.81  178.40
   3   7  -2  537.15   25.92
  -3   7   2  547.81   30.57
   3  -7  -2  491.38   15.71
   3  -7  -2  492.24   29.78
  -3  -7   2  580.71   32.25
   3   7  -1 2912.78   85.67
  -3   7   1 2891.74  104.89
   3  -7  -1 2959.37   76.80
   3  -7  -1 2859.34  114.71
  -3  -7   1 2884.68   95.61
  -3  -7   1 2981.82  114.91
   3   7   0  607.20   22.24
  -3   7   0  622.13   29.61
   3  -7   0  633.20   22.99
  -3  -7   0  645.54   30.99
   3  -7   0  672.44   35.05
  -3  -7   0  657.91   34.17
   3   7   1 1131.12   52.42
   3   7   1 1159.50   31.61
  -3   7  -1 1271.71   44.07
   3  -7   1 1007.04   37.66
   3  -7   1 1185.75   57.20
  -3  -7  -1 1141.63   50.61
   3   7   2  463.40   30.77
   3   7   2  419.17   12.35
  -3   7  -2  426.27   23.96
   3  -7   2  480.06   30.12
   3  -7   2  472.09   22.44
  -3  -7  -2  438.09   29.24
   3   7   3 3155.99  131.96
  -3   7  -3 3004.19   99.90
   3  -7   3 3068.12  134.65
   3  -7   3 3059.82  111.39
  -3  -7  -3 3042.01  131.48
  -3   7  -4 2093.15   69.57
   3   7   4 2160.29  102.28
   3  -7   4 2119.61   87.26
   3  -7   4 2069.85   98.48
  -3  -7  -4 1869.34   95.57
   3   7   5   67.70   19.54
  -3   7  -5   95.80   13.19
  -3   7  -5   61.04   12.29
   3  -7   5   76.95   17.41
  -3  -7  -5   64.23   19.73
  -3   7  -6 1841.31  105.70
   3   7   6 1743.78   99.73
  -3   7  -6 1684.36   64.60
   3  -7   6 1876.50   95.04
  -3  -7  -6 1805.00  102.25
  -3   7  -7 1806.13   67.69
   3   7   7 1690.23  103.37
  -3   7  -7 1925.65  107.05
   3  -7   7 1801.39  105.82
  -3  -7  -7 1893.16  109.15
  -3   7  -8 1131.73   48.04
   3   7   8 1289.40   84.82
  -3   7  -8 1376.09   80.54
   3  -7   8 1472.24   99.59
  -3  -7  -8 1386.18   84.11
   3   7   9  164.36   28.12
  -3   7  -9  103.58   25.49
   3  -7   9   47.16   34.66
  -3  -7  -9  102.11   26.42
   3   7  10  148.69   35.38
  -3   7 -10  194.48   31.96
   3  -7  10  211.13   35.31
  -3  -7 -10  181.85   33.21
   3   7  11  104.62   28.74
  -3   7 -11   94.59   28.52
   3  -7  11  113.10   30.42
  -3  -7 -11   86.22   28.67
   3   7  12   27.55   26.43
  -3   7 -12   30.16   24.58
   3  -7  12   38.77   27.20
  -3  -7 -12   40.92   25.42
   3   7  13  206.72   39.65
  -3   7 -13  157.10   42.80
   3  -7  13  140.10   50.58
  -3  -7 -13  155.34   37.82
   3   7  14  263.86   51.02
  -3   7 -14  239.93   42.07
   3  -7  14  263.66   56.07
  -3  -7 -14  362.38   57.66
   3   8 -16  320.57   60.44
   3  -8 -16  392.99   61.40
  -3  -8  16  282.10   58.02
   3   8 -15  181.54   41.56
  -3   8  15  133.51   37.07
   3  -8 -15  211.39   38.43
  -3  -8  15  172.57   42.59
  -3   8  14  222.83   31.65
   3   8 -14  247.68   47.03
   3  -8 -14  281.75   42.37
   3  -8 -14  326.29   44.14
  -3  -8  14  288.24   47.84
  -3   8  13   59.98   17.52
   3   8 -13   34.55   28.09
   3  -8 -13   21.73   19.37
   3  -8 -13   27.92   31.74
  -3  -8  13   58.99   27.78
  -3   8  12  685.29   47.55
   3   8 -12  795.90   70.94
   3  -8 -12  751.11   55.71
   3  -8 -12  859.08   69.03
  -3  -8  12  800.86   71.46
  -3   8  11  123.89   18.35
   3   8 -11   92.53   29.53
   3  -8 -11   99.40   22.66
   3  -8 -11  126.56   28.53
  -3  -8  11  114.83   35.57
  -3   8  10  136.72   24.22
   3   8 -10  192.36   30.87
   3  -8 -10  212.06   25.25
   3  -8 -10  206.20   33.07
  -3  -8  10  257.34   33.99
   3   8  -9   84.10   24.54
  -3   8   9   79.91   14.09
   3  -8  -9   96.76   23.82
   3  -8  -9   94.75   19.45
  -3  -8   9   79.49   23.25
   3   8  -8 1060.83   64.80
  -3   8   8  995.71   46.25
   3  -8  -8 1024.29   68.11
   3  -8  -8  998.22   64.79
  -3  -8   8 1008.03   67.19
  -3   8   7  202.38   15.85
   3   8  -7  210.45   28.13
   3  -8  -7  243.85   22.47
   3  -8  -7  262.51   29.88
  -3  -8   7  249.10   29.57
  -3   8   6  397.77   17.88
   3   8  -6  481.28   40.80
   3  -8  -6  422.72   29.54
   3  -8  -6  412.03   35.88
  -3  -8   6  419.56   35.18
   3   8  -5 2576.39  112.14
  -3   8   5 2511.02   71.09
  -3  -8   5 2398.49   54.46
  -3  -8   5 2526.60  117.49
   3  -8  -5 2466.16  101.26
   3   8  -4  175.28   19.19
  -3   8   4  196.47   22.68
  -3   8   4  172.23    9.85
  -3  -8   4  204.50   21.78
   3  -8  -4  234.65   20.88
  -3  -8   4  183.86   10.41
   3   8  -3  872.70   37.94
  -3   8   3  792.31   23.78
  -3   8   3  822.61   47.26
  -3  -8   3  885.33   45.78
   3  -8  -3  826.62   43.35
  -3  -8   3  859.33   30.55
   3   8  -2  223.42   15.02
  -3   8   2  182.63   19.65
   3  -8  -2  177.31   20.11
  -3  -8   2  183.50   21.22
   3  -8  -2  164.04   10.58
  -3  -8   2  192.34   12.92
   3   8  -1  171.15   15.04
  -3   8   1  194.45   20.88
   3  -8  -1  163.53   19.92
  -3  -8   1  189.04   20.05
   3  -8  -1  190.55   12.01
  -3  -8   1  215.92   18.22
   3   8   0  887.36   31.56
  -3   8   0  890.67   37.96
   3  -8   0  834.75   31.19
   3  -8   0  900.10   46.79
  -3  -8   0  891.85   45.93
  -3  -8   0  883.13   40.65
   3   8   1 1593.61   69.58
  -3   8  -1 1564.61   60.98
   3   8   1 1536.30   45.36
   3  -8   1 1586.31   75.32
   3  -8   1 1525.36   51.56
  -3  -8  -1 1556.02   67.76
   3   8   2 1498.92   38.75
   3   8   2 1477.05   68.57
  -3   8  -2 1439.28   56.90
   3  -8   2 1462.71   69.07
   3  -8   2 1425.48   54.22
  -3  -8  -2 1533.36   71.09
   3   8   3 1641.16   77.14
  -3   8  -3 1486.87   51.60
   3   8   3 1445.02   35.28
   3  -8   3 1571.25   78.33
   3  -8   3 1496.82   62.52
  -3  -8  -3 1543.62   76.42
  -3   8  -4  504.76   27.01
   3   8   4  579.04   40.42
   3  -8   4  550.64   39.64
   3  -8   4  503.74   40.21
  -3  -8  -4  517.16   40.85
   3   8   5 1042.90   67.23
  -3   8  -5 1002.57   43.18
   3  -8   5  978.98   56.31
  -3  -8  -5 1087.25   66.05
  -3   8  -6 3285.27  120.30
   3   8   6 3528.12  204.04
  -3   8  -6 3502.95  179.47
  -3  -8  -6 3371.28  181.85
   3  -8   6 3478.87  170.53
   3   8   7  851.46   63.44
  -3   8  -7  761.20   36.05
  -3   8  -7  847.14   59.96
   3  -8   7  930.40   68.46
  -3  -8  -7  836.11   63.22
   3   8   8  324.92   46.45
  -3   8  -8  318.17   38.31
   3  -8   8  347.45   37.23
  -3  -8  -8  352.26   41.19
  -3   8  -9  723.88   60.66
   3   8   9  584.50   58.84
  -3  -8  -9  813.19   62.17
   3  -8   9  727.74   63.70
   3   8  10   40.90   23.70
  -3   8 -10   31.78   22.94
   3  -8  10   73.97   25.31
  -3  -8 -10   19.72   24.11
   3   8  11   80.22   28.42
  -3   8 -11   97.00   26.74
   3  -8  11   62.20   28.72
  -3  -8 -11   60.48   35.90
   3   8  12  153.43   36.31
  -3   8 -12  141.47   34.39
   3  -8  12  179.87   38.51
  -3  -8 -12  136.42   44.91
   3   8  13  120.95   36.67
  -3   8 -13  118.92   33.77
   3  -8  13  142.58   41.65
  -3  -8 -13  148.91   45.89
   3   9 -15   48.34   30.85
   3  -9 -15   37.74   27.21
  -3  -9  15   44.90   38.34
  -3   9  14  336.65   38.64
   3   9 -14  414.77   56.45
   3  -9 -14  332.31   38.92
   3  -9 -14  373.95   52.11
  -3  -9  14  360.76   56.73
  -3   9  13  223.57   31.52
   3   9 -13  333.15   50.73
   3  -9 -13  305.89   42.17
   3  -9 -13  370.27   46.36
  -3  -9  13  327.66   47.87
   3   9 -12  483.08   69.47
  -3   9  12  506.34   38.58
   3  -9 -12  527.37   58.72
  -3  -9  12  525.29   60.65
   3  -9 -12  497.75   45.01
  -3   9  11  144.21   25.49
   3   9 -11  156.70   32.45
   3  -9 -11  131.51   30.16
   3  -9 -11  189.17   34.19
  -3  -9  11  163.38   34.77
   3   9 -10  375.61   43.27
  -3   9  10  323.36   30.56
   3  -9 -10  357.63   33.43
   3  -9 -10  347.13   44.86
  -3  -9  10  362.58   44.75
   3   9  -9  636.22   53.03
  -3   9   9  565.32   32.47
   3  -9  -9  656.82   49.91
  -3  -9   9  603.24   54.45
   3   9  -8 2029.78  120.38
  -3   9   8 1793.62   78.31
   3  -9  -8 1968.43  118.95
   3  -9  -8 1963.45   95.64
  -3  -9   8 1958.88  127.92
  -3   9   7  291.10   18.91
   3   9  -7  281.51   33.60
   3  -9  -7  234.60   25.20
   3  -9  -7  283.23   31.20
  -3  -9   7  243.79   33.04
   3   9  -6  306.49   32.17
  -3   9   6  279.72   16.49
   3  -9  -6  327.17   30.44
   3  -9  -6  309.67   24.60
  -3  -9   6  355.46   32.34
   3   9  -5  345.14   35.86
  -3   9   5  336.19   16.45
   3  -9  -5  413.43   29.02
  -3  -9   5  349.71   33.45
  -3  -9   5  347.87   13.46
   3   9  -4  931.62   51.36
  -3   9   4 1105.50   33.93
  -3   9   4 1143.96   61.82
   3  -9  -4 1104.27   61.46
  -3  -9   4 1048.56   60.57
  -3  -9   4 1069.34   35.38
   3   9  -3  378.07   23.08
  -3   9   3  321.53   16.34
  -3   9   3  344.31   29.20
   3  -9  -3  378.98   26.24
  -3  -9   3  325.02   30.22
  -3  -9   3  349.21   18.54
   3   9  -2 3012.63  106.94
  -3   9   2 3049.36  126.63
   3  -9  -2 2778.70   85.07
  -3  -9   2 2770.59  100.03
  -3  -9   2 2875.41  129.84
   3  -9  -2 2792.37  122.01
   3   9  -1  224.25   17.84
  -3   9   1  232.54   20.87
   3  -9  -1  232.62   23.59
  -3  -9   1  242.79   21.69
   3  -9  -1  222.48   15.17
  -3  -9   1  224.80   23.70
   3   9   0  640.32   25.79
  -3   9   0  638.05   37.29
   3  -9   0  644.52   27.68
   3  -9   0  626.59   40.64
  -3  -9   0  643.66   40.71
  -3  -9   0  631.78   39.31
   3   9   1  236.83   14.32
  -3   9  -1  230.97   20.54
   3   9   1  210.81   23.90
   3  -9   1  244.04   23.62
   3  -9   1  198.37   15.04
  -3  -9  -1  215.03   22.58
   3   9   2  140.99   22.48
   3   9   2  168.34   11.12
  -3   9  -2  175.82   16.00
   3  -9   2  184.57   23.76
  -3  -9  -2  156.66   22.08
   3  -9   2  131.68   17.72
   3   9   3  923.01   27.52
   3   9   3  943.75   62.88
  -3   9  -3  940.86   36.90
   3  -9   3  950.87   58.26
   3  -9   3  914.38   44.53
  -3  -9  -3  978.70   55.60
  -3   9  -4 3613.74  134.57
   3   9   4 3755.94  183.44
   3  -9   4 3623.78  158.46
   3  -9   4 3643.11  183.90
  -3  -9  -4 3687.99  183.61
   3   9   5 1087.40   68.90
  -3   9  -5  929.56   56.40
  -3   9  -5 1090.73   45.69
   3  -9   5 1069.37   60.81
  -3  -9  -5  997.80   69.61
   3   9   6  451.38   43.72
  -3   9  -6  411.06   25.55
  -3   9  -6  483.60   43.92
  -3  -9  -6  451.14   44.71
   3  -9   6  458.04   46.63
   3   9   7  220.89   33.58
  -3   9  -7  274.08   35.32
   3  -9   7  316.94   34.01
  -3  -9  -7  253.90   35.16
   3   9   8   94.85   27.03
  -3   9  -8  111.86   26.96
   3  -9   8   95.76   25.67
  -3  -9  -8  138.91   26.70
   3   9   9 2095.63  146.82
  -3   9  -9 2388.53  149.59
   3  -9   9 2214.01  154.10
  -3  -9  -9 2442.04  159.24
   3   9  10  676.34   68.81
  -3   9 -10  850.06   72.33
   3  -9  10  841.39   75.34
  -3  -9 -10  840.46   87.61
   3   9  11   55.60   28.82
  -3   9 -11   39.45   33.87
   3  -9  11  133.46   30.53
  -3  -9 -11   44.35   29.67
   3   9  12   19.58   27.88
  -3   9 -12   50.96   26.74
   3  -9  12   65.02   30.67
  -3  -9 -12   14.20   27.49
   3   9  13  161.34   38.83
  -3   9 -13  170.67   40.75
   3  -9  13  115.10   41.85
  -3  -9 -13  177.66   41.98
   3  10 -15   45.95   28.48
   3 -10 -15   -2.93   26.71
  -3 -10  15  -10.81   28.22
   3  10 -14  142.14   42.59
   3 -10 -14  231.54   41.96
  -3 -10  14  165.80   46.70
   3  10 -13  154.03   50.78
   3 -10 -13  251.71   49.13
   3 -10 -13  127.21   34.61
  -3 -10  13  244.49   41.95
  -3  10  12  136.69   22.14
   3  10 -12  230.88   38.05
   3 -10 -12  175.12   31.42
   3 -10 -12  177.79   37.28
  -3 -10  12  140.99   38.89
   3  10 -11  206.13   37.35
  -3  10  11  177.87   20.93
   3 -10 -11  193.55   38.79
   3 -10 -11  169.64   26.60
  -3 -10  11  210.78   37.96
   3  10 -10  251.20   37.21
  -3  10  10  176.77   20.32
   3 -10 -10  229.39   36.78
   3 -10 -10  210.12   30.59
  -3 -10  10  218.28   36.52
  -3  10   9   85.15   12.49
   3  10  -9   55.77   24.24
   3 -10  -9   30.33   18.36
   3 -10  -9   88.23   26.18
  -3 -10   9   23.32   25.69
  -3  10   8 1406.98   63.27
   3  10  -8 1375.18   98.66
   3 -10  -8 1616.32  101.73
  -3 -10   8 1581.62  102.46
   3 -10  -8 1402.31   84.60
   3  10  -7 1380.26   82.85
  -3  10   7 1163.43   48.86
   3 -10  -7 1388.14   86.62
   3 -10  -7 1291.95   69.92
  -3 -10   7 1377.74   85.54
  -3  10   6 2052.66   73.86
   3  10  -6 2474.25  133.52
   3 -10  -6 2255.91  108.26
   3 -10  -6 2188.16  116.08
  -3 -10   6 2174.95  119.87
   3  10  -5  402.95   31.51
  -3  10   5  340.19   17.43
  -3  10   5  360.23   35.39
   3 -10  -5  339.13   33.90
  -3 -10   5  382.06   35.27
  -3 -10   5  302.98   14.95
   3  10  -4 3457.63  150.46
  -3  10   4 3459.59  166.37
  -3  10   4 2993.52  100.14
  -3 -10   4 3240.60  164.73
   3 -10  -4 3198.00  148.65
  -3 -10   4 3265.34  105.08
   3  10  -3  455.04   33.55
  -3  10   3  480.36   36.91
  -3  10   3  441.96   21.80
   3 -10  -3  477.73   32.83
  -3 -10   3  453.78   24.56
  -3 -10   3  452.95   37.97
   3  10  -2 1653.74   64.72
  -3  10   2 1271.38   73.13
   3 -10  -2 1450.95   49.28
  -3 -10   2 1624.56   89.07
  -3 -10   2 1612.49   63.10
   3 -10  -2 1621.32   85.85
   3  10  -1  970.56   44.86
  -3  10   1  908.94   50.27
   3 -10  -1  962.58   55.19
  -3 -10   1  956.52   52.86
   3 -10  -1  983.25   39.85
  -3 -10   1  944.60   43.42
   3  10   0  588.76   26.63
  -3  10   0  578.96   32.35
   3 -10   0  607.68   42.82
   3 -10   0  597.52   26.44
  -3 -10   0  552.46   34.58
  -3 -10   0  593.42   45.03
   3  10   1  102.98   13.05
  -3  10  -1  123.23   14.75
   3  10   1  104.67   14.94
   3 -10   1  152.20   21.42
   3 -10   1   95.79   12.61
  -3 -10  -1  175.98   18.82
   3  10   2  443.06   20.46
  -3  10  -2  431.13   24.05
   3  10   2  440.99   36.20
   3 -10   2  446.49   38.15
   3 -10   2  415.37   25.65
  -3 -10  -2  486.91   40.06
   3  10   3  224.14   13.10
  -3  10  -3  193.24   19.26
   3  10   3  232.81   32.21
   3 -10   3  214.86   19.87
   3 -10   3  241.15   30.10
  -3 -10  -3  261.76   29.29
  -3  10  -4  376.48   24.45
   3  10   4  367.16   39.34
   3 -10   4  393.63   30.27
   3 -10   4  387.28   38.81
  -3 -10  -4  415.82   37.04
   3  10   5 2402.69  143.28
  -3  10  -5 2863.71  150.53
  -3  10  -5 2446.66   97.54
   3 -10   5 2718.08  133.79
  -3 -10  -5 2894.90  149.09
  -3  10  -6  227.29   18.14
   3  10   6  251.64   33.25
  -3  10  -6  303.75   36.25
   3 -10   6  232.94   28.78
  -3 -10  -6  230.57   35.96
   3  10   7  101.93   27.85
  -3  10  -7  117.06   25.69
   3 -10   7  107.92   25.71
  -3 -10  -7   79.11   27.65
   3  10   8  230.18   41.60
  -3  10  -8  423.54   44.36
   3 -10   8  487.17   42.91
  -3 -10  -8  460.42   49.26
   3  10   9   80.97   27.29
  -3  10  -9  105.89   28.43
   3 -10   9   91.17   28.73
  -3 -10  -9   96.25   30.61
   3  10  10  496.72   55.77
  -3  10 -10  591.87   60.71
   3 -10  10  498.92   60.69
  -3 -10 -10  511.55   60.33
   3  10  11   45.77   25.81
  -3  10 -11   23.12   26.85
   3 -10  11    2.74   35.54
  -3 -10 -11   70.46   30.10
   3  10  12  499.42   60.80
  -3  10 -12  404.20   61.84
   3 -10  12  485.55   78.38
  -3 -10 -12  462.71   62.66
   3  11 -14   98.36   38.63
   3 -11 -14   79.55   37.48
  -3 -11  14  128.67   39.44
   3  11 -13   10.85   32.38
   3 -11 -13   24.92   25.80
  -3 -11  13  -21.60   26.43
   3  11 -12  262.26   45.74
   3 -11 -12  275.43   47.46
   3 -11 -12  217.46   38.22
  -3 -11  12  257.42   48.71
  -3  11  11   28.39   14.36
   3  11 -11  120.06   27.31
   3 -11 -11   58.16   18.65
   3 -11 -11   11.98   27.85
  -3 -11  11   50.96   28.48
   3  11 -10  895.86   70.69
  -3  11  10  692.09   48.76
   3 -11 -10  882.16   75.79
   3 -11 -10  733.19   57.26
  -3 -11  10  800.24   74.24
  -3  11   9  168.09   21.59
   3  11  -9  192.27   36.29
   3 -11  -9  182.34   24.47
   3 -11  -9  217.77   38.72
  -3 -11   9  201.39   35.54
   3  11  -8  285.16   38.03
  -3  11   8  244.15   21.70
   3 -11  -8  246.75   29.70
  -3 -11   8  253.33   37.33
   3 -11  -8  316.01   39.56
  -3  11   7  545.74   26.99
   3  11  -7  613.87   51.96
   3 -11  -7  636.24   45.17
   3 -11  -7  583.63   56.33
  -3 -11   7  659.92   52.58
   3  11  -6  339.79   35.04
  -3  11   6  298.12   19.40
   3 -11  -6  273.14   29.99
  -3 -11   6  395.50   37.72
   3  11  -5 1272.65   72.64
  -3  11   5 1283.91   78.10
  -3  11   5 1086.99   43.72
  -3 -11   5 1157.54   75.21
   3 -11  -5 1184.77   65.94
   3  11  -4  417.97   32.34
  -3  11   4  340.73   19.82
  -3  11   4  405.29   37.92
   3 -11  -4  428.54   38.63
  -3 -11   4  337.89   20.35
  -3 -11   4  344.17   37.51
   3  11  -3  291.31   25.72
  -3  11   3  327.36   19.03
  -3  11   3  309.09   38.64
   3 -11  -3  312.21   34.77
  -3 -11   3  299.78   32.45
  -3 -11   3  284.92   18.13
   3  11  -2  424.86   30.79
  -3  11   2  378.94   34.97
   3 -11  -2  377.35   22.52
   3 -11  -2  406.75   34.17
  -3 -11   2  354.45   23.62
  -3 -11   2  381.34   34.01
   3  11  -1  393.37   25.19
  -3  11   1  459.66   31.34
   3 -11  -1  438.31   25.79
   3 -11  -1  433.48   37.66
  -3 -11   1  402.30   36.33
  -3 -11   1  417.13   31.80
  -3  11   0  770.80   45.67
   3  11   0  740.86   33.36
   3 -11   0  686.98   48.94
   3 -11   0  670.52   38.37
  -3 -11   0  728.20   50.03
  -3 -11   0  720.81   47.41
   3  11   1   97.25   13.89
   3  11   1   92.61   14.77
  -3  11  -1   64.49   16.85
   3 -11   1   92.89   16.26
   3 -11   1   72.61   21.87
  -3 -11  -1  100.75   22.10
   3  11   2  803.15   50.55
   3  11   2  769.22   33.95
  -3  11  -2  832.10   42.59
   3 -11   2  734.81   55.49
   3 -11   2  708.13   44.47
  -3 -11  -2  820.04   52.11
   3  11   3  253.96   31.23
   3  11   3  286.75   17.24
  -3  11  -3  262.22   21.84
   3 -11   3  349.63   35.58
   3 -11   3  236.31   23.69
  -3 -11  -3  269.61   34.09
  -3  11  -4  237.96   16.74
   3  11   4  262.44   31.40
   3 -11   4  279.53   36.39
   3 -11   4  268.03   30.72
  -3 -11  -4  237.79   33.82
   3  11   5  269.61   39.92
  -3  11  -5  250.71   36.71
  -3  11  -5  252.79   20.32
   3 -11   5  227.12   28.55
  -3 -11  -5  313.75   36.38
   3  11   6 1716.35  126.91
  -3  11  -6 2142.88  137.64
   3 -11   6 2290.10  133.78
  -3 -11  -6 2312.42  137.97
   3  11   7   75.62   23.33
  -3  11  -7   30.97   25.23
   3 -11   7   50.21   25.99
  -3 -11  -7   49.76   25.83
   3  11   8  406.88   48.91
  -3  11  -8  353.55   49.30
   3 -11   8  467.92   46.72
  -3 -11  -8  456.41   51.08
   3  11   9  106.30   29.45
  -3  11  -9  126.80   32.14
   3 -11   9   77.00   31.51
  -3 -11  -9  106.03   33.47
   3  11  10  324.24   46.36
  -3  11 -10  328.73   48.55
   3 -11  10  339.51   48.01
  -3 -11 -10  334.47   49.97
   3  11  11  142.33   39.99
  -3  11 -11  185.78   43.68
   3 -11  11  231.67   43.15
  -3 -11 -11  203.65   42.49
   3  11  12   -8.68   33.31
  -3  11 -12   40.42   38.75
   3 -11  12   60.06   32.88
  -3 -11 -12   69.81   30.44
   3  12 -14  378.28   61.50
   3 -12 -14  363.07   59.61
  -3 -12  14  337.35   64.73
   3  12 -13  251.63   46.98
   3 -12 -13  265.47   46.77
  -3 -12  13  166.13   49.69
   3  12 -12  417.64   54.81
   3 -12 -12  374.55   59.01
   3 -12 -12  306.17   41.33
  -3 -12  12  313.98   57.27
   3  12 -11  163.38   38.18
   3 -12 -11  144.95   36.93
   3 -12 -11  159.54   23.25
  -3 -12  11  147.34   38.74
   3  12 -10  135.45   34.35
   3 -12 -10  235.79   44.89
   3 -12 -10  143.62   31.44
  -3 -12  10  111.36   38.25
   3  12  -9  125.36   31.95
  -3  12   9   97.86   17.98
   3 -12  -9  105.49   32.30
   3 -12  -9  112.42   27.08
  -3 -12   9  107.20   29.37
  -3  12   8  821.84   45.66
   3  12  -8 1074.65   76.54
   3 -12  -8  942.18   60.60
   3 -12  -8  911.93   74.47
  -3 -12   8  907.68   77.13
  -3  12   7  610.70   34.58
   3  12  -7  850.40   62.10
   3 -12  -7  669.35   55.54
   3 -12  -7  747.13   62.31
  -3 -12   7  727.30   63.69
   3  12  -6 2146.14  115.18
  -3  12   6 1757.76  110.31
  -3  12   6 1603.62   69.04
   3 -12  -6 1682.55  102.51
  -3 -12   6 1836.27  113.23
   3  12  -5  408.84   39.41
  -3  12   5  411.20   23.97
  -3  12   5  387.82   43.64
   3 -12  -5  471.09   37.32
  -3 -12   5  482.62   43.31
   3  12  -4  568.48   46.41
  -3  12   4  500.56   26.28
  -3  12   4  612.79   49.43
   3 -12  -4  511.81   41.67
  -3 -12   4  525.57   27.58
  -3 -12   4  526.53   46.67
   3  12  -3  302.79   32.19
  -3  12   3  300.72   32.18
  -3  12   3  276.26   20.67
  -3 -12   3  237.34   34.37
   3 -12  -3  273.63   29.74
  -3 -12   3  265.53   20.35
   3  12  -2 3712.40  162.28
  -3  12   2 3934.13  200.95
   3 -12  -2 3424.37  138.19
   3 -12  -2 3589.52  200.66
  -3 -12   2 3313.44  141.05
  -3 -12   2 3382.69  188.35
   3  12  -1  239.33   20.71
  -3  12   1  180.97   31.06
   3 -12  -1  228.51   17.76
  -3 -12   1  256.61   22.64
  -3 -12   1  210.91   30.35
   3 -12  -1  281.33   32.64
  -3  12   0  528.40   36.20
   3  12   0  580.22   33.02
   3 -12   0  618.66   47.89
  -3 -12   0  569.95   45.71
   3 -12   0  578.69   31.87
  -3 -12   0  675.74   40.54
   3  12   1  835.36   59.36
  -3  12  -1  941.68   48.98
   3  12   1  903.57   41.36
   3 -12   1  914.22   50.33
   3 -12   1  940.91   66.07
  -3 -12  -1 1035.23   59.47
   3  12   2 2329.57   87.33
   3  12   2 2320.73  124.59
  -3  12  -2 2324.69  106.34
   3 -12   2 2358.56  140.91
   3 -12   2 2228.03  102.01
  -3 -12  -2 2441.12  131.00
   3  12   3  258.34   19.09
   3  12   3  277.66   39.47
  -3  12  -3  269.36   23.55
   3 -12   3  254.92   31.00
   3 -12   3  325.92   37.97
  -3 -12  -3  303.41   34.36
  -3  12  -4  429.79   27.98
   3  12   4  335.70   40.66
   3 -12   4  452.02   35.55
   3 -12   4  477.92   47.01
  -3 -12  -4  495.49   45.88
   3  12   5  283.13   38.69
  -3  12  -5  291.98   49.93
   3 -12   5  277.97   37.94
  -3 -12  -5  353.04   41.97
   3  12   6  727.05   61.99
  -3  12  -6  613.51   62.88
   3 -12   6  675.87   54.10
  -3 -12  -6  755.97   80.33
   3  12   7  191.22   35.83
  -3  12  -7  186.23   38.02
   3 -12   7  200.44   38.11
  -3 -12  -7  218.95   37.92
   3  12   8  368.86   47.26
  -3  12  -8  416.81   52.13
   3 -12   8  376.45   47.31
  -3 -12  -8  463.17   54.28
   3  12   9  201.48   37.23
  -3  12  -9  174.47   37.67
   3 -12   9  233.73   38.79
  -3 -12  -9  182.75   41.70
   3  12  10  114.45   35.77
  -3  12 -10  156.62   38.62
   3 -12  10  162.58   36.54
  -3 -12 -10  149.93   38.30
   3  12  11  348.80   48.54
  -3  12 -11  236.74   55.82
   3 -12  11  403.62   55.73
  -3 -12 -11  388.83   55.95
   3  13 -13  -10.98   27.57
   3 -13 -13   57.42   28.93
  -3 -13  13  -12.08   27.55
   3  13 -12   39.75   31.23
   3 -13 -12   50.87   39.73
  -3 -13  12   40.70   32.62
   3  13 -11  138.39   49.40
   3 -13 -11  185.19   40.71
   3 -13 -11  128.91   31.85
  -3 -13  11  167.33   40.80
   3  13 -10   73.29   32.53
   3 -13 -10   97.20   40.68
   3 -13 -10   68.87   19.92
  -3 -13  10  130.56   32.75
   3  13  -9  124.04   31.56
   3 -13  -9   86.07   34.65
   3 -13  -9  103.29   22.98
  -3 -13   9  169.39   32.85
   3  13  -8  150.48   30.90
   3 -13  -8  157.85   33.28
   3 -13  -8   98.16   23.72
  -3 -13   8  109.15   32.54
   3  13  -7  369.25   44.28
  -3  13   7  333.55   34.11
   3 -13  -7  410.28   40.80
  -3 -13   7  324.40   45.16
   3  13  -6  967.63   69.33
  -3  13   6  850.03   42.59
  -3  13   6  923.42   71.76
   3 -13  -6  855.53   59.56
  -3 -13   6  921.45   71.91
   3  13  -5  256.32   38.09
  -3  13   5  241.36   31.90
  -3  13   5  194.31   18.74
  -3 -13   5  180.01   33.95
   3 -13  -5  204.91   27.42
   3  13  -4  635.51   53.84
  -3  13   4  582.48   33.45
  -3  13   4  804.29   58.18
   3 -13  -4  693.02   56.33
  -3 -13   4  655.17   53.88
  -3 -13   4  567.52   31.85
  -3  13   3   45.81   19.61
   3  13  -3   17.87   16.57
  -3  13   3   47.69   12.41
   3 -13  -3   10.03   19.44
  -3 -13   3   74.36   20.48
  -3 -13   3   30.60   11.12
   3  13  -2  613.55   38.74
  -3  13   2  565.46   44.93
   3 -13  -2  427.43   32.74
   3 -13  -2  539.07   47.16
  -3 -13   2  491.13   46.13
  -3 -13   2  508.88   30.28
   3  13  -1  728.79   60.68
  -3  13   1 1050.29   60.01
   3 -13  -1  897.63   49.66
   3 -13  -1  880.05   62.04
  -3 -13   1  975.74   51.82
  -3 -13   1  985.21   62.96
   3  13   0  463.85   34.17
  -3  13   0  435.27   38.55
   3 -13   0  420.96   42.95
  -3 -13   0  434.38   35.39
  -3 -13   0  431.88   41.87
   3 -13   0  437.69   33.67
   3  13   1 1916.36   85.93
  -3  13  -1 2103.60   96.66
   3  13   1 1972.71  111.40
   3 -13   1 1911.77  117.17
   3 -13   1 1747.58   88.26
  -3 -13  -1 1917.93  108.43
   3  13   2    3.32   16.14
   3  13   2    9.85   11.47
  -3  13  -2    5.26   11.53
   3 -13   2    4.81   23.24
   3 -13   2   15.66   12.64
  -3 -13  -2    3.73   16.38
   3  13   3  659.12   57.34
  -3  13  -3  411.68   31.80
   3 -13   3  791.55   51.36
   3 -13   3  447.52   41.85
  -3 -13  -3  464.08   49.19
  -3  13  -4   34.20    9.99
   3  13   4   -6.65   20.77
   3 -13   4   27.03   15.98
   3 -13   4   -9.13   22.84
  -3 -13  -4   33.02   25.56
   3  13   5    7.97   19.62
  -3  13  -5   15.94   20.96
   3 -13   5   -3.19   16.08
  -3 -13  -5   11.40   20.66
   3  13   6  106.64   36.23
  -3  13  -6  110.21   30.76
   3 -13   6  141.21   25.76
  -3 -13  -6  103.98   32.17
   3  13   7   81.32   27.51
  -3  13  -7   50.79   27.87
   3 -13   7   61.35   28.80
  -3 -13  -7   15.26   34.84
  -3  13  -8  400.85   69.01
   3  13   8  510.39   55.07
  -3 -13  -8  476.22   56.72
   3 -13   8  401.61   51.90
   3  13   9   42.15   30.45
  -3  13  -9   52.59   28.69
   3 -13   9   12.15   25.63
  -3 -13  -9   37.06   29.58
  -3  13 -10  941.51   85.74
   3  13  10  751.58   79.37
  -3 -13 -10  799.39   88.22
   3 -13  10  748.58   79.08
   3  13  11   94.23   35.52
  -3  13 -11   69.96   47.48
   3 -13  11  213.98   46.82
  -3 -13 -11  130.07   41.06
   3  14 -12   30.11   27.78
  -3  14  12  -14.27   18.59
  -3 -14  12   52.14   29.52
   3  14 -11  138.67   41.17
  -3 -14  11  126.41   36.81
   3  14 -10    6.91   26.15
  -3  14  10   40.57   18.65
   3 -14 -10    7.61   21.04
  -3 -14  10   -6.49   32.05
   3  14  -9   97.67   30.71
  -3  14   9    8.44   22.00
   3 -14  -9  104.71   21.28
  -3 -14   9  107.30   31.51
   3  14  -8  235.49   41.19
  -3  14   8  200.98   39.83
   3 -14  -8  232.25   29.81
  -3 -14   8  210.92   39.65
   3  14  -7   68.91   25.61
  -3  14   7   16.96   25.59
   3 -14  -7   78.43   22.21
  -3 -14   7    1.65   26.51
   3  14  -6  729.56   70.16
  -3  14   6  623.66   62.06
   3 -14  -6  633.79   50.41
  -3 -14   6  712.65   62.66
   3  14  -5  210.91   44.63
  -3  14   5  257.36   38.58
   3 -14  -5  304.82   32.07
  -3 -14   5  293.97   46.82
   3  14  -4   90.29   26.83
  -3  14   4   50.28   14.67
  -3  14   4  110.51   26.16
   3 -14  -4   65.93   28.25
  -3 -14   4  109.23   30.85
   3  14  -3   78.89   25.15
  -3  14   3   94.95   16.82
  -3  14   3  160.62   25.53
   3 -14  -3   92.16   25.12
  -3 -14   3   73.16   25.64
  -3 -14   3   75.94   18.24
   3  14  -2 1240.83   77.80
  -3  14   2 1373.92   82.36
   3 -14  -2 1140.00   61.14
   3 -14  -2 1260.99   85.52
  -3 -14   2 1109.50   95.00
  -3 -14   2 1111.18   62.27
  -3  14   1  541.40   48.41
   3  14  -1  543.81   37.80
   3 -14  -1  505.42   32.30
  -3 -14   1  545.19   57.43
   3 -14  -1  593.98   48.57
  -3 -14   1  470.43   35.97
   3  14   0  483.25   32.90
  -3  14   0  491.69   36.34
   3 -14   0  502.77   48.99
   3 -14   0  437.72   36.49
  -3 -14   0  404.06   38.01
  -3 -14   0  520.45   45.38
   3  14   1  424.30   34.48
   3  14   1  452.61   40.39
  -3  14  -1  403.82   32.44
   3 -14   1  405.10   36.11
   3 -14   1  374.42   45.48
  -3 -14  -1  360.43   37.14
   3  14   2  301.56   23.76
   3  14   2  349.55   38.19
  -3  14  -2  390.12   27.08
   3 -14   2  369.97   33.90
   3 -14   2  400.14   44.47
  -3 -14  -2  312.14   38.94
   3  14   3  154.65   35.61
  -3  14  -3  153.57   17.09
   3 -14   3  161.50   35.23
   3 -14   3  137.60   27.48
  -3 -14  -3  131.14   36.75
   3  14   4  853.07   69.47
   3 -14   4  810.16   55.50
  -3 -14  -4  862.70   70.17
   3  14   5  160.85   29.46
  -3  14  -5  100.34   34.29
   3 -14   5  148.04   29.31
  -3 -14  -5  133.12   32.35
   3  14   6  134.66   34.54
  -3  14  -6  154.97   36.24
   3 -14   6  159.04   34.52
  -3 -14  -6  217.31   37.12
   3  14   7  101.83   33.81
  -3  14  -7  181.94   35.73
   3 -14   7  123.24   30.21
  -3 -14  -7  143.85   35.96
  -3  14  -8  972.78   84.42
   3  14   8  951.18   96.94
  -3 -14  -8  897.20   89.64
   3 -14   8  868.58   83.28
   3  14   9  105.45   31.23
  -3  14  -9  141.51   34.75
   3 -14   9   96.20   32.12
  -3 -14  -9   88.13   37.16
   3  14  10  130.61   37.80
  -3  14 -10  191.79   42.99
   3 -14  10  140.61   38.41
  -3 -14 -10  152.05   46.54
   3  15 -11  286.58   46.18
  -3  15  11  128.15   42.99
  -3 -15  11   85.06   44.75
   3  15 -10  601.30   74.09
  -3  15  10  550.45   70.86
  -3 -15  10  600.44   75.87
   3  15  -9   12.88   23.34
  -3  15   9    2.17   21.49
   3 -15  -9  -20.25   18.78
  -3 -15   9   23.89   23.90
   3  15  -8   54.56   25.29
  -3  15   8   54.44   23.18
   3 -15  -8   -6.03   17.82
  -3 -15   8  -11.79   29.97
   3  15  -7   55.04   26.08
  -3  15   7   45.41   26.88
   3 -15  -7   45.92   19.70
  -3 -15   7   35.80   28.03
   3  15  -6  878.01   75.44
  -3  15   6  846.77   73.62
   3 -15  -6  792.39   72.13
  -3 -15   6  725.24   73.72
   3  15  -5   87.04   24.76
  -3  15   5   65.56   32.16
   3 -15  -5   61.02   22.80
  -3 -15   5   45.32   26.97
   3  15  -4 1067.44   74.33
  -3  15   4 1140.96   96.91
   3 -15  -4  966.09   77.14
  -3 -15   4  920.20   91.87
   3  15  -3 1310.40   80.06
  -3  15   3 1167.93   59.37
  -3  15   3 1367.92   92.23
   3 -15  -3 1353.74  101.66
  -3 -15   3 1062.23   59.55
  -3 -15   3 1249.50   89.80
  -3  15   2  567.26   47.94
   3  15  -2  529.58   41.06
   3 -15  -2  434.08   30.20
   3 -15  -2  537.57   48.77
  -3 -15   2  436.52   48.32
  -3 -15   2  440.85   38.09
  -3  15   1  493.79   49.42
   3  15  -1  542.05   45.31
   3 -15  -1  511.56   39.21
   3 -15  -1  582.89   50.80
  -3 -15   1  419.48   51.41
  -3 -15   1  495.72   42.75
  -3  15   0  402.05   42.78
   3  15   0  403.95   31.91
   3 -15   0  331.75   34.09
   3 -15   0  366.54   45.25
  -3 -15   0  376.35   42.74
  -3 -15   0  364.46   34.62
   3  15   1  -16.22   16.12
   3  15   1   -1.49   14.18
  -3  15  -1   13.61   14.82
   3 -15   1    6.99   20.22
   3 -15   1   -0.10   12.57
   3  15   2  188.83   31.03
  -3  15  -2  149.13   26.20
   3 -15   2  194.76   43.72
   3 -15   2  251.97   24.46
  -3 -15  -2  209.84   31.81
   3  15   3   78.95   22.05
  -3  15  -3   23.82   12.88
   3 -15   3   67.50   17.12
   3 -15   3   23.20   27.10
  -3 -15  -3   49.48   24.15
   3  15   4  326.64   40.73
  -3  15  -4  324.85   47.02
   3 -15   4  277.76   33.00
  -3 -15  -4  299.85   42.41
   3  15   5  299.68   40.88
  -3  15  -5  250.90   47.95
   3 -15   5  296.79   41.03
  -3 -15  -5  255.10   44.98
   3  15   6  447.89   50.79
  -3  15  -6  451.51   55.88
   3 -15   6  364.67   53.21
  -3 -15  -6  369.12   53.50
   3  15   7  171.87   40.45
  -3  15  -7  103.47   38.07
   3 -15   7   70.93   29.08
  -3 -15  -7  181.17   37.08
   3  15   8   21.93   28.81
  -3  15  -8   95.71   34.31
   3 -15   8   63.98   26.37
  -3 -15  -8   86.42   34.27
   3  15   9  -27.58   32.03
  -3  15  -9   83.66   29.81
   3 -15   9   22.28   25.51
  -3 -15  -9   15.87   29.98
   3  16 -10   61.40   32.60
  -3  16  10   21.83   32.31
  -3 -16  10   44.75   30.97
   3  16  -9   64.63   31.37
  -3  16   9   70.93   30.27
  -3 -16   9   22.84   33.99
   3  16  -8  418.34   59.64
  -3  16   8  568.16   59.11
   3 -16  -8  428.21   46.32
  -3 -16   8  394.62   59.48
   3  16  -7  126.92   35.51
  -3  16   7  119.26   35.92
   3 -16  -7  109.05   28.16
  -3 -16   7  211.18   34.66
   3  16  -6  341.64   45.68
  -3  16   6  284.25   46.89
   3 -16  -6  264.70   37.02
  -3 -16   6  336.78   47.39
   3  16  -5  324.22   43.10
  -3  16   5  366.43   45.11
   3 -16  -5  353.80   40.16
  -3 -16   5  253.19   45.72
   3  16  -4  180.22   31.81
  -3  16   4  172.08   36.58
   3 -16  -4  224.96   40.46
  -3 -16   4  149.61   42.50
   3  16  -3  235.57   36.96
  -3  16   3  221.29   36.79
   3 -16  -3  175.68   34.49
  -3 -16   3  220.18   44.20
  -3  16   2  328.02   37.41
   3  16  -2  287.70   31.47
  -3 -16   2  215.95   39.31
   3 -16  -2  319.75   38.20
  -3 -16   2  208.73   27.46
   3  16  -1  400.19   40.78
  -3  16   1  441.52   46.01
   3 -16  -1  350.53   56.77
  -3 -16   1  438.05   44.70
   3 -16  -1  297.47   32.81
  -3 -16   1  359.88   40.16
  -3  16   0  109.98   27.26
   3  16   0  108.93   19.72
   3 -16   0   65.58   19.05
   3 -16   0  125.08   31.52
  -3 -16   0  107.40   21.45
  -3 -16   0  138.14   27.75
   3  16   1  167.82   29.86
   3  16   1  162.32   26.16
  -3  16  -1   97.62   21.86
   3 -16   1  176.14   34.46
   3 -16   1  160.56   22.55
  -3 -16  -1  151.27   26.78
  -3  16  -2  271.36   33.97
   3  16   2  278.80   45.41
   3 -16   2  324.21   36.91
   3 -16   2  351.79   48.92
  -3 -16  -2  273.06   37.88
   3  16   3  262.63   41.11
   3 -16   3  174.27   27.68
   3 -16   3  214.43   42.02
  -3 -16  -3  182.03   34.53
   3  16   4   52.41   25.51
  -3  16  -4   88.20   29.24
   3 -16   4   25.54   23.86
  -3 -16  -4   17.35   29.96
   3  16   5  113.97   32.80
  -3  16  -5   87.35   36.63
   3 -16   5  128.29   26.10
  -3 -16  -5  135.41   33.49
   3  16   6   52.72   27.12
  -3  16  -6   40.80   27.95
   3 -16   6   32.98   21.54
  -3 -16  -6   73.42   29.73
   3  16   7   13.95   33.72
  -3  16  -7   32.23   32.89
   3 -16   7   47.70   30.37
  -3 -16  -7   60.91   28.99
   3  16   8  120.93   37.20
  -3  16  -8  114.39   40.92
   3 -16   8  130.69   41.06
  -3 -16  -8  173.43   38.49
   3  17  -9   71.60   33.90
  -3  17   9   35.07   31.93
  -3 -17   9   50.94   32.56
   3  17  -8   40.21   26.93
  -3  17   8  -13.57   26.45
  -3 -17   8   25.53   32.88
   3  17  -7  145.25   33.53
  -3  17   7   72.87   33.81
   3 -17  -7   38.17   25.31
  -3 -17   7   72.78   33.06
   3  17  -6  283.39   44.76
  -3  17   6  293.24   54.28
   3 -17  -6  278.47   39.45
  -3 -17   6  204.61   45.16
   3  17  -5  260.95   44.18
  -3  17   5  170.02   39.81
   3 -17  -5  223.11   33.20
  -3 -17   5  144.65   40.85
   3  17  -4  322.38   43.24
  -3  17   4  339.80   47.28
   3 -17  -4  292.99   49.85
  -3 -17   4  319.62   46.23
  -3  17   3 1003.89   94.56
   3  17  -3  983.65   71.89
  -3 -17   3  781.55   78.35
   3 -17  -3  935.11   77.61
   3  17  -2  135.30   27.80
  -3  17   2  189.83   31.00
   3 -17  -2  153.07   33.87
  -3 -17   2  174.77   42.42
   3  17  -1   41.25   24.76
  -3  17   1   95.52   27.53
  -3 -17   1   56.29   24.12
  -3 -17   1  118.68   26.01
   3 -17  -1   55.12   29.16
  -3  17   0  154.38   33.06
   3  17   0  104.82   23.06
   3  17   0  182.23   23.99
   3 -17   0  142.77   37.10
  -3 -17   0  204.66   25.99
   3  17   1  101.50   28.21
  -3  17  -1  106.04   22.39
   3 -17   1  219.16   35.51
  -3 -17  -1  166.30   27.73
   3 -17   1   85.57   21.63
   3  17   2   13.45   25.26
   3 -17   2   68.66   28.80
   3 -17   2   57.10   22.64
  -3 -17  -2   24.04   21.80
   3  17   3   31.52   25.05
  -3  17  -3   79.05   29.96
   3 -17   3   33.38   20.04
  -3 -17  -3   60.22   24.80
   3  17   4  108.35   33.43
  -3  17  -4  111.92   39.02
   3 -17   4  132.28   26.65
  -3 -17  -4  180.34   33.47
   3  17   5  176.05   46.33
  -3  17  -5  205.34   42.86
   3 -17   5  128.85   37.80
  -3 -17  -5  198.68   39.14
   3  17   6  260.26   45.55
  -3  17  -6  232.89   47.96
   3 -17   6  174.22   44.88
  -3 -17  -6  270.30   54.15
   3  18  -7  183.43   42.84
  -3  18   7  188.59   44.93
  -3 -18   7  174.54   41.66
   3  18  -6  -14.53   28.11
  -3  18   6   -9.50   27.26
   3 -18  -6   63.38   22.74
  -3 -18   6   43.13   27.93
  -3  18   5  293.85   55.37
   3  18  -5  280.70   44.20
  -3 -18   5  267.86   45.84
   3 -18  -5  304.44   42.42
  -3  18   4  180.10   45.93
   3  18  -4  191.09   39.50
  -3 -18   4  141.42   34.00
   3 -18  -4  129.34   34.58
   3  18  -3  431.52   46.11
  -3  18   3  316.62   47.08
   3 -18  -3  319.45   49.04
  -3 -18   3  366.34   49.23
   3  18  -2  442.43   47.88
  -3  18   2  516.52   60.93
   3 -18  -2  442.33   67.47
  -3 -18   2  502.63   56.79
  -3  18   1  130.89   28.79
   3  18  -1  146.37   30.75
  -3 -18   1   95.99   33.22
   3 -18  -1  174.33   36.70
   3  18   0  945.84   87.18
  -3  18   0  913.50   78.17
   3 -18   0  861.79   84.22
  -3 -18   0  665.02   64.42
   3  18   1  248.95   37.02
   3 -18   1  215.58   44.14
  -3 -18  -1  160.98   33.88
   3  18   2  177.50   34.17
   3 -18   2  105.85   41.44
  -3 -18  -2  150.71   38.46
   3  18   3  196.31   37.16
  -3  18  -3  204.53   42.97
  -3 -18  -3  161.65   45.66
   3  18   4  292.70   56.38
  -3  18  -4  258.54   63.06
  -3 -18  -4  314.61   46.60
   3  18   5  109.31   35.95
  -3  18  -5  154.65   40.38
  -3 -18  -5  121.65   37.23
   3  19  -4  174.18   43.69
  -3  19   4  184.57   39.47
   3 -19  -4  152.55   37.41
  -3 -19   4  176.84   38.82
  -3  19   3  104.40   33.69
   3  19  -3  178.63   32.54
  -3 -19   3  103.09   38.45
   3 -19  -3  159.18   35.51
  -3  19   2  109.88   32.02
   3 -19  -2  164.63   35.32
  -3 -19   2   84.60   34.41
   3 -19  -1  117.91   34.37
  -3 -19   1   76.30   32.10
   3  19   0  226.14   38.34
   3 -19   0  250.80   47.83
   3  19   1  321.48   46.55
   3 -19   1  292.15   53.04
   3  19   2   68.91   35.22
  -3  19  -2   31.41   33.00
  -3 -19  -2   55.23   25.98
   4   0 -17  191.38   51.20
  -4   0  17  194.72   38.91
   4   0 -16  100.07   30.43
  -4   0  16  101.96   29.57
   4   0 -15  105.51   33.93
  -4   0  15   66.32   25.76
   4   0 -14 1342.41   96.78
  -4   0  14 1327.49   98.51
  -4   0  14 1127.64   67.13
   4   0 -13  384.25   43.63
  -4   0  13  416.04   35.76
  -4   0  13  307.28   25.37
   4   0 -12  529.51   54.80
  -4   0  12  400.12   37.30
  -4   0  12  407.53   26.69
   4   0 -11   17.17   18.57
  -4   0  11    3.82   14.14
  -4   0  11   20.36   11.83
   4   0 -10   14.42   16.09
  -4   0  10   15.13   10.97
  -4   0  10   -7.93   12.12
   4   0  -9  -13.33   14.83
  -4   0   9    6.75    9.92
  -4   0   9   -6.80   10.36
   4   0  -8 1562.93   75.15
  -4   0   8 1512.04   57.01
  -4   0   8 1464.38   64.47
   4   0  -7 5329.48  223.04
  -4   0   7 5778.33  187.09
  -4   0   7 5192.07  173.18
   4   0  -6 2742.42  111.42
  -4   0   6 2860.99   90.36
  -4   0   6 2961.76   91.23
   4   0  -5   69.36   14.34
  -4   0   5   65.71    7.97
  -4   0   5   68.20   10.36
   4   0  -4   20.14   10.68
  -4   0   4   13.37    6.90
  -4   0   4   16.64   10.08
   4   0  -3 2294.96   79.62
  -4   0   3 2267.81   69.96
  -4   0   3 2368.30   57.21
   4   0  -220872.87  670.28
  -4   0   220342.78  688.56
  -4   0   220823.84  547.09
   4   0  -112641.94  332.31
   4   0  -112759.36  356.26
  -4   0   113240.99  417.89
   4   0   0 3506.18   88.09
   4   0   0 3556.87   99.08
  -4   0   0 3506.70  113.94
   4   0   1 3698.28   83.17
   4   0   1 3546.14  111.34
  -4   0  -1 3500.25  116.26
   4   0   2 6773.12  213.39
   4   0   2 5729.50  155.57
  -4   0  -2 6775.86  218.22
   4   0   3 2346.82   62.02
   4   0   3 2265.95   91.91
  -4   0  -3 2261.55   85.54
   4   0   4   20.08   14.51
  -4   0  -4   34.36   11.98
  -4   0  -4   34.44    7.55
   4   0   5  -13.84   13.40
  -4   0  -5    0.90   10.34
  -4   0  -5    3.20    6.61
   4   0   6 2114.05  105.13
  -4   0  -6 2162.52   72.29
  -4   0  -6 2307.34   97.60
   4   0   7  529.59   45.96
  -4   0  -7  555.71   27.84
  -4   0  -7  603.73   41.54
   4   0   8  550.99   50.95
  -4   0  -8  479.21   23.93
  -4   0  -8  548.96   38.28
   4   0   9  320.63   39.53
  -4   0  -9  265.51   19.16
  -4   0  -9  339.66   30.31
   4   0  10  410.75   47.56
  -4   0 -10  369.82   28.74
  -4   0 -10  453.12   40.41
   4   0  11  107.88   30.45
  -4   0 -11   56.72   17.56
  -4   0 -11   80.01   23.13
   4   0  12  375.22   51.46
  -4   0 -12  306.24   35.46
   4   0  13  134.99   38.45
  -4   0 -13  120.07   24.09
   4   0  14   29.05   31.94
   4   1 -17   47.91   28.95
  -4   1  17   40.02   27.77
   4  -1 -17  116.23   29.02
  -4  -1  17   47.30   28.78
   4   1 -16   83.99   29.15
  -4   1  16   71.61   26.86
   4  -1 -16   79.11   35.15
  -4  -1  16   55.81   27.93
   4   1 -15  299.60   43.04
  -4   1  15  186.29   30.05
  -4   1  15  251.81   35.15
  -4  -1  15  319.92   45.52
   4  -1 -15  257.20   39.25
  -4   1  14  454.72   34.62
   4   1 -14  523.90   54.13
  -4   1  14  464.41   45.81
   4  -1 -14  509.43   51.45
  -4  -1  14  499.54   47.34
   4   1 -13  118.64   29.46
  -4   1  13   93.59   22.07
  -4   1  13  173.30   29.45
  -4  -1  13   92.23   17.34
   4  -1 -13  134.76   29.55
  -4  -1  13  107.84   25.69
  -4   1  12   20.72   12.41
   4   1 -12   42.81   24.69
  -4   1  12   16.43   16.29
  -4  -1  12   13.91    9.57
   4  -1 -12   37.05   20.87
  -4  -1  12   41.67   17.03
  -4   1  11  717.57   45.39
   4   1 -11  791.16   59.16
  -4   1  11  785.92   46.87
   4  -1 -11  901.11   66.36
  -4  -1  11  737.19   37.04
  -4  -1  11  794.80   50.61
  -4   1  10 1637.40   70.94
   4   1 -10 1673.81   92.43
  -4   1  10 1607.97   71.76
   4  -1 -10 1785.05   98.73
  -4  -1  10 1362.50   73.86
  -4  -1  10 1585.61   60.39
   4   1  -9  461.28   37.57
  -4   1   9  481.87   26.71
  -4   1   9  492.47   27.79
  -4  -1   9  524.84   31.87
   4  -1  -9  483.89   37.54
  -4  -1   9  462.32   22.65
   4   1  -8  621.00   40.10
  -4   1   8  640.23   28.87
  -4   1   8  579.11   29.14
  -4  -1   8  558.51   26.48
   4  -1  -8  627.85   41.61
  -4  -1   8  547.15   35.14
   4   1  -7   83.42   16.87
  -4   1   7   49.08   10.88
  -4   1   7   59.54    9.49
  -4  -1   7   55.08    9.87
   4  -1  -7   61.66   16.06
  -4  -1   7   53.86   12.38
   4   1  -6  375.19   26.93
  -4   1   6  368.22   18.49
  -4   1   6  365.42   19.40
  -4  -1   6  320.93   22.86
   4  -1  -6  299.54   26.52
  -4  -1   6  322.09   18.82
   4   1  -5 2016.78   80.07
  -4   1   5 2165.59   75.97
   4  -1  -5 2072.36   79.93
  -4  -1   5 2023.35   66.85
  -4  -1   5 2035.75   58.56
   4   1  -410189.31  348.56
  -4   1   410622.51  244.55
  -4   1   410822.93  348.99
   4  -1  -4 9841.53  355.85
  -4  -1   410603.15  306.03
  -4  -1   410304.96  303.48
   4   1  -3    7.43    9.03
  -4   1   3   -7.59    8.39
  -4   1   3    3.30    4.02
  -4  -1   3  -10.50    7.20
   4  -1  -3   14.64    9.29
  -4  -1   3   -0.76    7.36
  -4   1   2 2357.52   76.15
   4   1  -2 2466.77   67.52
   4  -1  -2 2481.49   72.54
   4  -1  -2 2290.62   45.56
  -4  -1   2 2284.21   59.61
  -4  -1   2 2480.21   77.19
   4   1  -1 5327.02  129.04
   4   1  -1 5123.54  142.50
  -4   1   1 5118.27  160.79
   4  -1  -1 5277.92  117.14
   4  -1  -1 5087.26  142.37
  -4  -1   1 5154.79  158.65
   4   1   0  571.09   23.54
  -4   1   0  543.02   28.25
   4  -1   0  576.40   23.94
  -4  -1   0  636.54   27.16
   4  -1   0  592.25   19.66
   4   1   1 4180.35  132.38
  -4   1  -1 4244.40  140.67
   4   1   1 4597.95   93.55
   4  -1   1 4173.62  118.02
  -4  -1  -1 4371.12  142.99
   4  -1   1 4080.95  120.50
   4   1   2 1604.26   61.52
  -4   1  -2 1621.13   60.75
   4   1   2 1681.29   36.59
   4  -1   2 1596.56   57.97
  -4  -1  -2 1571.18   62.30
   4  -1   2 1680.06   52.41
   4   1   3 1685.86   67.57
  -4   1  -3 1699.95   62.26
   4   1   3 1736.94   39.96
   4  -1   3 1747.17   71.21
   4  -1   3 1883.31   57.31
  -4  -1  -3 1880.85   72.57
   4   1   4  284.71   21.95
  -4   1  -4  260.09   20.21
   4  -1   4  221.27   23.26
  -4  -1  -4  290.80   21.68
  -4  -1  -4  245.19   10.41
   4   1   5 2227.48   97.39
  -4   1  -5 2159.40   69.64
  -4   1  -5 2246.50   86.34
  -4  -1  -5 2092.58   56.27
   4  -1   5 2169.26   99.28
  -4  -1  -5 2397.73   95.83
   4   1   6  349.02   30.28
  -4   1  -6  367.05   21.21
  -4   1  -6  379.22   26.03
  -4  -1  -6  332.65   15.74
   4  -1   6  377.26   32.84
  -4  -1  -6  341.71   25.81
   4   1   7  531.49   47.29
  -4   1  -7  647.01   42.56
  -4   1  -7  615.76   31.76
  -4  -1  -7  555.01   24.36
   4  -1   7  621.49   45.55
  -4  -1  -7  688.73   45.59
   4   1   8 3245.56  183.60
  -4   1  -8 3012.56  120.06
  -4   1  -8 3443.04  154.84
   4  -1   8 3198.17  175.53
  -4  -1  -8 3419.53  170.38
  -4  -1  -8 2912.28  106.98
   4   1   9   71.32   26.13
  -4   1  -9   58.45   16.84
  -4   1  -9   89.14   17.15
   4  -1   9   98.14   25.69
  -4  -1  -9  102.63   24.29
  -4  -1  -9   63.73   13.11
   4   1  10  303.72   41.59
  -4   1 -10  190.02   21.16
  -4   1 -10  287.68   31.32
   4  -1  10  354.17   41.63
  -4  -1 -10  231.83   22.30
  -4  -1 -10  297.54   28.56
   4   1  11   32.47   28.16
  -4   1 -11  -12.27   14.14
  -4   1 -11    7.61   13.59
   4  -1  11   -5.55   22.07
  -4  -1 -11    4.43   14.66
  -4   1 -12  125.58   24.03
   4   1  12  158.54   41.42
  -4   1 -12  165.09   27.36
   4  -1  12  175.09   40.73
  -4  -1 -12  235.31   33.87
   4   1  13  157.92   37.64
  -4   1 -13  105.93   21.56
   4  -1  13  118.57   40.52
  -4  -1 -13  118.33   25.18
   4   1  14  111.20   35.11
   4  -1  14   41.20   37.79
  -4   2  17  110.37   32.29
   4   2 -17  115.00   38.02
  -4  -2  17  108.98   35.45
   4  -2 -17  161.94   33.52
   4   2 -16  338.41   51.66
  -4   2  16  390.52   45.76
   4  -2 -16  403.50   49.19
  -4  -2  16  359.33   50.33
  -4   2  15  561.93   55.39
   4   2 -15  455.92   53.60
  -4   2  15  392.02   43.88
  -4  -2  15  390.98   49.68
   4  -2 -15  486.22   51.03
   4   2 -14  537.08   66.09
  -4   2  14  462.31   38.04
  -4   2  14  540.90   51.98
  -4  -2  14  528.50   61.57
   4  -2 -14  496.47   48.92
  -4   2  13  562.90   42.26
   4   2 -13  555.49   54.76
  -4   2  13  524.84   38.20
  -4  -2  13  522.05   57.51
   4  -2 -13  509.46   50.53
   4   2 -12 3476.82  186.69
  -4   2  12 3323.45  152.01
  -4   2  12 3424.15  159.31
   4  -2 -12 3340.53  175.25
  -4  -2  12 2732.65  115.32
  -4  -2  12 2978.43  167.32
   4   2 -11  117.20   30.18
  -4   2  11  171.42   19.25
  -4   2  11  127.80   25.48
  -4  -2  11  192.78   30.27
   4  -2 -11  208.95   26.89
  -4  -2  11  163.86   14.07
   4   2 -10  795.69   55.10
  -4   2  10  767.10   40.34
  -4   2  10  822.56   45.90
   4  -2 -10  756.27   51.54
  -4  -2  10  753.80   46.51
  -4  -2  10  738.28   29.85
   4   2  -9  637.88   48.65
  -4   2   9  669.58   35.58
  -4   2   9  592.02   31.21
   4  -2  -9  675.73   43.99
  -4  -2   9  661.66   23.92
  -4  -2   9  667.58   47.00
   4   2  -8   75.87   19.97
  -4   2   8   69.96   14.58
  -4   2   8  101.15   13.75
  -4  -2   8   83.54    9.21
   4  -2  -8   77.20   17.93
  -4  -2   8  110.43   16.54
  -4   2   7  897.06   44.13
   4   2  -7  815.65   49.36
  -4   2   7  871.97   29.95
   4  -2  -7  858.47   47.74
  -4  -2   7  837.93   27.86
  -4  -2   7  928.69   40.35
  -4   2   6  129.83   14.05
   4   2  -6   87.21   17.95
  -4   2   6  108.46    9.74
  -4  -2   6   92.26    8.06
   4  -2  -6   81.91   16.67
  -4  -2   6   57.96   12.58
  -4   2   5 2933.48   65.97
   4   2  -5 2985.88  112.44
  -4   2   5 3004.15   99.76
   4  -2  -5 2827.24  107.03
  -4  -2   5 2899.36   76.40
  -4  -2   5 2968.98   93.57
   4   2  -4  640.20   31.24
  -4   2   4  611.19   29.41
   4  -2  -4  682.84   33.64
  -4  -2   4  717.30   26.43
  -4  -2   4  639.16   24.61
  -4   2   3  377.17   22.70
   4   2  -3  396.11   20.69
  -4  -2   3  393.71   19.69
   4  -2  -3  396.04   23.25
  -4  -2   3  387.77   17.77
   4   2  -2 6399.48  173.68
  -4   2   2 6150.22  196.79
  -4  -2   2 6108.15  181.97
  -4  -2   2 6492.68  189.28
   4  -2  -2 6356.19  200.54
   4   2  -117445.26  467.47
  -4   2   117161.40  584.26
   4  -2  -116506.65  372.30
   4  -2  -116672.58  547.90
  -4  -2   116679.93  531.47
  -4  -2   116579.86  551.50
   4   2   0 5118.48  157.51
   4   2   0 5084.96  105.28
  -4   2   0 5290.51  165.06
   4  -2   0 5270.96  130.33
   4  -2   0 5147.16  152.82
  -4  -2   0 4774.34  159.65
   4   2   1 1044.70   41.64
   4   2   1 1004.65   19.81
  -4   2  -1 1125.69   43.78
   4  -2   1 1079.24   34.77
   4  -2   1 1003.71   34.59
  -4  -2  -1 1089.01   43.78
   4   2   2 2196.21   79.23
   4   2   2 1947.78   30.46
  -4   2  -2 2075.87   73.93
   4  -2   2 2101.24   69.25
   4  -2   2 2170.62   65.71
  -4  -2  -2 1966.27   75.96
  -4   2  -3  427.94   27.68
   4   2   3  399.26   27.26
   4  -2   3  353.60   19.58
  -4  -2  -3  427.78   26.39
   4  -2   3  395.31   27.15
  -4   2  -4  222.13   17.06
   4   2   4  171.89   21.65
   4  -2   4  213.96   20.13
   4  -2   4  173.88   16.93
  -4  -2  -4  194.32   19.85
  -4  -2  -4  178.54    7.36
   4   2   5 2458.56  115.41
  -4   2  -5 2537.02   89.54
  -4   2  -5 2468.83   97.49
  -4  -2  -5 2704.49  109.86
   4  -2   5 2422.87  112.02
  -4   2  -6  661.82   38.86
   4   2   6  612.15   46.61
  -4   2  -6  646.16   34.37
   4  -2   6  695.42   53.47
  -4  -2  -6  683.78   39.91
  -4  -2  -6  621.56   19.64
   4   2   7   60.64   17.98
  -4   2  -7   24.61   14.62
  -4   2  -7   24.77   10.48
   4  -2   7   -1.93   18.35
  -4  -2  -7   26.85    7.38
  -4  -2  -7   37.41   17.85
   4   2   8 1376.26   86.95
  -4   2  -8 1451.02   66.48
  -4   2  -8 1284.36   67.84
  -4  -2  -8 1249.20   44.77
   4  -2   8 1356.44   85.66
  -4  -2  -8 1099.91   72.43
   4   2   9   83.40   25.84
  -4   2  -9  123.57   19.32
  -4   2  -9   79.54   14.94
   4  -2   9  126.32   26.71
  -4  -2  -9   88.68   21.36
  -4  -2  -9   52.19   12.74
   4   2  10  178.10   35.01
  -4   2 -10  218.86   23.13
  -4   2 -10  161.48   25.13
  -4  -2 -10  162.07   27.40
   4  -2  10  197.80   35.86
   4   2  11  215.28   38.33
  -4   2 -11  209.86   23.72
  -4   2 -11  218.05   29.44
   4  -2  11  157.51   40.05
  -4  -2 -11  205.99   35.67
   4   2  12   16.21   30.36
  -4   2 -12   -1.11   14.05
  -4   2 -12   21.37   13.30
   4  -2  12   72.77   34.05
  -4  -2 -12  -15.08   18.33
   4   2  13  101.07   33.40
   4  -2  13  107.58   35.81
  -4  -2 -13   52.53   24.47
   4   2  14  151.63   42.22
   4  -2  14  175.74   44.87
  -4  -2 -14  148.89   36.65
   4   3 -17   19.24   28.30
  -4   3  17   24.59   22.73
   4  -3 -17    2.24   24.06
  -4  -3  17   47.97   27.53
  -4   3  16  319.83   40.23
   4   3 -16  349.38   48.81
  -4   3  16  246.12   42.69
   4  -3 -16  280.42   41.29
  -4  -3  16  319.31   48.86
   4   3 -15  246.07   38.53
  -4   3  15  156.06   27.48
  -4   3  15  187.64   38.50
  -4  -3  15  246.83   39.99
   4  -3 -15  200.11   34.91
   4   3 -14  407.28   57.29
  -4   3  14  367.09   37.32
  -4   3  14  357.49   40.55
  -4  -3  14  295.40   43.96
   4  -3 -14  323.44   49.50
  -4   3  13  186.81   27.82
   4   3 -13  217.82   36.73
  -4   3  13  199.91   27.46
   4  -3 -13  296.56   33.83
  -4  -3  13  214.26   33.85
  -4   3  12  275.67   27.30
   4   3 -12  284.17   39.38
  -4   3  12  239.47   33.15
   4  -3 -12  275.84   34.14
  -4  -3  12  228.22   33.76
   4   3 -11 1676.11  101.02
  -4   3  11 1595.69   79.37
  -4   3  11 1676.48   86.66
  -4  -3  11 1416.61  100.10
   4  -3 -11 1615.38   89.31
  -4  -3  11 1369.21   50.41
   4   3 -10 1154.57   72.72
  -4   3  10 1124.10   51.26
  -4   3  10 1090.01   56.47
  -4  -3  10 1226.41   69.64
   4  -3 -10 1130.83   66.12
  -4  -3  10 1044.81   37.61
   4   3  -9  520.96   39.81
  -4   3   9  490.26   31.23
  -4   3   9  471.18   24.85
  -4  -3   9  425.03   17.39
   4  -3  -9  558.48   38.23
  -4  -3   9  459.49   35.49
  -4   3   8 1593.76   57.55
   4   3  -8 1646.02   81.85
  -4   3   8 1696.04   73.69
   4  -3  -8 1528.60   74.48
  -4  -3   8 1641.58   74.29
  -4  -3   8 1511.01   42.26
   4   3  -7   72.90   17.39
  -4   3   7   83.03   14.53
  -4   3   7   61.75    8.24
   4  -3  -7   93.94   16.40
  -4  -3   7   63.91    7.70
  -4  -3   7   81.52   16.53
   4   3  -6 3063.31  119.83
  -4   3   6 3010.11  111.85
  -4   3   6 2787.59   73.00
   4  -3  -6 3094.75  132.53
  -4  -3   6 2956.00  107.96
  -4  -3   6 2902.05   73.08
   4   3  -5 2169.96   84.37
  -4   3   5 2051.48   42.59
  -4   3   5 2383.65   83.47
  -4  -3   5 2133.73   57.62
   4  -3  -5 2299.81   87.37
  -4  -3   5 2239.58   77.85
   4   3  -4 2635.60   91.39
  -4   3   4 2614.56   90.89
  -4  -3   4 2519.85   69.66
  -4  -3   4 2655.03   86.72
   4  -3  -4 2702.28   98.82
   4   3  -3 4590.10  142.94
  -4   3   3 4393.72  155.25
   4  -3  -3 4839.50  164.42
  -4  -3   3 4603.66  129.35
  -4  -3   3 4800.56  148.92
   4   3  -2 5855.48  157.28
  -4   3   2 6128.85  199.05
   4  -3  -2 5629.00  188.53
  -4  -3   2 5652.25  163.98
  -4  -3   2 5671.44  181.74
   4   3  -1  444.98   16.63
  -4   3   1  413.79   23.77
   4  -3  -1  424.06   11.29
  -4  -3   1  444.98   20.99
  -4  -3   1  442.05   22.15
   4  -3  -1  397.36   22.01
   4   3   0 6364.45  206.01
   4   3   0 6535.46  137.32
  -4   3   0 6588.56  215.20
   4  -3   0 6309.11  157.69
   4  -3   0 6503.05  209.00
  -4  -3   0 6474.26  216.65
   4   3   1 2307.86   80.51
  -4   3  -1 2166.26   72.22
   4   3   1 2048.02   30.24
   4  -3   1 2043.75   65.98
   4  -3   1 2232.96   61.57
  -4  -3  -1 2201.87   78.51
   4   3   2 1736.91   72.09
  -4   3  -2 1768.18   64.30
   4  -3   2 1759.91   60.77
   4  -3   2 1760.92   64.16
  -4  -3  -2 1703.22   71.04
   4   3   3   17.77   12.70
  -4   3  -3   19.87   10.70
   4  -3   3   13.87    9.16
  -4  -3  -3   12.51   12.78
   4  -3   3   16.38   10.26
  -4   3  -4 1096.43   41.95
   4   3   4  880.47   50.70
   4  -3   4  930.06   47.55
  -4  -3  -4  994.48   50.59
   4  -3   4  990.40   47.97
   4   3   5  676.04   42.46
  -4   3  -5  771.73   35.17
  -4   3  -5  787.45   40.94
   4  -3   5  728.86   44.46
  -4  -3  -5  745.74   43.02
  -4   3  -6  382.01   29.14
   4   3   6  366.80   32.42
  -4   3  -6  342.94   23.81
   4  -3   6  331.04   33.83
  -4  -3  -6  428.52   32.80
   4   3   7  253.75   31.86
  -4   3  -7  253.81   20.19
  -4   3  -7  223.39   21.36
  -4  -3  -7  210.21   26.59
   4  -3   7  271.11   29.71
   4   3   8  641.38   59.20
  -4   3  -8  682.06   41.76
  -4   3  -8  759.34   39.57
   4  -3   8  736.98   58.47
  -4  -3  -8  710.50   51.40
   4   3   9  375.80   43.99
  -4   3  -9  342.17   31.65
  -4   3  -9  343.92   27.67
  -4  -3  -9  422.42   37.06
   4  -3   9  409.97   54.84
   4   3  10  266.08   44.53
  -4   3 -10  295.01   29.37
  -4   3 -10  310.80   31.17
   4  -3  10  374.63   49.20
  -4  -3 -10  312.12   36.39
   4   3  11 1314.23  102.09
  -4   3 -11 1262.62   74.42
  -4   3 -11 1193.47   73.71
   4  -3  11 1388.95  114.36
  -4  -3 -11 1414.51   92.17
   4   3  12  171.44   39.27
  -4   3 -12  125.41   28.59
   4  -3  12  175.56   49.35
  -4  -3 -12  177.95   31.15
   4   3  13  202.87   43.07
  -4   3 -13  181.18   33.51
   4  -3  13  227.42   46.51
  -4  -3 -13  224.22   33.57
   4   3  14   33.41   34.00
   4  -3  14   62.14   33.09
  -4  -3 -14   44.35   24.17
   4   4 -17  226.97   45.09
  -4   4  17  213.02   43.50
   4  -4 -17  184.44   36.99
  -4  -4  17  163.88   45.14
   4   4 -16  159.32   33.73
  -4   4  16   85.40   26.81
  -4   4  16   82.80   24.97
   4  -4 -16   72.00   29.35
  -4  -4  16  102.98   34.64
   4   4 -15   97.91   30.25
  -4   4  15    9.74   28.41
  -4   4  15   82.66   21.63
   4  -4 -15   48.65   30.63
  -4  -4  15  105.06   28.80
  -4   4  14  318.51   35.59
   4   4 -14  382.04   49.13
  -4   4  14  321.50   35.57
   4  -4 -14  329.85   37.81
  -4  -4  14  260.19   42.81
   4   4 -13  250.57   35.02
  -4   4  13  165.23   32.40
  -4   4  13  189.90   28.75
  -4  -4  13  136.87   32.69
   4  -4 -13  201.43   30.31
   4   4 -12   20.35   22.26
  -4   4  12   16.63   14.61
  -4   4  12   24.46   16.14
   4  -4 -12   -1.78   17.50
  -4  -4  12   25.31   24.01
   4   4 -11  563.80   49.89
  -4   4  11  499.61   33.30
  -4   4  11  484.57   38.93
  -4  -4  11  492.65   54.94
   4  -4 -11  478.28   49.86
  -4   4  10 1015.38   47.36
   4   4 -10 1019.65   67.95
  -4   4  10 1076.64   59.29
   4  -4 -10 1022.75   60.81
  -4  -4  10 1166.11   68.45
   4   4  -9  191.79   26.97
  -4   4   9  199.94   21.09
  -4   4   9  156.86   17.41
  -4  -4   9  212.27   24.44
   4  -4  -9  177.43   23.12
  -4  -4   9  161.66    8.25
   4   4  -8  302.86   31.09
  -4   4   8  347.41   25.42
  -4   4   8  333.76   19.84
  -4  -4   8  292.59   11.20
   4  -4  -8  367.55   28.92
  -4  -4   8  366.37   28.64
   4   4  -7  837.38   47.48
  -4   4   7  861.59   43.37
  -4   4   7  806.19   27.80
   4  -4  -7  841.51   46.24
  -4  -4   7  825.58   22.89
  -4  -4   7  808.32   41.66
   4   4  -6 2498.09  105.26
  -4   4   6 2571.61  102.65
  -4   4   6 2348.95   57.79
  -4  -4   6 2581.51   97.29
   4  -4  -6 2579.44  105.38
  -4  -4   6 2428.39   57.42
   4   4  -5 2961.62  115.00
  -4   4   5 3023.78  116.24
  -4   4   5 2855.04   54.54
   4  -4  -5 3087.64  116.33
  -4  -4   5 3093.68   76.34
  -4  -4   5 3045.30  111.63
   4   4  -4 3873.24  140.03
  -4   4   4 3864.59  137.13
  -4  -4   4 3443.73   92.04
  -4  -4   4 3521.88  129.59
   4  -4  -4 4017.34  145.43
   4   4  -3 1349.18   52.15
  -4   4   3 1372.14   55.40
   4  -4  -3 1274.84   53.97
  -4  -4   3 1338.07   40.30
  -4  -4   3 1350.57   52.86
   4   4  -2  383.59   16.56
  -4   4   2  445.76   25.03
   4  -4  -2  348.72   23.53
  -4  -4   2  363.43   22.56
  -4  -4   2  382.58   18.99
   4   4  -1 4172.50  113.05
  -4   4   1 4766.94  156.08
   4  -4  -1 4822.34   88.30
   4  -4  -1 5110.12  169.71
  -4  -4   1 4865.54  151.11
  -4  -4   1 4811.36  159.07
   4   4   0 2401.02   49.68
   4   4   0 2495.66   88.16
  -4   4   0 2433.39   83.55
   4  -4   0 2454.15   60.43
   4  -4   0 2338.94   83.16
  -4  -4   0 2364.86   84.12
  -4   4  -1 1935.78   67.89
   4   4   1 1929.72   72.41
   4  -4   1 1896.69   69.66
  -4  -4  -1 1967.53   75.68
   4  -4   1 2012.58   58.58
   4   4   2 2504.25  101.78
  -4   4  -2 2562.51   93.24
   4  -4   2 2585.96   95.18
  -4  -4  -2 2620.50  104.37
   4  -4   2 2716.43   87.54
   4   4   3  456.49   31.81
  -4   4  -3  454.79   29.03
   4  -4   3  408.88   25.44
  -4  -4  -3  421.41   29.48
   4  -4   3  432.67   26.75
   4   4   4  307.34   29.12
  -4   4  -4  294.78   20.71
   4  -4   4  395.35   27.58
   4  -4   4  319.52   30.05
  -4  -4  -4  313.65   26.04
  -4   4  -5  153.04   19.20
   4   4   5  210.82   24.39
  -4   4  -5  162.39   15.66
   4  -4   5  193.19   22.77
  -4  -4  -5  231.10   22.91
  -4   4  -6  816.02   38.46
   4   4   6  751.92   53.60
  -4   4  -6  748.29   42.36
   4  -4   6  764.00   49.44
  -4  -4  -6  798.73   49.44
   4   4   7  280.27   34.73
  -4   4  -7  288.08   30.83
  -4   4  -7  319.94   21.42
   4  -4   7  294.37   33.94
  -4  -4  -7  294.21   30.45
  -4   4  -8  617.42   38.61
   4   4   8  664.07   53.38
  -4   4  -8  589.69   41.91
   4  -4   8  593.16   54.98
  -4  -4  -8  635.69   46.65
   4   4   9 1097.73   87.41
  -4   4  -9  968.81   53.40
  -4   4  -9 1165.27   66.86
   4  -4   9 1224.21   88.73
  -4  -4  -9 1235.90   75.32
   4   4  10  969.49   84.99
  -4   4 -10  893.62   57.22
  -4   4 -10  978.65   64.70
   4  -4  10  998.04   83.95
  -4  -4 -10 1120.60   73.89
   4   4  11  171.60   34.22
  -4   4 -11  122.63   23.72
  -4   4 -11  116.93   20.46
   4  -4  11  130.24   34.84
  -4  -4 -11   84.29   28.94
   4   4  12  110.73   36.00
  -4   4 -12  120.17   29.62
   4  -4  12  145.82   37.93
  -4  -4 -12  133.10   34.34
   4   4  13  255.61   47.99
  -4   4 -13  221.21   39.72
   4  -4  13  264.64   44.68
  -4  -4 -13  160.76   42.88
   4   4  14   16.14   32.79
   4  -4  14   81.60   38.03
  -4  -4 -14   94.94   27.25
   4   5 -17   32.85   32.44
   4  -5 -17   34.79   25.57
  -4  -5  17   38.54   37.31
   4   5 -16  133.68   38.72
  -4   5  16  111.82   28.64
  -4   5  16  128.04   33.35
   4  -5 -16  127.34   31.90
  -4  -5  16  126.73   36.54
   4   5 -15  -38.03   25.60
  -4   5  15    1.10   23.20
  -4   5  15    4.66   21.76
   4  -5 -15   -5.98   20.64
  -4  -5  15  -37.53   23.40
  -4   5  14  161.20   34.40
   4   5 -14  107.27   36.93
  -4   5  14  228.23   31.43
   4  -5 -14  193.16   37.61
  -4  -5  14   98.16   34.16
   4   5 -13  503.97   54.33
  -4   5  13  439.49   42.85
  -4   5  13  447.25   37.71
  -4  -5  13  501.28   58.40
   4  -5 -13  433.90   52.75
   4   5 -12   20.69   23.56
  -4   5  12   92.27   20.99
  -4   5  12   47.76   19.12
  -4  -5  12   41.07   23.73
   4  -5 -12   25.32   21.23
   4   5 -11   85.36   24.36
  -4   5  11   68.30   21.40
  -4   5  11   69.39   14.70
   4  -5 -11   82.66   22.28
  -4  -5  11   93.66   23.84
   4   5 -10  571.51   51.36
  -4   5  10  654.74   37.98
  -4   5  10  611.54   46.67
   4  -5 -10  604.41   46.64
  -4  -5  10  599.59   50.33
   4   5  -9  305.31   31.24
  -4   5   9  245.15   18.26
  -4   5   9  276.70   28.36
  -4  -5   9  339.48   30.85
   4  -5  -9  299.11   34.59
   4   5  -8 1677.62   90.94
  -4   5   8 1723.37   60.47
  -4   5   8 1795.96   85.43
  -4  -5   8 1734.78   88.11
   4  -5  -8 1884.57   87.69
   4   5  -7   21.91   14.63
  -4   5   7   55.47   13.01
  -4   5   7   12.99    6.82
   4  -5  -7    9.75   13.91
  -4  -5   7   15.60   12.90
  -4  -5   7    8.18    3.33
   4   5  -6 1547.34   67.86
  -4   5   6 1498.86   37.33
  -4   5   6 1526.05   69.94
   4  -5  -6 1571.36   70.50
  -4  -5   6 1502.93   66.61
  -4  -5   6 1488.53   34.51
   4   5  -5 6220.60  242.08
  -4   5   5 5573.37  232.01
  -4   5   5 5784.56  110.72
   4  -5  -5 6230.22  243.12
  -4  -5   5 5698.54  142.56
  -4  -5   5 6031.07  232.00
   4   5  -4 1376.74   55.10
  -4   5   4 1379.41   61.20
   4  -5  -4 1387.21   61.21
  -4  -5   4 1375.81   39.97
  -4  -5   4 1439.41   61.38
   4   5  -3  903.65   34.27
  -4   5   3  810.62   40.35
  -4  -5   3  921.84   39.67
  -4  -5   3  817.39   29.27
   4  -5  -3  787.46   41.47
   4   5  -2 2049.09   59.10
  -4   5   2 2073.99   76.38
   4  -5  -2 1769.03   71.16
  -4  -5   2 1893.66   66.09
  -4  -5   2 2017.50   77.50
  -4   5   1 1830.82   70.33
   4   5  -1 1832.50   48.27
   4  -5  -1 1805.07   68.15
   4  -5  -1 1664.29   33.63
  -4  -5   1 1854.81   68.07
  -4  -5   1 1679.12   68.71
   4   5   0 1912.69   76.44
   4   5   0 2030.24   44.54
  -4   5   0 1935.99   70.76
   4  -5   0 1932.13   49.44
   4  -5   0 2093.24   77.95
  -4  -5   0 2072.10   74.84
   4   5   1 1737.23   72.66
  -4   5  -1 1821.38   65.64
   4   5   1 1785.12   29.95
   4  -5   1 1861.34   72.92
   4  -5   1 1860.74   57.57
  -4  -5  -1 1859.70   75.16
   4   5   2 4569.23  183.60
  -4   5  -2 4512.82  157.54
   4  -5   2 4581.72  174.26
  -4  -5  -2 4570.42  179.23
   4  -5   2 4492.46  146.05
   4   5   3 2664.34  120.34
  -4   5  -3 2723.01   97.59
   4  -5   3 2746.00  100.20
  -4  -5  -3 2825.54  118.67
   4  -5   3 2696.41  109.37
   4   5   4  487.77   34.94
  -4   5  -4  515.77   26.62
   4  -5   4  456.26   30.61
   4  -5   4  427.73   30.36
  -4  -5  -4  499.12   35.71
   4   5   5  128.62   21.26
  -4   5  -5   75.40   13.73
   4  -5   5  126.00   19.12
  -4  -5  -5  124.24   21.13
   4  -5   5  117.56   18.37
  -4   5  -6 1001.81   44.93
   4   5   6 1026.16   65.05
  -4   5  -6  977.78   53.63
   4  -5   6 1024.12   61.88
  -4  -5  -6 1021.73   64.95
  -4   5  -7  217.36   26.44
   4   5   7  222.81   32.30
  -4   5  -7  215.85   18.45
   4  -5   7  313.66   31.61
   4   5   8 1791.68  112.29
  -4   5  -8 1723.33   77.57
  -4   5  -8 1786.88   95.18
   4  -5   8 1804.23  124.64
  -4  -5  -8 1742.64  100.84
   4   5   9  215.44   36.47
  -4   5  -9  212.32   27.04
  -4   5  -9  189.61   22.49
   4  -5   9  250.24   36.95
  -4  -5  -9  254.76   32.73
   4   5  10  250.33   40.35
  -4   5 -10  195.53   21.96
  -4   5 -10  202.62   30.67
  -4  -5 -10  214.36   33.48
   4  -5  10  179.65   38.34
   4   5  11  551.57   66.46
  -4   5 -11  574.37   56.84
   4  -5  11  697.10   78.39
  -4  -5 -11  618.24   56.11
   4   5  12   -0.41   28.17
  -4   5 -12   23.30   21.32
   4  -5  12   49.54   29.45
  -4  -5 -12   84.90   24.29
   4   5  13  -27.83   31.09
  -4   5 -13   52.40   21.02
   4  -5  13   50.67   33.08
  -4  -5 -13   50.55   25.41
   4   5  14   68.57   31.89
   4  -5  14    1.61   41.44
  -4  -5 -14   39.96   32.92
   4   6 -16  209.15   41.02
  -4   6  16  137.97   32.78
  -4   6  16  114.00   36.84
  -4  -6  16  165.16   40.98
   4  -6 -16  133.04   38.48
   4   6 -15  121.38   36.28
  -4   6  15  148.40   31.41
  -4   6  15  105.21   30.46
   4  -6 -15  199.13   30.91
  -4  -6  15  125.02   37.13
   4   6 -14  426.71   50.90
  -4   6  14  297.99   41.13
  -4   6  14  353.40   42.37
  -4  -6  14  365.71   51.02
   4  -6 -14  332.64   39.69
   4   6 -13  339.72   44.88
  -4   6  13  327.82   36.52
  -4   6  13  249.12   37.35
  -4  -6  13  357.98   46.18
   4  -6 -13  294.43   43.82
   4   6 -12  476.55   51.56
  -4   6  12  347.60   32.02
  -4   6  12  453.32   38.83
  -4  -6  12  471.56   49.46
   4  -6 -12  515.56   41.32
   4   6 -11  803.76   66.85
  -4   6  11  810.86   50.01
   4  -6 -11  713.25   55.09
  -4  -6  11  796.18   62.93
   4   6 -10 1369.21   84.27
  -4   6  10 1373.03   81.19
  -4   6  10 1359.93   64.79
  -4  -6  10 1311.08   87.59
   4  -6 -10 1293.90   77.34
   4   6  -9  541.64   46.01
  -4   6   9  596.95   45.23
  -4   6   9  543.09   29.54
  -4  -6   9  541.03   45.84
   4  -6  -9  514.52   41.61
   4   6  -8 1085.68   63.30
  -4   6   8 1047.81   39.33
  -4   6   8 1022.75   62.22
   4  -6  -8 1126.75   61.83
  -4  -6   8 1180.02   68.00
   4   6  -7  603.67   40.06
  -4   6   7  577.79   38.69
  -4   6   7  602.34   22.58
  -4  -6   7  532.44   38.63
   4  -6  -7  519.17   37.81
   4   6  -6  509.10   32.50
  -4   6   6  551.81   35.53
   4  -6  -6  606.19   40.56
  -4  -6   6  481.27   13.56
  -4  -6   6  608.13   34.62
   4   6  -5 2269.71   95.02
  -4   6   5 2237.03   96.48
  -4   6   5 2129.00   40.95
   4  -6  -5 2382.37   97.46
  -4  -6   5 2289.23   96.51
  -4  -6   5 2245.30   56.16
   4   6  -4 1142.21   48.23
  -4   6   4 1325.31   58.34
   4  -6  -4 1210.71   55.26
  -4  -6   4 1192.15   36.40
  -4  -6   4 1173.63   57.33
   4   6  -3 1228.02   44.84
  -4   6   3 1234.92   57.01
  -4  -6   3 1231.96   43.05
  -4  -6   3 1315.88   58.30
   4  -6  -3 1297.11   56.49
   4   6  -2 5016.58  147.26
  -4   6   2 4751.58  182.59
   4  -6  -2 4825.93  190.38
  -4  -6   2 4780.67  185.85
  -4  -6   2 4646.17  152.89
   4   6  -1 3612.12   99.05
  -4   6   1 3678.10  132.91
   4  -6  -1 3674.10  141.63
  -4  -6   1 3656.31  123.99
  -4  -6   1 3631.61  140.53
   4   6   0 1119.79   28.88
  -4   6   0 1073.88   45.21
   4  -6   0 1012.73   30.53
   4  -6   0 1024.93   50.32
  -4  -6   0 1086.96   50.80
  -4  -6   0 1077.27   46.80
   4   6   1  762.18   40.01
   4   6   1  713.17   16.60
  -4   6  -1  783.71   34.73
   4  -6   1  719.10   40.70
   4  -6   1  705.10   25.52
  -4  -6  -1  781.40   37.98
   4   6   2 2127.33   89.08
  -4   6  -2 1947.18   79.52
   4  -6   2 2003.79   69.63
   4  -6   2 2049.06   88.17
  -4  -6  -2 2127.95   92.95
   4   6   3  774.27   48.15
  -4   6  -3  768.78   39.78
   4  -6   3  802.77   43.55
   4  -6   3  815.69   36.91
  -4  -6  -3  802.94   46.70
  -4   6  -4   36.57   10.66
   4   6   4   29.54   16.44
   4  -6   4   57.78   14.64
  -4  -6  -4   36.02   17.59
   4  -6   4   24.24   13.33
  -4   6  -5  536.04   30.15
   4   6   5  559.68   43.17
   4  -6   5  504.88   43.63
  -4  -6  -5  523.40   41.56
   4  -6   5  521.24   36.42
   4   6   6 1537.14   96.19
  -4   6  -6 1704.22   70.56
  -4   6  -6 1601.12   85.05
   4  -6   6 1619.31   97.02
  -4  -6  -6 1569.90   91.73
   4   6   7 1454.10   93.66
  -4   6  -7 1409.80   68.27
  -4   6  -7 1525.85   85.93
  -4  -6  -7 1523.80   90.82
   4  -6   7 1539.11  102.17
   4   6   8  473.74   50.35
  -4   6  -8  548.43   44.16
  -4   6  -8  463.29   32.08
   4  -6   8  585.01   47.86
  -4  -6  -8  503.35   47.01
  -4   6  -9   99.82   14.06
   4   6   9  108.77   30.75
  -4   6  -9  115.22   23.25
   4  -6   9  130.79   28.23
  -4  -6  -9  160.94   28.29
   4   6  10  258.04   37.90
  -4   6 -10  215.23   31.66
   4  -6  10  201.05   40.94
  -4  -6 -10  237.01   37.01
   4   6  11   -2.72   23.31
  -4   6 -11    9.94   24.01
   4  -6  11   25.70   23.71
  -4  -6 -11    8.29   20.65
   4   6  12  270.89   43.02
  -4   6 -12  218.65   42.27
   4  -6  12  196.73   44.20
  -4  -6 -12  223.29   45.47
   4   6  13   93.11   35.08
  -4   6 -13   93.05   31.46
   4  -6  13   70.93   36.46
  -4  -6 -13   75.71   30.93
   4   7 -16   51.35   29.88
  -4   7  16   24.52   23.08
   4  -7 -16    3.20   21.99
  -4  -7  16   38.69   29.94
   4   7 -15   23.84   26.45
  -4   7  15    5.84   20.78
  -4   7  15    0.95   20.88
  -4  -7  15  -10.91   24.54
   4  -7 -15   29.52   19.92
   4   7 -14  133.73   34.59
  -4   7  14  112.15   27.29
  -4   7  14  100.83   26.64
  -4  -7  14  105.50   35.36
   4  -7 -14  104.80   27.78
   4   7 -13  709.98   58.87
  -4   7  13  553.96   43.18
   4  -7 -13  520.69   51.51
  -4  -7  13  534.37   60.82
   4   7 -12    5.19   20.41
  -4   7  12    5.45   13.00
  -4   7  12    4.44   12.67
   4  -7 -12   28.33   17.29
  -4  -7  12   23.06   21.17
   4   7 -11 1409.24   99.26
  -4   7  11 1383.66   73.88
   4  -7 -11 1371.00   86.90
  -4  -7  11 1444.62   96.07
   4   7 -10  391.21   40.26
  -4   7  10  309.86   21.34
  -4   7  10  238.19   26.83
   4  -7 -10  387.31   33.64
  -4  -7  10  306.79   38.82
   4   7  -9  918.25   65.28
  -4   7   9 1031.60   46.35
  -4   7   9 1121.45   70.68
  -4  -7   9 1243.59   74.38
   4  -7  -9 1117.58   67.42
   4   7  -8  436.29   35.74
  -4   7   8  362.82   19.47
  -4   7   8  449.25   39.45
   4  -7  -8  412.05   32.91
  -4  -7   8  359.59   35.41
   4   7  -7  620.79   41.71
  -4   7   7  593.42   39.32
  -4   7   7  594.76   21.71
  -4  -7   7  608.38   42.65
   4  -7  -7  633.64   40.70
   4   7  -6 1974.96   91.32
  -4   7   6 2011.06   96.31
  -4   7   6 1910.41   48.28
   4  -7  -6 2119.84   93.18
  -4  -7   6 1858.54   41.93
  -4  -7   6 2092.53   95.56
   4   7  -5  630.64   36.88
  -4   7   5  642.33   15.64
  -4   7   5  699.38   42.71
   4  -7  -5  709.35   41.00
  -4  -7   5  732.01   43.22
  -4  -7   5  646.84   20.69
   4   7  -4  130.18   15.57
  -4   7   4  116.26   19.00
  -4   7   4  121.53    5.38
   4  -7  -4  152.35   18.70
  -4  -7   4  154.70   10.72
  -4  -7   4  146.61   19.58
   4   7  -3 1619.13   57.11
  -4   7   3 1425.40   73.28
   4  -7  -3 1449.07   69.21
  -4  -7   3 1459.79   51.82
  -4  -7   3 1470.75   70.63
   4   7  -2  793.39   30.13
  -4   7   2  849.75   41.26
   4  -7  -2  775.84   18.95
   4  -7  -2  800.55   41.64
  -4  -7   2  773.08   43.93
  -4  -7   2  804.09   33.73
  -4   7   1 4394.45  166.85
   4   7  -1 4380.10  125.28
   4  -7  -1 3926.31  163.63
   4  -7  -1 4012.32  102.75
  -4  -7   1 4389.55  162.33
  -4  -7   1 4249.44  175.19
   4   7   0  531.77   18.11
  -4   7   0  512.29   28.85
   4  -7   0  466.30   18.81
   4  -7   0  463.17   30.31
  -4  -7   0  540.06   34.89
  -4  -7   0  462.22   31.99
   4   7   1 2381.50  105.68
   4   7   1 2378.78   54.29
  -4   7  -1 2599.19  101.91
   4  -7   1 2497.72  109.69
  -4  -7  -1 2524.69  103.81
   4  -7   1 2407.09   79.37
   4   7   2 1628.66   29.01
   4   7   2 1816.70   83.39
  -4   7  -2 1739.45   64.95
   4  -7   2 1710.63   78.53
  -4  -7  -2 1854.20   83.18
   4  -7   2 1689.96   62.67
  -4   7  -3  175.05   19.77
   4   7   3  237.16   25.54
   4  -7   3  213.47   19.11
   4  -7   3  237.07   23.99
  -4  -7  -3  233.24   26.77
  -4   7  -4 1060.97   50.82
   4   7   4 1040.20   61.86
   4  -7   4 1012.40   60.34
   4  -7   4 1081.54   52.34
  -4  -7  -4 1046.75   63.58
   4   7   5 4948.17  251.38
  -4   7  -5 5149.65  202.03
   4  -7   5 5034.24  244.16
   4  -7   5 4856.52  239.75
  -4  -7  -5 4784.81  245.19
   4   7   6 2242.82  126.70
  -4   7  -6 2246.99   89.39
  -4   7  -6 2340.61  122.60
  -4  -7  -6 2194.54  125.53
   4  -7   6 2237.00  120.00
   4   7   7 2246.27  130.97
  -4   7  -7 2250.79   96.44
  -4   7  -7 2235.82  127.53
   4  -7   7 2423.63  132.08
  -4  -7  -7 2132.44  136.21
  -4   7  -8    2.05   10.24
   4   7   8   44.57   19.46
  -4   7  -8    7.36   17.33
   4  -7   8   23.50   19.45
  -4  -7  -8  -26.41   21.03
   4   7   9   87.09   30.55
  -4   7  -9   92.70   23.75
   4  -7   9   78.67   28.39
  -4  -7  -9  132.17   33.36
   4   7  10   31.38   26.98
  -4   7 -10   59.95   22.75
   4  -7  10   18.24   27.27
  -4  -7 -10   72.99   25.17
   4   7  11  368.62   54.35
  -4   7 -11  371.60   43.68
   4  -7  11  364.84   50.72
  -4  -7 -11  326.40   45.72
   4   7  12  296.47   47.83
  -4   7 -12  224.66   42.18
   4  -7  12  280.83   52.03
  -4  -7 -12  361.84   47.12
   4   7  13   94.84   32.86
  -4   7 -13   10.07   33.93
   4  -7  13   69.97   35.44
  -4  -7 -13   72.49   34.16
   4   8 -16  250.47   53.14
  -4   8  16  312.57   51.73
  -4  -8  16  260.30   52.22
   4   8 -15  119.07   36.75
  -4   8  15   70.35   30.27
   4  -8 -15  115.97   34.45
  -4  -8  15  104.39   35.88
   4   8 -14  119.19   34.30
  -4   8  14   99.26   31.77
   4  -8 -14  127.14   33.79
  -4  -8  14  123.35   34.58
   4   8 -13  114.88   29.87
  -4   8  13   46.89   17.71
  -4   8  13   45.04   17.25
   4  -8 -13   68.39   22.76
  -4  -8  13   71.39   30.02
   4   8 -12  229.51   36.85
  -4   8  12  138.96   23.36
   4  -8 -12  164.62   28.82
  -4  -8  12  215.03   34.65
   4   8 -11 1461.69  104.07
  -4   8  11 1358.96   70.43
   4  -8 -11 1446.90   91.24
  -4  -8  11 1443.90  106.96
   4   8 -10   11.15   21.21
  -4   8  10   21.52   13.72
  -4   8  10   37.72   14.48
  -4  -8  10   34.79   27.29
   4  -8 -10   54.05   18.81
  -4   8   9  385.38   23.48
   4   8  -9  356.43   38.12
  -4   8   9  388.19   38.99
  -4  -8   9  331.70   43.44
   4  -8  -9  385.98   35.82
   4   8  -8  439.38   38.77
  -4   8   8  496.60   41.54
  -4   8   8  405.18   22.04
  -4  -8   8  487.13   42.23
   4  -8  -8  488.91   35.77
  -4   8   7  244.23   28.60
   4   8  -7  234.35   27.71
  -4   8   7  226.74   13.40
   4  -8  -7  260.09   26.57
  -4  -8   7  301.60   30.65
   4   8  -6  184.29   23.49
  -4   8   6  176.71    9.72
  -4   8   6  195.85   22.78
  -4  -8   6  176.91   25.03
   4  -8  -6  170.48   22.55
   4   8  -5  354.80   27.65
  -4   8   5  327.33   10.88
  -4   8   5  395.43   32.00
   4  -8  -5  314.98   27.83
  -4  -8   5  333.29   14.50
  -4  -8   5  276.47   31.18
   4   8  -4 1304.88   58.42
  -4   8   4 1379.68   69.66
   4  -8  -4 1291.04   62.92
  -4  -8   4 1230.67   40.71
  -4  -8   4 1366.05   78.69
  -4   8   3 1647.97   77.25
   4   8  -3 1566.30   61.60
  -4  -8   3 1589.55   57.66
   4  -8  -3 1591.03   78.41
  -4  -8   3 1559.91   76.49
   4   8  -2 1008.30   41.67
  -4   8   2 1006.02   50.94
   4  -8  -2  930.74   25.02
  -4  -8   2 1005.09   52.71
  -4  -8   2 1027.97   44.90
   4  -8  -2  898.94   52.29
  -4   8   1 3074.46  125.96
   4   8  -1 3069.45   93.71
   4  -8  -1 2834.00  122.98
   4  -8  -1 2943.28   80.26
  -4  -8   1 3082.77  132.04
  -4  -8   1 3056.13  115.89
   4   8   0  690.09   24.63
  -4   8   0  689.84   36.82
   4  -8   0  643.36   22.69
   4  -8   0  692.17   42.94
  -4  -8   0  703.58   37.23
  -4  -8   0  690.90   41.63
   4   8   1 1361.31   68.92
   4   8   1 1436.83   37.79
  -4   8  -1 1385.89   58.44
   4  -8   1 1428.39   73.38
  -4  -8  -1 1504.93   76.92
   4  -8   1 1315.42   49.06
   4   8   2 2274.40   51.49
   4   8   2 2567.82  114.18
  -4   8  -2 2439.97   97.20
   4  -8   2 2450.59   87.23
   4  -8   2 2378.04  112.97
  -4  -8  -2 2373.61  109.77
  -4   8  -3 1348.41   55.94
   4   8   3 1352.16   74.62
   4  -8   3 1358.78   64.45
   4  -8   3 1322.44   74.13
  -4  -8  -3 1385.10   73.06
   4   8   4  315.25   36.98
  -4   8  -4  391.47   27.19
   4  -8   4  380.05   34.77
   4  -8   4  360.45   28.00
  -4  -8  -4  378.54   35.81
   4   8   5 1727.55  101.85
  -4   8  -5 1547.87   68.56
   4  -8   5 1644.62   91.62
   4  -8   5 1556.54   83.05
  -4  -8  -5 1553.04   94.43
   4   8   6  464.06   41.88
  -4   8  -6  409.97   40.23
  -4   8  -6  385.65   27.24
   4  -8   6  395.44   36.74
  -4  -8  -6  385.33   43.72
  -4   8  -7   72.83   12.13
   4   8   7   89.90   26.52
  -4   8  -7   60.59   27.97
  -4  -8  -7   83.23   24.90
   4  -8   7  109.59   22.75
   4   8   8  766.81   64.77
  -4   8  -8  856.47   64.44
   4  -8   8  772.79   63.25
  -4  -8  -8  812.16   65.58
   4   8   9  311.07   43.95
  -4   8  -9  268.25   37.69
   4  -8   9  397.99   44.39
  -4  -8  -9  355.48   43.84
   4   8  10  158.91   36.12
  -4   8 -10  176.67   39.34
   4  -8  10  207.76   44.43
  -4  -8 -10  186.90   35.41
   4   8  11  153.52   37.76
  -4   8 -11  180.53   41.62
   4  -8  11  149.67   39.17
  -4  -8 -11  160.85   36.65
   4   8  12  222.13   48.25
  -4   8 -12  267.88   44.30
   4  -8  12  305.33   52.34
  -4  -8 -12  297.08   47.60
  -4   8 -13  349.08   51.01
   4   8  13  370.18   56.22
  -4  -8 -13  309.20   53.12
   4  -8  13  376.52   59.38
   4   9 -15  172.85   46.55
  -4   9  15  218.10   39.84
  -4  -9  15  203.54   56.99
   4   9 -14  192.68   46.52
  -4   9  14  239.28   38.89
   4  -9 -14  221.44   40.61
  -4  -9  14  194.88   45.10
   4   9 -13  230.72   45.00
  -4   9  13  234.88   38.05
   4  -9 -13  243.32   34.44
  -4  -9  13  215.52   42.60
   4   9 -12   12.93   24.81
  -4   9  12   21.65   15.37
  -4   9  12   23.71   15.16
   4  -9 -12   17.07   19.32
  -4  -9  12   51.00   26.21
   4   9 -11  658.91   59.82
  -4   9  11  570.56   34.30
  -4   9  11  520.28   45.44
   4  -9 -11  717.45   50.90
  -4  -9  11  715.22   66.00
   4   9 -10  603.22   55.26
  -4   9  10  649.87   56.25
  -4   9  10  564.30   34.91
   4  -9 -10  749.89   51.48
  -4  -9  10  586.02   59.78
   4   9  -9  935.19   64.93
  -4   9   9  858.88   41.31
  -4   9   9  872.73   68.39
   4  -9  -9  912.49   60.57
  -4  -9   9  933.83   73.09
   4   9  -8  338.82   35.65
  -4   9   8  334.61   35.62
  -4   9   8  300.78   18.93
   4  -9  -8  371.70   32.83
  -4  -9   8  393.51   39.89
   4   9  -7  891.80   62.07
  -4   9   7  834.27   59.85
   4  -9  -7  986.76   56.25
  -4  -9   7  915.47   64.51
   4   9  -6 1136.60   64.79
  -4   9   6 1301.09   73.49
  -4   9   6 1081.77   32.22
   4  -9  -6 1036.93   59.90
  -4  -9   6 1168.56   71.26
   4   9  -5  292.67   27.89
  -4   9   5  247.16   32.35
  -4  -9   5  354.26   30.19
  -4  -9   5  264.66   13.23
   4  -9  -5  300.94   27.86
   4   9  -4   -5.76   10.71
  -4   9   4   -0.26   14.55
   4  -9  -4  -13.62   13.60
  -4  -9   4    5.00    7.06
  -4  -9   4   -4.85   13.42
  -4   9   3 1390.02   72.09
   4   9  -3 1398.98   64.86
  -4  -9   3 1398.79   75.32
   4  -9  -3 1308.33   69.93
  -4  -9   3 1353.15   49.71
   4   9  -2  512.56   24.96
  -4   9   2  460.52   32.56
   4  -9  -2  419.81   17.09
  -4  -9   2  471.58   36.62
  -4  -9   2  461.24   28.39
   4  -9  -2  433.32   33.92
   4   9  -1  354.06   18.03
  -4   9   1  361.86   27.00
   4  -9  -1  313.95   16.53
   4  -9  -1  320.50   29.34
  -4  -9   1  306.12   22.55
  -4  -9   1  311.18   28.03
   4   9   0  791.37   31.13
  -4   9   0  839.17   41.90
   4  -9   0  713.95   30.33
  -4  -9   0  747.16   46.72
  -4  -9   0  816.84   49.18
   4  -9   0  731.65   48.40
   4   9   1 2014.67   99.58
  -4   9  -1 2033.16   90.20
   4   9   1 2122.02   61.32
   4  -9   1 1911.88   68.98
   4  -9   1 2116.04  106.25
  -4  -9  -1 2024.44   94.23
   4   9   2  607.49   19.48
   4   9   2  672.82   44.67
  -4   9  -2  641.53   32.53
   4  -9   2  663.25   33.89
   4  -9   2  595.68   43.62
  -4  -9  -2  642.76   41.64
  -4   9  -3  115.47   17.71
   4   9   3  105.96   23.51
   4  -9   3  104.39   18.69
   4  -9   3   92.66   22.65
  -4  -9  -3  117.42   22.34
  -4   9  -4 1144.09   49.61
   4   9   4 1197.94   75.45
   4  -9   4 1077.15   58.74
   4  -9   4 1140.75   75.27
  -4  -9  -4 1169.76   71.80
   4   9   5 1171.45   81.02
  -4   9  -5 1148.52   57.16
   4  -9   5 1096.39   78.13
   4  -9   5 1258.73   66.20
  -4  -9  -5 1258.01   80.72
   4   9   6  189.57   30.94
  -4   9  -6  170.29   19.52
  -4   9  -6  151.51   28.85
  -4  -9  -6  176.00   32.40
   4  -9   6  186.27   31.95
  -4   9  -7  147.25   30.42
   4   9   7  201.21   31.79
  -4   9  -7  144.91   17.43
   4  -9   7  212.98   29.25
  -4  -9  -7  155.08   31.80
   4   9   8  489.66   54.93
  -4   9  -8  534.11   53.33
   4  -9   8  545.45   58.31
  -4  -9  -8  558.24   56.73
   4   9   9  110.01   33.84
  -4   9  -9  113.93   35.45
   4  -9   9  172.94   31.58
  -4  -9  -9  112.13   33.78
   4   9  10  249.31   40.59
  -4   9 -10  174.16   45.72
   4  -9  10  205.80   38.65
  -4  -9 -10  208.88   40.82
   4   9  11  508.22   64.75
  -4   9 -11  516.51   61.34
   4  -9  11  558.78   63.92
  -4  -9 -11  632.60   78.93
   4   9  12  227.41   45.36
  -4   9 -12  225.48   42.56
   4  -9  12  196.94   45.01
  -4  -9 -12  166.95   50.62
   4  10 -15  193.21   47.77
  -4  10  15  207.06   40.74
  -4 -10  15  125.67   43.62
   4  10 -14  164.13   44.46
  -4  10  14  167.17   37.26
   4 -10 -14  138.38   30.82
  -4 -10  14  137.46   48.70
   4  10 -13   16.52   31.16
  -4  10  13   90.14   27.97
   4 -10 -13   76.88   22.67
  -4 -10  13   35.82   33.12
   4  10 -12  147.45   34.40
  -4  10  12  131.08   33.43
   4 -10 -12  129.41   27.57
  -4 -10  12  128.18   34.35
   4  10 -11  553.07   57.07
  -4  10  11  506.28   54.78
   4 -10 -11  505.16   44.99
  -4 -10  11  512.24   59.51
   4  10 -10  205.63   35.74
  -4  10  10  237.60   35.74
   4 -10 -10  141.22   28.03
  -4 -10  10  212.18   36.38
   4  10  -9 1028.65   76.09
  -4  10   9 1125.54   93.25
  -4  10   9  957.57   45.53
   4 -10  -9 1082.69   68.29
  -4 -10   9 1081.04   83.90
   4  10  -8  525.65   45.09
  -4  10   8  435.59   24.42
  -4  10   8  444.13   45.96
  -4 -10   8  476.86   47.96
   4 -10  -8  443.12   46.36
   4  10  -7  286.87   40.81
  -4  10   7  261.90   32.39
  -4  10   7  235.47   14.98
   4 -10  -7  293.08   29.39
  -4 -10   7  313.87   35.16
   4  10  -6  281.86   29.91
  -4  10   6  266.62   35.23
   4 -10  -6  253.55   28.77
  -4 -10   6  217.52   33.49
   4  10  -5  563.06   38.32
  -4  10   5  466.87   17.61
  -4  10   5  577.73   45.56
   4 -10  -5  511.01   40.34
  -4 -10   5  499.15   44.04
  -4 -10   5  483.96   23.18
   4  10  -4  163.19   19.71
  -4  10   4  137.78   26.45
  -4  10   4  145.59   10.78
   4 -10  -4  155.01   22.59
  -4 -10   4  125.53   25.00
  -4 -10   4  157.95   14.05
   4  10  -3  368.53   24.69
  -4  10   3  380.71   33.55
  -4  10   3  299.89   15.04
  -4 -10   3  351.01   33.55
   4 -10  -3  384.48   31.50
  -4 -10   3  332.15   19.84
   4  10  -2  308.93   24.49
  -4  10   2  226.00   33.30
  -4 -10   2  279.49   29.96
  -4 -10   2  276.04   19.75
   4 -10  -2  298.57   28.79
   4  10  -1 1552.20   57.46
  -4  10   1 1255.95   71.88
   4 -10  -1 1449.73   50.21
   4 -10  -1 1497.71   81.39
  -4 -10   1 1419.47   80.64
  -4 -10   1 1510.70   73.04
   4  10   0 1755.34   60.71
  -4  10   0 1742.24   77.95
   4 -10   0 1621.33   63.07
   4 -10   0 1835.32   94.32
  -4 -10   0 1755.84   90.48
  -4 -10   0 1729.81   80.49
   4  10   1  456.86   45.41
   4  10   1  485.64   22.38
  -4  10  -1  484.02   30.40
   4 -10   1  488.36   39.28
  -4 -10  -1  517.83   37.18
   4 -10   1  450.74   23.90
   4  10   2  474.31   19.31
   4  10   2  546.81   41.54
  -4  10  -2  543.63   29.01
   4 -10   2  416.66   26.46
   4 -10   2  454.88   42.45
  -4 -10  -2  495.61   38.97
   4  10   3 2074.30  111.87
  -4  10  -3 1850.63   80.93
   4 -10   3 2030.89   87.06
   4 -10   3 2076.82  113.74
  -4 -10  -3 2176.91  116.48
   4  10   4  383.62   41.49
  -4  10  -4  356.95   28.01
   4 -10   4  392.67   30.40
   4 -10   4  374.69   42.43
  -4 -10  -4  430.53   49.17
  -4  10  -5  587.16   36.22
   4  10   5  591.22   54.02
   4 -10   5  598.81   43.75
   4 -10   5  549.61   51.26
  -4 -10  -5  608.62   62.33
   4  10   6  837.93   67.78
  -4  10  -6  731.67   44.65
  -4  10  -6  773.61   64.74
  -4 -10  -6  912.98   66.67
   4 -10   6  831.71   57.28
   4  10   7  493.94   56.34
  -4  10  -7  558.68   50.10
   4 -10   7  551.42   49.82
  -4 -10  -7  586.48   56.28
   4  10   8  157.13   33.24
  -4  10  -8   46.77   24.77
   4 -10   8   11.70   24.38
  -4 -10  -8   98.32   27.69
   4  10   9  294.37   46.74
  -4  10  -9  285.32   45.67
   4 -10   9  338.02   43.90
  -4 -10  -9  336.32   45.02
   4  10  10  129.98   35.19
  -4  10 -10   93.36   33.78
   4 -10  10  160.55   32.64
  -4 -10 -10  155.25   35.58
   4  10  11  106.63   34.68
  -4  10 -11   50.39   38.21
   4 -10  11   67.93   33.44
  -4 -10 -11  128.41   34.84
   4  10  12  238.26   58.18
  -4  10 -12  264.87   49.46
   4 -10  12  266.19   51.85
  -4 -10 -12  278.48   52.12
   4  11 -14  185.40   44.69
  -4  11  14  164.13   39.77
  -4 -11  14  152.50   46.27
   4  11 -13  163.35   40.89
  -4  11  13  126.81   35.49
   4 -11 -13  156.20   35.96
  -4 -11  13  139.89   43.42
   4  11 -12  111.65   33.89
  -4  11  12   90.92   35.39
   4 -11 -12  132.65   33.02
  -4 -11  12  163.68   36.73
   4  11 -11   97.11   28.65
  -4  11  11   45.82   28.62
   4 -11 -11   33.95   21.15
  -4 -11  11   48.91   29.30
   4  11 -10   96.87   30.90
  -4  11  10  102.09   35.50
   4 -11 -10  104.60   28.75
  -4 -11  10   94.36   31.81
   4  11  -9 1005.09   81.59
  -4  11   9 1107.32   81.42
   4 -11  -9 1212.84   81.06
  -4 -11   9 1129.23   91.14
   4  11  -8 1183.91   81.95
  -4  11   8 1119.11   85.99
   4 -11  -8 1089.80   70.86
  -4 -11   8 1025.53   87.98
   4  11  -7   17.34   19.60
  -4  11   7   29.08   18.61
   4 -11  -7   20.02   17.28
  -4 -11   7   -4.27   20.01
   4  11  -6  698.56   51.19
  -4  11   6  687.00   58.98
   4 -11  -6  605.83   50.37
  -4 -11   6  660.97   53.36
   4  11  -5  482.46   38.20
  -4  11   5  545.07   46.81
   4 -11  -5  428.47   40.34
  -4 -11   5  509.93   46.23
   4  11  -4 1180.68   61.17
  -4  11   4 1187.92   72.15
  -4  11   4  957.10   33.97
   4 -11  -4 1082.18   63.80
  -4 -11   4 1064.67   70.76
  -4 -11   4 1043.09   44.29
   4  11  -3  703.14   43.07
  -4  11   3  827.69   60.58
  -4  11   3  586.99   24.82
  -4 -11   3  647.12   50.02
   4 -11  -3  613.80   46.42
  -4 -11   3  619.88   33.68
   4  11  -2  683.55   34.11
  -4  11   2  655.68   44.95
   4 -11  -2  576.41   26.50
  -4 -11   2  569.73   43.55
  -4 -11   2  573.96   33.22
   4 -11  -2  604.62   45.34
   4  11  -1  143.79   18.27
  -4  11   1  186.26   23.08
   4 -11  -1  180.70   15.45
   4 -11  -1  217.99   26.71
  -4 -11   1  144.10   19.05
  -4 -11   1  122.34   25.47
  -4  11   0  440.90   30.01
   4  11   0  442.32   26.45
   4 -11   0  377.14   40.26
   4 -11   0  409.30   25.36
  -4 -11   0  426.17   32.00
  -4 -11   0  446.92   45.85
   4  11   1 2906.22  151.74
   4  11   1 2875.63  102.13
  -4  11  -1 3106.25  133.53
   4 -11   1 2903.32  154.19
   4 -11   1 2722.49  109.74
  -4 -11  -1 2973.88  145.09
   4  11   2  346.12   18.31
   4  11   2  417.23   36.78
  -4  11  -2  334.61   29.23
   4 -11   2  347.67   39.77
  -4 -11  -2  372.07   35.53
   4 -11   2  322.93   28.38
   4  11   3  804.37   56.32
  -4  11  -3  678.12   38.19
   4 -11   3  780.35   56.43
   4 -11   3  706.40   41.61
  -4 -11  -3  777.78   57.38
  -4  11  -4 1092.51   57.94
   4  11   4 1244.59   94.64
   4 -11   4 1018.29   59.37
   4 -11   4 1265.86   84.95
  -4 -11  -4 1207.66   78.85
  -4  11  -5  296.28   26.26
   4  11   5  401.22   41.37
   4 -11   5  341.10   32.86
   4 -11   5  367.53   42.01
  -4 -11  -5  360.71   39.07
   4  11   6  165.87   31.57
  -4  11  -6  131.49   32.22
   4 -11   6  130.46   24.86
  -4 -11  -6  140.45   31.96
   4  11   7  514.55   53.30
  -4  11  -7  464.98   51.46
   4 -11   7  433.59   46.89
  -4 -11  -7  442.33   53.74
   4  11   8  394.62   50.90
  -4  11  -8  377.11   49.39
   4 -11   8  366.02   47.64
  -4 -11  -8  450.91   53.82
   4  11   9   56.38   32.99
  -4  11  -9   23.56   25.59
   4 -11   9   44.66   26.31
  -4 -11  -9   50.02   29.16
   4  11  10    9.89   27.52
  -4  11 -10   62.67   26.97
   4 -11  10   15.34   30.68
  -4 -11 -10   32.45   29.02
   4  11  11  549.83   67.72
  -4  11 -11  547.54   67.29
   4 -11  11  570.19   70.39
  -4 -11 -11  591.36   73.58
   4  12 -14   98.83   40.39
  -4  12  14  125.34   43.71
  -4 -12  14   97.85   39.62
   4  12 -13  423.27   63.02
  -4  12  13  351.25   59.89
  -4 -12  13  516.87   65.99
   4  12 -12    9.76   29.16
  -4  12  12   36.51   24.79
   4 -12 -12   10.85   19.34
  -4 -12  12   49.04   29.11
   4  12 -11  233.17   41.11
  -4  12  11  299.00   41.81
  -4 -12  11  200.21   47.96
   4  12 -10  363.23   48.15
  -4  12  10  423.40   52.07
   4 -12 -10  310.87   38.54
  -4 -12  10  400.81   51.57
   4  12  -9  234.67   37.33
  -4  12   9  205.57   37.67
   4 -12  -9  223.84   30.93
  -4 -12   9  150.98   36.43
   4  12  -8 1118.57   87.84
  -4  12   8 1097.73   87.09
   4 -12  -8 1161.75   77.40
  -4 -12   8 1062.59   86.49
   4  12  -7   96.00   33.02
  -4  12   7  107.93   27.45
   4 -12  -7   97.69   21.81
  -4 -12   7   66.46   28.85
   4  12  -6  237.94   30.80
  -4  12   6  244.97   34.70
   4 -12  -6  189.32   29.17
  -4 -12   6  123.63   33.59
   4  12  -5  380.09   37.60
  -4  12   5  385.28   41.72
   4 -12  -5  340.72   38.13
  -4 -12   5  375.40   40.82
   4  12  -4  247.06   24.77
  -4  12   4  187.08   32.93
   4 -12  -4  191.29   27.35
  -4 -12   4  173.60   30.09
  -4 -12   4  191.53   18.14
   4  12  -3  644.46   38.53
  -4  12   3  620.33   49.59
  -4  12   3  545.75   26.78
  -4 -12   3  575.36   51.14
   4 -12  -3  573.59   46.13
  -4 -12   3  563.29   31.15
   4  12  -2  281.92   27.69
  -4  12   2  233.05   30.87
   4 -12  -2  273.04   33.36
  -4 -12   2  249.26   33.59
   4 -12  -2  279.99   19.01
  -4 -12   2  239.83   26.34
   4  12  -1 1940.90   82.87
  -4  12   1 1960.84  110.80
   4 -12  -1 1718.77   74.22
   4 -12  -1 1917.06  110.08
  -4 -12   1 1834.69  120.65
  -4 -12   1 1825.03   92.60
  -4  12   0   25.95   16.81
   4  12   0    8.72    9.17
   4 -12   0   19.51   11.45
   4 -12   0   15.36   17.74
  -4 -12   0   18.81   18.07
  -4 -12   0   -7.01   14.39
   4  12   1  171.12   32.77
  -4  12  -1  159.83   20.98
   4  12   1  147.09   15.62
   4 -12   1  171.72   19.74
   4 -12   1  184.59   26.19
  -4 -12  -1  149.46   29.25
   4  12   2  698.05   57.11
  -4  12  -2  730.58   45.10
   4 -12   2  733.81   59.29
   4 -12   2  656.29   39.56
  -4 -12  -2  788.64   57.27
  -4  12  -3 1491.42   77.39
   4  12   3 1698.50  103.23
   4 -12   3 1526.21   79.36
   4 -12   3 1739.80  111.53
  -4 -12  -3 1655.79  104.14
   4  12   4  602.76   53.79
  -4  12  -4  522.80   36.37
   4 -12   4  560.93   54.93
   4 -12   4  525.03   38.85
  -4 -12  -4  585.55   53.74
   4  12   5  916.32   71.84
  -4  12  -5  761.71   45.81
   4 -12   5  837.96   65.12
  -4 -12  -5 1031.62   74.14
  -4  12  -6   -2.18   21.22
   4  12   6    4.70   20.61
  -4 -12  -6   27.39   20.84
   4 -12   6   -7.21   16.11
   4  12   7  300.99   44.14
  -4  12  -7  334.03   45.97
   4 -12   7  356.72   40.43
  -4 -12  -7  311.74   47.23
   4  12   8  -32.41   22.34
  -4  12  -8   23.69   22.02
   4 -12   8    1.44   18.74
  -4 -12  -8    4.46   22.23
   4  12   9  665.27   81.84
  -4  12  -9  572.29   81.10
   4 -12   9  611.96   62.45
  -4 -12  -9  684.11   71.46
   4  12  10    3.47   28.40
  -4  12 -10   79.10   28.31
   4 -12  10   12.82   26.23
  -4 -12 -10   29.69   34.67
   4  12  11   71.51   34.43
  -4  12 -11   62.43   34.62
   4 -12  11  126.11   35.53
  -4 -12 -11   56.79   39.05
   4  13 -13   89.71   55.53
  -4  13  13  175.42   41.56
  -4 -13  13  137.76   44.98
   4  13 -12   33.05   38.32
  -4  13  12   35.01   30.64
   4 -13 -12   60.17   29.02
  -4 -13  12   50.99   33.76
   4  13 -11  144.42   43.64
  -4  13  11   89.70   35.50
   4 -13 -11   96.65   26.39
  -4 -13  11  143.70   37.83
   4  13 -10   98.15   35.22
  -4  13  10   33.01   27.88
   4 -13 -10   56.62   27.25
  -4 -13  10   10.97   29.27
   4  13  -9  569.93   62.19
  -4  13   9  696.10   70.71
   4 -13  -9  501.40   46.78
  -4 -13   9  476.87   73.59
   4  13  -8   35.71   24.84
  -4  13   8   32.99   24.35
   4 -13  -8   35.02   23.10
  -4 -13   8   50.58   26.86
   4  13  -7  171.15   34.65
  -4  13   7  194.24   34.98
   4 -13  -7  219.95   30.70
  -4 -13   7  217.37   37.09
   4  13  -6  214.00   33.63
  -4  13   6  219.47   38.60
   4 -13  -6  226.88   37.07
  -4 -13   6  204.07   38.44
   4  13  -5  628.46   57.48
  -4  13   5  609.66   61.59
   4 -13  -5  540.41   56.11
  -4 -13   5  611.25   56.77
   4  13  -4  548.66   41.99
  -4  13   4  555.68   50.28
   4 -13  -4  515.77   45.49
  -4 -13   4  508.26   52.52
  -4 -13   4  452.55   28.73
   4  13  -3  475.93   35.80
  -4  13   3  526.66   44.59
   4 -13  -3  500.89   43.35
  -4 -13   3  404.16   32.46
  -4 -13   3  509.67   47.08
   4  13  -2  279.90   25.59
  -4  13   2  279.78   34.29
   4 -13  -2  360.84   37.22
  -4 -13   2  250.22   35.87
   4 -13  -2  261.72   18.69
  -4 -13   2  289.14   28.24
  -4  13   1   59.39   20.53
   4  13  -1   23.07   15.54
   4 -13  -1   22.61   12.42
   4 -13  -1   22.34   21.17
  -4 -13   1    1.61   19.35
  -4 -13   1   31.44   17.94
  -4  13   0   63.17   18.75
   4  13   0   78.10   16.88
   4 -13   0  102.98   16.22
   4 -13   0   44.70   25.86
  -4 -13   0  124.69   24.38
  -4 -13   0  101.68   20.26
   4  13   1  509.24   45.10
   4  13   1  444.38   28.38
  -4  13  -1  454.66   39.89
   4 -13   1  441.61   47.70
   4 -13   1  384.08   28.30
  -4 -13  -1  452.09   39.49
   4  13   2  430.52   42.99
  -4  13  -2  417.96   30.26
   4 -13   2  399.69   46.37
  -4 -13  -2  392.13   49.81
   4 -13   2  392.80   34.79
   4  13   3  953.35   73.14
  -4  13  -3  902.37   53.58
   4 -13   3  820.38   58.14
   4 -13   3  946.20   77.76
  -4 -13  -3  978.33   72.38
  -4  13  -4  297.08   27.81
   4  13   4  386.14   51.99
   4 -13   4  342.27   36.82
   4 -13   4  391.32   47.28
  -4 -13  -4  372.79   52.27
   4  13   5  148.40   39.41
  -4  13  -5  153.08   35.69
   4 -13   5  144.12   24.37
  -4 -13  -5  146.25   32.85
   4  13   6   47.81   27.32
  -4  13  -6   71.09   28.85
   4 -13   6   50.90   22.10
  -4 -13  -6  110.32   33.36
   4  13   7  330.94   48.80
  -4  13  -7  359.39   48.45
   4 -13   7  367.70   42.18
  -4 -13  -7  369.58   52.42
   4  13   8   14.22   29.78
  -4  13  -8   16.21   25.87
   4 -13   8   47.41   27.00
  -4 -13  -8    0.49   28.02
   4  13   9   87.73   31.45
  -4  13  -9   84.76   32.63
   4 -13   9   51.20   35.12
  -4 -13  -9   26.27   34.87
   4  13  10  125.55   34.92
  -4  13 -10   88.70   34.26
   4 -13  10   55.58   40.82
  -4 -13 -10   34.11   43.77
   4  14 -12  136.48   36.48
  -4  14  12   16.27   43.82
  -4 -14  12   54.26   37.66
   4  14 -11  138.42   38.51
  -4  14  11  112.47   38.01
   4 -14 -11  104.33   25.59
  -4 -14  11  123.38   40.45
   4  14 -10  105.35   34.08
  -4  14  10  111.09   34.26
   4 -14 -10   94.21   31.64
  -4 -14  10   93.76   36.66
   4  14  -9  -45.19   24.53
  -4  14   9   27.79   24.73
   4 -14  -9  -41.60   22.58
  -4 -14   9   26.47   23.15
   4  14  -8   42.13   28.27
  -4  14   8   11.32   29.90
   4 -14  -8  110.43   28.41
  -4 -14   8   72.79   28.95
   4  14  -7  241.24   37.49
  -4  14   7  241.31   39.51
   4 -14  -7  204.57   31.58
  -4 -14   7  170.57   42.09
   4  14  -6  359.12   43.24
  -4  14   6  414.40   49.28
   4 -14  -6  305.81   36.73
  -4 -14   6  304.46   52.99
   4  14  -5  831.84   60.44
  -4  14   5  755.43   71.93
   4 -14  -5  675.39   58.79
  -4 -14   5  813.15   69.73
   4  14  -4    6.97   16.78
  -4  14   4   47.85   23.43
   4 -14  -4   46.15   20.22
  -4 -14   4  -14.69   21.49
   4  14  -3   31.77   15.06
  -4  14   3   10.70   20.18
   4 -14  -3  -11.46   18.76
  -4 -14   3    8.45   13.58
  -4 -14   3   13.90   19.16
   4  14  -2  948.36   53.05
  -4  14   2  951.71   64.27
   4 -14  -2  881.08   71.96
  -4 -14   2  959.61   67.81
   4 -14  -2  734.65   40.05
  -4 -14   2  904.03   55.99
   4  14  -1  342.80   32.13
  -4  14   1  287.76   33.54
   4 -14  -1  357.69   39.68
  -4 -14   1  315.67   46.19
   4 -14  -1  320.42   22.72
  -4 -14   1  333.66   29.53
  -4  14   0   23.78   19.61
   4  14   0   20.42   14.05
   4 -14   0   41.18   11.92
   4 -14   0   27.80   22.06
  -4 -14   0   21.01   20.52
  -4 -14   0   27.00   21.41
   4  14   1  512.32   48.38
   4  14   1  422.79   26.81
  -4  14  -1  539.88   43.32
   4 -14   1  463.72   31.38
   4 -14   1  479.37   52.69
  -4 -14  -1  547.89   43.37
   4  14   2  695.40   69.54
  -4  14  -2  690.35   51.00
   4 -14   2  831.84   69.37
   4 -14   2  653.44   42.62
  -4 -14  -2  818.74   60.76
  -4  14  -3 1172.39   61.97
   4  14   3 1208.50  105.34
   4 -14   3 1133.03   68.26
   4 -14   3 1341.61  100.03
  -4 -14  -3 1415.27   93.53
   4  14   4   73.37   35.34
   4 -14   4  150.05   31.64
   4 -14   4   46.42   23.60
  -4 -14  -4   91.85   28.29
   4  14   5  258.46   41.66
  -4  14  -5  225.76   42.82
   4 -14   5  212.31   29.75
  -4 -14  -5  321.67   49.84
   4  14   6  128.84   35.45
  -4  14  -6  121.94   35.22
   4 -14   6  169.47   33.02
  -4 -14  -6  150.79   37.61
   4  14   7    6.40   34.92
  -4  14  -7   51.03   29.29
   4 -14   7   56.48   22.53
  -4 -14  -7   37.09   28.92
   4  14   8  106.80   34.51
  -4  14  -8  164.75   45.33
   4 -14   8   67.15   36.93
  -4 -14  -8  114.07   44.44
   4  14   9   57.81   31.10
  -4  14  -9   28.56   32.01
   4 -14   9   61.46   27.74
  -4 -14  -9   36.66   37.28
   4  15 -11   -1.42   24.28
  -4  15  11   -0.91   30.05
  -4 -15  11    2.08   25.10
   4  15 -10  201.64   44.34
  -4  15  10  131.11   42.16
   4 -15 -10  177.32   36.47
  -4 -15  10  171.50   43.63
   4  15  -9  130.61   33.57
  -4  15   9  132.45   35.14
   4 -15  -9   31.07   24.55
  -4 -15   9  105.67   33.65
   4  15  -8  114.54   33.59
  -4  15   8   98.28   31.50
   4 -15  -8   98.65   24.50
  -4 -15   8  127.34   34.95
   4  15  -7  118.15   36.55
  -4  15   7   73.46   32.81
   4 -15  -7  103.95   24.82
  -4 -15   7   97.19   38.30
   4  15  -6   51.04   28.61
  -4  15   6  134.18   32.18
   4 -15  -6   91.31   32.06
  -4 -15   6  167.37   32.74
   4  15  -5  406.97   44.72
  -4  15   5  414.68   53.56
   4 -15  -5  429.84   46.07
  -4 -15   5  388.27   52.18
   4  15  -4  167.40   28.36
  -4  15   4  177.59   36.87
   4 -15  -4  193.47   32.65
  -4 -15   4  143.46   34.21
   4  15  -3  389.90   32.98
  -4  15   3  311.84   47.87
   4 -15  -3  283.96   49.30
  -4 -15   3  265.83   40.04
  -4 -15   3  214.67   26.97
   4  15  -2  369.24   34.33
  -4  15   2  380.82   39.73
   4 -15  -2  380.06   42.87
  -4 -15   2  353.88   44.40
  -4 -15   2  314.98   28.96
   4  15  -1   -9.42   12.48
  -4  15   1    0.97   20.70
   4 -15  -1   11.20   19.49
  -4 -15   1   -3.59   19.54
  -4 -15   1   -4.47   17.19
   4  15   0  617.82   47.38
   4  15   0  669.68   39.56
  -4  15   0  646.55   47.51
   4 -15   0  632.70   71.89
   4 -15   0  523.11   42.17
  -4 -15   0  585.69   46.53
  -4  15  -1  147.20   26.33
   4  15   1  113.98   30.36
   4 -15   1  134.05   24.50
   4 -15   1  124.48   33.13
  -4 -15  -1  155.37   31.85
   4  15   2  143.44   32.74
  -4  15  -2  172.08   25.31
   4 -15   2  146.92   26.69
   4 -15   2  159.94   36.85
  -4 -15  -2  215.29   32.42
   4  15   3   27.78   22.55
   4 -15   3  -16.36   26.16
   4 -15   3   42.36   15.01
  -4 -15  -3   18.65   22.67
   4  15   4   88.79   36.44
   4 -15   4   90.05   32.71
   4 -15   4  110.92   26.09
  -4 -15  -4   89.48   31.05
   4  15   5  571.65   61.35
  -4  15  -5  559.40   61.93
   4 -15   5  425.28   43.92
  -4 -15  -5  535.37   59.64
   4  15   6  113.25   32.59
  -4  15  -6  100.38   33.35
   4 -15   6   68.27   24.24
  -4 -15  -6   83.18   41.98
   4  15   7  537.22   62.94
  -4  15  -7  502.04   68.14
   4 -15   7  427.42   52.26
  -4 -15  -7  511.01   63.76
   4  15   8  226.41   55.54
  -4  15  -8  229.37   49.62
   4 -15   8  221.92   42.32
  -4 -15  -8  214.22   48.12
   4  16 -10  132.90   38.93
  -4  16  10  171.05   39.87
  -4 -16  10    1.86   47.76
   4  16  -9   20.20   28.73
  -4  16   9   26.39   37.04
   4 -16  -9   25.34   19.65
  -4 -16   9   29.70   37.08
   4  16  -8  248.38   42.12
  -4  16   8  179.86   42.38
   4 -16  -8  178.89   31.77
  -4 -16   8  137.73   43.33
  -4  16   7  815.06   90.04
   4  16  -7  765.71   86.06
  -4 -16   7  671.45   75.30
   4 -16  -7  661.40   62.52
   4  16  -6   12.26   20.80
  -4  16   6  -14.05   24.20
   4 -16  -6    9.54   19.87
  -4 -16   6   20.72   24.13
   4  16  -5    2.22   24.73
  -4  16   5  -31.78   23.54
   4 -16  -5  -20.28   22.50
  -4 -16   5   -0.07   24.14
   4  16  -4  153.99   29.91
  -4  16   4  193.68   38.69
   4 -16  -4  247.96   42.67
  -4 -16   4  155.57   45.50
   4  16  -3  202.06   31.78
  -4  16   3  140.23   40.35
   4 -16  -3  142.09   33.22
  -4 -16   3  153.13   34.42
  -4  16   2  282.01   42.29
   4  16  -2  304.23   35.45
  -4 -16   2  221.66   46.17
   4 -16  -2  271.77   37.02
  -4 -16   2  174.75   30.14
   4  16  -1  437.70   42.28
  -4  16   1  490.99   45.49
   4 -16  -1  429.29   54.86
  -4 -16   1  474.47   52.38
  -4 -16   1  445.39   37.65
   4  16   0   55.51   21.13
  -4  16   0   20.01   17.02
   4 -16   0    2.23   27.39
  -4 -16   0  -15.28   16.46
   4  16   1  127.30   31.53
  -4  16  -1  114.11   23.39
   4 -16   1  136.42   33.14
  -4 -16  -1  153.85   27.32
  -4  16  -2  206.61   28.82
   4  16   2  248.85   47.62
   4 -16   2  162.12   29.52
   4 -16   2  213.70   41.62
  -4 -16  -2  244.61   36.37
   4  16   3  204.11   39.56
   4 -16   3  245.60   41.69
   4 -16   3  184.99   32.02
  -4 -16  -3  190.70   35.49
   4  16   4   31.93   23.31
  -4  16  -4   -3.34   16.89
   4 -16   4   -8.29   18.91
  -4 -16  -4   18.82   22.10
   4  16   5  266.48   40.48
  -4  16  -5  251.35   55.66
   4 -16   5  148.56   29.54
  -4 -16  -5  183.32   41.99
   4  16   6  163.99   40.78
  -4  16  -6  225.98   49.62
   4 -16   6  161.98   32.18
  -4 -16  -6  177.96   40.15
   4  16   7  135.84   37.24
  -4  16  -7  101.59   37.44
   4 -16   7   43.47   29.46
  -4 -16  -7  201.20   40.16
  -4  17   9  206.37   46.85
   4  17  -8  139.97   30.99
  -4  17   8  -10.16   37.60
   4 -17  -8   20.63   24.75
  -4 -17   8   14.18   29.62
   4  17  -7   58.35   32.74
  -4  17   7   90.89   32.69
   4 -17  -7   84.07   28.58
  -4 -17   7   75.94   34.75
   4  17  -6  181.46   37.13
  -4  17   6  181.89   42.70
   4 -17  -6  208.30   37.41
  -4 -17   6  180.70   45.07
   4  17  -5   70.29   24.61
  -4  17   5   29.14   29.65
   4 -17  -5   51.52   26.26
  -4 -17   5   39.97   27.23
   4  17  -4  216.90   39.55
  -4  17   4  227.16   39.40
   4 -17  -4  127.88   31.06
  -4 -17   4  105.12   36.53
   4  17  -3  305.38   36.96
  -4  17   3  358.00   52.86
   4 -17  -3  312.95   45.41
  -4 -17   3  296.68   46.94
   4  17  -2  252.37   31.85
  -4  17   2  256.87   48.82
   4 -17  -2  254.09   41.37
  -4 -17   2  248.54   42.44
  -4  17   1   40.14   23.20
   4 -17  -1   60.02   27.62
  -4 -17   1   58.24   26.31
  -4 -17   1   49.56   23.25
   4  17   0   25.50   25.08
  -4  17   0   12.33   19.36
   4 -17   0  151.81   34.50
  -4 -17   0   21.19   18.03
   4  17   1  324.31   45.16
  -4  17  -1  300.31   40.39
   4 -17   1  275.07   49.66
  -4 -17  -1  286.52   38.13
   4  17   2   78.94   30.94
   4 -17   2  121.79   36.17
  -4 -17  -2   85.49   27.28
   4  17   3   47.76   29.33
   4 -17   3   98.63   32.77
  -4 -17  -3   81.57   28.32
   4  17   4  255.84   44.07
  -4  17  -4  254.32   50.14
  -4 -17  -4  199.40   52.65
   4  17   5  425.63   68.68
  -4  17  -5  337.42   58.28
  -4 -17  -5  372.50   54.64
   4  18  -7   31.06   26.98
  -4  18   7    9.53   26.61
   4 -18  -7   11.71   24.51
  -4 -18   7   -1.39   28.21
   4  18  -6   41.40   29.48
  -4  18   6   96.44   33.56
   4 -18  -6   30.95   28.26
  -4 -18   6   59.21   30.74
   4  18  -5   30.12   23.28
  -4  18   5   47.41   26.71
   4 -18  -5    2.33   22.88
  -4 -18   5   10.50   27.50
   4  18  -4   96.79   29.62
  -4  18   4   92.15   33.60
   4 -18  -4  124.85   32.76
  -4 -18   4  168.32   35.89
  -4  18   3  176.86   39.40
   4  18  -3  213.54   33.05
  -4 -18   3  192.04   41.75
   4 -18  -3  270.35   42.30
  -4  18   2  486.46   61.31
   4 -18  -2  369.79   66.17
  -4 -18   2  345.32   62.84
  -4  18   1   23.06   22.13
   4 -18  -1   72.83   28.89
   4  18   0  -24.76   26.81
   4 -18   0  -32.19   30.89
  -4 -18   0   38.73   21.79
   4  18   1  372.34   51.94
   4 -18   1  419.26   56.33
  -4 -18  -1  287.12   43.08
   4  18   2  158.95   37.61
   4 -18   2  169.94   41.07
  -4 -18  -2  147.46   40.58
   4  18   3   67.76   34.02
  -4  18  -3   77.09   26.94
  -4 -18  -3  134.93   30.97
  -4 -18  -4   -5.19   22.53
  -4  19   3  158.58   34.89
   4 -19  -3  102.90   36.70
  -4 -19   3  141.59   44.31
  -4  19   2   67.41   28.82
   4 -19  -2   50.72   32.18
  -4 -19   2   85.63   29.73
   4  19  -1  179.91   38.89
   4 -19  -1  158.17   44.52
   4  19   0   35.50   24.98
   4 -19   0   -4.22   36.73
   5   0 -17  397.21   55.35
  -5   0  17  382.77   49.51
   5   0 -16  210.28   36.37
  -5   0  16   95.33   29.75
   5   0 -15  270.03   41.78
  -5   0  15  231.48   33.78
   5   0 -14  178.58   32.34
  -5   0  14  128.57   29.26
  -5   0  14   94.33   16.65
   5   0 -13  -15.01   22.44
  -5   0  13   39.56   19.40
  -5   0  13   -3.28    9.99
   5   0 -12  122.79   36.76
  -5   0  12  169.96   23.30
  -5   0  12  113.96   18.81
   5   0 -11    4.04   18.55
  -5   0  11  -13.27   12.65
  -5   0  11   -0.92   11.88
   5   0 -10 2709.20  142.09
  -5   0  10 2730.92  125.89
  -5   0  10 2655.33  105.72
   5   0  -9 1676.82   88.30
  -5   0   9 1702.83   73.86
  -5   0   9 1831.01   74.39
   5   0  -8  868.40   57.30
  -5   0   8  984.09   43.26
  -5   0   8  927.72   43.13
   5   0  -7 1652.14   78.81
  -5   0   7 1609.48   53.91
  -5   0   7 1737.41   67.43
   5   0  -6  206.11   20.51
  -5   0   6  150.56   14.15
  -5   0   6  170.16   15.35
   5   0  -5 4272.25  160.31
  -5   0   5 4432.50  119.85
  -5   0   5 3946.07  137.27
   5   0  -4 1434.36   56.69
  -5   0   4 1467.25   41.90
  -5   0   4 1352.43   50.47
   5   0  -3   32.34   10.70
  -5   0   3   29.18   11.02
  -5   0   3   23.87    7.49
   5   0  -2 2663.23   68.34
   5   0  -2 2721.67   89.12
  -5   0   2 2659.86   92.29
   5   0  -1   62.72    8.98
   5   0  -1   51.77   10.37
  -5   0   1   65.34   13.71
   5   0   0 1170.63   39.64
   5   0   0 1128.08   37.25
  -5   0   0 1170.98   49.56
   5   0   1 1384.66   50.38
   5   0   1 1396.25   42.27
  -5   0  -1 1385.88   60.83
   5   0   2 1091.05   49.95
   5   0   2 1149.82   33.36
  -5   0  -2 1169.65   52.75
   5   0   3   21.88    7.56
   5   0   3   42.61   12.45
  -5   0  -3   34.81   14.02
   5   0   4  901.22   48.70
  -5   0  -4  879.10   47.26
   5   0   5  921.12   51.32
  -5   0  -5  863.06   31.93
  -5   0  -5  921.22   46.38
   5   0   6  197.21   25.60
  -5   0  -6  153.15   10.92
  -5   0  -6  158.98   21.53
   5   0   7 1106.27   66.49
  -5   0  -7  884.65   39.45
  -5   0  -7  981.16   58.30
   5   0   8  255.33   37.85
  -5   0  -8  344.24   29.76
  -5   0  -8  272.08   21.13
   5   0   9  679.69   63.09
  -5   0  -9  540.96   32.91
  -5   0  -9  666.32   54.91
   5   0  10   63.18   25.48
  -5   0 -10   29.38   21.83
  -5   0 -10    5.87   13.05
   5   0  11   44.41   29.99
  -5   0 -11   -0.65   21.99
   5   0  12   89.04   35.55
  -5   0 -12  105.69   27.55
   5   0  13  139.07   39.26
  -5   0 -13   76.51   24.55
   5   0  14  405.24   67.55
   5   1 -17  167.46   42.54
  -5   1  17  149.58   34.27
   5  -1 -17  137.22   38.82
  -5  -1  17  204.82   36.63
  -5   1  16    5.88   18.66
   5   1 -16    9.85   23.02
  -5  -1  16  -20.52   20.51
   5  -1 -16  -14.06   22.60
   5   1 -15  339.88   45.37
  -5   1  15  232.61   25.30
  -5   1  15  247.43   38.19
  -5  -1  15  171.34   34.42
   5   1 -14  422.73   50.02
  -5   1  14  390.38   36.60
  -5   1  14  448.05   38.83
   5  -1 -14  429.73   49.47
  -5  -1  14  375.35   42.50
  -5   1  13 1668.23   91.43
   5   1 -13 1733.86  118.72
  -5   1  13 1787.73   96.24
   5  -1 -13 1674.30  114.88
  -5  -1  13 1739.79   99.70
  -5  -1  13 1591.80   78.83
  -5   1  12  171.06   18.64
   5   1 -12  181.60   31.95
  -5   1  12  163.34   21.75
  -5  -1  12  146.66   14.89
   5  -1 -12  133.89   35.11
  -5  -1  12  161.34   25.23
  -5   1  11 1660.38   75.87
   5   1 -11 1705.41  103.16
  -5   1  11 1622.25   73.31
   5  -1 -11 1651.67  110.44
  -5  -1  11 1682.44   87.90
  -5  -1  11 1548.54   70.27
  -5   1  10  248.43   23.63
   5   1 -10  215.71   32.78
  -5   1  10  234.76   19.94
  -5  -1  10  204.13   18.91
   5  -1 -10  263.53   31.47
  -5  -1  10  268.94   28.27
   5   1  -9  215.38   29.91
  -5   1   9  217.67   18.59
  -5   1   9  210.47   20.13
   5  -1  -9  194.24   27.47
  -5  -1   9  229.17   15.28
  -5  -1   9  207.73   20.81
   5   1  -8 1223.68   66.41
  -5   1   8 1161.88   45.19
  -5   1   8 1244.24   52.70
   5  -1  -8 1150.78   63.82
  -5  -1   8 1178.34   49.50
  -5  -1   8 1140.50   47.62
   5   1  -7 1762.62   83.76
  -5   1   7 1830.65   70.70
  -5   1   7 1816.13   57.32
   5  -1  -7 1737.92   81.79
  -5  -1   7 1569.79   61.53
  -5  -1   7 1751.27   58.60
  -5   1   6  826.11   28.52
   5   1  -6  844.09   46.50
  -5   1   6  913.05   44.55
   5  -1  -6  875.22   46.45
  -5  -1   6  895.05   33.00
  -5  -1   6  853.60   35.97
   5   1  -5  438.34   26.19
  -5   1   5  364.50   15.39
  -5   1   5  424.01   23.82
  -5  -1   5  325.10   22.61
   5  -1  -5  343.17   26.76
  -5  -1   5  348.20   18.41
   5   1  -4  528.33   29.87
  -5   1   4  521.27   29.16
  -5   1   4  585.19   17.93
   5  -1  -4  597.35   31.75
  -5  -1   4  601.16   22.75
  -5  -1   4  570.75   25.31
   5   1  -3 4348.63  139.70
  -5   1   3 4337.36  150.67
  -5   1   3 4383.72   98.46
   5  -1  -3 4464.04  151.22
  -5  -1   3 4247.21  126.06
  -5  -1   3 4328.03  141.01
  -5   1   2 1777.79   66.14
   5   1  -2 1750.98   55.35
   5  -1  -2 1666.57   39.54
   5  -1  -2 1819.94   61.35
  -5  -1   2 1727.46   50.33
  -5  -1   2 1766.83   64.05
   5   1  -1 5960.58  179.52
   5   1  -1 5965.43  163.71
  -5   1   1 5898.48  209.27
   5  -1  -1 6078.56  161.89
   5  -1  -1 5879.84  181.99
  -5  -1   1 5916.42  206.97
   5   1   0 3909.84  133.48
   5   1   0 3691.89   97.49
  -5   1   0 4224.82  148.45
   5  -1   0 4340.06  117.65
   5  -1   0 3747.63  109.95
  -5  -1   0 3925.42  138.04
   5   1   1 1353.30   54.51
   5   1   1 1486.25   38.14
  -5   1  -1 1388.66   58.09
   5  -1   1 1299.29   47.70
   5  -1   1 1356.82   47.28
  -5  -1  -1 1450.25   60.18
   5   1   2 1581.32   63.27
   5   1   2 1550.88   39.48
  -5   1  -2 1531.31   63.22
   5  -1   2 1567.94   61.02
   5  -1   2 1516.27   48.16
  -5  -1  -2 1567.55   66.33
   5   1   3 3838.23   95.21
   5   1   3 3717.43  149.26
  -5   1  -3 4110.12  155.84
   5  -1   3 3820.36  120.52
   5  -1   3 3779.73  154.04
  -5  -1  -3 4148.54  174.98
  -5   1  -4 1834.50   76.94
   5   1   4 1583.13   78.31
   5  -1   4 1645.80   76.57
   5  -1   4 1753.46   56.04
  -5  -1  -4 1668.22   73.82
  -5  -1  -4 1607.39   42.57
   5   1   5  505.57   34.47
  -5   1  -5  466.93   36.11
  -5   1  -5  428.71   22.90
  -5  -1  -5  374.86   15.96
   5  -1   5  384.17   32.83
  -5  -1  -5  480.81   31.64
  -5   1  -6  220.26   19.25
   5   1   6  297.27   31.40
  -5   1  -6  262.19   26.00
   5  -1   6  240.76   29.58
  -5  -1  -6  253.69   14.11
  -5  -1  -6  339.07   34.57
  -5   1  -7   89.75   15.31
  -5   1  -7   85.92   18.78
   5  -1   7   91.12   25.90
  -5  -1  -7  125.70   21.04
  -5  -1  -7   98.09   10.81
   5   1   8  230.84   35.12
  -5   1  -8  210.60   32.26
  -5   1  -8  197.09   17.51
  -5  -1  -8  179.40   15.47
   5  -1   8  188.80   34.07
  -5  -1  -8  230.78   26.88
  -5   1  -9 1286.29   75.71
   5   1   9 1436.44   95.16
  -5   1  -9 1132.16   61.40
   5  -1   9 1265.51   93.59
  -5  -1  -9 1265.62   90.25
   5   1  10   28.83   24.17
  -5   1 -10   17.26   13.03
  -5   1 -10  -30.57   20.43
   5  -1  10   30.62   24.03
  -5  -1 -10   41.06   17.69
   5   1  11  344.31   47.38
  -5   1 -11  306.15   33.59
   5  -1  11  211.85   58.91
  -5  -1 -11  277.36   34.41
   5   1  12  220.41   40.41
  -5   1 -12  136.99   26.40
   5  -1  12  156.13   38.74
  -5  -1 -12  166.45   29.08
   5   1  13  418.65   58.11
   5  -1  13  408.67   64.85
  -5  -1 -13  421.04   46.14
   5   2 -17  294.19   47.71
  -5   2  17  168.09   38.15
   5  -2 -17  282.46   43.98
  -5  -2  17  266.73   42.43
   5   2 -16  -18.36   28.13
  -5   2  16   45.95   20.77
   5  -2 -16   59.21   25.07
  -5  -2  16    9.25   24.09
   5   2 -15 1044.38   89.98
  -5   2  15 1094.37   80.96
  -5   2  15  958.16   66.85
  -5  -2  15 1060.17   82.59
   5  -2 -15  995.65   85.17
   5   2 -14   38.97   24.09
  -5   2  14    1.13   19.62
  -5   2  14   28.23   17.60
   5  -2 -14   27.50   22.43
  -5  -2  14   10.41   20.52
   5   2 -13 1443.87  100.98
  -5   2  13 1393.43   80.09
  -5   2  13 1445.07   88.45
   5  -2 -13 1412.80  100.17
  -5  -2  13 1399.11  101.77
   5   2 -12 2216.61  140.62
  -5   2  12 2244.45  111.73
  -5   2  12 2108.47  116.11
  -5  -2  12 1907.08   81.56
   5  -2 -12 2259.55  131.29
  -5  -2  12 2323.47  122.61
   5   2 -11  417.09   45.59
  -5   2  11  419.12   31.60
  -5   2  11  454.71   29.78
   5  -2 -11  498.95   41.95
  -5  -2  11  477.95   45.15
  -5  -2  11  418.53   24.74
   5   2 -10  380.54   38.90
  -5   2  10  326.84   26.92
  -5   2  10  341.56   23.32
  -5  -2  10  402.13   36.15
   5  -2 -10  415.41   35.27
  -5  -2  10  356.73   22.26
   5   2  -9  353.47   37.09
  -5   2   9  383.30   21.43
  -5   2   9  390.08   27.90
   5  -2  -9  365.45   34.71
  -5  -2   9  411.71   20.64
  -5  -2   9  433.41   29.27
   5   2  -8   -9.58   14.84
  -5   2   8   -2.80   10.31
  -5   2   8    1.12    8.79
  -5  -2   8    8.90   10.23
   5  -2  -8   13.51   13.63
  -5  -2   8    0.07    7.81
   5   2  -7  655.96   40.03
  -5   2   7  593.12   23.91
  -5   2   7  614.80   33.83
   5  -2  -7  579.82   38.02
  -5  -2   7  673.79   27.20
  -5  -2   7  632.47   34.17
   5   2  -6 1717.05   75.98
  -5   2   6 1737.69   70.36
  -5   2   6 1564.89   41.94
   5  -2  -6 1538.82   74.05
  -5  -2   6 1668.71   56.35
  -5  -2   6 1777.68   61.23
   5   2  -5 3770.03  143.83
  -5   2   5 3756.00   84.38
  -5   2   5 3843.82  140.40
   5  -2  -5 3591.14  148.55
  -5  -2   5 4198.58  131.48
  -5  -2   5 3779.38  121.92
   5   2  -4 2872.02  110.06
  -5   2   4 2860.14  106.31
  -5   2   4 2759.03   53.49
   5  -2  -4 2835.25  107.40
  -5  -2   4 2990.39   94.05
  -5  -2   4 2707.69   88.07
   5   2  -312795.68  431.85
  -5   2   312441.17  470.23
   5  -2  -312690.52  472.92
  -5  -2   312453.30  416.90
  -5  -2   312790.12  450.10
  -5   2   2 3760.50  137.88
   5  -2  -2 3823.41   81.19
   5  -2  -2 4074.60  144.64
  -5  -2   2 4077.57  129.81
  -5  -2   2 4143.60  140.57
   5   2  -1 4001.43  128.33
  -5   2   1 4033.73  145.96
   5   2  -1 4700.24  114.17
   5  -2  -1 3965.13  131.14
   5  -2  -1 3877.50   97.15
  -5  -2   1 3993.00  141.46
   5   2   0 1877.70   67.84
  -5   2   0 1867.23   73.40
   5   2   0 1859.72   46.26
   5  -2   0 2082.53   67.10
   5  -2   0 1951.08   60.69
  -5  -2   0 1954.76   75.87
   5   2   1 3942.04  143.33
  -5   2  -1 4136.55  149.44
   5   2   1 3900.19   85.16
   5  -2   1 4081.10  127.50
  -5  -2  -1 4233.47  154.39
   5  -2   1 3314.85  117.17
   5   2   2  928.64   44.70
  -5   2  -2 1004.28   47.72
   5   2   2  878.59   21.18
   5  -2   2  964.35   40.67
  -5  -2  -2 1025.02   49.08
   5  -2   2  967.81   35.95
   5   2   3  409.20   29.65
  -5   2  -3  525.68   28.21
   5  -2   3  399.18   20.43
   5  -2   3  418.15   27.72
  -5  -2  -3  429.06   29.81
   5   2   4  271.33   26.48
  -5   2  -4  328.90   23.05
   5  -2   4  332.72   26.08
   5  -2   4  339.33   20.89
  -5  -2  -4  309.98   26.48
  -5  -2  -4  268.02    9.33
   5   2   5   27.21   16.67
  -5   2  -5   48.61   17.21
  -5   2  -5   23.52    9.74
   5  -2   5   37.68   16.41
  -5  -2  -5   33.02    5.48
  -5  -2  -5   23.47   15.79
   5   2   6  279.82   31.53
  -5   2  -6  295.06   22.26
  -5   2  -6  379.66   30.02
   5  -2   6  271.77   30.75
  -5  -2  -6  257.20   11.47
  -5  -2  -6  397.00   29.15
   5   2   7  537.80   49.15
  -5   2  -7  464.64   34.20
  -5   2  -7  583.81   38.17
   5  -2   7  520.06   48.08
  -5  -2  -7  582.71   49.41
   5   2   8  503.64   48.74
  -5   2  -8  395.15   33.09
  -5   2  -8  475.04   34.73
  -5  -2  -8  429.80   41.35
   5  -2   8  502.01   46.87
  -5   2  -9  527.96   42.38
   5   2   9  717.74   62.65
  -5   2  -9  624.68   37.86
   5  -2   9  607.24   59.81
  -5  -2  -9  633.08   51.51
  -5   2 -10   51.73   15.86
   5   2  10   52.50   28.49
  -5   2 -10   53.73   18.35
  -5  -2 -10   56.44   23.30
   5  -2  10   74.43   33.15
   5   2  11  123.49   33.63
  -5   2 -11   54.19   17.85
  -5   2 -11   79.02   24.48
   5  -2  11  161.06   40.83
  -5  -2 -11  115.55   24.12
   5   2  12  117.57   37.01
  -5   2 -12  103.26   20.64
   5  -2  12  111.05   37.42
  -5  -2 -12  139.90   26.91
   5   2  13  114.14   40.62
   5  -2  13  238.80   43.61
  -5  -2 -13   81.13   36.98
   5   3 -17  110.81   47.30
  -5   3  17  122.98   35.14
   5  -3 -17   93.16   34.37
  -5  -3  17  150.26   35.85
   5   3 -16  323.54   54.01
  -5   3  16  373.36   39.88
  -5   3  16  392.97   42.78
   5  -3 -16  294.41   48.99
  -5  -3  16  402.84   50.80
  -5   3  15  197.78   25.93
   5   3 -15  164.74   42.33
  -5   3  15  107.07   24.70
  -5  -3  15  113.15   31.16
   5  -3 -15  115.41   33.50
   5   3 -14  522.28   54.88
  -5   3  14  454.83   44.71
  -5   3  14  504.79   47.13
   5  -3 -14  412.00   53.46
  -5  -3  14  497.70   57.22
   5   3 -13   24.16   25.63
  -5   3  13   62.99   16.62
  -5   3  13   39.76   17.44
   5  -3 -13   24.26   22.01
  -5  -3  13   11.91   20.33
   5   3 -12  841.87   69.86
  -5   3  12  939.36   58.62
  -5   3  12  948.54   56.31
  -5  -3  12  930.63   66.07
   5  -3 -12  887.24   67.89
   5   3 -11   65.93   24.53
  -5   3  11   67.55   14.72
  -5   3  11  100.49   18.73
   5  -3 -11   83.34   24.19
  -5  -3  11   67.45   10.46
  -5  -3  11   92.72   20.99
  -5   3  10  318.34   24.27
   5   3 -10  268.69   36.78
  -5   3  10  318.31   28.07
   5  -3 -10  236.93   31.53
  -5  -3  10  352.65   29.61
  -5  -3  10  279.41   16.50
   5   3  -9 1105.77   80.53
  -5   3   9 1152.34   46.21
  -5   3   9 1096.46   57.86
  -5  -3   9 1030.60   37.55
   5  -3  -9 1122.55   60.87
  -5  -3   9 1061.01   55.65
   5   3  -8 1171.06   65.97
  -5   3   8 1084.23   56.44
  -5   3   8 1067.32   39.12
   5  -3  -8 1202.27   60.60
  -5  -3   8 1021.53   59.46
  -5  -3   8 1094.61   37.24
   5   3  -7  168.86   22.05
  -5   3   7  142.19   10.30
  -5   3   7  141.73   18.59
  -5  -3   7  147.70   11.91
   5  -3  -7  179.28   22.10
  -5  -3   7  128.86   17.21
   5   3  -6 1376.69   64.45
  -5   3   6 1377.01   58.44
  -5   3   6 1189.99   29.45
   5  -3  -6 1326.05   64.83
  -5  -3   6 1210.17   38.86
  -5  -3   6 1331.64   53.64
   5   3  -5 2151.73   88.66
  -5   3   5 2434.90   92.38
   5  -3  -5 2303.31   94.71
  -5  -3   5 2276.70   82.22
  -5  -3   5 2068.65   64.51
   5   3  -4 2880.56  104.78
  -5   3   4 3138.95  117.15
   5  -3  -4 3051.83  120.42
  -5  -3   4 2991.68  105.73
  -5  -3   4 2888.78   91.95
   5   3  -3 1494.90   58.57
  -5   3   3 1450.10   60.51
   5  -3  -3 1451.42   61.60
  -5  -3   3 1427.98   53.63
  -5  -3   3 1511.42   52.72
   5   3  -2 6301.08  192.22
  -5   3   2 6225.97  225.87
   5  -3  -2 6099.16  114.87
   5  -3  -2 6341.40  222.38
  -5  -3   2 5928.47  206.29
  -5  -3   2 6068.08  206.87
   5   3  -1 5155.43  179.00
   5   3  -1 5313.27  139.98
  -5   3   1 5292.68  191.44
   5  -3  -1 5314.90  125.32
  -5  -3   1 5150.68  181.04
   5  -3  -1 4985.70  175.00
   5   3   0 2495.82   94.57
  -5   3   0 2605.72   95.78
   5  -3   0 2526.44   89.04
  -5  -3   0 2594.49   98.79
   5  -3   0 2665.57   77.24
   5   3   1  342.76   24.23
   5   3   1  296.65    8.88
  -5   3  -1  344.57   23.37
   5  -3   1  309.81   18.63
   5  -3   1  254.62   19.47
  -5  -3  -1  351.60   25.65
   5   3   2  616.71   35.61
  -5   3  -2  596.23   32.59
   5  -3   2  549.53   28.45
  -5  -3  -2  566.90   34.68
   5  -3   2  614.38   30.10
   5   3   3  961.13   48.43
  -5   3  -3  767.55   44.44
   5  -3   3  746.40   35.94
   5  -3   3 1023.74   44.02
  -5  -3  -3 1105.13   51.97
  -5   3  -4  164.35   17.27
   5   3   4  164.62   22.70
   5  -3   4  120.26   20.04
   5  -3   4  142.28   15.87
  -5  -3  -4  159.93   21.55
   5   3   5  698.76   46.47
  -5   3  -5  680.97   39.59
   5  -3   5  554.52   40.81
  -5  -3  -5  704.30   43.73
   5   3   6  426.68   40.44
  -5   3  -6  422.74   32.49
  -5   3  -6  511.98   32.32
  -5  -3  -6  535.65   39.20
   5  -3   6  439.88   39.58
   5   3   7  380.09   41.37
  -5   3  -7  353.11   27.13
  -5   3  -7  383.68   29.40
   5  -3   7  348.29   45.67
  -5  -3  -7  392.37   35.38
   5   3   8  325.90   42.90
  -5   3  -8  301.65   24.81
  -5   3  -8  338.83   33.42
   5  -3   8  347.30   39.85
  -5  -3  -8  356.21   36.61
   5   3   9  741.60   70.68
  -5   3  -9  683.21   52.29
  -5   3  -9  732.55   45.52
   5  -3   9  785.14   71.87
  -5  -3  -9  845.49   63.11
   5   3  10  184.85   47.10
  -5   3 -10  198.21   24.93
  -5   3 -10  222.27   29.96
   5  -3  10  180.90   38.32
  -5  -3 -10  165.07   31.51
   5   3  11  213.96   41.26
  -5   3 -11  155.73   25.10
  -5   3 -11  164.69   23.27
   5  -3  11  239.97   41.83
  -5  -3 -11  134.76   31.51
   5   3  12  236.51   52.71
  -5   3 -12  161.74   30.37
   5  -3  12  181.81   51.05
  -5  -3 -12  202.69   39.04
   5   3  13  119.55   37.21
   5  -3  13   47.48   38.83
  -5  -3 -13   96.13   28.08
   5   4 -17  186.04   47.48
   5  -4 -17  237.80   42.95
  -5  -4  17  275.59   46.36
   5   4 -16  187.95   46.41
  -5   4  16   97.04   32.33
  -5   4  16  115.87   34.50
  -5  -4  16  172.93   43.80
   5  -4 -16  164.75   33.90
   5   4 -15   71.72   28.70
  -5   4  15   72.19   19.44
  -5   4  15   24.58   26.35
   5  -4 -15   14.37   24.94
  -5  -4  15   33.36   31.62
   5   4 -14  196.12   35.61
  -5   4  14  152.74   26.66
  -5   4  14  102.28   28.29
  -5  -4  14  169.35   32.18
   5  -4 -14  150.44   38.46
   5   4 -13  232.07   42.80
  -5   4  13  302.75   31.15
  -5   4  13  244.38   31.06
  -5  -4  13  234.64   43.31
   5  -4 -13  232.16   43.52
   5   4 -12  446.34   50.57
  -5   4  12  395.70   29.30
  -5   4  12  476.48   39.57
  -5  -4  12  453.27   50.84
   5  -4 -12  387.75   42.31
   5   4 -11  709.36   60.94
  -5   4  11  668.71   41.58
  -5   4  11  641.38   49.65
  -5  -4  11  727.32   54.14
   5  -4 -11  748.96   65.20
   5   4 -10  112.55   24.14
  -5   4  10   42.22   12.04
  -5   4  10   97.48   19.40
   5  -4 -10   92.81   22.14
  -5  -4  10   93.54   19.80
   5   4  -9 2083.55  111.70
  -5   4   9 2028.75   70.24
  -5   4   9 2040.67   98.94
  -5  -4   9 1969.80   98.75
   5  -4  -9 2118.57  107.99
  -5  -4   9 1764.58   54.17
   5   4  -8  981.30   56.71
  -5   4   8  939.93   51.15
  -5   4   8  767.78   29.34
   5  -4  -8  985.96   56.68
  -5  -4   8  931.91   49.80
  -5  -4   8  848.19   28.38
   5   4  -7  512.11   36.98
  -5   4   7  502.47   16.43
  -5   4   7  602.58   35.18
   5  -4  -7  505.23   36.76
  -5  -4   7  451.37   30.23
   5   4  -6 1020.85   52.01
  -5   4   6 1055.96   51.99
   5  -4  -6 1092.46   55.23
  -5  -4   6 1113.73   48.75
  -5  -4   6 1032.94   35.20
   5   4  -5  929.33   46.73
  -5   4   5  936.43   48.62
   5  -4  -5  936.41   51.07
  -5  -4   5  929.12   44.03
  -5  -4   5  953.95   34.53
   5   4  -4 3970.33  150.78
  -5   4   4 3670.50  150.13
   5  -4  -4 4111.37  159.30
  -5  -4   4 4060.26  148.47
  -5  -4   4 3798.69  121.68
   5   4  -3 4286.51  137.64
  -5   4   3 4255.16  163.33
   5  -4  -3 3953.46  155.74
  -5  -4   3 4063.32  129.48
  -5  -4   3 4107.09  149.34
   5   4  -2  121.90   12.82
  -5   4   2  138.04   17.22
   5  -4  -2  101.66   15.81
  -5  -4   2  123.00   16.30
  -5  -4   2  113.40   15.90
   5   4  -1 5100.93  136.36
  -5   4   1 4977.37  190.20
   5  -4  -1 5002.55  111.26
   5  -4  -1 5203.04  190.56
  -5  -4   1 4877.55  182.35
  -5  -4   1 5030.38  181.24
   5   4   0 1580.30   65.11
  -5   4   0 1643.84   66.85
   5   4   0 1625.67   37.01
   5  -4   0 1629.69   47.39
  -5  -4   0 1559.35   63.75
   5  -4   0 1625.72   64.23
   5   4   1 4005.19  160.47
  -5   4  -1 4073.48  157.53
   5  -4   1 4045.95  122.93
   5  -4   1 3719.10  137.76
  -5  -4  -1 3827.18  151.19
   5   4   2   96.36   18.06
  -5   4  -2  105.52   15.49
   5  -4   2   94.14   14.59
   5  -4   2   90.57   13.00
  -5  -4  -2   85.90   17.32
   5   4   3  458.06   35.59
  -5   4  -3  509.29   30.75
   5  -4   3  496.72   27.65
   5  -4   3  523.58   34.30
  -5  -4  -3  528.59   36.67
   5   4   4  238.00   26.93
  -5   4  -4  210.99   20.80
   5  -4   4  256.79   21.72
   5  -4   4  207.47   27.57
  -5  -4  -4  243.10   26.81
  -5   4  -5    5.10   11.89
   5   4   5   39.92   16.89
   5  -4   5   16.32   19.20
   5  -4   5   26.76   12.45
  -5  -4  -5   18.89   16.20
   5   4   6  331.87   36.09
  -5   4  -6  385.54   33.56
  -5   4  -6  352.79   28.09
  -5  -4  -6  319.84   36.63
   5  -4   6  369.81   35.38
   5   4   7  295.97   37.32
  -5   4  -7  295.44   32.30
  -5   4  -7  299.54   26.82
   5  -4   7  375.28   38.91
  -5  -4  -7  366.95   35.08
   5   4   8  750.45   69.36
  -5   4  -8  759.74   54.41
  -5   4  -8  746.47   49.86
  -5  -4  -8  852.96   63.39
   5  -4   8  921.46   69.86
   5   4   9  557.47   63.23
  -5   4  -9  417.22   41.99
  -5   4  -9  390.51   32.92
   5  -4   9  441.45   53.19
  -5  -4  -9  477.17   45.33
  -5   4 -10  468.29   41.71
   5   4  10  450.89   56.31
  -5   4 -10  471.34   47.31
   5  -4  10  610.55   58.63
  -5  -4 -10  547.87   49.31
   5   4  11  686.77   74.89
  -5   4 -11  729.53   52.13
  -5   4 -11  566.40   42.79
   5  -4  11  683.85   74.25
  -5  -4 -11  718.69   64.41
   5   4  12  230.23   45.08
  -5   4 -12  188.75   35.48
   5  -4  12  281.04   57.47
  -5  -4 -12  202.13   38.04
   5   4  13  230.82   57.73
   5  -4  13  377.36   54.93
  -5  -4 -13  382.61   45.65
   5   5 -17  160.61   41.08
   5  -5 -17  105.91   36.31
  -5  -5  17  109.65   39.62
   5   5 -16  158.75   41.67
  -5   5  16  165.54   31.33
   5  -5 -16  169.85   35.55
  -5  -5  16  104.13   37.83
   5   5 -15  443.31   67.38
  -5   5  15  388.61   49.84
  -5   5  15  336.56   41.18
  -5  -5  15  367.84   50.37
   5  -5 -15  382.89   48.82
   5   5 -14   40.96   27.08
  -5   5  14   14.79   20.77
  -5   5  14   35.79   15.80
   5  -5 -14   45.74   22.70
  -5  -5  14   11.13   24.68
   5   5 -13  412.16   49.91
  -5   5  13  302.98   39.25
  -5   5  13  363.08   29.39
   5  -5 -13  381.01   44.48
  -5  -5  13  382.68   44.48
   5   5 -12 1513.83  109.14
  -5   5  12 1605.14   96.88
  -5   5  12 1419.00   77.73
  -5  -5  12 1399.29   97.10
   5  -5 -12 1554.70  111.66
   5   5 -11 1536.59  106.08
  -5   5  11 1657.56   97.58
  -5   5  11 1569.86   73.80
  -5  -5  11 1592.63   96.28
   5  -5 -11 1565.44   97.55
   5   5 -10  957.41   78.36
  -5   5  10  946.36   59.73
  -5   5  10  832.04   39.81
  -5  -5  10  845.42   58.59
   5  -5 -10  923.86   59.71
   5   5  -9 2431.98  135.25
  -5   5   9 2642.28  132.85
  -5   5   9 2476.22   85.46
  -5  -5   9 2712.24  132.30
   5  -5  -9 2799.25  138.17
   5   5  -8  308.22   30.77
  -5   5   8  286.30   29.24
  -5   5   8  267.24   13.99
   5  -5  -8  249.24   28.52
  -5  -5   8  270.03   11.77
  -5  -5   8  267.38   26.44
   5   5  -7  359.00   31.07
  -5   5   7  306.90   11.54
  -5   5   7  363.30   29.44
  -5  -5   7  303.77   13.01
   5  -5  -7  261.49   29.56
  -5  -5   7  338.03   26.77
   5   5  -6  710.66   42.24
  -5   5   6  741.21   43.35
  -5  -5   6  669.06   23.58
  -5  -5   6  709.33   39.46
   5  -5  -6  708.84   45.38
   5   5  -5 3529.34  137.19
  -5   5   5 3334.43  140.54
  -5  -5   5 3549.79  143.10
  -5  -5   5 3361.37  100.89
   5  -5  -5 3274.60  142.74
   5   5  -4  230.43   20.61
  -5   5   4  288.85   25.04
   5  -5  -4  263.65   24.26
  -5  -5   4  263.82   16.97
  -5  -5   4  275.50   22.64
   5   5  -3  702.35   29.46
  -5   5   3  726.05   38.16
   5  -5  -3  667.34   36.87
  -5  -5   3  648.26   28.47
  -5  -5   3  632.33   36.13
   5   5  -2 2337.28   70.32
  -5   5   2 2415.26   97.31
   5  -5  -2 2313.89   93.45
  -5  -5   2 2227.82   84.55
  -5  -5   2 2214.74   90.77
   5   5  -1 5494.82  146.73
  -5   5   1 5275.14  205.69
   5  -5  -1 5178.55  114.55
  -5  -5   1 5214.56  192.63
  -5  -5   1 5508.63  206.62
   5  -5  -1 5226.21  201.79
   5   5   0  641.48   36.88
   5   5   0  621.15   17.86
  -5   5   0  606.81   32.95
   5  -5   0  625.84   21.24
   5  -5   0  582.34   34.79
  -5  -5   0  665.22   35.47
   5   5   1 1013.49   50.90
  -5   5  -1 1022.95   46.17
   5  -5   1  906.55   44.89
  -5  -5  -1 1004.52   50.70
   5  -5   1  985.14   36.83
   5   5   2  414.60   32.38
  -5   5  -2  445.68   28.40
   5  -5   2  430.96   23.55
   5  -5   2  396.43   29.17
  -5  -5  -2  384.24   33.46
   5   5   3 3383.56  158.76
  -5   5  -3 3823.59  158.80
   5  -5   3 3615.98  149.95
   5  -5   3 3681.11  144.73
  -5  -5  -3 3478.87  160.92
  -5   5  -4 1015.16   49.69
   5   5   4  950.92   59.14
   5  -5   4  895.47   52.34
  -5  -5  -4  984.71   58.56
   5  -5   4  895.69   49.97
   5   5   5 1076.00   66.36
  -5   5  -5 1098.28   59.29
   5  -5   5 1011.44   57.57
   5  -5   5 1056.54   61.42
  -5  -5  -5 1095.02   66.73
   5   5   6  571.66   48.70
  -5   5  -6  562.35   41.33
  -5   5  -6  550.01   38.78
  -5  -5  -6  572.50   48.47
   5  -5   6  552.01   47.25
   5   5   7  340.27   42.87
  -5   5  -7  326.04   31.47
  -5   5  -7  352.54   33.59
   5  -5   7  355.45   40.57
  -5  -5  -7  409.04   42.43
  -5   5  -8  356.85   26.04
   5   5   8  322.71   46.12
  -5   5  -8  319.75   33.33
  -5  -5  -8  322.90   41.64
   5  -5   8  381.38   42.70
   5   5   9  205.03   38.69
  -5   5  -9  153.66   26.79
  -5   5  -9  185.32   21.60
   5  -5   9  228.01   36.74
  -5  -5  -9  249.85   34.49
  -5   5 -10   47.44   14.57
   5   5  10   79.81   29.55
  -5   5 -10   86.44   20.78
  -5  -5 -10   64.96   25.27
   5  -5  10   50.87   28.16
   5   5  11  197.76   45.77
  -5   5 -11  290.02   39.10
   5  -5  11  212.75   43.92
  -5  -5 -11  285.22   39.05
  -5   5 -12   84.64   26.03
   5   5  12  101.65   34.67
  -5  -5 -12  114.57   36.71
   5  -5  12  157.51   36.55
   5   5  13   87.23   36.01
   5  -5  13   94.30   35.96
  -5  -5 -13   43.52   29.13
   5   6 -17  328.47   56.17
  -5   6  17  290.92   54.33
   5  -6 -17  324.66   50.11
  -5  -6  17  311.20   56.08
   5   6 -16   38.55   30.01
  -5   6  16    4.43   28.59
   5  -6 -16   30.99   25.10
  -5  -6  16   45.84   27.47
   5   6 -15   10.81   29.38
  -5   6  15   40.91   22.72
   5  -6 -15   21.45   21.54
  -5  -6  15   -0.80   25.20
   5   6 -14  355.18   48.80
  -5   6  14  314.84   40.04
  -5   6  14  272.47   29.72
   5  -6 -14  323.16   40.28
  -5  -6  14  293.35   45.41
   5   6 -13  364.89   48.18
  -5   6  13  314.51   33.37
  -5   6  13  329.07   41.51
  -5  -6  13  377.95   45.69
   5  -6 -13  328.96   46.85
   5   6 -12  409.21   64.89
  -5   6  12  486.57   46.21
  -5   6  12  449.01   34.48
   5  -6 -12  439.32   45.61
  -5  -6  12  424.32   47.20
   5   6 -11 2371.01  143.55
  -5   6  11 2095.81   93.02
  -5   6  11 2353.75  139.36
  -5  -6  11 2272.45  139.28
   5  -6 -11 2347.94  134.46
   5   6 -10  320.80   37.39
  -5   6  10  344.82   38.37
  -5   6  10  287.57   18.83
   5  -6 -10  351.15   34.47
  -5  -6  10  373.89   36.67
   5   6  -9 1364.23   89.80
  -5   6   9 1397.91   50.94
  -5   6   9 1495.86   83.55
   5  -6  -9 1546.49   85.31
  -5  -6   9 1439.90   82.90
   5   6  -8   64.04   21.33
  -5   6   8   83.87   19.74
  -5   6   8   48.51    7.99
  -5  -6   8  101.99   18.60
   5  -6  -8  125.73   19.95
   5   6  -7  445.40   33.41
  -5   6   7  438.66   33.41
   5  -6  -7  483.25   35.04
  -5  -6   7  361.50   14.32
  -5  -6   7  429.46   31.86
   5   6  -6  917.71   51.06
  -5   6   6  837.05   53.03
   5  -6  -6  881.53   51.50
  -5  -6   6  956.52   51.66
   5   6  -5  795.20   41.42
  -5   6   5  737.03   44.84
  -5  -6   5  728.82   27.05
  -5  -6   5  761.56   45.29
   5  -6  -5  856.39   46.90
   5   6  -4 2194.48   83.61
  -5   6   4 2160.96   96.61
   5  -6  -4 2124.73   95.89
  -5  -6   4 2006.89   67.75
  -5  -6   4 2104.55   93.68
   5   6  -3 2561.94   87.59
  -5   6   3 2592.17  107.28
   5  -6  -3 2399.44  107.48
  -5  -6   3 2439.93  103.47
  -5  -6   3 2422.40   83.42
   5   6  -2 3043.27   97.53
  -5   6   2 3110.15  128.07
   5  -6  -2 3012.14  128.26
  -5  -6   2 3016.02  108.65
  -5  -6   2 3046.32  127.60
   5   6  -1  235.82   12.37
  -5   6   1  235.92   22.33
   5  -6  -1  235.31    9.01
  -5  -6   1  287.59   20.96
  -5  -6   1  249.35   22.59
   5  -6  -1  277.72   22.56
   5   6   0  371.96   27.69
   5   6   0  372.33   13.71
  -5   6   0  409.74   25.45
   5  -6   0  344.01   15.02
   5  -6   0  340.63   26.46
  -5  -6   0  402.52   27.11
   5   6   1  929.94   49.18
  -5   6  -1 1049.32   51.35
   5   6   1  833.57   17.53
   5  -6   1  929.48   47.14
   5  -6   1  862.11   34.05
  -5  -6  -1  842.70   45.58
   5   6   2  553.41   37.98
  -5   6  -2  500.86   30.82
   5  -6   2  552.91   30.30
  -5  -6  -2  546.90   37.51
   5  -6   2  568.32   36.84
   5   6   3 1338.06   75.35
  -5   6  -3 1377.54   68.07
   5  -6   3 1275.02   64.85
   5  -6   3 1292.98   62.18
  -5  -6  -3 1365.60   71.70
   5   6   4  421.18   39.26
  -5   6  -4  401.07   27.67
   5  -6   4  374.75   32.89
   5  -6   4  469.40   30.54
  -5  -6  -4  438.32   38.56
  -5   6  -5  419.23   28.01
   5   6   5  389.20   39.14
   5  -6   5  365.13   32.30
  -5  -6  -5  363.24   39.61
   5  -6   5  354.84   33.67
  -5   6  -6  956.32   56.44
   5   6   6 1005.87   68.52
  -5   6  -6 1060.97   64.06
  -5  -6  -6  998.98   73.41
   5  -6   6 1092.64   67.42
   5   6   7 2159.15  133.95
  -5   6  -7 2360.57  113.89
  -5   6  -7 2314.92  133.01
   5  -6   7 2217.85  133.37
  -5  -6  -7 2446.28  146.73
  -5   6  -8   38.33   17.87
   5   6   8    8.70   24.99
  -5   6  -8   42.40   15.26
   5  -6   8   10.34   22.50
  -5  -6  -8   55.50   22.98
   5   6   9  131.02   33.86
  -5   6  -9  124.01   21.10
  -5   6  -9  185.86   32.08
   5  -6   9  146.36   33.32
  -5  -6  -9  156.65   36.22
   5   6  10  265.22   47.96
  -5   6 -10  343.50   37.37
   5  -6  10  379.81   57.46
  -5  -6 -10  284.25   43.27
   5   6  11   91.01   27.39
  -5   6 -11  -21.28   24.26
   5  -6  11   18.21   27.63
  -5  -6 -11   17.83   24.75
   5   6  12  114.31   38.16
  -5   6 -12   83.14   29.11
   5  -6  12  186.23   39.19
  -5  -6 -12  117.89   32.98
   5   6  13   61.08   35.06
   5  -6  13  144.37   38.10
  -5  -6 -13   48.84   32.00
   5   7 -16  114.82   39.68
  -5   7  16   94.36   31.18
   5  -7 -16  114.96   38.70
  -5  -7  16  123.94   37.31
   5   7 -15   60.12   39.51
  -5   7  15  120.31   31.95
  -5  -7  15  139.32   35.29
   5   7 -14  211.89   42.28
  -5   7  14  196.10   36.66
   5  -7 -14  253.40   42.53
  -5  -7  14  164.89   41.27
   5   7 -13  183.71   39.71
  -5   7  13  145.30   23.75
  -5   7  13  198.19   41.63
  -5  -7  13  190.99   33.28
   5  -7 -13  175.99   30.44
   5   7 -12   34.64   25.19
  -5   7  12   66.78   26.77
  -5   7  12   19.17   12.26
   5  -7 -12   73.44   22.01
  -5  -7  12   24.01   24.66
   5   7 -11  279.44   35.53
  -5   7  11  281.15   37.06
  -5   7  11  240.39   22.08
   5  -7 -11  247.40   34.76
  -5  -7  11  205.34   35.77
   5   7 -10  215.18   35.52
  -5   7  10  179.07   35.54
  -5   7  10  287.84   19.62
  -5  -7  10  186.15   35.89
   5  -7 -10  253.63   38.82
   5   7  -9  513.87   45.25
  -5   7   9  500.42   44.71
  -5   7   9  417.14   22.35
   5  -7  -9  508.52   42.11
  -5  -7   9  518.92   44.35
   5   7  -8 2788.93  143.14
  -5   7   8 2574.40   77.48
  -5   7   8 3002.38  147.72
   5  -7  -8 2941.00  145.71
  -5  -7   8 2813.75  144.00
   5   7  -7 1523.22   81.67
  -5   7   7 1696.80   92.66
   5  -7  -7 1651.02   88.55
  -5  -7   7 1472.81   82.18
   5   7  -6 1743.03   84.60
  -5   7   6 1787.33   95.36
   5  -7  -6 1752.52   90.09
  -5  -7   6 1751.91   50.29
  -5  -7   6 1729.69   86.97
   5   7  -5 3863.66  165.28
  -5   7   5 3640.94  166.06
   5  -7  -5 3697.93  172.52
  -5  -7   5 3670.94  114.52
  -5  -7   5 3790.79  173.98
   5   7  -4  507.33   28.98
  -5   7   4  504.08   35.39
  -5  -7   4  496.08   21.80
  -5  -7   4  513.42   36.31
   5  -7  -4  452.29   34.01
   5   7  -3 2454.30   90.53
  -5   7   3 2453.46  109.18
   5  -7  -3 2336.04  108.67
  -5  -7   3 2348.48   84.38
  -5  -7   3 2409.90  111.47
   5   7  -2 2195.06   73.93
  -5   7   2 2204.46   98.57
   5  -7  -2 2088.84   97.07
  -5  -7   2 2189.83   82.85
  -5  -7   2 2246.98  100.84
   5   7  -1  897.14   30.87
  -5   7   1  913.02   45.53
   5  -7  -1  790.47   21.74
  -5  -7   1  879.31   47.17
  -5  -7   1  844.58   46.93
   5  -7  -1  788.26   46.07
   5   7   0   32.87   14.40
   5   7   0   18.30    5.49
  -5   7   0    7.04   12.69
   5  -7   0   22.33   13.54
  -5  -7   0   24.13   12.20
   5  -7   0   12.33    7.19
   5   7   1  528.62   39.39
   5   7   1  486.00   12.69
  -5   7  -1  562.39   30.85
   5  -7   1  518.30   21.72
   5  -7   1  557.41   34.56
  -5  -7  -1  544.10   33.61
   5   7   2 2554.07  124.24
  -5   7  -2 2581.20  114.51
   5  -7   2 2484.61   94.69
   5  -7   2 2484.37  117.30
  -5  -7  -2 2555.52  124.81
   5   7   3  114.68   20.00
  -5   7  -3  113.35   16.37
   5  -7   3   89.85   19.71
  -5  -7  -3  106.81   22.31
   5  -7   3   96.27   18.20
  -5   7  -4 1548.95   70.03
   5   7   4 1546.05   91.67
   5  -7   4 1493.45   83.90
  -5  -7  -4 1633.02   90.53
   5  -7   4 1546.41   83.05
   5   7   5  559.87   51.45
  -5   7  -5  592.46   42.69
   5  -7   5  561.12   48.04
   5  -7   5  602.49   50.13
  -5  -7  -5  524.35   47.53
   5   7   6  120.14   32.38
  -5   7  -6  194.68   23.00
  -5   7  -6  240.19   27.95
   5  -7   6  131.08   25.53
  -5  -7  -6  155.23   31.10
  -5   7  -7 3933.20  178.04
   5   7   7 3929.33  236.21
  -5   7  -7 3754.14  217.98
  -5  -7  -7 3848.69  222.32
   5  -7   7 4155.77  222.70
   5   7   8  185.61   36.72
  -5   7  -8  263.38   37.50
  -5   7  -8  190.59   22.62
   5  -7   8  197.51   36.11
  -5  -7  -8  246.91   44.13
   5   7   9  116.96   32.16
  -5   7  -9  117.24   26.28
  -5  -7  -9  102.52   31.67
   5   7  10   20.05   21.65
  -5   7 -10  -12.44   23.12
   5  -7  10   -4.37   21.70
  -5  -7 -10   -9.33   20.72
   5   7  11  440.02   60.69
  -5   7 -11  494.79   50.53
   5  -7  11  455.48   59.25
  -5  -7 -11  421.41   57.93
   5   7  12  112.98   38.34
  -5   7 -12   65.12   29.51
   5  -7  12  113.07   36.51
  -5  -7 -12  138.52   33.56
   5   8 -16   76.36   42.09
  -5   8  16   52.00   28.95
   5  -8 -16   56.94   31.93
  -5  -8  16   37.63   34.17
   5   8 -15   79.82   31.88
  -5   8  15   41.46   27.19
   5  -8 -15    0.16   29.14
  -5  -8  15   29.70   35.60
   5   8 -14  204.92   43.78
  -5   8  14  256.58   48.47
   5  -8 -14  196.91   36.27
  -5  -8  14  236.20   43.29
   5   8 -13   -3.82   28.55
  -5   8  13   53.46   25.91
   5  -8 -13   31.95   28.89
  -5  -8  13  117.10   28.58
   5   8 -12   70.40   25.98
  -5   8  12   43.64   25.21
   5  -8 -12   55.51   29.67
  -5  -8  12   36.67   25.40
  -5   8  11  335.72   42.54
   5   8 -11  308.75   46.79
  -5  -8  11  406.50   44.12
   5  -8 -11  286.22   39.44
   5   8 -10  788.89   63.06
  -5   8  10  729.05   65.10
   5  -8 -10  721.59   67.45
  -5  -8  10  859.80   64.73
   5   8  -9 1240.45   83.39
  -5   8   9 1279.71   89.40
   5  -8  -9 1339.68   92.18
  -5  -8   9 1260.18   84.11
   5   8  -8   73.06   21.70
  -5   8   8   54.61   22.77
   5  -8  -8   40.86   18.61
  -5  -8   8   32.04   20.89
   5   8  -7 3291.85  163.22
  -5   8   7 3455.69  170.79
   5  -8  -7 3470.08  173.23
  -5  -8   7 3190.73  171.40
   5   8  -6 2080.66  114.82
  -5   8   6 2811.48  138.46
   5  -8  -6 2949.78  147.22
  -5  -8   6 2590.97   75.45
  -5  -8   6 2806.54  137.40
   5   8  -5  322.87   30.20
  -5   8   5  266.01   30.73
   5  -8  -5  316.10   28.61
  -5  -8   5  307.31   17.06
  -5  -8   5  318.09   32.02
   5   8  -4   36.99   11.62
  -5   8   4   73.19   16.37
  -5  -8   4   28.81   10.56
  -5  -8   4   25.26   16.63
   5  -8  -4   15.47   14.72
   5   8  -3 1239.24   49.65
  -5   8   3 1422.13   71.43
   5  -8  -3 1412.49   74.78
  -5  -8   3 1402.73   53.85
  -5  -8   3 1363.60   73.36
   5   8  -2 2136.83   76.94
  -5   8   2 2307.49  100.69
   5  -8  -2 2112.21   49.01
   5  -8  -2 2185.96  106.52
  -5  -8   2 2331.76   96.27
  -5  -8   2 2320.44  107.44
   5   8  -1  233.57   14.30
  -5   8   1  232.36   23.54
   5  -8  -1  209.24   23.67
  -5  -8   1  263.18   21.54
   5  -8  -1  200.83   10.44
  -5  -8   1  229.79   23.99
   5   8   0 2532.25  127.51
   5   8   0 2487.00   70.96
  -5   8   0 2438.90  104.34
   5  -8   0 2530.30  119.82
  -5  -8   0 2700.11  114.46
   5  -8   0 2409.76   73.78
   5   8   1  583.44   41.52
   5   8   1  580.95   16.42
  -5   8  -1  583.34   40.43
   5  -8   1  599.54   28.01
   5  -8   1  665.37   51.65
  -5  -8  -1  652.34   42.02
   5   8   2  199.13   26.18
  -5   8  -2  152.99   22.00
   5  -8   2  124.16   23.26
  -5  -8  -2  194.23   24.29
   5  -8   2  171.70   17.95
   5   8   3 4007.18  209.55
  -5   8  -3 4032.39  165.56
   5  -8   3 3837.56  159.29
   5  -8   3 4010.35  201.56
  -5  -8  -3 4170.23  206.64
   5   8   4 2095.15  119.36
  -5   8  -4 2057.94   90.02
   5  -8   4 2089.92  104.36
  -5  -8  -4 2145.67  118.81
   5  -8   4 1983.37  111.77
  -5   8  -5  163.69   18.92
   5   8   5  201.75   33.09
   5  -8   5  255.66   34.93
  -5  -8  -5  190.09   31.36
   5  -8   5  155.99   24.54
   5   8   6   53.70   24.42
  -5   8  -6   51.57   16.71
  -5   8  -6   50.17   20.93
  -5  -8  -6   45.31   24.07
   5  -8   6   67.29   19.71
   5   8   7    2.91   22.83
  -5   8  -7   36.99   14.58
  -5   8  -7   29.31   18.76
   5  -8   7    8.06   23.79
  -5  -8  -7   28.59   22.36
   5   8   8  106.15   30.23
  -5   8  -8  142.64   26.72
  -5   8  -8   61.43   18.43
   5  -8   8  132.62   26.90
  -5  -8  -8   89.23   28.12
   5   8   9  213.13   40.64
  -5   8  -9  227.96   34.68
   5  -8   9  185.30   47.93
  -5  -8  -9  253.15   40.25
   5   8  10  504.07   63.43
  -5   8 -10  483.36   53.89
   5  -8  10  489.59   61.47
  -5  -8 -10  608.53   61.26
  -5   8 -11  245.33   47.69
   5   8  11  219.17   48.14
  -5  -8 -11  222.12   43.83
   5  -8  11  251.29   53.26
   5   8  12  109.27   37.99
  -5   8 -12  137.69   39.17
   5  -8  12   82.16   36.38
  -5  -8 -12   75.04   43.93
   5   9 -15   58.57   33.32
  -5   9  15   46.51   27.83
   5  -9 -15   44.29   25.54
  -5  -9  15  -11.71   30.71
   5   9 -14   41.78   29.82
  -5   9  14   18.04   32.70
   5  -9 -14   17.90   27.95
  -5  -9  14   61.45   35.20
   5   9 -13  139.28   46.47
  -5   9  13   88.86   32.75
   5  -9 -13  165.60   29.80
  -5  -9  13  135.04   42.87
   5   9 -12  341.97   52.09
  -5   9  12  402.53   49.39
   5  -9 -12  403.89   43.96
  -5  -9  12  377.00   52.47
   5   9 -11  422.08   51.81
  -5   9  11  445.56   56.07
   5  -9 -11  404.38   54.04
  -5  -9  11  383.95   57.36
   5   9 -10  386.15   52.12
  -5   9  10  390.84   46.39
   5  -9 -10  369.01   40.96
  -5  -9  10  382.54   44.09
   5   9  -9  -11.99   21.44
  -5   9   9   44.01   23.03
   5  -9  -9   14.39   20.36
  -5  -9   9   78.69   22.70
   5   9  -8 1854.11  110.92
  -5   9   8 1891.35  117.65
   5  -9  -8 1864.44  107.70
  -5  -9   8 1943.83  114.08
   5   9  -7  243.40   31.11
  -5   9   7  283.00   35.27
   5  -9  -7  306.11   32.60
  -5  -9   7  272.08   33.65
   5   9  -6 1213.21   63.69
  -5   9   6 1376.36   78.13
   5  -9  -6 1250.19   69.09
  -5  -9   6 1239.87   76.60
  -5  -9   6 1045.88   34.39
   5   9  -5 1288.77   64.79
  -5   9   5 1398.35   80.43
   5  -9  -5 1228.17   70.20
  -5  -9   5 1163.23   43.75
  -5  -9   5 1371.76   79.08
   5   9  -4  939.48   50.64
  -5   9   4 1003.67   60.97
  -5  -9   4  897.60   62.30
  -5  -9   4  956.11   42.29
   5  -9  -4  991.83   61.49
   5   9  -3  484.10   26.05
  -5   9   3  483.49   39.18
   5  -9  -3  484.51   37.42
  -5  -9   3  471.42   39.31
  -5  -9   3  487.30   30.12
   5   9  -2  723.70   30.27
  -5   9   2  747.86   52.31
   5  -9  -2  668.46   20.69
   5  -9  -2  683.58   46.02
  -5  -9   2  760.72   42.65
  -5  -9   2  740.15   47.17
   5   9  -1  864.96   36.93
  -5   9   1 1083.93   63.38
   5  -9  -1  985.48   30.92
   5  -9  -1  899.61   56.73
  -5  -9   1 1025.40   59.40
  -5  -9   1 1040.96   57.64
   5   9   0  377.86   16.97
  -5   9   0  364.00   29.44
   5   9   0  367.38   34.18
   5  -9   0  396.56   35.34
   5  -9   0  366.90   18.82
  -5  -9   0  420.10   31.94
   5   9   1  933.77   61.58
   5   9   1  959.37   29.59
  -5   9  -1 1060.38   52.22
   5  -9   1 1049.37   64.81
   5  -9   1  934.21   40.22
  -5  -9  -1 1066.56   61.07
   5   9   2  148.54   25.60
  -5   9  -2   82.32   18.39
   5  -9   2  145.89   22.73
   5  -9   2  154.93   17.77
  -5  -9  -2  217.48   23.69
  -5   9  -3  229.06   27.03
   5   9   3  255.60   33.72
   5  -9   3  241.26   26.93
   5  -9   3  307.33   33.19
  -5  -9  -3  287.50   32.67
  -5   9  -4 2391.68  106.88
   5   9   4 2495.30  140.09
   5  -9   4 2445.60  136.49
  -5  -9  -4 2406.29  142.25
   5  -9   4 2509.53  124.83
   5   9   5  467.00   57.09
  -5   9  -5  544.17   37.83
   5  -9   5  529.10   46.53
  -5  -9  -5  494.30   51.32
   5  -9   5  454.10   39.08
   5   9   6  720.84   64.16
  -5   9  -6  637.30   44.07
  -5   9  -6  719.10   57.32
  -5  -9  -6  762.62   62.64
   5  -9   6  699.42   52.92
  -5   9  -7   96.54   24.17
   5   9   7   42.89   27.93
  -5   9  -7   66.42   16.56
   5  -9   7   65.89   23.38
  -5  -9  -7  122.25   28.14
   5   9   8  320.74   45.60
  -5   9  -8  382.17   42.94
   5  -9   8  339.15   50.44
  -5  -9  -8  284.68   46.92
   5   9   9   69.16   37.90
  -5   9  -9  108.06   27.85
   5  -9   9   63.78   27.83
  -5  -9  -9   79.81   31.02
   5   9  10   17.45   34.69
  -5   9 -10   88.53   36.70
   5  -9  10  145.26   38.19
  -5  -9 -10  153.85   34.18
   5   9  11  107.07   40.17
  -5   9 -11  104.99   43.33
   5  -9  11  182.63   39.64
  -5  -9 -11  195.44   40.81
   5   9  12  413.17   64.49
  -5   9 -12  496.98   69.52
   5  -9  12  495.44   78.77
  -5  -9 -12  401.94   66.16
   5  10 -15  228.74   52.60
  -5  10  15  257.59   48.04
   5 -10 -15  240.58   49.89
  -5 -10  15  258.49   52.28
   5  10 -14  120.96   35.92
  -5  10  14   86.63   33.84
   5 -10 -14  115.03   29.06
  -5 -10  14   22.03   36.46
   5  10 -13   -4.81   26.43
  -5  10  13  -16.30   30.43
   5 -10 -13   53.55   26.36
  -5 -10  13   36.04   27.18
   5  10 -12   15.78   26.25
  -5  10  12   26.78   26.16
   5 -10 -12   17.14   26.08
  -5 -10  12   40.01   25.55
   5  10 -11  235.40   41.97
  -5  10  11  276.61   44.06
   5 -10 -11  250.79   35.01
  -5 -10  11  217.66   42.13
   5  10 -10   18.99   20.78
  -5  10  10    8.23   21.20
   5 -10 -10    2.73   18.03
  -5 -10  10   18.46   22.45
   5  10  -9 1341.05  100.09
  -5  10   9 1244.90   90.91
   5 -10  -9 1246.41   85.60
  -5 -10   9 1197.24   96.49
   5  10  -8  959.46   67.61
  -5  10   8  927.38   68.58
   5 -10  -8  938.87   68.44
  -5 -10   8  914.77   73.01
   5  10  -7 1089.52   72.22
  -5  10   7 1183.17   83.71
   5 -10  -7 1183.61   76.11
  -5 -10   7 1156.58   81.21
   5  10  -6  868.24   55.39
  -5  10   6  858.80   66.36
   5 -10  -6  857.20   58.53
  -5 -10   6  821.01   58.39
   5  10  -5  506.47   33.05
  -5  10   5  484.43   43.81
   5 -10  -5  433.04   41.73
  -5 -10   5  429.05   44.55
  -5 -10   5  423.08   22.27
   5  10  -4 1115.12   64.85
  -5  10   4 1198.81   69.35
  -5 -10   4 1104.28   72.38
  -5 -10   4 1026.66   46.58
   5 -10  -4 1108.33   68.68
   5  10  -3 1928.58   80.66
  -5  10   3 2080.10  107.51
  -5 -10   3 1842.96  107.30
  -5 -10   3 1838.74   74.58
   5 -10  -3 1929.00  101.72
   5  10  -2  103.26   16.86
  -5  10   2  104.80   22.61
   5 -10  -2  113.52    9.29
   5 -10  -2  122.64   22.72
  -5 -10   2  129.81   23.83
  -5 -10   2  171.44   16.85
   5  10  -1  475.43   25.18
  -5  10   1  351.59   34.69
   5 -10  -1  453.27   20.83
   5 -10  -1  519.39   42.04
  -5 -10   1  557.25   38.08
  -5 -10   1  499.33   40.13
   5  10   0  926.08   36.21
   5  10   0  959.93   63.65
  -5  10   0 1066.22   57.81
   5 -10   0  961.98   38.55
   5 -10   0 1032.48   65.36
  -5 -10   0  993.52   54.75
   5  10   1  136.32   24.70
   5  10   1  145.78   11.45
  -5  10  -1  136.78   24.04
   5 -10   1  179.64   26.15
  -5 -10  -1  194.17   23.44
   5 -10   1  139.57   16.33
  -5  10  -2   15.66   12.41
   5  10   2    3.48   17.20
   5 -10   2   16.04    9.67
   5 -10   2  -13.58   17.64
  -5 -10  -2   -0.43   16.30
  -5  10  -3  234.28   27.55
   5  10   3  251.20   33.12
   5 -10   3  226.76   33.26
   5 -10   3  246.32   22.25
  -5 -10  -3  268.29   31.58
  -5  10  -4   52.37   14.72
   5  10   4   77.06   24.96
   5 -10   4   59.49   16.66
   5 -10   4   62.96   23.46
  -5 -10  -4   94.11   23.90
   5  10   5  708.70   58.98
  -5  10  -5  557.86   36.99
   5 -10   5  580.15   55.51
   5 -10   5  680.59   52.64
  -5 -10  -5  663.56   55.92
   5  10   6  255.28   43.33
  -5  10  -6  313.53   27.97
  -5  10  -6  291.84   49.14
  -5 -10  -6  316.79   46.70
   5 -10   6  273.02   41.01
   5  10   7   34.52   22.30
  -5  10  -7   -8.29   19.68
   5 -10   7   -4.20   21.19
  -5 -10  -7    9.16   21.45
   5  10   8   15.71   24.95
  -5  10  -8   15.35   22.97
   5 -10   8   45.34   22.68
  -5 -10  -8   43.38   25.41
   5  10   9  353.66   51.18
  -5  10  -9  332.29   44.16
   5 -10   9  285.70   46.93
  -5 -10  -9  356.67   48.42
   5  10  10   89.35   39.31
  -5  10 -10  126.71   34.23
   5 -10  10  113.04   33.19
  -5 -10 -10  112.63   38.23
   5  10  11  130.20   36.58
  -5  10 -11   71.68   32.94
   5 -10  11   20.44   33.35
  -5 -10 -11  118.10   36.50
   5  11 -14  143.30   37.38
  -5  11  14   81.97   37.60
   5 -11 -14   88.29   31.37
  -5 -11  14  136.29   39.81
   5  11 -13   20.96   31.07
  -5  11  13  106.32   31.42
   5 -11 -13   81.01   26.40
  -5 -11  13   54.19   32.39
   5  11 -12  741.98   75.25
  -5  11  12  747.20   75.63
   5 -11 -12  586.85   59.46
  -5 -11  12  679.59   89.49
   5  11 -11  103.79   40.26
  -5  11  11  114.15   31.58
   5 -11 -11  107.87   26.76
  -5 -11  11  104.33   34.29
   5  11 -10  344.36   46.23
  -5  11  10  375.72   56.95
   5 -11 -10  328.69   39.34
  -5 -11  10  295.50   46.86
   5  11  -9  139.06   29.27
  -5  11   9  117.78   31.42
   5 -11  -9  109.09   26.10
   5  11  -8 1622.41   99.20
  -5  11   8 1416.39  104.60
   5 -11  -8 1463.48  104.29
  -5 -11   8 1708.49  125.12
   5  11  -7   20.53   22.75
  -5  11   7  108.35   27.50
   5 -11  -7   93.94   23.05
  -5 -11   7   55.00   24.58
   5  11  -6  358.21   36.72
  -5  11   6  365.73   43.03
   5 -11  -6  400.33   41.50
  -5 -11   6  412.06   43.46
   5  11  -5   96.87   19.07
  -5  11   5  127.09   24.74
   5 -11  -5   92.24   21.72
  -5 -11   5   92.60   24.43
  -5 -11   5   69.70   11.83
  -5  11   4  430.87   43.42
   5  11  -4  488.76   34.45
  -5 -11   4  474.05   43.81
   5 -11  -4  475.71   42.00
  -5 -11   4  475.06   28.47
   5  11  -3  972.64   51.34
  -5  11   3 1110.45   73.50
  -5 -11   3  918.92   70.60
  -5 -11   3  952.70   49.75
   5 -11  -3  937.83   64.31
   5  11  -2 1219.27   58.54
  -5  11   2 1221.00   72.94
   5 -11  -2  986.28   37.40
   5 -11  -2 1122.75   67.94
  -5 -11   2 1088.94   76.09
  -5 -11   2 1103.77   55.09
   5  11  -1  534.61   29.03
  -5  11   1  470.09   45.46
   5 -11  -1  439.54   22.51
   5 -11  -1  447.33   40.80
  -5 -11   1  475.94   34.74
  -5 -11   1  423.80   43.27
   5  11   0  442.36   42.08
   5  11   0  479.47   24.85
  -5  11   0  552.79   44.58
   5 -11   0  431.27   25.63
   5 -11   0  529.57   48.11
  -5 -11   0  480.88   38.03
   5  11   1  770.29   59.25
  -5  11  -1  768.30   45.35
   5 -11   1  768.73   59.96
  -5 -11  -1  891.95   54.86
   5 -11   1  700.93   34.89
  -5  11  -2 2697.15  135.74
   5  11   2 2707.11  156.80
   5 -11   2 2537.40  115.55
   5 -11   2 2716.98  156.09
  -5 -11  -2 2931.13  169.75
   5  11   3  127.45   29.46
  -5  11  -3  110.82   22.88
   5 -11   3  134.43   36.39
  -5 -11  -3   94.45   26.33
   5 -11   3  143.49   21.10
  -5  11  -4  248.57   23.99
   5  11   4  296.69   39.62
   5 -11   4  309.94   28.77
   5 -11   4  343.96   39.88
  -5 -11  -4  309.83   40.17
  -5  11  -5  175.28   18.86
   5  11   5  271.54   36.05
   5 -11   5  170.30   25.55
   5 -11   5  241.25   36.05
  -5 -11  -5  134.64   34.94
   5  11   6   83.94   31.11
  -5  11  -6   99.85   30.63
   5 -11   6  130.78   24.80
  -5 -11  -6  152.80   31.63
   5  11   7   -6.31   28.81
  -5  11  -7   11.88   19.73
   5 -11   7   -2.99   18.50
  -5 -11  -7   25.38   27.49
   5  11   8  103.90   30.07
  -5  11  -8   68.81   29.11
   5 -11   8   55.23   27.54
  -5 -11  -8  111.21   32.05
   5  11   9   74.41   33.00
  -5  11  -9   84.73   29.05
   5 -11   9   43.90   29.28
  -5 -11  -9  105.52   40.49
   5  11  10   -0.09   32.47
  -5  11 -10  120.14   36.23
   5 -11  10   53.91   30.80
  -5 -11 -10   70.13   33.28
  -5  11 -11   26.88   29.30
  -5 -11 -11   19.56   30.82
   5  12 -14   49.28   35.90
  -5  12  14   31.35   33.95
  -5 -12  14   64.63   34.00
   5  12 -13  108.43   38.73
  -5  12  13   90.71   36.43
   5 -12 -13  102.70   28.13
  -5 -12  13   57.91   39.17
   5  12 -12  138.99   36.16
  -5  12  12  126.79   36.83
   5 -12 -12   84.42   28.12
  -5 -12  12   68.77   35.95
   5  12 -11  362.64   61.17
  -5  12  11  428.88   66.08
   5 -12 -11  346.60   48.29
  -5 -12  11  333.96   67.68
  -5  12  10  219.40   43.50
   5  12 -10  221.27   40.71
  -5 -12  10  351.50   56.05
   5 -12 -10  245.74   35.24
   5  12  -9  103.46   28.68
  -5  12   9  143.94   30.09
   5 -12  -9   86.25   26.22
  -5 -12   9   31.34   30.79
   5  12  -8  422.44   45.95
  -5  12   8  393.95   49.41
   5 -12  -8  445.62   52.67
  -5 -12   8  425.16   52.60
   5  12  -7  162.22   29.54
  -5  12   7  170.70   36.74
   5 -12  -7  208.62   30.97
  -5 -12   7  114.62   29.99
   5  12  -6 1350.14   86.83
  -5  12   6 1437.11   99.51
   5 -12  -6 1247.16   86.48
  -5 -12   6 1265.87   97.86
   5  12  -5  324.65   33.15
  -5  12   5  357.21   40.68
  -5 -12   5  336.19   39.27
  -5 -12   5  237.20   20.39
   5 -12  -5  312.89   35.27
   5  12  -4  185.58   23.45
  -5  12   4  154.29   30.32
   5 -12  -4  170.40   28.06
  -5 -12   4  126.83   36.19
  -5 -12   4  156.07   18.25
   5  12  -3  345.55   28.27
  -5  12   3  401.20   41.55
   5 -12  -3  308.78   36.87
  -5 -12   3  379.84   37.74
  -5 -12   3  341.67   29.08
   5  12  -2 1263.54   65.95
  -5  12   2 1401.06   82.83
   5 -12  -2 1205.31   86.45
  -5 -12   2 1148.39   80.08
  -5 -12   2 1235.59   69.43
   5  12  -1  210.89   18.30
  -5  12   1  213.28   28.56
   5 -12  -1  188.76   16.98
   5 -12  -1  236.75   34.44
  -5 -12   1  181.13   26.12
  -5 -12   1  214.77   31.31
   5  12   0  840.58   63.02
   5  12   0  853.79   41.28
  -5  12   0  855.19   57.67
   5 -12   0  835.98   41.14
   5 -12   0  874.63   67.94
  -5 -12   0  820.27   54.00
   5  12   1  506.61   49.79
  -5  12  -1  661.63   46.52
   5 -12   1  639.12   53.34
   5 -12   1  513.17   33.48
  -5 -12  -1  590.57   46.21
  -5  12  -2 1069.62   67.07
   5  12   2 1106.25   77.25
   5 -12   2 1004.47   50.01
   5 -12   2  961.66   78.76
  -5 -12  -2 1100.69   72.57
  -5  12  -3  360.75   29.85
   5  12   3  400.10   45.14
   5 -12   3  408.78   29.94
   5 -12   3  467.42   48.53
  -5 -12  -3  386.54   43.10
   5  12   4  226.90   39.85
  -5  12  -4  255.11   27.49
   5 -12   4  224.80   26.28
   5 -12   4  248.92   37.49
  -5 -12  -4  346.16   38.82
  -5  12  -5   28.74   16.02
   5  12   5   12.34   29.70
   5 -12   5   53.76   16.86
   5 -12   5    6.38   29.27
  -5 -12  -5   28.36   24.26
   5  12   6  174.16   37.79
  -5  12  -6  164.54   35.18
   5 -12   6  123.76   27.45
  -5 -12  -6  226.79   36.94
   5  12   7    8.27   26.41
  -5  12  -7   20.69   25.31
   5 -12   7   40.17   21.57
  -5 -12  -7   99.81   27.49
   5  12   8  142.56   39.14
  -5  12  -8  214.07   38.42
   5 -12   8  137.10   32.37
  -5 -12  -8  179.78   40.31
   5  12   9   85.50   36.62
  -5  12  -9  132.34   34.09
   5 -12   9   99.95   32.85
  -5 -12  -9  114.21   38.58
   5  12  10  190.35   49.48
  -5  12 -10  190.07   44.91
   5 -12  10  205.70   53.35
  -5 -12 -10  239.02   46.40
   5  13 -13  160.99   46.97
  -5  13  13  146.27   43.01
  -5 -13  13  168.49   48.10
   5  13 -12   54.64   42.14
  -5  13  12   42.05   34.39
   5 -13 -12   38.25   30.67
  -5 -13  12  108.86   34.95
   5  13 -11  294.82   55.16
  -5  13  11  331.28   58.10
   5 -13 -11  464.41   46.24
  -5 -13  11  322.02   57.85
   5  13 -10  464.30   52.93
  -5  13  10  415.43   56.65
   5 -13 -10  383.08   57.91
  -5 -13  10  393.95   56.16
   5  13  -9   15.37   30.09
  -5  13   9   96.95   26.05
   5 -13  -9   23.40   23.07
  -5 -13   9  -12.75   26.03
   5  13  -8  267.02   40.39
  -5  13   8  280.27   42.02
   5 -13  -8  279.82   37.50
  -5 -13   8  343.07   47.16
   5  13  -7  493.01   56.63
  -5  13   7  429.63   52.76
   5 -13  -7  401.10   43.51
  -5 -13   7  422.06   53.45
   5  13  -6  525.47   51.80
  -5  13   6  662.64   73.57
   5 -13  -6  553.48   53.24
  -5 -13   6  549.37   57.61
   5  13  -5  916.51   62.28
  -5  13   5  889.13   77.27
   5 -13  -5  889.16   65.82
  -5 -13   5  773.07   72.78
   5  13  -4   33.92   15.20
  -5  13   4   -8.19   19.18
   5 -13  -4   28.94   18.70
  -5 -13   4   13.30   21.25
  -5 -13   4   11.19   12.34
   5  13  -3   88.21   17.86
  -5  13   3   76.49   24.33
   5 -13  -3  118.87   31.54
  -5 -13   3   77.80   25.32
  -5 -13   3   67.41   14.64
   5  13  -2  989.78   59.35
  -5  13   2  982.89   70.76
   5 -13  -2 1017.26   73.67
  -5 -13   2 1017.23   75.40
  -5 -13   2  898.47   54.14
   5  13  -1  196.26   19.10
  -5  13   1  143.71   28.28
   5 -13  -1  142.89   34.24
  -5 -13   1  158.27   32.82
  -5 -13   1  215.44   28.85
   5  13   0 1020.82   50.84
   5  13   0 1017.67   75.79
  -5  13   0 1169.33   73.24
   5 -13   0  918.63   50.82
   5 -13   0 1066.28   78.55
  -5 -13   0 1012.81   66.18
   5  13   1  392.23   50.85
  -5  13  -1  359.22   31.82
   5 -13   1  336.85   43.90
   5 -13   1  327.41   24.38
  -5 -13  -1  445.09   45.64
  -5  13  -2  269.45   33.93
   5  13   2  316.41   49.41
   5 -13   2  385.91   43.62
   5 -13   2  304.00   28.13
  -5 -13  -2  284.02   37.52
  -5  13  -3  294.72   26.67
   5  13   3  304.38   50.43
   5 -13   3  241.88   30.96
   5 -13   3  229.85   43.30
  -5 -13  -3  328.39   46.34
  -5  13  -4  698.01   50.28
   5  13   4  878.29   68.29
   5 -13   4  700.79   56.56
   5 -13   4  684.97   73.29
  -5 -13  -4  785.20   67.36
   5  13   5   40.04   26.85
   5 -13   5   59.02   25.31
   5 -13   5   28.59   22.02
  -5 -13  -5   26.18   26.34
   5  13   6   54.71   32.40
  -5  13  -6   15.78   24.94
   5 -13   6   31.26   18.69
  -5 -13  -6   -8.15   31.00
   5  13   7   99.67   29.14
  -5  13  -7    9.87   29.05
   5 -13   7   45.11   22.47
  -5 -13  -7   14.29   35.76
   5  13   8  186.26   44.31
  -5  13  -8  230.74   41.70
   5 -13   8  177.77   35.74
  -5 -13  -8  144.06   40.16
   5  13   9  185.20   40.29
  -5  13  -9  136.41   43.14
   5 -13   9  154.40   37.25
  -5 -13  -9  152.77   42.79
   5  14 -12  275.79   50.86
  -5  14  12  278.46   61.50
   5 -14 -12  169.05   46.60
  -5 -14  12  254.81   49.69
   5  14 -11  124.85   36.39
  -5  14  11  108.04   39.13
   5 -14 -11   85.17   30.25
  -5 -14  11  109.92   36.44
   5  14 -10  217.83   50.13
  -5  14  10  251.97   44.63
   5 -14 -10  198.79   35.84
  -5 -14  10  201.72   43.95
   5  14  -9   63.15   28.36
  -5  14   9  103.25   30.18
   5 -14  -9   56.18   24.71
  -5 -14   9   43.47   31.78
   5  14  -8  137.68   35.61
  -5  14   8  142.19   34.13
   5 -14  -8   84.75   28.23
  -5 -14   8   61.01   34.24
   5  14  -7   28.23   23.46
  -5  14   7   10.68   27.77
   5 -14  -7   20.84   22.05
  -5 -14   7   70.68   26.01
   5  14  -6   64.69   22.73
  -5  14   6   66.95   29.76
   5 -14  -6   12.09   24.15
  -5 -14   6   76.39   28.20
   5  14  -5  924.20   71.39
  -5  14   5  970.75   80.17
   5 -14  -5  783.35   77.22
  -5 -14   5  840.67   72.79
   5  14  -4   54.16   22.43
  -5  14   4   26.85   24.33
   5 -14  -4   65.41   23.47
  -5 -14   4   67.65   24.26
  -5 -14   4   25.99   12.01
   5  14  -3   29.71   16.87
  -5  14   3   -3.84   21.09
   5 -14  -3   16.99   20.56
  -5 -14   3  -20.12   21.19
  -5 -14   3   27.71   15.05
   5  14  -2   28.18   13.92
  -5  14   2   13.07   20.94
   5 -14  -2   48.41   29.13
  -5 -14   2   -6.59   22.55
  -5 -14   2   49.59   15.27
   5  14  -1  270.90   27.57
  -5  14   1  285.75   34.35
   5 -14  -1  287.22   40.14
  -5 -14   1  328.73   47.18
  -5 -14   1  209.38   33.94
   5  14   0  526.59   57.03
  -5  14   0  563.02   53.65
   5 -14   0  637.97   57.52
  -5 -14   0  576.70   53.53
   5  14   1  544.06   46.55
  -5  14  -1  394.32   41.56
   5 -14   1  432.91   46.29
   5 -14   1  324.18   30.05
  -5 -14  -1  427.73   40.58
  -5  14  -2  184.58   23.65
   5  14   2  269.80   36.57
   5 -14   2  183.13   25.07
   5 -14   2  198.24   34.84
  -5 -14  -2  136.94   39.14
  -5  14  -3   78.42   19.57
   5  14   3   23.16   27.08
   5 -14   3   20.26   20.36
   5 -14   3   71.74   28.76
  -5 -14  -3   87.66   25.82
   5  14   4  382.27   48.94
   5 -14   4  334.81   49.52
   5 -14   4  320.24   32.10
  -5 -14  -4  292.38   45.80
   5  14   5  141.99   31.55
  -5  14  -5   77.46   24.45
   5 -14   5   92.48   22.49
  -5 -14  -5   92.39   32.52
   5  14   6  218.75   42.93
  -5  14  -6  147.54   40.28
   5 -14   6  182.79   30.74
  -5 -14  -6  240.77   42.74
   5  14   7   48.50   39.85
  -5  14  -7   94.23   30.88
   5 -14   7   56.70   24.62
  -5 -14  -7   82.03   32.09
   5  14   8  106.35   35.56
  -5  14  -8   68.46   43.73
   5 -14   8   84.99   27.86
  -5 -14  -8   59.28   38.57
   5  15 -11   86.95   33.30
  -5  15  11   58.34   34.30
   5 -15 -11   36.51   25.10
  -5 -15  11   33.72   35.90
   5  15 -10   31.77   29.05
  -5  15  10   77.93   33.68
   5 -15 -10   33.23   25.79
  -5 -15  10   82.45   33.07
   5  15  -9  101.28   34.24
  -5  15   9  110.02   36.85
   5 -15  -9  126.68   28.17
  -5 -15   9   82.74   36.75
   5  15  -8  317.28   41.92
  -5  15   8  159.56   46.92
   5 -15  -8  271.88   37.83
  -5 -15   8  275.89   45.82
   5  15  -7   34.14   27.40
  -5  15   7  101.48   31.27
   5 -15  -7   41.41   25.13
  -5 -15   7   92.16   30.04
   5  15  -6  108.51   35.24
  -5  15   6  136.78   36.86
   5 -15  -6  167.87   31.17
  -5 -15   6   90.46   35.77
   5  15  -5   47.14   24.30
  -5  15   5  132.70   30.04
   5 -15  -5  115.22   35.23
  -5 -15   5   86.84   32.13
   5  15  -4  133.20   22.94
  -5  15   4  105.35   29.31
   5 -15  -4  103.41   29.77
  -5 -15   4   48.58   30.10
   5  15  -3  150.61   26.67
  -5  15   3  145.85   31.17
   5 -15  -3  122.12   31.78
  -5 -15   3  109.57   30.89
  -5 -15   3  120.65   23.31
   5  15  -2  295.43   32.17
  -5  15   2  263.17   44.37
   5 -15  -2  323.01   41.39
  -5 -15   2  332.52   38.62
  -5 -15   2  150.24   26.23
   5  15  -1  506.87   41.80
  -5  15   1  564.03   50.68
   5 -15  -1  571.18   56.55
  -5 -15   1  564.92   50.13
  -5 -15   1  485.85   57.02
   5  15   0  550.38   53.97
  -5  15   0  481.91   53.36
   5 -15   0  538.56   54.67
  -5 -15   0  501.29   46.36
  -5  15  -1   12.60   19.74
   5  15   1   59.66   22.50
  -5 -15  -1    4.60   19.68
   5 -15   1   18.18   24.06
  -5  15  -2   16.81   13.77
   5  15   2  -20.22   23.24
   5 -15   2    8.57   16.47
   5 -15   2    9.18   24.74
  -5 -15  -2   27.29   20.43
   5  15   3   41.10   27.74
   5 -15   3   37.65   32.01
   5 -15   3   62.80   21.59
  -5 -15  -3  115.83   27.83
   5  15   4  100.20   30.51
   5 -15   4  100.18   33.26
   5 -15   4   39.22   24.81
  -5 -15  -4  122.32   30.45
   5  15   5   54.84   35.79
  -5  15  -5   53.79   30.68
   5 -15   5   33.42   19.83
  -5 -15  -5   51.69   28.95
   5  15   6  152.80   36.99
  -5  15  -6  189.21   49.59
   5 -15   6  121.14   34.56
  -5 -15  -6  113.74   37.47
   5  15   7   83.03   35.50
  -5  15  -7   83.62   35.55
   5 -15   7   86.72   28.24
  -5 -15  -7  115.75   37.17
   5  16 -10   59.39   29.42
  -5  16  10   28.55   30.50
   5 -16 -10   34.60   24.73
  -5 -16  10   11.16   30.99
   5  16  -9  -40.64   32.39
  -5  16   9   98.74   29.75
   5 -16  -9  -19.08   27.61
  -5 -16   9   15.36   27.13
   5  16  -8   12.40   27.29
  -5  16   8    9.42   29.75
   5 -16  -8   26.66   23.37
  -5 -16   8   83.07   30.03
   5  16  -7  275.43   44.49
  -5  16   7  263.46   51.55
   5 -16  -7  273.40   40.53
  -5 -16   7  290.33   51.88
   5  16  -6  256.94   42.53
  -5  16   6  217.25   44.30
   5 -16  -6  202.77   38.81
  -5 -16   6  167.78   43.76
   5  16  -5   33.05   22.31
  -5  16   5   11.29   27.86
   5 -16  -5  100.28   32.71
  -5 -16   5   35.24   27.19
   5  16  -4  843.89   69.41
  -5  16   4 1008.48   85.47
   5 -16  -4  878.07   84.37
  -5 -16   4  844.99   81.00
   5  16  -3  196.41   34.21
  -5  16   3  206.19   40.04
   5 -16  -3  263.19   40.78
  -5 -16   3  216.46   40.35
   5  16  -2   12.18   14.18
  -5  16   2   23.83   20.88
   5 -16  -2   29.30   23.04
  -5 -16   2  -14.77   22.69
  -5 -16   2   30.41   14.79
  -5  16   1   75.64   32.10
   5 -16  -1  151.70   32.06
  -5 -16   1  112.47   23.54
   5  16   0   81.46   30.07
  -5  16   0  106.43   24.15
   5 -16   0   99.51   31.13
  -5 -16   0   86.22   28.50
   5  16   1  236.35   32.93
  -5  16  -1   69.67   27.52
   5 -16   1   45.24   35.03
  -5 -16  -1   93.54   32.54
   5  16   2   48.22   32.10
   5 -16   2   40.31   27.65
  -5 -16  -2   44.99   24.98
   5  16   3  -16.97   22.89
   5 -16   3    7.96   24.28
  -5 -16  -3    7.12   21.34
   5  16   4  310.51   50.62
   5 -16   4  315.49   51.30
  -5 -16  -4  266.96   58.94
   5  16   5  231.18   46.78
  -5  16  -5  169.43   48.20
  -5 -16  -5  257.62   44.90
   5  16   6  273.73   52.64
  -5  16  -6  284.59   55.09
  -5 -16  -6  307.65   50.94
   5  17  -8  159.99   40.04
  -5  17   8  172.52   43.76
   5 -17  -8  162.74   43.38
  -5 -17   8  185.74   44.62
   5  17  -7  127.00   32.53
  -5  17   7  107.18   38.03
   5 -17  -7   94.08   31.71
  -5 -17   7   71.60   38.81
   5  17  -6  135.81   33.70
  -5  17   6   81.20   31.95
   5 -17  -6   29.18   27.79
  -5 -17   6   63.88   33.88
   5  17  -5   32.37   27.63
  -5  17   5    9.22   28.08
   5 -17  -5   57.72   31.11
  -5 -17   5    7.05   26.15
   5  17  -4   -7.62   22.25
  -5  17   4   25.55   23.52
   5 -17  -4  -26.30   21.68
  -5 -17   4   42.81   23.25
   5  17  -3  128.85   26.95
  -5  17   3  183.52   47.66
   5 -17  -3  141.00   35.64
  -5 -17   3  153.93   37.18
  -5  17   2  129.53   32.60
   5 -17  -2  187.01   34.66
  -5 -17   2   85.80   34.19
   5  17  -1  151.66   35.63
  -5  17   1  113.54   30.36
   5 -17  -1  122.96   35.50
  -5 -17   1  122.87   28.32
   5  17   0  145.70   29.55
  -5  17   0  -11.76   27.98
   5 -17   0   78.26   31.59
  -5 -17   0   45.63   22.44
   5  17   1  389.58   54.29
   5 -17   1  530.50   60.53
  -5 -17  -1  373.32   45.88
   5  17   2  337.85   47.28
   5 -17   2  375.12   56.74
  -5 -17  -2  284.28   44.39
   5  17   3   93.70   34.55
   5 -17   3   97.92   33.93
  -5 -17  -3   68.95   39.35
   5  17   4   32.92   28.39
  -5  17  -4   -1.15   31.22
  -5 -17  -4   17.45   25.69
   5  18  -6    9.99   23.41
  -5  18   6    3.76   27.92
   5 -18  -6  -11.93   25.04
  -5 -18   6   67.10   35.33
   5  18  -5  132.15   33.53
  -5  18   5  139.13   37.24
   5 -18  -5  139.55   39.20
  -5 -18   5  161.06   38.23
  -5  18   4  208.75   43.15
   5 -18  -4  216.25   49.00
  -5 -18   4  152.67   41.96
  -5  18   3  166.06   43.87
   5 -18  -3   98.74   33.31
  -5 -18   3  111.39   35.65
  -5  18   2   19.14   28.61
   5 -18  -2    6.30   24.43
  -5 -18   2  -33.87   23.40
   5  18  -1   49.75   29.43
  -5  18   1   42.02   25.32
   5 -18  -1   59.85   35.48
   5  18   0  469.13   56.47
   5 -18   0  427.95   63.20
  -5 -18   0  360.09   44.28
   5  18   1   49.39   28.03
   5 -18   1   -5.30   28.34
  -5 -18  -1   10.06   21.06
   5  18   2  125.20   37.37
   5 -18   2   81.65   41.52
  -5 -18  -2  145.48   31.25
   6   0 -17  -25.85   26.11
  -6   0  17   -0.76   21.66
   6   0 -16  603.27   67.24
  -6   0  16  559.82   56.61
   6   0 -15  444.28   56.71
  -6   0  15  451.55   46.77
   6   0 -14 1231.90   93.67
  -6   0  14  983.22   58.77
  -6   0  14 1093.05   75.41
   6   0 -13 4226.46  260.16
  -6   0  13 3966.74  198.10
  -6   0  13 4024.78  229.15
   6   0 -12   57.74   31.84
  -6   0  12   71.18   17.04
  -6   0  12   47.62   13.42
   6   0 -11   -3.50   21.79
  -6   0  11  -15.19   15.11
  -6   0  11  -21.46   13.22
   6   0 -10 2471.59  137.88
  -6   0  10 2383.45  100.99
  -6   0  10 2390.99  106.09
   6   0  -9  283.74   33.93
  -6   0   9  329.27   23.96
  -6   0   9  335.20   24.88
   6   0  -8  384.06   35.96
  -6   0   8  404.78   24.17
  -6   0   8  369.48   24.53
   6   0  -7 1154.57   62.49
  -6   0   7 1183.12   44.69
  -6   0   7 1182.31   50.08
   6   0  -6  365.57   33.81
  -6   0   6  316.95   22.17
  -6   0   6  345.88   16.37
   6   0  -5  130.42   20.03
  -6   0   5  194.31   18.31
  -6   0   5  180.72   14.08
   6   0  -412920.48  508.24
  -6   0   412988.36  396.70
  -6   0   413232.55  513.95
   6   0  -3  195.10   11.91
   6   0  -3  239.96   18.74
  -6   0   3  208.95   19.45
   6   0  -213762.55  457.72
   6   0  -215659.78  542.30
  -6   0   213851.09  570.91
   6   0  -1 9430.86  309.22
   6   0  -1 9280.66  314.88
  -6   0   1 9370.79  374.31
   6   0   0 3094.51  104.38
   6   0   0 2867.28   89.99
  -6   0   0 3271.43  131.53
   6   0   1  951.73   42.50
   6   0   1 1013.46   35.58
  -6   0  -1  973.40   50.23
   6   0   2   14.56    7.31
   6   0   2   -7.56   10.62
  -6   0  -2    4.55   12.24
   6   0   3  567.86   22.66
   6   0   3  577.34   34.49
  -6   0  -3  537.69   37.08
   6   0   4  376.48   31.13
   6   0   4  335.19   18.58
  -6   0  -4  441.53   31.33
   6   0   5   80.22   22.73
  -6   0  -5  100.83   11.71
  -6   0  -5  128.06   20.07
   6   0   6  342.46   39.00
  -6   0  -6  329.59   19.32
  -6   0  -6  371.35   38.67
   6   0   7   30.56   21.19
  -6   0  -7   14.87    9.47
  -6   0  -7    1.29   16.86
   6   0   8  307.68   38.73
  -6   0  -8  220.02   19.88
  -6   0  -8  265.73   32.54
   6   0   9  610.72   67.55
  -6   0  -9  667.13   53.02
   6   0  10   42.33   31.12
  -6   0 -10   15.08   19.81
   6   0  11  143.78   36.68
  -6   0 -11  141.67   29.23
   6   0  12   25.54   36.93
  -6   0 -12   17.96   19.86
   6   0  13  180.56   46.61
   6   1 -17  114.46   35.05
  -6   1  17   47.52   34.91
   6  -1 -17  124.90   32.66
  -6  -1  17   99.24   30.05
   6   1 -16  108.70   40.39
  -6   1  16  198.54   30.76
   6  -1 -16  115.19   37.10
  -6  -1  16  175.30   33.53
   6   1 -15  733.44   75.12
  -6   1  15  718.31   57.42
  -6   1  15  726.75   56.89
   6  -1 -15  808.33   74.37
  -6  -1  15  734.90   64.46
  -6   1  14  277.68   31.25
   6   1 -14  265.11   45.68
  -6   1  14  268.53   30.45
  -6  -1  14  296.18   34.35
   6  -1 -14  261.43   43.22
   6   1 -13 1446.00  100.56
  -6   1  13 1314.17   79.83
  -6   1  13 1374.94   85.57
   6  -1 -13 1308.56  100.71
  -6  -1  13 1371.64   83.65
  -6  -1  13 1161.54   66.76
   6   1 -12 1637.08  105.05
  -6   1  12 1551.24   82.81
  -6   1  12 1313.52   83.19
   6  -1 -12 1584.39   99.90
  -6  -1  12 1517.99   84.19
  -6  -1  12 1354.51   64.31
   6   1 -11  176.27   35.10
  -6   1  11  294.91   22.84
  -6   1  11  193.77   25.99
  -6  -1  11  233.36   23.57
   6  -1 -11  202.71   33.56
  -6  -1  11  222.47   23.04
   6   1 -10  765.99   60.00
  -6   1  10  761.25   42.43
  -6   1  10  752.86   42.49
   6  -1 -10  758.13   57.36
  -6  -1  10  756.63   47.73
  -6  -1  10  725.58   41.07
   6   1  -9   84.05   20.79
  -6   1   9   36.19   10.09
  -6   1   9   42.39   16.72
   6  -1  -9   31.22   19.59
  -6  -1   9   46.24   12.36
  -6  -1   9   50.87   13.04
   6   1  -8 2204.46  107.00
  -6   1   8 2137.11   73.30
  -6   1   8 2087.20   88.01
  -6  -1   8 2198.83   89.28
   6  -1  -8 2080.85  104.54
  -6  -1   8 2098.13   79.46
   6   1  -7  585.60   38.12
  -6   1   7  528.91   23.23
  -6   1   7  555.18   32.17
   6  -1  -7  552.29   39.04
  -6  -1   7  503.38   25.48
  -6  -1   7  548.82   27.48
   6   1  -6  615.42   40.64
  -6   1   6  676.12   34.89
  -6   1   6  645.25   24.02
   6  -1  -6  631.73   39.37
  -6  -1   6  649.84   30.63
  -6  -1   6  675.83   30.67
   6   1  -5  691.43   39.50
  -6   1   5  767.88   24.96
  -6   1   5  733.12   37.93
  -6  -1   5  710.78   34.10
   6  -1  -5  673.46   42.08
  -6  -1   5  765.27   28.90
   6   1  -4 2490.28  100.02
  -6   1   4 2490.46   97.12
  -6   1   4 2515.43   63.21
   6  -1  -4 2417.38   97.77
  -6  -1   4 2439.24   75.84
  -6  -1   4 2326.69   89.04
  -6   1   3 2304.44   94.51
   6   1  -3 2439.43   92.28
   6  -1  -3 2408.22   90.89
   6  -1  -3 2293.35   59.55
  -6  -1   3 2404.90   91.59
  -6  -1   3 2436.34   73.85
   6   1  -2 2936.91   93.69
  -6   1   2 2995.49  117.42
   6   1  -2 3005.44   98.35
   6  -1  -2 3058.56  105.55
   6  -1  -2 3057.93   84.61
  -6  -1   2 2982.27  115.75
   6   1  -1 3235.79  110.32
  -6   1   1 3222.05  129.98
   6   1  -1 3242.58  103.39
   6  -1  -1 3344.36  110.50
   6  -1  -1 3218.52   98.92
  -6  -1   1 3402.52  135.88
   6   1   0 3481.54  123.28
  -6   1   0 3324.17  136.71
   6   1   0 3333.24   96.78
   6  -1   0 3763.78  118.79
   6  -1   0 3423.65  109.88
  -6  -1   0 3437.85  140.82
   6   1   1  620.64   31.98
   6   1   1  556.84   21.41
  -6   1  -1  564.58   36.79
   6  -1   1  575.31   29.14
   6  -1   1  554.85   27.45
  -6  -1  -1  565.14   35.94
   6   1   2  538.89   35.28
   6   1   2  600.14   20.57
  -6   1  -2  619.67   38.41
   6  -1   2  562.37   31.73
   6  -1   2  529.54   24.24
  -6  -1  -2  625.62   39.64
   6   1   3  966.02   52.19
   6   1   3 1114.89   31.90
  -6   1  -3 1110.43   56.01
   6  -1   3 1074.48   53.62
   6  -1   3  990.80   37.16
  -6  -1  -3 1069.94   59.92
  -6   1  -4   30.31   16.43
   6   1   4   45.16   15.88
   6  -1   4   34.66   16.17
   6  -1   4   38.88   11.14
  -6  -1  -4   37.82   16.42
  -6  -1  -4   54.49    7.26
   6   1   5    7.53   16.36
  -6   1  -5   19.81   10.44
  -6   1  -5    5.85   15.33
   6  -1   5    7.04   17.16
  -6  -1  -5   16.75   15.34
  -6  -1  -5   22.81    6.68
   6   1   6  249.98   32.32
  -6   1  -6  229.41   27.46
  -6   1  -6  182.59   15.95
  -6  -1  -6  274.95   14.33
   6  -1   6  184.52   34.28
  -6  -1  -6  234.19   35.20
  -6   1  -7  293.14   32.25
   6   1   7  347.25   38.26
  -6   1  -7  267.16   22.93
   6  -1   7  231.45   37.51
  -6  -1  -7  391.24   33.54
   6   1   8  540.54   55.63
  -6   1  -8  471.89   32.90
  -6   1  -8  486.66   42.88
   6  -1   8  616.69   54.52
  -6  -1  -8  562.47   55.58
  -6   1  -9  634.68   52.64
   6   1   9  689.61   65.47
  -6   1  -9  618.61   39.53
   6  -1   9  688.43   64.49
  -6  -1  -9  723.75   67.45
   6   1  10   96.66   30.62
  -6   1 -10  103.23   29.46
   6  -1  10  129.64   39.73
  -6  -1 -10   81.23   26.71
   6   1  11  147.00   43.37
  -6   1 -11  193.96   28.88
   6  -1  11  208.20   40.05
  -6  -1 -11  193.91   34.08
   6   1  12  118.96   40.17
  -6   1 -12  119.79   28.45
   6  -1  12  146.00   39.57
  -6  -1 -12  128.03   36.57
   6   1  13  211.00   57.04
   6  -1  13  172.07   45.85
  -6  -1 -13  154.46   34.98
   6   2 -17   60.73   31.07
  -6   2  17   39.24   23.31
   6  -2 -17   30.07   29.66
  -6  -2  17   35.48   26.69
   6   2 -16  527.38   58.08
  -6   2  16  388.80   44.04
   6  -2 -16  508.50   57.60
  -6  -2  16  403.32   60.18
   6   2 -15  150.04   35.40
  -6   2  15  109.12   21.39
  -6   2  15  126.13   23.67
  -6  -2  15   76.50   28.36
   6  -2 -15  103.56   33.95
  -6   2  14   19.62   17.20
   6   2 -14   27.76   27.21
  -6   2  14   43.09   19.45
  -6  -2  14   28.45   20.78
   6  -2 -14   25.36   24.68
   6   2 -13  383.55   48.57
  -6   2  13  354.53   30.18
  -6   2  13  293.92   31.77
   6  -2 -13  339.35   45.21
  -6  -2  13  381.42   37.26
   6   2 -12  302.19   38.31
  -6   2  12  183.44   23.03
  -6   2  12  260.77   29.57
   6  -2 -12  242.86   33.91
  -6  -2  12  188.41   34.79
  -6  -2  12  187.36   16.39
   6   2 -11  277.24   36.16
  -6   2  11  204.95   23.52
  -6   2  11  192.32   28.06
   6  -2 -11  166.74   32.95
  -6  -2  11  236.79   25.44
  -6  -2  11  192.37   17.77
   6   2 -10 1782.93  106.35
  -6   2  10 1814.43   70.25
  -6   2  10 1880.69   88.55
   6  -2 -10 1631.59  100.11
  -6  -2  10 1697.40   84.31
  -6  -2  10 1591.03   68.74
   6   2  -9  105.40   25.33
  -6   2   9  121.28   13.66
  -6   2   9  107.76   18.63
   6  -2  -9  113.10   22.36
  -6  -2   9  105.44   16.93
  -6  -2   9  110.11   14.45
  -6   2   8  519.40   41.44
   6   2  -8  503.71   42.91
  -6   2   8  521.69   22.49
  -6  -2   8  542.64   28.57
   6  -2  -8  523.25   41.91
  -6  -2   8  562.83   30.43
  -6   2   7 1193.25   55.50
   6   2  -7 1041.31   59.79
  -6   2   7 1062.69   33.98
  -6  -2   7 1218.20   48.70
   6  -2  -7 1148.04   61.52
  -6  -2   7 1089.05   47.87
   6   2  -6 1053.70   52.62
  -6   2   6 1018.50   50.29
  -6   2   6 1029.66   29.73
   6  -2  -6 1078.11   56.07
  -6  -2   6  897.82   41.79
  -6  -2   6 1084.58   45.83
   6   2  -5  179.73   20.77
  -6   2   5  244.61   20.86
  -6   2   5  196.59    9.00
  -6  -2   5  224.35   20.44
   6  -2  -5  194.23   22.52
  -6  -2   5  216.43   19.73
   6   2  -4  508.54   29.93
  -6   2   4  542.03   32.93
   6  -2  -4  556.00   15.17
  -6  -2   4  576.55   29.05
  -6  -2   4  560.16   26.10
   6  -2  -4  560.50   33.84
   6   2  -3 2002.07   76.70
  -6   2   3 1957.52   81.05
   6  -2  -3 1988.66   79.35
   6  -2  -3 1837.57   43.03
  -6  -2   3 1921.47   73.48
  -6  -2   3 2082.03   69.42
   6   2  -2 1347.98   48.38
   6   2  -2 1149.40   43.02
  -6   2   2 1294.46   58.76
   6  -2  -2 1283.88   52.85
   6  -2  -2 1312.39   35.34
  -6  -2   2 1477.66   59.34
   6   2  -1  700.98   32.46
  -6   2   1  639.14   37.87
   6   2  -1  723.87   26.61
   6  -2  -1  711.04   33.40
   6  -2  -1  662.62   24.93
  -6  -2   1  723.33   38.84
   6   2   0 2298.25   94.24
   6   2   0 2100.73   57.32
  -6   2   0 2241.17   94.15
   6  -2   0 2124.28   73.96
   6  -2   0 2324.95   82.48
  -6  -2   0 2211.58   91.90
   6   2   1 2777.75  110.59
  -6   2  -1 2963.30  119.11
   6   2   1 2770.21   73.14
  -6  -2  -1 2881.67  124.62
   6  -2   1 2788.27  102.99
   6   2   2  498.68   15.37
   6   2   2  514.92   34.15
  -6   2  -2  621.49   36.55
   6  -2   2  526.95   28.67
  -6  -2  -2  510.98   36.52
   6  -2   2  547.98   26.11
   6   2   3 3137.73   75.85
   6   2   3 3191.91  147.83
  -6   2  -3 3543.35  149.02
   6  -2   3 3241.17  119.01
  -6  -2  -3 3380.61  152.06
   6  -2   3 3238.09  143.99
  -6   2  -4  341.45   30.87
   6   2   4  254.98   26.53
   6  -2   4  258.16   31.62
   6  -2   4  214.29   21.77
  -6  -2  -4  247.03   26.87
   6   2   5   13.16   17.34
  -6   2  -5   46.91   14.38
  -6   2  -5   -0.72    6.64
   6  -2   5  -21.89   15.46
  -6  -2  -5   64.12   16.78
   6   2   6  663.63   69.76
  -6   2  -6  610.24   38.98
  -6   2  -6  721.73   44.23
   6  -2   6  709.54   53.18
  -6  -2  -6  750.31   51.29
   6   2   7  305.62   38.43
  -6   2  -7  251.36   25.44
  -6   2  -7  345.22   37.15
   6  -2   7  278.04   36.59
  -6  -2  -7  296.62   33.94
   6   2   8  301.04   40.70
  -6   2  -8  237.89   22.18
  -6   2  -8  248.14   35.14
   6  -2   8  157.47   37.01
  -6  -2  -8  213.39   32.40
   6   2   9  312.71   42.96
  -6   2  -9  367.95   33.41
  -6   2  -9  268.75   29.27
  -6  -2  -9  304.04   47.36
   6  -2   9  260.51   43.61
   6   2  10  141.41   33.34
  -6   2 -10   86.00   21.01
  -6   2 -10   90.41   24.13
   6  -2  10  133.30   33.45
  -6  -2 -10  108.76   30.11
   6   2  11    3.74   27.60
  -6   2 -11   54.92   22.69
   6  -2  11   -8.89   28.20
  -6  -2 -11   38.61   26.53
   6   2  12   85.50   35.65
   6  -2  12  102.90   34.23
  -6  -2 -12   52.13   26.33
   6   2  13  388.22   57.35
   6  -2  13  312.02   66.09
  -6  -2 -13  358.38   57.41
   6   3 -17    5.76   29.95
   6  -3 -17   57.79   31.63
  -6  -3  17   -6.45   31.73
   6   3 -16  132.34   35.51
  -6   3  16   56.27   21.67
  -6   3  16   51.56   27.96
  -6  -3  16  181.12   37.10
   6  -3 -16   26.32   31.03
   6   3 -15   48.26   30.13
  -6   3  15   49.07   23.27
  -6   3  15   31.88   17.83
  -6  -3  15   31.53   24.45
   6  -3 -15  245.84   36.54
   6   3 -14  131.42   29.90
  -6   3  14   50.61   23.80
  -6   3  14   50.39   20.77
  -6  -3  14   42.30   29.32
   6  -3 -14   90.71   27.16
   6   3 -13  359.59   45.17
  -6   3  13  263.09   26.10
  -6   3  13  308.00   35.57
   6  -3 -13  254.77   39.17
  -6  -3  13  254.54   35.29
   6   3 -12 1288.67   95.36
  -6   3  12 1106.03   69.81
  -6   3  12 1184.42   64.31
  -6  -3  12 1317.37   77.36
   6  -3 -12 1202.87   87.33
   6   3 -11  429.01   45.37
  -6   3  11  420.72   33.98
  -6   3  11  378.03   24.95
   6  -3 -11  383.92   44.49
  -6  -3  11  426.38   35.57
  -6  -3  11  418.43   23.85
   6   3 -10 1118.14   76.56
  -6   3  10 1062.31   60.95
  -6   3  10 1118.16   47.28
  -6  -3  10  948.97   41.38
   6  -3 -10 1128.53   72.22
  -6  -3  10 1075.32   61.67
   6   3  -9  334.16   32.45
  -6   3   9  290.28   18.32
  -6   3   9  361.59   29.71
   6  -3  -9  262.42   32.35
  -6  -3   9  289.07   30.94
  -6  -3   9  278.36   18.65
   6   3  -8 2210.30  110.37
  -6   3   8 2332.52  103.44
  -6   3   8 1988.31   60.88
   6  -3  -8 2300.34  111.85
  -6  -3   8 1965.78   90.19
  -6  -3   8 2063.74   69.95
   6   3  -7   80.51   19.38
  -6   3   7   87.43   17.18
  -6   3   7   86.63    7.08
   6  -3  -7   75.85   20.79
  -6  -3   7   87.60   12.65
  -6  -3   7   78.87   15.23
   6   3  -6  689.57   41.99
  -6   3   6  636.69   37.86
   6  -3  -6  663.96   43.21
  -6  -3   6  701.63   35.16
  -6  -3   6  652.22   27.13
   6   3  -5 2330.43   98.07
  -6   3   5 2668.57  108.21
  -6  -3   5 2416.68  100.61
  -6  -3   5 2551.61   92.70
   6  -3  -5 2469.87  112.30
  -6   3   4 5239.04  215.10
  -6  -3   4 5401.53  195.78
  -6  -3   4 5230.30  196.45
   6  -3  -4 5506.87  221.60
   6   3  -3 1333.24   49.33
  -6   3   3 1244.52   58.62
   6  -3  -3 1229.81   56.99
  -6  -3   3 1167.86   49.04
  -6  -3   3 1248.48   54.21
  -6   3   2 1632.41   77.51
   6   3  -2 1740.79   60.94
   6  -3  -2 1811.32   72.89
   6  -3  -2 1756.24   41.01
  -6  -3   2 1693.99   66.43
  -6  -3   2 1665.08   68.63
   6   3  -1  460.72   27.28
   6   3  -1  536.10   22.08
  -6   3   1  449.56   33.04
   6  -3  -1  480.15   19.63
   6  -3  -1  483.04   27.39
  -6  -3   1  498.41   30.43
   6   3   0  306.82   22.10
  -6   3   0  293.07   26.08
   6   3   0  268.34   13.56
   6  -3   0  242.84   20.04
   6  -3   0  313.80   18.85
  -6  -3   0  255.32   24.56
   6   3   1  144.41   19.64
  -6   3  -1   99.28   19.56
   6  -3   1  135.58   15.12
  -6  -3  -1  193.18   20.59
   6  -3   1  153.13   16.38
   6   3   2 1142.42   56.38
  -6   3  -2 1124.86   55.64
   6  -3   2 1005.80   46.90
  -6  -3  -2 1005.48   57.27
   6  -3   2 1036.46   44.75
   6   3   3  638.70   43.34
  -6   3  -3  686.73   42.07
   6  -3   3  599.30   31.55
   6  -3   3  637.15   37.00
  -6  -3  -3  588.72   41.51
  -6   3  -4  195.60   21.84
   6   3   4  212.45   25.81
   6  -3   4  171.90   23.59
   6  -3   4  166.57   21.68
  -6  -3  -4  179.33   25.72
  -6   3  -5  799.73   47.73
   6   3   5  729.55   53.52
   6  -3   5  807.77   50.43
   6  -3   5  725.01   41.01
  -6  -3  -5  765.66   55.71
   6   3   6  788.76   60.60
  -6   3  -6  753.59   44.25
  -6   3  -6  877.30   53.49
   6  -3   6  806.96   58.64
  -6  -3  -6  866.98   59.69
   6   3   7  162.84   29.76
  -6   3  -7  189.68   22.35
  -6   3  -7  171.52   23.50
   6  -3   7  123.34   30.91
  -6  -3  -7  146.13   27.62
  -6   3  -8  446.02   36.93
   6   3   8  341.67   49.40
  -6   3  -8  370.80   34.95
   6  -3   8  412.85   45.69
  -6  -3  -8  419.41   44.82
   6   3   9  203.93   38.94
  -6   3  -9  199.36   23.19
  -6   3  -9  210.31   28.14
   6  -3   9  192.69   37.75
  -6  -3  -9  227.41   35.00
   6   3  10  281.39   44.20
  -6   3 -10  243.13   32.70
  -6   3 -10  320.19   31.67
   6  -3  10  268.81   47.48
  -6  -3 -10  252.23   40.97
  -6   3 -11  268.41   33.16
   6   3  11  259.93   51.70
  -6  -3 -11  333.64   40.93
   6  -3  11  296.35   53.38
   6   3  12  291.81   49.99
   6  -3  12  232.69   51.67
  -6  -3 -12  186.27   46.98
   6   3  13   24.01   37.19
   6  -3  13   61.18   34.37
  -6  -3 -13   89.47   27.47
   6   4 -17   21.67   31.79
   6  -4 -17   30.20   28.79
  -6  -4  17   59.77   31.95
   6   4 -16   94.64   34.05
  -6   4  16   38.49   28.12
   6  -4 -16   95.48   37.17
  -6  -4  16   37.99   33.44
   6   4 -15  257.42   40.84
  -6   4  15  183.14   26.77
  -6   4  15  269.06   32.11
  -6  -4  15  218.60   36.51
   6  -4 -15  161.02   37.30
   6   4 -14  562.78   63.15
  -6   4  14  518.12   43.63
  -6   4  14  500.20   47.86
  -6  -4  14  568.25   61.67
   6  -4 -14  508.46   57.03
   6   4 -13  162.28   33.46
  -6   4  13  159.70   23.02
  -6   4  13  153.96   27.41
  -6  -4  13  171.56   36.48
   6  -4 -13  127.28   32.65
   6   4 -12  348.16   49.42
  -6   4  12  399.47   25.69
  -6   4  12  414.42   38.15
   6  -4 -12  437.83   46.14
  -6  -4  12  408.24   41.98
   6   4 -11 1246.38   90.14
  -6   4  11 1182.35   56.07
  -6   4  11 1295.73   77.02
   6  -4 -11 1246.65   86.34
  -6  -4  11 1342.13   78.91
   6   4 -10 1044.87   76.37
  -6   4  10 1006.00   63.07
  -6   4  10 1060.27   44.45
   6  -4 -10 1080.37   75.05
  -6  -4  10  934.76   39.50
  -6  -4  10 1196.48   77.36
   6   4  -9   94.89   23.94
  -6   4   9   71.87   19.52
  -6   4   9   77.78   10.47
  -6  -4   9   53.47   10.84
   6  -4  -9  122.92   21.83
  -6  -4   9   52.73   16.69
   6   4  -8  479.29   42.28
  -6   4   8  493.04   34.57
  -6   4   8  404.35   16.35
  -6  -4   8  468.07   23.67
   6  -4  -8  477.84   38.34
  -6  -4   8  428.42   32.13
  -6   4   7  297.53   10.49
  -6   4   7  383.38   36.09
  -6  -4   7  325.54   30.32
   6  -4  -7  334.63   31.26
  -6  -4   7  352.49   19.67
   6   4  -6  260.01   27.16
  -6   4   6  292.52   27.59
   6  -4  -6  295.45   27.67
  -6  -4   6  310.30   24.11
  -6  -4   6  275.91   19.49
   6   4  -5  631.72   44.75
  -6   4   5  752.10   43.57
   6  -4  -5  759.48   46.20
  -6  -4   5  715.99   37.39
  -6  -4   5  715.16   34.98
   6   4  -4 5227.81  196.36
  -6   4   4 5353.56  229.93
   6  -4  -4 5370.41  227.11
  -6  -4   4 5380.33  206.84
  -6  -4   4 5330.83  188.41
   6   4  -3  747.50   32.37
  -6   4   3  726.44   42.53
   6  -4  -3  780.03   43.00
  -6  -4   3  755.93   33.98
  -6  -4   3  793.27   38.69
   6   4  -2 6672.88  210.01
  -6   4   2 6431.34  267.35
   6  -4  -2 6323.32  256.03
  -6  -4   2 6613.16  269.72
  -6  -4   2 6582.73  258.53
   6   4  -1 2088.62   95.20
   6   4  -1 2123.31   60.28
  -6   4   1 1986.55   87.21
   6  -4  -1 2084.45   54.48
   6  -4  -1 2112.93   91.02
  -6  -4   1 2096.91   88.70
   6   4   0 1595.21   70.66
   6   4   0 1583.33   38.19
  -6   4   0 1592.50   69.87
   6  -4   0 1561.39   51.31
  -6  -4   0 1574.83   74.59
   6  -4   0 1566.60   68.10
   6   4   1  316.57   27.33
   6   4   1  296.89    9.12
  -6   4  -1  333.49   25.49
   6  -4   1  349.88   18.82
   6  -4   1  342.49   22.82
  -6  -4  -1  330.42   27.29
   6   4   2  105.62   18.40
  -6   4  -2   61.17   16.71
   6  -4   2   53.86   13.15
   6  -4   2   79.42   13.96
  -6  -4  -2   92.73   18.46
   6   4   3 2319.67  115.45
  -6   4  -3 2543.38  116.35
   6  -4   3 2317.94  105.20
   6  -4   3 2368.84   99.86
  -6  -4  -3 2386.83  119.64
   6   4   4 1566.10   86.47
  -6   4  -4 1623.79   77.18
   6  -4   4 1483.33   70.51
   6  -4   4 1583.10   78.60
  -6  -4  -4 1583.07   90.45
  -6   4  -5  660.63   45.77
   6   4   5  498.40   48.55
   6  -4   5  578.90   42.81
   6  -4   5  630.24   43.08
  -6  -4  -5  554.74   56.06
   6   4   6  280.44   38.43
  -6   4  -6  268.98   25.42
  -6   4  -6  311.10   34.81
   6  -4   6  283.13   34.34
  -6  -4  -6  344.84   37.23
  -6   4  -7 1286.92   75.12
   6   4   7 1412.40  103.03
  -6   4  -7 1481.60   78.33
   6  -4   7 1457.92   93.56
  -6  -4  -7 1513.03  100.93
  -6   4  -8  878.33   56.20
   6   4   8  792.87   81.88
  -6   4  -8  792.13   51.06
   6  -4   8  888.19   73.09
  -6  -4  -8  825.95   71.32
   6   4   9  330.78   50.28
  -6   4  -9  332.08   40.54
  -6   4  -9  345.05   40.51
   6  -4   9  438.23   52.25
  -6  -4  -9  369.20   46.69
   6   4  10  535.96   66.36
  -6   4 -10  579.23   54.13
  -6   4 -10  612.20   51.78
   6  -4  10  741.48   69.59
  -6  -4 -10  637.11   60.94
   6   4  11  282.11   50.55
  -6   4 -11  277.34   38.60
   6  -4  11  256.67   46.59
  -6  -4 -11  259.48   42.45
   6   4  12   70.94   32.24
   6  -4  12   29.98   32.22
  -6  -4 -12   48.93   28.13
   6   5 -17  142.35   44.60
  -6   5  17  156.05   32.42
   6  -5 -17  127.80   38.08
  -6  -5  17  140.02   46.88
   6   5 -16  304.40   46.25
  -6   5  16   54.67   27.06
   6  -5 -16   71.61   31.85
  -6  -5  16   29.96   39.39
   6   5 -15  145.43   37.56
  -6   5  15  111.62   29.14
   6  -5 -15  161.93   35.21
  -6  -5  15  145.53   32.67
   6   5 -14  110.71   37.76
  -6   5  14  161.88   36.70
  -6   5  14  106.11   23.55
   6  -5 -14  114.71   33.44
  -6  -5  14  180.64   31.13
   6   5 -13  758.55   75.20
  -6   5  13  706.45   46.87
  -6   5  13  760.67   72.72
   6  -5 -13  859.39   80.76
  -6  -5  13  740.24   65.21
   6   5 -12  145.06   43.36
  -6   5  12  125.13   29.45
  -6   5  12  155.53   18.92
   6  -5 -12  148.20   31.00
  -6  -5  12  219.58   31.88
   6   5 -11  361.59   42.75
  -6   5  11  415.43   46.71
  -6   5  11  328.70   23.59
   6  -5 -11  441.89   42.82
  -6  -5  11  385.56   39.71
   6   5 -10  116.10   29.23
  -6   5  10  106.78   12.82
  -6   5  10  115.71   29.00
   6  -5 -10  140.35   26.83
  -6  -5  10  120.67   24.19
   6   5  -9  789.48   59.63
  -6   5   9  773.58   51.54
   6  -5  -9  783.50   65.75
  -6  -5   9  630.81   50.23
  -6  -5   9  732.62   32.42
   6   5  -8 5106.11  254.86
  -6   5   8 5265.82  258.62
   6  -5  -8 5268.45  262.61
  -6  -5   8 5052.36  255.44
   6   5  -7  937.80   59.29
  -6   5   7 1219.65   62.45
  -6  -5   7  910.29   53.04
  -6  -5   7  877.63   34.64
   6  -5  -7  918.52   56.26
   6   5  -6 1596.48   76.66
  -6   5   6 1613.70   82.28
   6  -5  -6 1595.26   83.43
  -6  -5   6 1592.92   74.62
  -6  -5   6 1504.49   55.88
   6   5  -5  508.10   32.32
  -6   5   5  536.40   36.10
   6  -5  -5  459.27   36.34
  -6  -5   5  573.30   27.47
  -6  -5   5  580.75   39.82
   6   5  -4   50.23   13.02
  -6   5   4   74.79   17.82
   6  -5  -4   51.61   16.23
  -6  -5   4   43.40   11.29
  -6  -5   4   61.10   14.96
   6   5  -3  561.75   26.70
  -6   5   3  475.38   34.90
   6  -5  -3  549.97   36.29
  -6  -5   3  550.13   33.23
  -6  -5   3  574.42   38.83
   6   5  -2  650.08   28.59
  -6   5   2  646.33   40.31
  -6  -5   2  729.93   37.06
  -6  -5   2  644.40   38.84
   6  -5  -2  648.74   37.94
   6   5  -1 1770.74   78.57
   6   5  -1 1800.87   52.28
  -6   5   1 1771.02   80.31
   6  -5  -1 1691.24   43.43
   6  -5  -1 1718.32   78.94
  -6  -5   1 1746.87   73.86
   6   5   0   36.35   13.71
  -6   5   0   24.06   14.58
   6  -5   0   31.66   13.55
  -6  -5   0   49.71   14.56
   6  -5   0   43.66    8.83
   6   5   1  571.48   38.11
  -6   5  -1  579.88   37.06
   6  -5   1  664.34   30.70
   6  -5   1  558.55   33.17
  -6  -5  -1  635.96   41.24
   6   5   2  257.73   28.52
  -6   5  -2  259.41   28.46
   6  -5   2  243.66   24.47
  -6  -5  -2  299.23   28.92
   6  -5   2  277.33   20.60
  -6   5  -3 1654.55   78.32
   6   5   3 1645.03   91.06
   6  -5   3 1721.48   78.68
  -6  -5  -3 1653.48   90.87
   6  -5   3 1666.64   75.33
   6   5   4  390.13   39.30
  -6   5  -4  414.72   32.70
   6  -5   4  393.44   35.84
   6  -5   4  409.57   38.80
  -6  -5  -4  377.44   38.22
  -6   5  -5  580.10   39.62
   6   5   5  598.59   51.02
   6  -5   5  546.52   46.15
   6  -5   5  664.08   44.17
  -6  -5  -5  634.16   49.59
   6   5   6  812.74   70.73
  -6   5  -6  908.34   54.54
  -6   5  -6  993.87   64.88
   6  -5   6  887.02   65.07
  -6  -5  -6  980.09   72.56
   6   5   7  400.10   46.30
  -6   5  -7  357.46   39.59
  -6   5  -7  374.16   32.08
   6  -5   7  407.16   44.31
  -6  -5  -7  395.95   54.61
   6   5   8  468.00   54.42
  -6   5  -8  523.33   40.74
  -6   5  -8  482.79   43.35
   6  -5   8  459.57   51.89
  -6  -5  -8  494.88   54.10
   6   5   9  475.60   53.80
  -6   5  -9  449.73   40.45
  -6   5  -9  436.06   41.69
   6  -5   9  498.79   65.81
  -6  -5  -9  423.66   52.33
  -6   5 -10   13.04   14.57
   6   5  10  -15.92   27.65
  -6   5 -10   39.27   18.11
   6  -5  10   50.99   26.25
  -6  -5 -10   34.77   23.85
   6   5  11  103.13   33.85
  -6   5 -11   77.98   23.00
   6  -5  11   43.93   33.53
  -6  -5 -11   93.72   31.02
   6   5  12   20.71   32.49
   6  -5  12   24.61   30.84
  -6  -5 -12   46.76   34.42
   6   6 -16  187.00   50.02
  -6   6  16  123.26   31.32
   6  -6 -16  108.04   32.74
  -6  -6  16  160.96   43.99
   6   6 -15  129.84   37.49
  -6   6  15  112.42   31.64
   6  -6 -15  104.85   31.55
  -6  -6  15  111.64   35.54
   6   6 -14  253.51   62.11
  -6   6  14  252.79   51.26
   6  -6 -14  394.35   46.44
  -6  -6  14  337.66   46.26
   6   6 -13   38.53   32.49
  -6   6  13   96.95   32.31
   6  -6 -13   86.71   27.50
  -6  -6  13  100.27   28.06
   6   6 -12  748.63   68.48
  -6   6  12  707.32   40.16
  -6   6  12  749.96   62.62
  -6  -6  12  675.37   74.28
   6  -6 -12  770.02   72.98
   6   6 -11  473.26   50.81
  -6   6  11  482.38   44.91
  -6   6  11  423.67   24.70
   6  -6 -11  449.09   47.03
  -6  -6  11  433.56   44.53
   6   6 -10 2317.55  147.49
  -6   6  10 2530.88  146.53
   6  -6 -10 2640.04  152.78
  -6  -6  10 2483.17  144.51
   6   6  -9  135.55   27.91
  -6   6   9   94.38   25.20
   6  -6  -9  123.46   25.35
  -6  -6   9   83.27   22.71
   6   6  -8 4277.70  220.06
  -6   6   8 4640.07  236.63
  -6  -6   8 4047.46  129.75
  -6  -6   8 4464.38  227.47
   6  -6  -8 4372.81  229.11
   6   6  -7  104.21   23.37
  -6   6   7   80.88   22.12
  -6  -6   7  106.36   11.10
  -6  -6   7  142.78   21.29
   6  -6  -7  153.11   24.54
   6   6  -6  513.59   40.52
  -6   6   6  849.03   58.03
   6  -6  -6  736.05   49.08
  -6  -6   6  661.47   29.79
  -6  -6   6  709.69   44.59
   6   6  -5 1925.65   83.22
  -6   6   5 1881.93   93.92
  -6  -6   5 1805.90   89.23
  -6  -6   5 1710.51   61.58
   6  -6  -5 1789.64   91.46
   6   6  -4  564.81   30.31
  -6   6   4  561.14   39.37
  -6  -6   4  550.57   32.19
  -6  -6   4  592.19   44.15
   6  -6  -4  607.22   40.37
   6   6  -3 1977.48   78.07
  -6   6   3 1969.60   93.93
  -6  -6   3 1855.85   73.61
  -6  -6   3 1955.60   91.09
   6  -6  -3 1920.26   89.88
   6   6  -2  851.86   34.14
  -6   6   2  815.54   46.88
  -6  -6   2  785.57   39.87
  -6  -6   2  801.08   44.29
   6  -6  -2  866.93   49.55
   6   6  -1  728.37   41.28
  -6   6   1  843.14   48.90
   6   6  -1  744.46   25.95
   6  -6  -1  662.39   47.41
   6  -6  -1  677.95   21.29
  -6  -6   1  736.49   40.75
   6   6   0  722.38   42.25
   6   6   0  678.13   20.97
  -6   6   0  726.33   43.36
   6  -6   0  672.94   25.20
   6  -6   0  628.33   39.54
  -6  -6   0  744.17   42.79
   6   6   1 3773.95  177.74
  -6   6  -1 4164.65  167.12
   6  -6   1 3717.54  165.47
  -6  -6  -1 3856.90  177.42
   6  -6   1 3633.15  129.76
   6   6   2  440.81   38.50
  -6   6  -2  441.35   32.40
   6  -6   2  452.27   35.24
  -6  -6  -2  458.40   37.60
   6  -6   2  490.24   25.76
  -6   6  -3 3830.12  169.51
   6   6   3 3914.80  199.89
   6  -6   3 3643.52  182.37
  -6  -6  -3 3685.86  190.74
   6  -6   3 3753.55  157.86
   6   6   4 1423.19   89.66
  -6   6  -4 1662.20   88.08
   6  -6   4 1219.91   82.26
   6  -6   4 1524.90   83.06
  -6  -6  -4 1377.03   87.17
  -6   6  -5   82.21   18.45
   6   6   5  108.91   26.41
   6  -6   5   66.97   26.02
  -6  -6  -5   88.29   24.20
   6  -6   5  107.64   25.50
  -6   6  -6 3600.86  181.09
   6   6   6 3394.69  205.12
  -6   6  -6 3247.63  170.31
   6  -6   6 3524.11  191.12
  -6  -6  -6 3728.64  209.18
   6   6   7  338.00   47.95
  -6   6  -7  377.50   43.85
  -6   6  -7  406.24   39.80
   6  -6   7  393.53   51.07
  -6  -6  -7  365.84   47.34
   6   6   8  201.24   38.82
  -6   6  -8  278.89   35.13
  -6   6  -8  135.29   27.82
   6  -6   8  225.83   34.14
  -6  -6  -8  205.83   36.12
   6   6   9  172.71   42.74
  -6   6  -9  185.06   34.72
  -6   6  -9  190.30   24.75
   6  -6   9  219.39   37.48
  -6  -6  -9  249.10   38.69
   6   6  10  319.77   54.55
  -6   6 -10  363.47   40.96
   6  -6  10  335.33   51.68
  -6  -6 -10  347.57   48.38
   6   6  11  277.25   52.81
  -6   6 -11  256.70   40.37
   6  -6  11  329.55   49.75
  -6  -6 -11  371.82   57.23
   6   6  12  122.13   50.82
   6  -6  12  120.04   41.29
  -6  -6 -12  205.11   38.84
   6   7 -16  138.58   40.19
  -6   7  16   77.03   39.02
   6  -7 -16   57.30   32.48
  -6  -7  16  110.36   35.57
   6   7 -15  784.60   82.74
  -6   7  15  693.33   71.73
   6  -7 -15  637.09   70.37
  -6  -7  15  702.92   78.96
   6   7 -14  176.71   48.97
  -6   7  14  139.21   34.43
   6  -7 -14  145.12   32.99
  -6  -7  14  125.79   35.80
   6   7 -13  195.14   42.53
  -6   7  13  204.68   37.19
   6  -7 -13  229.17   34.98
  -6  -7  13  214.22   37.93
   6   7 -12  427.91   58.32
  -6   7  12  539.23   55.12
   6  -7 -12  502.99   49.98
  -6  -7  12  462.57   51.35
   6   7 -11  227.02   41.42
  -6   7  11  272.01   37.45
   6  -7 -11  226.97   37.11
  -6  -7  11  262.43   35.74
   6   7 -10 1369.45   93.40
  -6   7  10 1474.69  106.88
   6  -7 -10 1408.80   94.95
  -6  -7  10 1354.01   91.64
   6   7  -9 1143.80   84.77
  -6   7   9 1358.31   86.64
   6  -7  -9 1280.95   84.41
  -6  -7   9 1203.51   81.10
   6   7  -8  231.32   33.22
  -6   7   8  263.39   33.77
   6  -7  -8  316.31   32.14
  -6  -7   8  214.67   31.80
   6   7  -7  194.78   29.24
  -6   7   7  275.70   35.30
  -6  -7   7  205.82   13.75
  -6  -7   7  220.15   28.99
   6  -7  -7  188.02   29.43
   6   7  -6  313.08   28.36
  -6   7   6  335.31   32.89
  -6  -7   6  299.61   16.00
  -6  -7   6  380.48   32.39
   6  -7  -6  308.20   32.16
   6   7  -5  651.76   37.35
  -6   7   5  564.53   45.62
   6  -7  -5  595.67   43.39
  -6  -7   5  522.89   24.91
  -6  -7   5  655.51   42.75
   6   7  -4  576.90   31.18
  -6   7   4  486.07   38.09
   6  -7  -4  472.38   39.38
  -6  -7   4  520.76   29.94
  -6  -7   4  485.18   37.84
   6   7  -3  321.13   24.03
  -6   7   3  297.29   31.16
   6  -7  -3  347.45   30.75
  -6  -7   3  373.50   23.03
  -6  -7   3  294.58   28.90
   6   7  -2  220.16   16.88
  -6   7   2  210.31   23.78
   6  -7  -2  233.47   24.14
  -6  -7   2  204.40   24.27
  -6  -7   2  216.97   24.90
   6   7  -1  287.58   15.74
  -6   7   1  294.63   27.36
   6  -7  -1  290.23   28.33
  -6  -7   1  346.55   30.00
   6  -7  -1  284.26   10.78
   6   7   0 1092.04   61.28
   6   7   0 1025.18   32.31
  -6   7   0 1130.16   57.09
   6  -7   0  994.52   57.87
   6  -7   0 1008.35   34.28
  -6  -7   0 1093.91   58.51
   6   7   1   80.60   22.24
  -6   7  -1  118.23   18.99
   6  -7   1  130.57   13.66
   6  -7   1  139.55   21.09
  -6  -7  -1  118.69   20.48
   6   7   2 1660.36   93.25
  -6   7  -2 1544.98   76.65
   6  -7   2 1728.13   88.31
  -6  -7  -2 1703.09   91.87
   6  -7   2 1603.35   67.11
  -6   7  -3   19.80   13.34
   6   7   3   78.55   19.09
   6  -7   3    0.62   11.27
   6  -7   3   20.00   15.03
  -6  -7  -3   -5.28   16.42
  -6   7  -4  689.90   41.51
   6   7   4  661.95   59.09
   6  -7   4  699.52   49.85
  -6  -7  -4  680.26   56.82
   6  -7   4  713.20   51.27
   6   7   5  747.88   64.59
  -6   7  -5  840.68   58.88
   6  -7   5  735.04   55.71
  -6  -7  -5  663.34   62.97
   6  -7   5  743.27   49.04
  -6   7  -6 1048.75   69.83
   6   7   6 1026.51   81.20
  -6   7  -6 1012.89   67.88
   6  -7   6  992.57   69.47
  -6  -7  -6  969.44   81.91
   6   7   7  230.20   39.89
  -6   7  -7  268.05   32.81
  -6   7  -7  261.90   26.19
   6  -7   7  252.01   35.31
  -6  -7  -7  279.06   39.54
   6   7   8   99.86   32.38
  -6   7  -8   89.34   30.35
  -6   7  -8  107.19   23.20
   6  -7   8   89.81   35.79
  -6  -7  -8  109.72   30.02
   6   7   9  796.63   80.79
  -6   7  -9  745.88   64.01
   6  -7   9  718.61   72.20
  -6  -7  -9  888.87   87.08
   6   7  10   65.53   33.38
  -6   7 -10   79.44   25.08
   6  -7  10   86.24   30.38
  -6  -7 -10   33.31   29.02
   6   7  11  258.02   50.29
  -6   7 -11  223.28   38.85
   6  -7  11  218.24   45.42
  -6  -7 -11  235.99   45.58
   6   7  12   72.57   35.92
   6  -7  12   60.19   35.68
  -6  -7 -12   57.90   31.75
   6   8 -16  248.80   53.17
  -6   8  16  203.40   44.64
   6  -8 -16  204.07   43.53
  -6  -8  16  220.25   46.42
   6   8 -15   73.25   33.67
  -6   8  15   28.37   28.57
   6  -8 -15   48.44   27.60
  -6  -8  15   65.18   32.11
   6   8 -14  419.01   58.94
  -6   8  14  362.94   53.03
   6  -8 -14  389.71   59.31
  -6  -8  14  414.02   59.27
   6   8 -13  545.67   65.58
  -6   8  13  593.44   60.44
   6  -8 -13  507.08   57.46
  -6  -8  13  543.29   60.33
   6   8 -12  130.35   32.22
  -6   8  12   92.48   37.97
   6  -8 -12  125.34   29.92
  -6  -8  12   74.32   30.06
   6   8 -11   23.99   24.59
  -6   8  11   28.20   24.45
   6  -8 -11   14.29   27.93
  -6  -8  11   67.04   23.93
   6   8 -10  399.90   54.51
  -6   8  10  424.59   48.39
   6  -8 -10  385.81   44.32
  -6  -8  10  355.91   46.66
   6   8  -9   45.18   24.87
  -6   8   9   23.12   20.86
   6  -8  -9   16.18   19.19
  -6  -8   9   12.30   18.80
   6   8  -8 1255.47   82.03
  -6   8   8 1378.29   85.48
   6  -8  -8 1277.74   83.60
  -6  -8   8 1142.20   81.16
   6   8  -7 1486.33   81.92
  -6   8   7 1504.41   88.95
  -6  -8   7 1273.66   45.45
  -6  -8   7 1466.86   86.99
   6  -8  -7 1464.74   87.92
   6   8  -6  964.99   54.12
  -6   8   6  839.85   58.68
  -6  -8   6  776.44   33.28
  -6  -8   6  817.92   58.82
   6  -8  -6  818.80   60.06
   6   8  -5 1540.59   75.45
  -6   8   5 1543.39   85.41
   6  -8  -5 1454.28   84.18
  -6  -8   5 1521.03   59.51
  -6  -8   5 1578.59   88.91
   6   8  -4  527.09   31.19
  -6   8   4  480.51   41.88
   6  -8  -4  485.72   39.82
  -6  -8   4  517.08   30.45
  -6  -8   4  493.62   40.71
   6   8  -3 3385.08  132.88
  -6   8   3 3305.24  162.40
  -6  -8   3 3390.81  139.07
  -6  -8   3 3417.77  166.26
   6  -8  -3 3376.02  172.40
   6   8  -2  204.81   16.75
  -6   8   2  246.20   25.00
  -6  -8   2  169.76   23.47
  -6  -8   2  178.14   26.40
   6  -8  -2  165.76   25.69
   6   8  -1   15.95    7.78
  -6   8   1   -3.60   14.21
   6  -8  -1    7.27   14.59
  -6  -8   1   20.06   12.76
   6  -8  -1    6.57    5.10
   6   8   0  186.64   25.19
   6   8   0  174.67   10.76
  -6   8   0  140.22   20.85
   6  -8   0  157.88   12.43
   6  -8   0  143.26   23.87
  -6  -8   0  194.32   23.03
   6   8   1 1468.49   83.65
  -6   8  -1 1419.57   71.91
   6  -8   1 1311.30   48.83
   6  -8   1 1406.97   76.43
  -6  -8  -1 1458.00   78.91
   6   8   2  138.35   27.92
  -6   8  -2  151.32   25.81
   6  -8   2  175.17   18.91
   6  -8   2  141.10   25.71
  -6  -8  -2  132.31   25.97
  -6   8  -3 1582.18   76.36
   6   8   3 1626.51  102.33
   6  -8   3 1587.52   76.64
   6  -8   3 1558.08   89.12
  -6  -8  -3 1629.97   99.76
   6   8   4 1867.39  109.30
  -6   8  -4 1784.76   89.62
   6  -8   4 1569.12  106.39
   6  -8   4 1899.87   97.65
  -6  -8  -4 1898.29  119.18
   6   8   5 1805.12  137.65
  -6   8  -5 1829.52   96.48
   6  -8   5 1714.94  120.66
   6  -8   5 1751.79  106.95
  -6  -8  -5 1795.09  119.44
   6   8   6 1005.50   77.50
  -6   8  -6 1041.83   59.05
  -6   8  -6  934.49   57.86
  -6  -8  -6 1033.29   80.79
   6  -8   6  973.65   70.03
   6   8   7  652.96   71.12
  -6   8  -7  628.81   43.27
  -6   8  -7  587.60   53.14
   6  -8   7  715.23   55.59
  -6  -8  -7  551.51   62.88
   6   8   8   56.92   27.77
  -6   8  -8   59.41   21.77
  -6   8  -8   31.72   15.58
   6  -8   8   56.37   23.98
  -6  -8  -8   62.69   31.99
   6   8   9  162.83   38.08
  -6   8  -9  212.45   32.99
   6  -8   9  159.85   36.40
  -6  -8  -9  144.82   38.56
   6   8  10   93.77   32.90
  -6   8 -10   41.44   25.42
   6  -8  10    5.76   28.19
  -6  -8 -10   61.78   29.76
   6   8  11  143.48   41.88
  -6   8 -11  147.59   33.83
   6  -8  11  133.33   38.81
  -6  -8 -11  139.23   39.00
   6   9 -15  148.05   44.76
  -6   9  15  198.56   48.48
   6  -9 -15  141.86   35.75
  -6  -9  15  125.26   40.74
   6   9 -14   79.56   36.13
  -6   9  14   88.19   32.97
   6  -9 -14   74.98   28.69
  -6  -9  14   78.24   31.79
   6   9 -13   -0.16   25.85
  -6   9  13   35.23   24.39
   6  -9 -13  -16.76   27.51
  -6  -9  13   26.26   24.64
   6   9 -12   81.35   33.52
  -6   9  12   83.05   32.49
   6  -9 -12  141.59   34.11
  -6  -9  12   92.11   30.28
   6   9 -11   98.56   26.80
  -6   9  11   11.04   28.58
   6  -9 -11   57.44   25.18
  -6  -9  11   84.63   26.66
   6   9 -10  158.19   32.98
  -6   9  10  186.29   34.30
   6  -9 -10  113.66   35.99
  -6  -9  10  166.37   31.80
   6   9  -9    1.26   19.44
  -6   9   9  -23.83   20.15
   6  -9  -9   23.62   18.79
  -6  -9   9   16.91   19.67
   6   9  -8   81.48   20.65
  -6   9   8   26.01   23.53
   6  -9  -8   41.97   21.97
  -6  -9   8   -1.43   22.96
   6   9  -7  873.99   57.70
  -6   9   7  707.92   60.43
   6  -9  -7  788.65   61.04
  -6  -9   7  815.08   62.99
   6   9  -6 1884.92   96.88
  -6   9   6 1825.68  110.25
  -6  -9   6 1804.75   67.31
  -6  -9   6 1924.87  114.15
   6  -9  -6 1882.15  105.25
   6   9  -5 1211.73   64.14
  -6   9   5 1338.97   81.51
   6  -9  -5 1158.96   71.64
  -6  -9   5 1154.25   51.82
  -6  -9   5 1216.63   75.14
   6   9  -4  646.48   40.82
  -6   9   4  656.34   51.13
   6  -9  -4  521.60   48.00
  -6  -9   4  613.23   48.95
  -6  -9   4  609.73   35.99
   6   9  -3  150.91   15.29
  -6   9   3  143.81   25.96
   6  -9  -3  126.29   24.72
  -6  -9   3  114.83   24.36
  -6  -9   3  123.64   17.32
   6   9  -2  513.32   28.18
  -6   9   2  509.78   43.35
   6  -9  -2  474.34   41.92
  -6  -9   2  522.15   42.92
  -6  -9   2  572.52   35.48
   6   9  -1 3452.60  115.96
  -6   9   1 3431.97  163.19
   6  -9  -1 3321.77  162.51
  -6  -9   1 3602.30  160.97
   6  -9  -1 3023.47   92.63
  -6  -9   1 3471.44  172.14
   6   9   0   28.39   18.87
   6   9   0   25.63    7.47
  -6   9   0   29.05   15.65
   6  -9   0   28.57    8.24
   6  -9   0   65.42   18.60
  -6  -9   0   15.98   16.90
   6   9   1 1074.01   69.02
  -6   9  -1 1044.33   57.63
   6  -9   1 1015.07   43.13
   6  -9   1 1048.67   80.95
  -6  -9  -1 1032.20   69.02
  -6   9  -2   67.52   16.77
   6   9   2   75.23   21.86
   6  -9   2   29.68   14.71
   6  -9   2   66.92   19.90
  -6  -9  -2   33.56   26.22
  -6   9  -3  472.65   33.82
   6   9   3  426.60   47.39
   6  -9   3  439.60   29.94
   6  -9   3  451.46   43.79
  -6  -9  -3  514.53   45.22
  -6   9  -4  726.68   47.41
   6   9   4  790.59   64.20
   6  -9   4  685.86   50.10
   6  -9   4  674.30   58.07
  -6  -9  -4  762.59   61.23
   6   9   5 1141.26   85.92
  -6   9  -5  991.48   59.82
   6  -9   5 1189.30   77.02
   6  -9   5 1011.90   61.33
  -6  -9  -5 1045.93   78.99
   6   9   6  330.38   49.27
  -6   9  -6  375.58   33.91
  -6   9  -6  400.86   31.65
   6  -9   6  447.30   41.36
  -6  -9  -6  388.17   46.56
   6   9   7  341.84   48.40
  -6   9  -7  310.00   28.02
  -6   9  -7  326.31   44.04
   6  -9   7  425.87   40.54
  -6  -9  -7  367.54   47.66
   6   9   8  219.19   40.26
  -6   9  -8  185.99   35.33
   6  -9   8  240.94   35.24
  -6  -9  -8  231.35   42.47
   6   9   9  791.83   81.31
  -6   9  -9  705.05   79.57
   6  -9   9  755.59   72.12
  -6  -9  -9  697.12   81.51
   6   9  10  162.97   40.75
  -6   9 -10   93.43   33.34
   6  -9  10  172.36   35.10
  -6  -9 -10  124.14   38.63
   6   9  11   39.66   42.19
  -6   9 -11   42.14   28.87
   6  -9  11   60.82   31.84
  -6  -9 -11   66.53   33.16
   6  10 -15   76.23   43.39
   6 -10 -15   16.94   27.94
  -6 -10  15   70.71   33.26
   6  10 -14  127.92   35.56
  -6  10  14  107.16   32.32
   6 -10 -14   16.40   29.38
  -6 -10  14   84.67   35.08
   6  10 -13  622.98   65.79
  -6  10  13  507.28   63.74
   6 -10 -13  482.07   67.01
  -6 -10  13  417.02   64.78
   6  10 -12   97.82   34.56
  -6  10  12   75.95   33.11
   6 -10 -12  117.11   30.45
  -6 -10  12  152.13   36.01
   6  10 -11   78.92   28.88
  -6  10  11   46.92   27.49
   6 -10 -11   73.51   23.78
  -6 -10  11   21.69   28.55
   6  10 -10  171.50   33.34
  -6  10  10  209.87   45.45
   6 -10 -10  169.32   31.57
  -6 -10  10  120.88   36.20
   6  10  -9  721.56   63.03
  -6  10   9  768.97   69.65
   6 -10  -9  690.68   63.19
  -6 -10   9  796.14   67.28
   6  10  -8 1817.22  109.05
  -6  10   8 1741.00  123.99
   6 -10  -8 1894.64  118.27
  -6 -10   8 1878.34  125.82
   6  10  -7   67.47   21.20
  -6  10   7   74.26   25.28
   6 -10  -7   65.91   23.07
  -6 -10   7   93.42   24.42
   6  10  -6  305.80   29.26
  -6  10   6  262.29   35.34
   6 -10  -6  283.81   35.61
  -6 -10   6  223.10   16.59
  -6 -10   6  318.26   36.30
   6  10  -5  351.45   29.30
  -6  10   5  343.27   47.31
  -6 -10   5  310.43   24.03
  -6 -10   5  370.82   40.15
   6 -10  -5  336.26   37.93
   6  10  -4  694.38   39.59
  -6  10   4  751.13   58.74
   6 -10  -4  678.48   53.65
  -6 -10   4  647.26   57.17
  -6 -10   4  677.43   40.71
   6  10  -3 1622.05   79.77
  -6  10   3 1962.89  106.93
   6 -10  -3 1830.26  103.22
  -6 -10   3 1959.67   91.23
  -6 -10   3 1863.84  110.86
   6  10  -2  268.50   21.02
  -6  10   2  302.88   33.84
  -6 -10   2  253.45   33.98
  -6 -10   2  301.42   30.97
   6 -10  -2  330.29   33.46
   6  10  -1   45.03   11.43
  -6  10   1   30.61   18.79
   6 -10  -1   68.72   20.83
  -6 -10   1   61.27   18.19
  -6 -10   1   78.08   22.44
   6 -10  -1   71.87    8.44
   6  10   0  538.78   43.45
   6  10   0  450.86   21.44
  -6  10   0  488.59   38.05
   6 -10   0  447.01   22.19
   6 -10   0  524.05   44.74
  -6 -10   0  553.25   40.14
   6  10   1 2161.09  123.07
  -6  10  -1 2149.74  118.26
   6 -10   1 1930.30   80.92
   6 -10   1 2245.13  127.06
  -6 -10  -1 2268.80  122.05
   6  10   2  493.01   48.73
  -6  10  -2  471.19   42.02
   6 -10   2  427.05   42.23
   6 -10   2  462.10   28.00
  -6 -10  -2  502.26   44.77
  -6  10  -3  293.84   30.84
   6  10   3  445.57   44.16
   6 -10   3  338.44   27.02
   6 -10   3  376.07   39.16
  -6 -10  -3  350.39   49.02
   6  10   4  356.83   47.80
  -6  10  -4  370.04   36.10
   6 -10   4  333.95   44.11
   6 -10   4  342.37   31.32
  -6 -10  -4  401.99   44.73
   6  10   5  164.36   30.57
  -6  10  -5   64.90   17.71
   6 -10   5   76.56   27.16
   6 -10   5  104.75   20.65
  -6 -10  -5  101.77   29.17
   6  10   6  424.55   54.69
  -6  10  -6  452.01   34.35
  -6  10  -6  493.93   50.45
  -6 -10  -6  459.85   58.17
   6 -10   6  583.84   52.09
   6  10   7  305.58   49.49
  -6  10  -7  372.64   48.20
   6 -10   7  367.00   49.32
  -6 -10  -7  466.63   61.38
   6  10   8   54.31   33.13
  -6  10  -8  103.95   27.84
   6 -10   8  128.69   28.11
  -6 -10  -8   56.08   32.44
   6  10   9  104.41   33.11
  -6  10  -9   48.36   29.90
   6 -10   9   61.26   28.63
  -6 -10  -9   63.07   30.83
   6  10  10  131.29   41.10
  -6  10 -10  134.40   38.10
   6 -10  10  146.24   35.18
  -6 -10 -10  118.88   38.79
   6  11 -14  255.11   48.81
  -6  11  14  159.97   43.01
   6 -11 -14  144.28   39.36
  -6 -11  14  277.29   56.15
   6  11 -13  290.10   51.44
  -6  11  13  237.67   50.23
   6 -11 -13  267.80   42.74
  -6 -11  13  327.62   52.75
   6  11 -12   15.69   27.83
  -6  11  12   54.01   29.78
   6 -11 -12   -8.12   23.44
  -6 -11  12   63.71   27.28
   6  11 -11  234.12   37.89
  -6  11  11  164.68   38.91
   6 -11 -11  130.65   33.00
  -6 -11  11  165.88   39.93
   6  11 -10  207.44   39.10
  -6  11  10  217.78   38.64
   6 -11 -10  176.82   33.92
  -6 -11  10  215.57   38.91
   6  11  -9  280.10   49.35
  -6  11   9  287.33   49.73
   6 -11  -9  329.65   38.73
  -6 -11   9  278.15   41.96
   6  11  -8  119.68   34.54
  -6  11   8  168.81   32.90
   6 -11  -8   87.53   27.82
  -6 -11   8  134.81   28.88
   6  11  -7   92.85   30.32
  -6  11   7  110.30   29.21
   6 -11  -7   96.76   29.13
  -6 -11   7  165.37   29.21
   6  11  -6  311.38   33.58
  -6  11   6  330.73   41.22
   6 -11  -6  338.30   38.75
  -6 -11   6  283.34   41.36
   6  11  -5  509.62   38.40
  -6  11   5  531.82   53.50
  -6 -11   5  581.49   52.81
  -6 -11   5  519.01   31.04
   6 -11  -5  494.96   48.55
   6  11  -4  966.69   51.91
  -6  11   4 1033.02   73.19
   6 -11  -4  856.13   67.81
  -6 -11   4  941.99   71.45
  -6 -11   4  962.74   48.41
   6  11  -3  162.56   18.18
  -6  11   3  274.07   38.11
  -6 -11   3  167.86   27.99
  -6 -11   3  197.67   19.87
   6 -11  -3  185.04   31.06
   6  11  -2   71.76   12.68
  -6  11   2   89.75   23.37
   6 -11  -2   70.40   22.83
  -6 -11   2   87.61   20.73
  -6 -11   2   77.36   25.07
   6  11  -1 1026.20   45.68
  -6  11   1 1082.90   70.49
  -6 -11   1 1023.26   72.75
  -6 -11   1 1069.47   68.91
   6 -11  -1  998.70   72.20
   6  11   0   96.81   23.87
  -6  11   0   90.22   20.44
   6 -11   0   73.46   23.87
  -6 -11   0   81.32   24.28
   6 -11   0   54.48   11.63
   6  11   1 1455.38   94.45
  -6  11  -1 1369.34   76.25
   6 -11   1 1277.36   58.56
   6 -11   1 1485.56   94.20
  -6 -11  -1 1398.23   88.11
  -6  11  -2  466.37   36.74
   6  11   2  436.60   48.74
   6 -11   2  421.28   26.97
   6 -11   2  378.98   45.55
  -6 -11  -2  468.75   44.06
  -6  11  -3   36.31   19.06
   6  11   3   31.38   22.51
   6 -11   3   21.95   15.85
   6 -11   3   25.88   27.89
  -6 -11  -3   24.24   21.99
  -6  11  -4    9.73   13.38
   6  11   4   12.22   23.15
   6 -11   4  -15.30   17.72
   6 -11   4    8.30   21.75
  -6 -11  -4  104.10   23.22
  -6  11  -5  540.86   37.65
   6  11   5  632.71   63.13
   6 -11   5  642.31   58.47
  -6 -11  -5  641.26   63.08
   6 -11   5  624.42   48.41
   6  11   6   52.49   26.27
  -6  11  -6   41.12   23.52
   6 -11   6   15.39   18.97
  -6 -11  -6   12.23   26.38
   6  11   7  109.02   34.31
  -6  11  -7  113.20   31.23
   6 -11   7  113.78   27.58
  -6 -11  -7   91.73   32.50
   6  11   8  313.87   50.63
  -6  11  -8  339.79   47.37
   6 -11   8  352.69   46.10
  -6 -11  -8  331.23   54.96
   6  11   9  288.82   52.98
  -6  11  -9  336.26   49.66
   6 -11   9  278.12   47.10
  -6 -11  -9  269.82   52.82
   6  11  10   78.50   48.24
  -6  11 -10  138.41   37.02
   6 -11  10   76.86   35.03
  -6 -11 -10  146.15   38.86
   6  12 -14  451.86   64.66
  -6  12  14  501.86   79.96
   6 -12 -14  339.41   57.88
  -6 -12  14  431.69   67.23
   6  12 -13  134.49   37.77
  -6  12  13   28.77   46.01
   6 -12 -13  118.82   32.01
  -6 -12  13   42.78   37.07
   6  12 -12  255.66   55.45
  -6  12  12  239.09   48.73
   6 -12 -12  190.67   39.15
  -6 -12  12  170.23   47.68
   6  12 -11   32.10   30.45
  -6  12  11  134.13   32.82
   6 -12 -11   59.76   26.63
  -6 -12  11   47.38   31.29
   6  12 -10   44.37   27.24
  -6  12  10   65.00   29.72
   6 -12 -10   52.80   23.46
  -6 -12  10   28.58   30.17
   6  12  -9  408.05   59.88
  -6  12   9  415.60   52.40
   6 -12  -9  405.01   44.30
  -6 -12   9  399.18   52.92
   6  12  -8  217.07   32.95
  -6  12   8  223.55   39.79
   6 -12  -8  197.15   34.26
  -6 -12   8  157.83   38.80
   6  12  -7  300.84   37.44
  -6  12   7  336.46   45.10
   6 -12  -7  318.84   48.14
  -6 -12   7  249.79   41.04
  -6  12   6    9.79   20.94
   6  12  -6  -16.31   19.25
  -6 -12   6   35.45   21.04
   6 -12  -6   -6.02   18.25
   6  12  -5  424.19   34.24
  -6  12   5  509.83   51.29
  -6 -12   5  390.90   46.27
  -6 -12   5  349.56   26.14
   6 -12  -5  428.26   42.08
   6  12  -4 1045.42   63.00
  -6  12   4 1091.97   78.91
   6 -12  -4  975.55   84.21
  -6 -12   4  945.49   48.44
  -6 -12   4  979.07   75.25
   6  12  -3  690.31   45.63
  -6  12   3  769.79   60.62
   6 -12  -3  686.07   60.74
  -6 -12   3  731.76   43.19
  -6 -12   3  792.82   62.35
   6  12  -2 1245.67   57.22
  -6  12   2 1488.47   89.61
   6 -12  -2 1292.44  105.78
  -6 -12   2 1306.04   71.64
  -6 -12   2 1353.33   92.41
   6  12  -1   88.87   14.33
  -6  12   1   66.00   23.13
   6 -12  -1  114.91   26.14
  -6 -12   1   69.66   20.35
  -6 -12   1   70.47   25.31
   6  12   0   28.41   20.94
  -6  12   0   -1.45   16.97
   6 -12   0   15.48   21.80
  -6 -12   0   20.30   17.64
   6  12   1 1585.39  103.34
  -6  12  -1 1457.12   84.79
   6 -12   1 1336.50   61.70
   6 -12   1 1478.29  103.71
  -6 -12  -1 1721.78   99.50
  -6  12  -2  221.09   27.06
   6  12   2  232.97   37.19
   6 -12   2  196.67   23.29
   6 -12   2  208.93   37.44
  -6 -12  -2  309.14   35.10
  -6  12  -3  381.27   32.92
   6  12   3  364.45   47.26
   6 -12   3  365.60   28.96
   6 -12   3  356.69   45.92
  -6 -12  -3  400.51   45.77
  -6  12  -4  364.85   40.49
   6  12   4  441.38   62.04
   6 -12   4  492.39   42.23
   6 -12   4  546.99   53.52
  -6 -12  -4  529.72   53.31
   6  12   5  103.87   30.89
  -6  12  -5   38.91   19.13
   6 -12   5   80.05   29.08
   6 -12   5   95.94   19.70
  -6 -12  -5   52.07   28.82
   6  12   6  160.35   40.39
  -6  12  -6  139.14   39.68
   6 -12   6   68.74   24.63
  -6 -12  -6  121.29   33.08
   6  12   7  481.88   62.65
  -6  12  -7  478.65   54.30
   6 -12   7  435.75   48.79
  -6 -12  -7  449.55   61.04
   6  12   8   88.65   39.10
  -6  12  -8  126.04   35.78
   6 -12   8  161.52   32.33
  -6 -12  -8   95.96   38.10
   6  12   9  155.42   45.76
  -6  12  -9  164.01   43.53
   6 -12   9  227.52   39.85
  -6 -12  -9  195.32   58.74
   6  13 -13  129.74   35.41
  -6  13  13  107.87   37.15
   6 -13 -13   -3.84   28.09
  -6 -13  13   54.02   38.81
   6  13 -12  336.99   56.83
  -6  13  12  347.24   55.71
   6 -13 -12  319.06   46.41
  -6 -13  12  281.97   71.38
   6  13 -11  637.91   71.53
  -6  13  11  612.37   84.66
   6 -13 -11  614.06   64.95
  -6 -13  11  589.16   76.45
   6  13 -10  481.64   59.79
  -6  13  10  459.66   63.76
   6 -13 -10  481.93   55.84
  -6 -13  10  501.32   62.04
   6  13  -9  138.75   30.63
  -6  13   9  108.62   34.29
   6 -13  -9   92.14   30.59
  -6 -13   9  102.01   32.72
   6  13  -8  242.66   43.05
  -6  13   8  138.62   44.75
   6 -13  -8  251.36   35.44
  -6 -13   8  206.02   49.35
   6  13  -7   34.87   25.79
  -6  13   7    9.11   25.69
   6 -13  -7   20.01   21.64
  -6 -13   7   41.28   24.08
   6  13  -6  416.36   48.39
  -6  13   6  409.40   52.50
   6 -13  -6  440.63   45.76
  -6 -13   6  415.50   53.68
   6  13  -5  666.75   50.07
  -6  13   5  723.17   66.96
   6 -13  -5  634.98   71.05
  -6 -13   5  662.02   64.53
   6  13  -4   66.85   20.97
  -6  13   4   74.39   27.28
   6 -13  -4   93.98   30.81
  -6 -13   4   47.05   27.15
  -6 -13   4   65.03   13.70
   6  13  -3  806.49   52.65
  -6  13   3  819.42   67.16
   6 -13  -3  807.64   65.10
  -6 -13   3  718.88   66.40
  -6 -13   3  792.73   45.18
   6  13  -2  198.04   22.42
  -6  13   2  199.03   31.97
   6 -13  -2  205.25   34.39
  -6 -13   2  204.12   35.42
  -6 -13   2  187.46   23.94
   6  13  -1 1740.39   81.31
  -6  13   1 1976.21  118.56
   6 -13  -1 1863.82  147.62
  -6 -13   1 1909.70  104.39
   6  13   0   67.74   29.60
  -6  13   0   47.77   19.23
   6 -13   0   36.56   22.82
  -6 -13   0    8.52   22.68
   6  13   1  461.75   52.89
  -6  13  -1  469.20   41.07
   6 -13   1  490.09   51.64
  -6 -13  -1  559.91   56.29
  -6  13  -2   93.43   20.37
   6  13   2  106.39   30.67
   6 -13   2  102.19   16.28
   6 -13   2  158.88   30.91
  -6 -13  -2   78.41   26.27
  -6  13  -3   50.50   16.66
   6  13   3   21.48   32.40
   6 -13   3   31.40   18.36
   6 -13   3  123.88   27.25
  -6 -13  -3   44.65   26.09
  -6  13  -4   79.89   23.19
   6  13   4  172.69   33.02
   6 -13   4   79.03   24.70
   6 -13   4  127.25   34.58
  -6 -13  -4  167.02   33.10
   6  13   5  113.39   41.23
   6 -13   5   87.14   31.87
   6 -13   5   86.89   25.44
  -6 -13  -5   82.96   31.34
   6  13   6   53.36   28.26
  -6  13  -6   47.39   26.81
   6 -13   6   20.47   20.18
  -6 -13  -6    4.26   28.23
   6  13   7   25.01   31.84
  -6  13  -7   77.07   28.32
   6 -13   7   35.97   29.00
  -6 -13  -7   64.35   31.17
   6  13   8  233.48   43.16
  -6  13  -8  206.79   48.94
   6 -13   8  108.10   43.10
  -6 -13  -8  112.41   45.20
   6  14 -12   43.80   38.38
  -6  14  12  121.89   38.13
   6 -14 -12   95.75   33.48
  -6 -14  12  100.02   42.55
   6  14 -11   59.67   31.19
  -6  14  11   57.41   33.62
   6 -14 -11   21.76   27.82
  -6 -14  11   50.15   33.06
   6  14 -10   33.69   26.82
  -6  14  10  -22.20   28.25
   6 -14 -10   23.53   26.49
  -6 -14  10   15.83   28.38
   6  14  -9  656.87   66.25
  -6  14   9  604.67   67.03
   6 -14  -9  580.66   61.46
  -6 -14   9  600.47   70.66
   6  14  -8  137.14   31.93
  -6  14   8  161.00   38.36
   6 -14  -8  140.71   34.02
  -6 -14   8  165.33   39.28
   6  14  -7  132.01   30.16
  -6  14   7  126.58   37.75
   6 -14  -7  126.93   38.20
  -6 -14   7  190.11   36.50
   6  14  -6  136.13   27.52
  -6  14   6  169.77   37.44
   6 -14  -6  149.35   32.60
  -6 -14   6  162.81   35.47
   6  14  -5  113.30   26.91
  -6  14   5  180.49   43.85
   6 -14  -5  171.94   32.74
  -6 -14   5  209.33   36.81
   6  14  -4  425.73   34.12
  -6  14   4  479.86   51.31
   6 -14  -4  314.67   43.33
  -6 -14   4  351.90   28.91
  -6 -14   4  372.59   46.74
   6  14  -3  287.46   31.51
  -6  14   3  326.61   41.42
   6 -14  -3  284.17   41.24
  -6 -14   3  341.57   41.91
  -6 -14   3  257.50   31.43
   6  14  -2  300.12   29.09
  -6  14   2  334.73   39.97
   6 -14  -2  377.72   52.35
  -6 -14   2  328.22   44.60
  -6 -14   2  299.85   30.10
   6  14  -1   43.46   24.14
  -6  14   1   65.42   27.72
   6 -14  -1   48.11   27.07
  -6 -14   1   41.44   18.70
  -6  14   0  275.03   33.52
   6  14   0  309.73   40.37
  -6 -14   0  230.94   33.27
   6 -14   0  252.24   41.74
   6  14   1  884.90   86.80
  -6  14  -1  793.68   59.38
   6 -14   1  878.77   79.04
  -6 -14  -1  786.16   65.94
   6  14   2  197.42   41.47
  -6  14  -2  204.26   34.21
   6 -14   2  260.95   43.68
  -6 -14  -2  284.77   37.59
  -6  14  -3  303.27   35.80
   6  14   3  388.25   58.29
   6 -14   3  254.87   27.65
   6 -14   3  306.30   48.17
  -6 -14  -3  412.39   52.71
   6  14   4  -16.13   23.36
   6 -14   4   -1.46   23.38
   6 -14   4  -10.77   13.57
  -6 -14  -4   31.33   22.91
   6  14   5  -34.07   27.19
   6 -14   5  -34.71   22.89
   6 -14   5    4.49   16.62
  -6 -14  -5   15.31   24.49
   6  14   6   40.14   40.17
  -6  14  -6  100.27   31.60
   6 -14   6   62.07   27.30
  -6 -14  -6   27.83   39.88
   6  14   7  223.49   48.98
  -6  14  -7  270.74   48.93
   6 -14   7  209.54   35.28
  -6 -14  -7  253.61   50.63
   6  15 -11  240.47   42.02
  -6  15  11  113.18   46.06
   6 -15 -11  138.17   36.19
  -6 -15  11  152.06   48.78
   6  15 -10   14.54   28.93
  -6  15  10   12.96   29.90
   6 -15 -10   36.94   24.93
  -6 -15  10   42.45   31.14
   6  15  -9  147.77   42.83
  -6  15   9   63.46   37.02
   6 -15  -9   99.54   32.03
  -6 -15   9  156.51   39.53
   6  15  -8  214.31   37.12
  -6  15   8  163.42   53.17
   6 -15  -8  203.34   36.22
  -6 -15   8  218.84   44.23
   6  15  -7  319.83   40.21
  -6  15   7  331.69   55.39
   6 -15  -7  268.99   44.26
  -6 -15   7  333.63   51.94
   6  15  -6    6.38   29.38
  -6  15   6  111.68   30.83
   6 -15  -6   88.71   27.54
  -6 -15   6   97.52   31.60
   6  15  -5  446.26   41.83
  -6  15   5  446.69   59.13
   6 -15  -5  408.50   52.10
  -6 -15   5  453.85   56.00
   6  15  -4  271.70   37.31
  -6  15   4  378.29   58.49
   6 -15  -4  249.85   41.46
  -6 -15   4  269.33   45.22
   6  15  -3  102.37   20.26
  -6  15   3  145.48   38.68
   6 -15  -3  101.75   32.25
  -6 -15   3  139.92   32.19
  -6 -15   3  130.66   19.81
  -6  15   2  392.57   45.51
   6 -15  -2  359.81   51.17
  -6 -15   2  304.67   46.88
  -6 -15   2  356.51   36.34
   6  15  -1   -2.69   21.80
  -6  15   1  -24.99   23.15
   6 -15  -1    3.67   21.21
  -6 -15   1   13.99   15.42
  -6  15   0  139.46   26.50
   6  15   0  179.63   39.96
  -6 -15   0  133.73   26.47
   6 -15   0   96.37   35.66
   6  15   1   49.66   25.81
  -6  15  -1   55.49   23.71
   6 -15   1   24.67   27.98
  -6 -15  -1   16.76   27.27
   6  15   2  199.64   40.84
  -6  15  -2  163.00   27.01
   6 -15   2  198.52   49.90
  -6 -15  -2  195.21   35.65
   6  15   3  211.39   51.63
   6 -15   3  207.94   43.50
  -6 -15  -3  189.62   47.98
   6  15   4  134.00   35.98
   6 -15   4  145.89   37.96
  -6 -15  -4   96.64   35.41
   6  15   5   17.95   30.75
  -6  15  -5   40.17   20.60
  -6 -15  -5   51.79   28.68
   6  15   6   29.60   27.69
  -6  15  -6   -4.94   28.21
  -6 -15  -6   13.80   28.30
   6  16  -9  213.73   43.58
  -6  16   9  207.81   46.37
   6 -16  -9  190.36   39.04
  -6 -16   9  196.07   48.85
   6  16  -8  139.24   32.85
  -6  16   8  116.61   37.96
   6 -16  -8   82.99   31.58
  -6 -16   8  115.56   38.63
   6  16  -7  241.97   37.99
  -6  16   7  238.77   48.41
   6 -16  -7  202.17   39.40
  -6 -16   7  202.58   43.08
   6  16  -6  119.91   29.59
  -6  16   6   79.56   44.95
   6 -16  -6  149.64   34.43
  -6 -16   6  106.87   35.92
   6  16  -5  102.25   30.63
  -6  16   5   88.51   38.71
   6 -16  -5  215.03   41.62
  -6 -16   5  110.43   34.61
   6  16  -4  349.65   35.52
  -6  16   4  387.85   52.46
   6 -16  -4  309.70   48.27
  -6 -16   4  328.86   50.50
  -6  16   3  449.33   51.79
   6 -16  -3  442.93   67.03
  -6 -16   3  312.45   51.65
  -6  16   2   43.69   27.91
   6 -16  -2   77.44   28.78
  -6 -16   2   81.53   29.20
  -6 -16   2   60.71   19.66
   6  16  -1   13.89   22.25
  -6  16   1  -17.45   20.46
   6 -16  -1   -5.33   23.32
  -6 -16   1  -21.40   21.27
  -6  16   0  479.67   48.10
   6  16   0  448.52   58.31
  -6 -16   0  498.01   56.01
   6 -16   0  508.88   59.42
   6  16   1  235.31   46.15
  -6  16  -1  285.97   41.32
   6 -16   1  340.35   51.41
  -6 -16  -1  284.68   39.82
   6  16   2  110.62   35.21
   6 -16   2  134.10   38.53
  -6 -16  -2  138.25   39.86
   6  16   3  114.28   37.93
   6 -16   3  122.72   39.23
  -6 -16  -3  129.80   43.35
   6  16   4  138.88   42.88
   6 -16   4  139.79   44.73
  -6 -16  -4  188.77   39.94
   6  16   5   -3.97   26.73
  -6  16  -5   -5.10   33.79
  -6 -16  -5   25.68   26.41
   6  17  -8   23.54   25.61
  -6  17   8   16.86   29.86
   6 -17  -8   11.96   24.77
  -6 -17   8   29.80   28.48
   6  17  -7  291.53   43.81
  -6  17   7  220.72   64.07
   6 -17  -7  331.30   47.91
  -6 -17   7  215.95   52.98
   6  17  -6   58.03   24.17
  -6  17   6   55.14   34.09
   6 -17  -6   43.01   28.25
  -6 -17   6   56.08   31.77
   6  17  -5  609.31   66.32
  -6  17   5  706.49   82.23
   6 -17  -5  669.09   71.78
  -6 -17   5  568.98   72.59
  -6  17   4   71.03   31.70
   6 -17  -4   32.39   31.27
  -6 -17   4   48.45   31.13
  -6  17   3   27.56   37.63
   6 -17  -3   45.23   33.35
  -6 -17   3  236.58   36.03
  -6  17   2  234.55   37.89
   6 -17  -2  132.80   40.29
  -6 -17   2  100.68   39.23
   6  17  -1  117.55   38.36
  -6  17   1  176.52   35.53
   6 -17  -1  206.59   40.00
  -6 -17   1  133.12   26.75
  -6  17   0  -32.00   24.42
   6  17   0   -0.15   27.37
  -6 -17   0   13.18   20.40
   6 -17   0  104.30   28.14
   6  17   1  110.93   41.00
   6 -17   1  174.53   41.52
  -6 -17  -1  187.17   34.96
   6  17   2   84.87   36.69
   6 -17   2  100.40   38.51
  -6 -17  -2   97.57   31.41
   6  17   3  524.73   72.53
   6 -17   3  506.78   74.30
  -6 -17  -3  616.15   79.07
  -6  18   5   43.29   30.43
   6 -18  -5   12.27   29.88
  -6 -18   5   28.39   28.94
  -6  18   4  322.08   61.69
   6 -18  -4  266.69   50.25
  -6 -18   4  283.43   60.35
  -6  18   3  228.28   45.13
   6 -18  -3  271.05   57.79
  -6 -18   3  245.70   48.76
   6  18  -2   89.20   36.14
  -6  18   2  158.01   39.93
   6 -18  -2   94.17   36.11
   6  18  -1   43.40   26.98
  -6  18   1    2.19   25.11
   6 -18  -1   19.68   28.48
   6  18   0  351.74   56.74
   6 -18   0  366.79   58.40
   7   0 -17  136.65   37.89
  -7   0  17  111.16   29.55
   7   0 -16  269.11   45.62
  -7   0  16  206.14   34.36
   7   0 -15 1448.02  117.75
  -7   0  15 1327.35  102.89
   7   0 -14  501.07   50.88
  -7   0  14  310.74   35.42
  -7   0  14  374.38   37.63
   7   0 -13  724.42   73.83
  -7   0  13  755.37   58.17
  -7   0  13  735.24   47.37
   7   0 -12  274.64   41.62
  -7   0  12  287.88   26.80
  -7   0  12  284.65   26.20
   7   0 -11   90.67   27.08
  -7   0  11   74.53   20.41
  -7   0  11   61.89   18.29
   7   0 -10  261.31   34.95
  -7   0  10  235.89   21.20
  -7   0  10  269.14   26.03
   7   0  -9 1162.19   75.54
  -7   0   9 1144.48   49.64
  -7   0   9 1165.96   55.95
   7   0  -8   30.82   18.46
  -7   0   8   25.55   12.58
  -7   0   8   40.77    9.50
   7   0  -7  225.04   31.75
  -7   0   7  238.81   21.38
  -7   0   7  210.06   18.03
   7   0  -6  289.25   25.32
  -7   0   6  270.87   23.00
  -7   0   6  239.03   17.72
   7   0  -5   20.59   13.62
  -7   0   5   10.30   12.52
  -7   0   5   17.12    8.52
   7   0  -4 1700.95   75.04
  -7   0   4 1795.94   78.21
  -7   0   4 1732.24   57.73
   7   0  -3 2675.02   90.93
   7   0  -3 3140.58  113.56
  -7   0   3 2854.68  119.84
   7   0  -2 3740.19  124.18
   7   0  -2 3964.53  139.91
  -7   0   2 3865.59  164.85
   7   0  -1  916.58   40.47
   7   0  -1  826.70   33.00
  -7   0   1  864.76   48.67
   7   0   0  784.79   42.08
   7   0   0  735.30   28.85
  -7   0   0  903.85   51.25
   7   0   1 4718.66  201.89
   7   0   1 4890.28  164.73
  -7   0  -1 5470.13  237.48
   7   0   2 1757.75   79.45
   7   0   2 1862.24   64.93
  -7   0  -2 1840.41   94.35
   7   0   3  199.86   15.12
   7   0   3  198.80   22.61
  -7   0  -3  176.70   26.93
   7   0   4  799.39   34.50
   7   0   4  805.54   54.03
  -7   0  -4  915.04   57.13
   7   0   5   80.94   24.51
  -7   0  -5   85.60   11.98
  -7   0  -5  115.43   24.34
   7   0   6  -11.52   20.58
  -7   0  -6   16.27    9.13
  -7   0  -6    4.77   21.47
   7   0   7 1790.89  119.11
  -7   0  -7 2038.31  125.24
   7   0   8  113.45   31.86
  -7   0  -8   92.21   27.25
   7   0   9  -29.21   23.23
  -7   0  -9   39.33   19.19
   7   0  10  983.62   93.39
  -7   0 -10  965.42   83.93
   7   0  11  577.65   71.27
  -7   0 -11  600.60   60.66
   7   0  12  276.09   54.17
  -7   0 -12  284.21   51.49
   7   1 -17  281.19   48.51
   7  -1 -17  194.51   46.51
  -7  -1  17  173.75   42.72
   7   1 -16  662.14   74.95
  -7   1  16  540.60   63.33
   7  -1 -16  662.60   72.90
  -7  -1  16  595.77   66.66
   7   1 -15   15.93   28.55
  -7   1  15   51.41   19.52
  -7   1  15   38.15   23.02
   7  -1 -15   34.50   34.12
  -7  -1  15   26.15   20.44
  -7   1  14  187.91   29.61
   7   1 -14  201.13   41.29
  -7   1  14  205.37   32.12
  -7  -1  14  225.93   29.79
   7  -1 -14  255.71   40.33
  -7  -1  14  177.78   21.71
  -7   1  13 1137.50   65.43
   7   1 -13 1291.26   98.56
  -7   1  13 1201.92   73.06
  -7  -1  13 1000.20   67.88
   7  -1 -13 1231.82   91.81
  -7  -1  13  916.87   61.51
  -7   1  12   85.62   17.80
   7   1 -12  130.38   31.86
  -7   1  12  119.33   20.80
  -7  -1  12   78.80   20.63
   7  -1 -12   85.77   30.25
  -7  -1  12   98.38   14.38
   7   1 -11 1700.96  105.70
  -7   1  11 1470.41   69.12
  -7   1  11 1552.69   88.49
   7  -1 -11 1499.70  100.32
  -7  -1  11 1482.33   83.84
  -7  -1  11 1465.75   75.14
   7   1 -10  501.45   50.68
  -7   1  10  525.70   32.33
  -7   1  10  573.25   42.51
   7  -1 -10  537.34   46.95
  -7  -1  10  466.10   31.95
  -7  -1  10  564.53   31.61
   7   1  -9   34.53   20.89
  -7   1   9   39.71   15.65
  -7   1   9   49.55   11.56
   7  -1  -9   51.00   20.81
  -7  -1   9   50.70   12.16
  -7  -1   9   49.52   15.24
   7   1  -8  122.49   25.02
  -7   1   8  144.15   14.05
  -7   1   8  179.20   19.58
  -7  -1   8  156.13   17.01
   7  -1  -8  187.08   24.68
  -7  -1   8  137.26   18.38
   7   1  -7  874.91   57.55
  -7   1   7  999.00   50.34
  -7   1   7  991.13   37.86
   7  -1  -7 1021.73   59.39
  -7  -1   7 1041.79   53.26
  -7  -1   7 1063.19   47.23
   7   1  -6  638.61   41.14
  -7   1   6  622.91   38.70
  -7   1   6  632.33   26.07
   7  -1  -6  725.28   45.56
  -7  -1   6  693.56   40.64
  -7  -1   6  735.55   34.53
   7   1  -5 2241.27   97.66
  -7   1   5 2362.66   68.39
  -7   1   5 2362.63  102.51
  -7  -1   5 2281.44   94.03
   7  -1  -5 2435.08  107.57
  -7  -1   5 2488.77   87.07
   7   1  -4  774.17   37.41
  -7   1   4  691.72   42.27
   7  -1  -4  689.13   41.06
  -7  -1   4  685.96   38.93
  -7  -1   4  729.89   33.61
   7   1  -3  529.34   25.90
  -7   1   3  573.91   36.32
   7   1  -3  550.13   30.49
   7  -1  -3  628.10   39.41
   7  -1  -3  566.94   20.40
  -7  -1   3  573.45   35.70
   7   1  -2 2560.31   95.98
  -7   1   2 2785.88  118.10
   7   1  -2 2680.80   91.36
   7  -1  -2 2671.69   99.89
   7  -1  -2 2575.90   79.97
  -7  -1   2 2642.84  113.27
   7   1  -1  618.74   35.44
  -7   1   1  701.58   41.65
   7   1  -1  611.64   25.33
   7  -1  -1  601.48   30.29
   7  -1  -1  608.40   25.99
  -7  -1   1  669.75   41.83
   7   1   0  499.07   28.68
  -7   1   0  428.85   35.15
   7   1   0  470.95   22.31
   7  -1   0  486.72   28.45
   7  -1   0  497.66   28.99
  -7  -1   0  512.32   36.04
   7   1   1   74.20   15.28
   7   1   1   51.95    9.26
  -7   1  -1   67.65   18.82
   7  -1   1   95.13   13.21
   7  -1   1   76.37   13.42
  -7  -1  -1   62.44   18.65
   7   1   2  839.00   49.80
  -7   1  -2  956.47   54.75
   7   1   2  930.49   32.71
   7  -1   2  839.74   52.49
  -7  -1  -2  963.36   65.88
   7  -1   2  947.37   38.11
   7   1   3  274.84   14.82
   7   1   3  297.72   33.56
  -7   1  -3  283.10   28.50
   7  -1   3  265.21   19.26
   7  -1   3  288.68   27.43
  -7  -1  -3  324.92   31.92
  -7   1  -4  227.41   28.10
   7   1   4  209.06   28.34
   7  -1   4  192.91   27.47
   7  -1   4  218.39   16.10
  -7  -1  -4  180.97   27.64
   7   1   5 1961.71  108.66
  -7   1  -5 2249.00  114.47
  -7   1  -5 1968.27   78.86
  -7  -1  -5 1691.82   60.78
   7  -1   5 1920.91  108.21
  -7  -1  -5 1923.02  108.86
   7   1   6   17.46   19.74
  -7   1  -6   15.51   11.50
  -7   1  -6    0.01   17.43
   7  -1   6   55.39   19.66
  -7  -1  -6   11.71   19.73
  -7   1  -7  535.65   47.57
   7   1   7  499.22   52.40
  -7   1  -7  457.76   31.17
   7  -1   7  516.36   53.58
  -7  -1  -7  528.33   51.20
   7   1   8  119.60   34.73
  -7   1  -8  166.34   36.90
  -7   1  -8  125.56   19.62
  -7  -1  -8  188.09   30.33
   7  -1   8  163.45   36.00
   7   1   9  522.18   61.58
  -7   1  -9  623.53   52.59
   7  -1   9  546.89   60.87
  -7  -1  -9  543.95   55.57
   7   1  10  382.96   59.41
  -7   1 -10  430.06   48.18
   7  -1  10  453.68   57.55
  -7  -1 -10  416.56   60.88
   7   1  11   60.06   32.42
  -7   1 -11   76.57   25.06
   7  -1  11  101.68   35.27
  -7  -1 -11   62.50   26.93
   7   1  12   71.46   37.69
   7  -1  12   99.30   36.31
  -7  -1 -12   63.50   29.04
   7   2 -17   26.16   32.27
   7  -2 -17   18.05   29.65
  -7  -2  17   55.67   24.14
   7   2 -16  145.98   39.91
  -7   2  16   96.08   24.23
   7  -2 -16  113.36   34.82
  -7  -2  16  107.69   36.28
  -7   2  15   86.37   29.12
   7   2 -15  197.78   37.61
  -7   2  15   79.09   23.78
   7  -2 -15  289.76   36.54
  -7  -2  15  103.00   27.13
   7   2 -14   73.11   30.62
  -7   2  14   35.67   18.46
  -7   2  14   75.93   21.48
   7  -2 -14   85.03   26.99
  -7  -2  14   54.12   22.43
   7   2 -13  289.61   40.56
  -7   2  13  214.87   27.51
   7  -2 -13  314.47   42.04
  -7  -2  13  230.48   29.10
  -7  -2  13  196.23   20.77
   7   2 -12 1349.63   95.12
  -7   2  12 1277.19   70.58
  -7   2  12 1345.53   78.96
  -7  -2  12 1186.48   62.65
   7  -2 -12 1380.60   95.64
  -7  -2  12 1339.67   79.11
   7   2 -11  201.63   36.21
  -7   2  11  171.47   17.38
  -7   2  11  269.14   26.12
  -7  -2  11  208.33   21.51
   7  -2 -11  176.35   34.20
  -7  -2  11  215.16   29.45
  -7   2  10  182.72   22.69
   7   2 -10  204.47   32.01
  -7   2  10  145.57   13.65
  -7  -2  10  152.61   16.28
   7  -2 -10  160.77   27.32
  -7  -2  10  140.05   24.87
  -7   2   9  492.63   36.35
   7   2  -9  453.21   44.34
  -7   2   9  458.19   23.74
   7  -2  -9  465.32   41.27
  -7  -2   9  416.07   34.52
  -7  -2   9  405.49   25.79
   7   2  -8  360.07   35.71
  -7   2   8  329.84   18.61
  -7   2   8  364.71   28.57
   7  -2  -8  342.99   35.98
  -7  -2   8  345.39   28.24
  -7  -2   8  300.80   21.72
   7   2  -7  547.21   40.59
  -7   2   7  524.08   20.72
  -7   2   7  497.63   35.42
   7  -2  -7  559.59   41.85
  -7  -2   7  529.47   30.90
  -7  -2   7  537.59   28.73
   7   2  -6 1339.67   66.96
  -7   2   6 1322.87   37.45
  -7   2   6 1233.57   63.08
   7  -2  -6 1429.40   71.11
  -7  -2   6 1262.44   56.30
  -7  -2   6 1393.68   55.81
   7   2  -5  490.31   32.14
  -7   2   5  487.67   15.76
  -7   2   5  494.76   40.44
  -7  -2   5  547.21   29.07
   7  -2  -5  555.31   41.63
  -7  -2   5  521.69   26.87
   7   2  -4 5690.40  222.92
  -7   2   4 5640.52  246.13
   7  -2  -4 6012.06  259.52
  -7  -2   4 5834.08  245.11
  -7  -2   4 5958.42  222.50
  -7   2   3 5421.88  235.27
   7   2  -3 5545.52  198.95
   7  -2  -3 5739.66  229.01
   7  -2  -3 5457.83  147.31
  -7  -2   3 5531.62  226.84
   7   2  -2  491.62   26.20
  -7   2   2  409.87   32.70
   7   2  -2  549.35   27.45
   7  -2  -2  446.33   29.13
   7  -2  -2  467.87   19.93
  -7  -2   2  550.56   41.27
   7   2  -1 1059.29   48.32
  -7   2   1 1109.01   57.46
   7   2  -1 1087.84   40.46
   7  -2  -1 1014.75   44.65
   7  -2  -1 1079.95   39.72
  -7  -2   1 1138.07   57.00
   7   2   0  105.70   16.64
   7   2   0   97.90    9.93
  -7   2   0   87.40   18.88
   7  -2   0  115.00   14.74
   7  -2   0   84.08   16.84
  -7  -2   0   83.37   19.54
   7   2   1 2857.46  130.55
   7   2   1 2376.52   71.52
  -7   2  -1 2870.42  130.37
   7  -2   1 2734.83  101.38
   7  -2   1 2734.36  107.07
  -7  -2  -1 3080.26  137.71
   7   2   2  890.40   51.38
  -7   2  -2  982.03   58.70
   7   2   2  865.81   27.07
   7  -2   2  876.33   46.29
  -7  -2  -2 1073.88   60.49
   7  -2   2  910.45   44.18
   7   2   3  271.87   13.39
   7   2   3  270.25   29.80
  -7   2  -3  300.77   29.61
   7  -2   3  278.48   22.68
   7  -2   3  287.26   26.31
  -7  -2  -3  318.64   31.63
  -7   2  -4  151.43   23.06
   7   2   4  123.06   22.99
   7  -2   4   91.50   22.46
   7  -2   4  110.92   18.38
  -7  -2  -4  169.95   24.00
   7   2   5  974.23   69.78
  -7   2  -5 1103.02   68.12
   7  -2   5 1034.76   53.73
   7  -2   5  948.92   64.68
  -7  -2  -5 1103.56   81.81
   7   2   6  291.20   35.02
  -7   2  -6  213.42   22.00
  -7   2  -6  227.30   30.20
   7  -2   6  198.59   32.56
  -7  -2  -6  214.29   34.42
  -7   2  -7 1982.00  117.39
   7   2   7 2006.49  148.14
  -7   2  -7 1712.42   90.22
   7  -2   7 1777.67  137.68
  -7  -2  -7 2127.99  128.17
   7   2   8  241.51   38.49
  -7   2  -8  183.28   20.03
  -7   2  -8  229.41   38.20
   7  -2   8  164.47   37.57
  -7  -2  -8  187.13   41.10
   7   2   9  108.20   32.17
  -7   2  -9  117.88   26.42
   7  -2   9   98.95   32.75
  -7  -2  -9  132.00   30.62
   7   2  10  549.77   63.92
  -7   2 -10  466.43   56.09
   7  -2  10  518.39   60.95
  -7  -2 -10  496.95   67.14
   7   2  11  175.66   45.88
  -7   2 -11  180.73   32.10
   7  -2  11  134.60   49.91
  -7  -2 -11  171.98   37.47
   7   2  12  337.06   60.45
   7  -2  12  450.71   63.28
  -7  -2 -12  312.62   46.63
   7   3 -17  251.69   47.86
   7  -3 -17  228.11   44.80
  -7  -3  17  164.63   38.55
   7   3 -16  114.54   38.32
  -7   3  16  101.31   29.26
   7  -3 -16   85.98   34.08
  -7  -3  16   90.66   27.42
   7   3 -15   15.07   24.87
  -7   3  15   -9.94   16.19
  -7   3  15   -1.56   17.66
   7  -3 -15   39.91   22.91
  -7  -3  15   14.97   19.91
   7   3 -14  161.50   34.25
  -7   3  14   70.44   17.81
  -7   3  14   78.51   27.18
  -7  -3  14  100.69   25.79
   7  -3 -14   97.35   29.76
   7   3 -13  416.00   54.39
  -7   3  13  432.79   38.77
  -7   3  13  377.75   29.37
   7  -3 -13  462.92   60.08
  -7  -3  13  457.38   43.12
   7   3 -12 1301.21  100.52
  -7   3  12 1169.24   64.49
  -7   3  12 1352.47   89.03
  -7  -3  12 1311.33   81.13
   7  -3 -12 1293.77   92.07
   7   3 -11  505.47   49.19
  -7   3  11  505.32   47.06
  -7   3  11  469.91   27.79
   7  -3 -11  423.05   45.48
  -7  -3  11  372.85   27.97
  -7  -3  11  407.61   35.87
   7   3 -10  119.33   26.25
  -7   3  10   65.23   11.19
  -7   3  10   85.30   19.53
  -7  -3  10   61.56   13.12
   7  -3 -10   78.47   23.90
  -7  -3  10   68.70   17.10
   7   3  -9  734.32   57.73
  -7   3   9  791.74   47.89
  -7   3   9  684.61   28.34
   7  -3  -9  773.75   57.26
  -7  -3   9  654.69   43.97
  -7  -3   9  703.82   36.58
   7   3  -8  972.35   62.74
  -7   3   8  843.35   30.73
  -7   3   8 1085.32   65.44
  -7  -3   8 1010.65   46.70
   7  -3  -8 1040.06   63.77
  -7  -3   8 1007.60   49.81
   7   3  -7 1035.55   60.04
  -7   3   7 1083.36   61.52
  -7  -3   7 1027.41   52.43
  -7  -3   7  938.33   41.56
   7  -3  -7 1099.49   61.79
   7   3  -6  813.88   49.48
  -7   3   6  855.25   49.82
  -7  -3   6  896.67   44.85
  -7  -3   6  808.32   38.77
   7  -3  -6  875.24   54.02
   7   3  -5  384.44   26.91
  -7   3   5  375.40   30.43
  -7  -3   5  331.92   23.75
  -7  -3   5  325.02   22.97
   7  -3  -5  365.45   31.78
  -7   3   4  543.17   36.65
   7   3  -4  393.80   33.43
   7  -3  -4  517.95   35.16
   7  -3  -4  480.15   13.11
  -7  -3   4  458.57   28.15
  -7  -3   4  544.78   31.44
  -7   3   3  593.91   39.26
   7   3  -3  589.61   27.82
   7  -3  -3  597.18   34.73
   7  -3  -3  495.08   15.07
  -7  -3   3  522.71   29.63
  -7  -3   3  577.14   33.69
   7   3  -2 1659.10   69.16
  -7   3   2 1741.26   81.91
   7   3  -2 1768.62   63.70
   7  -3  -2 1302.51   84.05
   7  -3  -2 1668.02   46.05
  -7  -3   2 1634.03   77.13
   7   3  -1  915.77   43.82
  -7   3   1  884.62   50.28
   7   3  -1  851.32   32.63
  -7  -3   1  908.92   47.74
   7  -3  -1  888.73   32.09
   7   3   0 1535.08   71.31
   7   3   0 1405.58   42.44
  -7   3   0 1597.16   75.24
   7  -3   0 1564.37   57.23
   7  -3   0 1434.02   62.96
  -7  -3   0 1546.45   78.30
   7   3   1 2657.97  129.60
   7   3   1 2516.41   64.01
  -7   3  -1 2408.46  114.59
   7  -3   1 2545.97   94.89
   7  -3   1 2474.40  105.84
  -7  -3  -1 2560.76  122.64
   7   3   2   54.40   18.09
  -7   3  -2   88.34   19.59
   7   3   2   61.83    5.43
   7  -3   2   57.26   17.41
  -7  -3  -2   88.64   19.96
   7  -3   2   76.47   16.66
  -7   3  -3 1079.58   69.51
   7   3   3 1312.76   72.92
   7  -3   3 1281.75   61.42
  -7  -3  -3 1425.42   76.37
   7  -3   3 1194.69   64.17
  -7   3  -4  697.96   49.70
   7   3   4  696.53   49.22
   7  -3   4  712.25   47.09
   7  -3   4  627.70   43.54
  -7  -3  -4  693.01   53.86
  -7   3  -5 1975.92  110.72
   7   3   5 1793.54  111.63
   7  -3   5 1840.86  115.58
   7  -3   5 1918.36   88.29
  -7  -3  -5 1883.88  116.71
   7   3   6  327.53   39.79
  -7   3  -6  259.87   24.37
  -7   3  -6  296.41   33.36
   7  -3   6  229.96   42.30
  -7  -3  -6  290.12   37.15
  -7   3  -7  715.67   56.59
   7   3   7  662.69   83.76
  -7   3  -7  684.79   49.38
   7  -3   7  736.43   73.56
  -7  -3  -7  817.31   73.68
   7   3   8  394.37   53.08
  -7   3  -8  391.56   35.89
  -7   3  -8  421.96   41.85
   7  -3   8  408.57   57.96
  -7  -3  -8  380.74   49.80
   7   3   9  569.81   66.12
  -7   3  -9  505.93   45.87
  -7   3  -9  555.16   50.20
   7  -3   9  589.56   73.54
  -7  -3  -9  571.26   62.05
   7   3  10   83.52   43.77
  -7   3 -10   79.86   23.21
   7  -3  10  140.26   40.96
  -7  -3 -10   96.45   31.36
   7   3  11  339.56   72.45
  -7   3 -11  336.84   45.24
   7  -3  11  263.29   70.99
  -7  -3 -11  383.62   56.46
   7   3  12  146.70   46.01
   7  -3  12  185.25   45.88
  -7  -3 -12  101.70   36.77
   7   4 -17  209.78   50.22
   7  -4 -17   59.92   43.88
  -7  -4  17   97.48   38.54
   7   4 -16    8.09   27.55
  -7   4  16   -5.97   18.81
   7  -4 -16  -12.50   23.90
   7   4 -15  247.89   47.07
  -7   4  15  130.94   36.27
   7  -4 -15  238.34   40.96
  -7  -4  15  205.78   43.03
   7   4 -14  331.55   52.45
  -7   4  14  315.33   42.36
   7  -4 -14  315.39   48.26
  -7  -4  14  238.55   48.78
   7   4 -13  448.34   58.56
  -7   4  13  350.12   39.70
  -7   4  13  357.81   31.06
  -7  -4  13  453.63   45.29
   7  -4 -13  377.05   47.87
   7   4 -12  351.05   42.91
  -7   4  12  253.05   32.88
  -7   4  12  201.97   21.27
  -7  -4  12  292.70   32.94
   7  -4 -12  241.68   39.31
   7   4 -11  729.94   58.75
  -7   4  11  588.64   48.72
  -7   4  11  549.09   30.42
   7  -4 -11  635.35   56.15
  -7  -4  11  477.38   28.70
  -7  -4  11  594.49   43.85
   7   4 -10  133.36   26.10
  -7   4  10   56.34   10.03
  -7   4  10  100.75   21.96
  -7  -4  10   70.49   19.62
   7  -4 -10   44.54   23.32
  -7  -4  10   60.00   12.68
   7   4  -9 2071.82  112.88
  -7   4   9 2157.18  109.26
   7  -4  -9 2059.52  119.60
  -7  -4   9 1822.72   96.12
  -7  -4   9 1719.53   70.01
   7   4  -8  465.47   44.09
  -7   4   8  572.59   43.16
   7  -4  -8  499.32   42.90
  -7  -4   8  555.93   36.91
  -7  -4   8  510.03   25.47
   7   4  -7 1504.26   79.76
  -7   4   7 1624.83   87.09
   7  -4  -7 1530.75   89.42
  -7  -4   7 1667.08   79.85
  -7  -4   7 1509.56   64.92
   7   4  -6  308.06   33.04
  -7   4   6  313.81   30.26
   7  -4  -6  256.84   30.71
  -7  -4   6  295.32   26.65
  -7  -4   6  287.66   22.43
   7   4  -5  577.33   37.68
  -7   4   5  599.12   40.94
   7  -4  -5  632.30   43.37
  -7  -4   5  578.85   40.83
  -7  -4   5  665.84   39.03
   7   4  -4  167.77   19.04
  -7   4   4  176.39   23.32
   7  -4  -4  203.66   24.94
  -7  -4   4  201.19   23.47
  -7  -4   4  229.58   19.91
   7   4  -3 2487.25   85.61
  -7   4   3 2459.02  108.27
   7  -4  -3 2200.48   45.23
   7  -4  -3 2482.57  108.52
  -7  -4   3 2410.76   97.48
  -7  -4   3 2374.27   98.51
   7   4  -2 2245.83   97.38
   7   4  -2 2296.38   75.49
  -7   4   2 2271.33  107.48
   7  -4  -2 2195.08   96.95
  -7  -4   2 2222.08   97.99
   7   4  -1   13.00   13.65
   7   4  -1   30.31    8.12
  -7   4   1   37.52   15.29
   7  -4  -1    4.60    7.52
   7  -4  -1   10.57   13.12
  -7  -4   1   30.18   14.59
   7   4   0 2212.31  101.70
   7   4   0 2019.08   55.38
  -7   4   0 2117.34  101.95
   7  -4   0 2252.37   73.59
   7  -4   0 2296.03   98.68
  -7  -4   0 2340.15  106.88
   7   4   1  592.49   42.48
  -7   4  -1  653.18   41.98
   7  -4   1  545.87   33.42
  -7  -4  -1  645.63   43.17
   7  -4   1  624.38   34.55
   7   4   2  933.20   58.60
  -7   4  -2 1060.63   58.79
   7  -4   2  982.64   55.47
  -7  -4  -2  880.73   59.12
   7  -4   2  935.44   45.35
   7   4   3 1004.59   65.98
  -7   4  -3 1097.87   65.19
   7  -4   3 1010.33   51.32
   7  -4   3 1006.28   54.35
  -7  -4  -3 1032.96   69.14
   7   4   4 1166.46   81.72
  -7   4  -4 1288.54   82.60
   7  -4   4 1160.42   60.63
   7  -4   4 1209.73   69.43
  -7  -4  -4 1316.20   82.88
  -7   4  -5 1040.19   63.89
   7   4   5  815.60   72.15
   7  -4   5 1050.41   73.31
   7  -4   5  956.18   56.22
  -7  -4  -5 1042.20   77.43
   7   4   6   90.25   31.90
  -7   4  -6  156.43   21.19
  -7   4  -6  120.42   31.08
   7  -4   6  162.75   28.93
  -7  -4  -6  205.54   30.58
   7   4   7 1764.25  131.55
  -7   4  -7 1747.25  105.59
  -7   4  -7 1925.33  114.71
   7  -4   7 1851.81  121.65
  -7  -4  -7 1898.57  130.78
  -7   4  -8  254.95   30.45
   7   4   8  188.20   49.05
  -7   4  -8  181.87   24.20
   7  -4   8  209.30   37.33
  -7  -4  -8  169.24   35.86
   7   4   9  149.17   41.88
  -7   4  -9  143.71   24.94
  -7   4  -9  174.57   28.79
   7  -4   9  145.34   37.07
  -7  -4  -9  188.40   36.89
   7   4  10  406.21   63.34
  -7   4 -10  408.28   40.90
  -7   4 -10  442.23   47.23
   7  -4  10  461.71   59.76
  -7  -4 -10  488.70   55.76
   7   4  11  173.64   43.96
   7  -4  11  138.47   48.91
  -7  -4 -11  128.80   36.76
   7   4  12   -0.73   32.64
   7  -4  12   41.80   30.13
  -7  -4 -12   27.17   32.66
   7   5 -17  258.35   52.42
   7  -5 -17  281.78   47.66
  -7  -5  17  234.64   47.78
   7   5 -16   82.99   35.85
  -7   5  16   88.65   26.00
   7  -5 -16    8.61   29.81
  -7  -5  16   85.23   29.56
   7   5 -15   47.04   28.32
  -7   5  15   10.02   21.74
   7  -5 -15   46.76   30.95
  -7  -5  15   22.05   30.15
   7   5 -14  -30.21   24.60
  -7   5  14   33.46   20.49
   7  -5 -14   36.98   22.08
  -7  -5  14    2.59   26.78
   7   5 -13  112.40   32.18
  -7   5  13   84.32   26.14
   7  -5 -13  105.21   29.71
  -7  -5  13   86.71   28.11
   7   5 -12  853.77   78.67
  -7   5  12  806.89   65.86
   7  -5 -12  843.43   72.17
  -7  -5  12  858.64   64.29
   7   5 -11  371.91   46.58
  -7   5  11  276.21   38.78
   7  -5 -11  343.12   42.05
  -7  -5  11  342.82   37.07
   7   5 -10 1763.39  115.11
  -7   5  10 1858.83  105.46
  -7  -5  10 1794.46   99.21
  -7  -5  10 1524.72   62.10
   7  -5 -10 1763.90  107.63
   7   5  -9  821.76   65.69
  -7   5   9  814.09   63.27
   7  -5  -9  855.26   66.27
  -7  -5   9  937.85   56.45
  -7  -5   9  816.44   39.95
   7   5  -8  304.57   37.61
  -7   5   8  413.75   37.78
   7  -5  -8  324.55   38.53
  -7  -5   8  341.83   31.89
  -7  -5   8  350.79   22.93
   7   5  -7 1661.73   91.15
  -7   5   7 1817.44   97.53
   7  -5  -7 1858.16  106.19
  -7  -5   7 1904.37   94.88
  -7  -5   7 1709.77   65.09
   7   5  -6 1030.74   56.95
  -7   5   6 1038.63   59.85
   7  -5  -6 1023.88   64.77
  -7  -5   6  947.85   61.67
  -7  -5   6  938.63   42.19
   7   5  -5 5578.24  236.49
  -7   5   5 6005.13  285.57
  -7  -5   5 5533.22  216.64
  -7  -5   5 5788.86  265.83
   7  -5  -5 5595.33  269.97
   7   5  -4  232.01   19.15
  -7   5   4  252.65   25.88
   7  -5  -4  133.51   25.41
  -7  -5   4  178.10   18.97
  -7  -5   4  178.24   21.01
   7   5  -3   29.80   12.40
  -7   5   3   62.78   16.66
   7  -5  -3   34.31   15.59
  -7  -5   3   30.62   13.76
  -7  -5   3   35.46   14.59
   7   5  -2   86.16   11.89
   7   5  -2   65.49   12.21
  -7   5   2   94.99   18.05
   7  -5  -2   70.37   15.91
   7  -5  -2   55.74    6.39
  -7  -5   2   62.46   16.07
   7   5  -1 3003.88  138.04
   7   5  -1 2676.50   86.64
  -7   5   1 3127.37  139.22
   7  -5  -1 3095.12  133.52
  -7  -5   1 3208.14  141.98
   7  -5  -1 3213.98   88.37
   7   5   0 1519.79   87.05
   7   5   0 1424.07   38.70
  -7   5   0 1639.82   87.65
   7  -5   0 1528.55   52.93
   7  -5   0 1534.08   82.32
  -7  -5   0 1566.81   81.16
   7   5   1  318.97   30.41
  -7   5  -1  251.34   28.16
   7  -5   1  253.83   24.93
  -7  -5  -1  241.15   30.44
   7  -5   1  284.52   22.25
   7   5   2    6.87   17.27
  -7   5  -2   15.50   14.40
   7  -5   2   27.50   13.15
  -7  -5  -2   -2.95   17.50
   7  -5   2    8.57   13.22
   7   5   3   98.25   25.02
  -7   5  -3  164.22   21.62
   7  -5   3   66.68   17.34
   7  -5   3   78.69   18.09
  -7  -5  -3   77.30   23.54
   7   5   4  308.82   35.11
  -7   5  -4  279.79   36.25
   7  -5   4  298.76   28.14
   7  -5   4  302.41   29.31
  -7  -5  -4  265.99   36.12
  -7   5  -5 1065.56   73.70
   7   5   5  982.76   77.82
   7  -5   5 1015.82   69.55
   7  -5   5 1012.96   63.44
  -7  -5  -5 1071.37   73.25
   7   5   6   97.19   27.44
  -7   5  -6   86.50   20.27
  -7   5  -6   66.76   21.79
   7  -5   6   83.88   23.22
  -7  -5  -6   65.03   27.85
  -7   5  -7  148.06   24.32
   7   5   7  141.34   36.74
  -7   5  -7  180.70   27.88
  -7  -5  -7  188.14   34.53
   7  -5   7  206.54   32.25
   7   5   8  510.65   60.25
  -7   5  -8  461.58   49.81
  -7   5  -8  454.26   43.63
   7  -5   8  572.93   55.78
  -7  -5  -8  528.56   68.58
   7   5   9  285.10   52.90
  -7   5  -9  308.72   40.88
  -7   5  -9  289.95   41.74
   7  -5   9  370.76   46.20
  -7  -5  -9  301.40   47.96
   7   5  10  102.42   45.38
  -7   5 -10  190.06   28.72
   7  -5  10  165.76   38.84
  -7  -5 -10  167.85   37.08
   7   5  11   51.00   37.49
   7  -5  11   66.36   34.33
  -7  -5 -11  121.21   32.64
   7   6 -16  109.47   40.30
  -7   6  16  150.05   29.72
   7  -6 -16   43.51   34.65
  -7  -6  16   75.84   34.55
   7   6 -15  109.37   39.67
  -7   6  15   95.98   30.40
   7  -6 -15  159.44   36.11
  -7  -6  15  123.36   33.62
   7   6 -14  314.44   48.13
  -7   6  14  254.71   39.21
   7  -6 -14  245.96   41.83
  -7  -6  14  233.03   41.50
   7   6 -13  183.63   41.39
  -7   6  13  264.23   35.79
   7  -6 -13  172.35   38.76
  -7  -6  13  156.22   35.80
   7   6 -12  177.01   42.26
  -7   6  12  337.12   44.12
   7  -6 -12  221.09   39.18
  -7  -6  12  265.14   41.77
   7   6 -11  798.96   71.42
  -7   6  11  732.14   63.55
   7  -6 -11  835.46   69.95
  -7  -6  11  753.10   63.96
   7   6 -10  136.85   39.27
  -7   6  10  180.15   34.53
   7  -6 -10  106.83   30.05
  -7  -6  10  166.83   32.69
   7   6  -9   64.03   25.17
  -7   6   9   74.72   23.43
   7  -6  -9   88.98   25.39
  -7  -6   9   50.99   10.53
  -7  -6   9   89.69   21.37
   7   6  -8  243.19   30.81
  -7   6   8  223.83   33.23
   7  -6  -8  255.06   34.33
  -7  -6   8  213.12   16.75
  -7  -6   8  183.95   28.36
   7   6  -7  762.30   51.39
  -7   6   7  662.96   53.73
   7  -6  -7  799.32   57.64
  -7  -6   7  654.58   33.18
  -7  -6   7  700.04   50.79
   7   6  -6 2119.04  108.65
  -7   6   6 2384.69  125.54
   7  -6  -6 2270.79  125.28
  -7  -6   6 2330.03   92.33
  -7  -6   6 2395.77  118.69
   7   6  -5  183.92   23.45
  -7   6   5  327.16   30.15
   7  -6  -5  290.13   29.22
  -7  -6   5  241.61   22.44
  -7  -6   5  215.44   27.62
   7   6  -4  261.66   25.02
  -7   6   4  238.48   28.32
  -7  -6   4  263.94   21.12
  -7  -6   4  254.41   26.89
   7  -6  -4  279.37   29.25
   7   6  -3  371.11   22.71
  -7   6   3  378.85   41.32
  -7  -6   3  395.94   31.94
  -7  -6   3  339.72   31.12
   7  -6  -3  401.29   32.16
   7   6  -2  481.94   25.26
  -7   6   2  429.63   36.23
   7  -6  -2  472.51   37.42
  -7  -6   2  400.84   31.22
  -7  -6   2  449.41   33.74
   7   6  -1 1018.76   57.12
   7   6  -1  933.30   33.18
  -7   6   1  964.73   57.17
   7  -6  -1  885.69   27.90
   7  -6  -1  987.73   56.86
  -7  -6   1 1028.14   61.28
   7   6   0  211.32   28.19
   7   6   0  239.78   11.67
  -7   6   0  266.28   34.92
   7  -6   0  255.39   15.90
   7  -6   0  263.72   25.64
  -7  -6   0  270.30   28.30
   7   6   1 1065.60   67.03
  -7   6  -1 1187.74   60.81
   7  -6   1 1074.60   63.74
  -7  -6  -1 1107.68   64.79
   7  -6   1 1058.74   48.08
   7   6   2  288.52   31.65
  -7   6  -2  287.80   30.50
   7  -6   2  315.52   30.90
  -7  -6  -2  289.49   34.13
   7  -6   2  302.93   22.25
   7   6   3 1508.60   95.21
  -7   6  -3 1498.81   80.59
   7  -6   3 1474.68   81.59
   7  -6   3 1461.93   78.94
  -7  -6  -3 1429.44   87.96
   7   6   4   63.57   25.41
  -7   6  -4   91.11   21.17
   7  -6   4   91.69   19.59
   7  -6   4   68.14   22.31
  -7  -6  -4   28.75   24.11
   7   6   5  754.88   69.09
  -7   6  -5  807.94   56.41
   7  -6   5  814.89   57.52
   7  -6   5  803.09   54.99
  -7  -6  -5  824.35   65.19
   7   6   6  153.22   33.52
  -7   6  -6  142.53   19.00
  -7   6  -6  155.86   25.06
   7  -6   6  158.43   35.07
  -7  -6  -6  135.02   33.77
  -7   6  -7   28.33   21.78
   7   6   7   25.46   25.26
  -7   6  -7   25.06   17.62
   7  -6   7   28.00   21.36
  -7  -6  -7   27.95   25.47
   7   6   8  303.48   51.31
  -7   6  -8  330.07   36.17
  -7   6  -8  297.51   38.87
   7  -6   8  343.51   44.24
  -7  -6  -8  352.25   49.64
   7   6   9   19.39   33.97
  -7   6  -9  109.81   24.30
  -7   6  -9   82.69   19.79
   7  -6   9   96.34   38.14
  -7  -6  -9   21.48   37.93
   7   6  10  599.21   81.25
  -7   6 -10  626.22   58.39
   7  -6  10  577.61   70.35
  -7  -6 -10  718.78   69.10
   7   6  11  104.46   48.41
   7  -6  11  150.58   39.74
  -7  -6 -11   99.46   38.44
   7   7 -16   66.80   35.66
  -7   7  16   41.54   28.63
   7  -7 -16   68.44   31.26
  -7  -7  16   44.57   38.40
   7   7 -15   82.25   35.42
  -7   7  15   51.56   29.58
   7  -7 -15   75.25   32.68
  -7  -7  15   63.40   31.81
   7   7 -14   77.51   35.46
  -7   7  14   65.74   28.46
   7  -7 -14   83.27   35.09
  -7  -7  14   70.14   28.64
   7   7 -13  -34.66   29.60
  -7   7  13   23.35   20.34
   7  -7 -13   13.87   22.48
  -7  -7  13    3.15   22.16
   7   7 -12  275.20   50.49
  -7   7  12  210.50   46.80
   7  -7 -12  277.15   39.26
  -7  -7  12  188.60   44.91
   7   7 -11  301.68   45.41
  -7   7  11  302.03   42.24
   7  -7 -11  391.79   54.86
  -7  -7  11  358.57   42.02
   7   7 -10   64.35   27.24
  -7   7  10   84.18   25.44
   7  -7 -10   47.23   25.60
  -7  -7  10   74.71   23.49
   7   7  -9 1204.73   84.65
  -7   7   9 1209.12   79.48
   7  -7  -9 1103.91   84.63
  -7  -7   9 1114.72   87.80
   7   7  -8  716.05   69.24
  -7   7   8  741.45   63.60
   7  -7  -8  759.15   64.65
  -7  -7   8  709.60   32.06
  -7  -7   8  843.69   61.02
   7   7  -7 2148.06  116.75
  -7   7   7 2120.66  122.57
   7  -7  -7 2045.10  126.69
  -7  -7   7 2121.32   81.65
  -7  -7   7 2149.07  120.12
   7   7  -6 1456.77   77.86
  -7   7   6 1500.96   87.81
  -7  -7   6 1333.79   80.22
  -7  -7   6 1273.35   57.33
   7  -7  -6 1338.74   86.65
   7   7  -5  288.55   30.05
  -7   7   5  325.03   34.42
   7  -7  -5  276.54   33.43
  -7  -7   5  259.61   19.98
  -7  -7   5  306.78   31.04
   7   7  -4 1786.28   82.90
  -7   7   4 1848.88   98.78
   7  -7  -4 1799.25   97.14
  -7  -7   4 1710.16   73.12
  -7  -7   4 1781.39   90.79
   7   7  -3   72.64   15.36
  -7   7   3  109.40   19.45
  -7  -7   3   89.39   16.23
  -7  -7   3   91.05   20.20
   7  -7  -3   85.27   22.18
   7   7  -2 1221.04   49.77
  -7   7   2 1203.51   68.69
  -7  -7   2 1282.15   73.14
  -7  -7   2 1237.13   69.79
   7  -7  -2 1226.45   76.62
   7   7  -1  499.24   41.41
  -7   7   1  526.61   40.62
   7   7  -1  550.31   26.56
   7  -7  -1  601.42   41.46
   7  -7  -1  504.92   19.06
  -7  -7   1  632.67   39.63
   7   7   0 1356.73   73.42
  -7   7   0 1193.77   68.62
   7  -7   0 1137.46   41.60
   7  -7   0 1202.17   67.44
  -7  -7   0 1314.66   70.92
   7   7   1 1362.95   83.63
  -7   7  -1 1475.80   87.01
   7  -7   1 1312.97   75.11
  -7  -7  -1 1324.51   81.34
   7  -7   1 1322.37   51.52
   7   7   2  448.85   43.06
  -7   7  -2  466.34   37.17
   7  -7   2  303.32   37.27
  -7  -7  -2  500.26   43.46
   7  -7   2  488.39   30.69
   7   7   3  281.72   41.58
  -7   7  -3  349.03   32.85
   7  -7   3  324.84   32.87
   7  -7   3  359.76   27.26
  -7  -7  -3  320.43   39.47
   7   7   4 1531.17  100.19
  -7   7  -4 1510.76   86.31
   7  -7   4 1378.59   85.87
   7  -7   4 1450.46   86.70
  -7  -7  -4 1492.51  103.24
   7   7   5  731.28   67.55
  -7   7  -5  916.57   66.44
   7  -7   5  822.38   58.47
   7  -7   5  760.41   54.17
  -7  -7  -5  841.47   73.83
   7   7   6  356.19   49.89
  -7   7  -6  393.28   42.87
   7  -7   6  363.86   46.55
  -7  -7  -6  414.32   49.71
   7   7   7  727.94   75.85
  -7   7  -7  819.33   59.71
  -7   7  -7  787.03   66.90
   7  -7   7  786.11   64.30
  -7  -7  -7  777.75   73.92
   7   7   8  176.90   38.67
  -7   7  -8  148.21   30.13
  -7   7  -8  160.53   29.33
   7  -7   8  107.56   41.69
  -7  -7  -8  197.79   36.30
   7   7   9  340.59   59.80
  -7   7  -9  405.65   46.19
   7  -7   9  443.08   52.39
  -7  -7  -9  433.39   57.22
   7   7  10  364.72   74.58
  -7   7 -10  354.45   51.42
   7  -7  10  400.30   55.67
  -7  -7 -10  399.05   56.12
   7   7  11   69.28   36.12
   7  -7  11   47.09   31.39
  -7  -7 -11   47.59   32.92
   7   8 -16   39.43   41.22
  -7   8  16   42.64   34.08
   7  -8 -16   46.74   27.97
  -7  -8  16    0.98   28.56
   7   8 -15   44.64   41.07
  -7   8  15  160.68   33.91
   7  -8 -15   93.86   33.57
  -7  -8  15  108.18   35.07
   7   8 -14  123.91   41.02
  -7   8  14  152.84   33.42
   7  -8 -14  139.20   43.06
  -7  -8  14  131.40   38.04
   7   8 -13  102.60   35.03
  -7   8  13   92.48   30.86
   7  -8 -13  110.52   30.30
  -7  -8  13   71.96   32.36
   7   8 -12  554.05   57.30
  -7   8  12  489.26   57.32
   7  -8 -12  471.33   55.72
  -7  -8  12  443.68   56.29
   7   8 -11   -1.03   23.72
  -7   8  11   22.45   28.33
   7  -8 -11   24.02   23.07
  -7  -8  11   38.32   27.30
   7   8 -10 1093.31   85.25
  -7   8  10 1087.44   85.43
   7  -8 -10 1092.06   88.65
  -7  -8  10 1072.11   84.52
   7   8  -9  490.44   48.87
  -7   8   9  449.80   48.21
   7  -8  -9  459.19   49.18
  -7  -8   9  385.27   46.13
   7   8  -8  144.74   27.47
  -7   8   8  163.35   31.49
   7  -8  -8  114.81   29.68
  -7  -8   8   81.33   26.85
   7   8  -7 4827.29  249.61
  -7   8   7 4852.65  275.70
   7  -8  -7 4680.73  262.54
  -7  -8   7 4991.01  285.36
   7   8  -6 1459.57   76.64
  -7   8   6 1438.84   93.73
   7  -8  -6 1413.99   89.43
  -7  -8   6 1331.91   55.89
  -7  -8   6 1299.00   83.13
   7   8  -5 2191.24  101.69
  -7   8   5 2140.26  124.22
   7  -8  -5 2078.05  118.87
  -7  -8   5 2207.64   96.95
  -7  -8   5 2200.15  117.25
   7   8  -4  120.09   21.75
  -7   8   4  157.19   26.63
   7  -8  -4  147.09   27.93
  -7  -8   4  135.84   20.77
  -7  -8   4  151.19   24.15
   7   8  -3  686.35   36.09
  -7   8   3  840.32   54.87
  -7  -8   3  816.72   43.90
  -7  -8   3  738.77   53.81
   7  -8  -3  835.56   58.79
   7   8  -2  667.37   32.55
  -7   8   2  668.35   49.31
  -7  -8   2  734.56   43.99
  -7  -8   2  604.31   49.44
   7  -8  -2  659.12   48.87
   7   8  -1   92.04   21.82
   7   8  -1   73.42   10.93
  -7   8   1   74.26   20.91
   7  -8  -1   70.20    7.51
   7  -8  -1   70.83   20.57
  -7  -8   1   79.61   19.03
  -7   8   0  610.13   42.36
   7   8   0  557.94   47.40
   7  -8   0  559.40   44.00
   7  -8   0  517.76   23.99
  -7  -8   0  622.11   41.90
   7   8   1  231.10   34.25
  -7   8  -1  299.85   28.93
   7  -8   1  236.77   19.65
   7  -8   1  337.36   31.39
  -7  -8  -1  249.32   30.17
   7   8   2  435.26   43.42
  -7   8  -2  383.21   36.04
   7  -8   2  410.99   46.98
  -7  -8  -2  423.00   41.17
   7  -8   2  351.98   24.50
   7   8   3  787.96   68.79
  -7   8  -3  761.86   53.59
   7  -8   3  764.06   59.57
   7  -8   3  871.60   51.35
  -7  -8  -3  911.72   67.95
   7   8   4  278.39   49.53
  -7   8  -4  302.97   29.29
   7  -8   4  219.70   35.31
   7  -8   4  326.44   34.93
  -7  -8  -4  278.79   41.76
   7   8   5  121.72   32.92
  -7   8  -5  145.33   23.57
   7  -8   5   96.72   27.58
   7  -8   5  123.81   29.13
  -7  -8  -5  113.88   31.91
   7   8   6   13.54   25.10
  -7   8  -6  -10.24   18.27
  -7   8  -6   12.33   13.05
   7  -8   6   52.98   18.41
  -7  -8  -6   54.88   24.32
  -7   8  -7  125.33   24.08
   7   8   7  150.04   37.71
  -7   8  -7  160.05   34.51
   7  -8   7  150.23   30.36
  -7  -8  -7  132.77   37.36
   7   8   8   63.23   43.55
  -7   8  -8  102.13   27.28
   7  -8   8  168.51   36.50
  -7  -8  -8  102.46   34.72
   7   8   9  112.53   44.42
  -7   8  -9  151.64   33.24
   7  -8   9  188.69   38.88
  -7  -8  -9  200.89   39.45
   7   8  10  128.31   41.89
  -7   8 -10  107.21   32.63
   7  -8  10  154.76   37.90
  -7  -8 -10  139.20   40.63
   7   9 -15  172.13   47.20
  -7   9  15  207.14   40.73
   7  -9 -15  142.90   40.20
  -7  -9  15  172.49   43.84
   7   9 -14  243.31   50.26
  -7   9  14  269.41   46.20
   7  -9 -14  206.37   45.79
  -7  -9  14  248.67   47.31
   7   9 -13  171.49   43.06
  -7   9  13  175.27   40.87
   7  -9 -13  130.36   38.92
  -7  -9  13  219.26   40.27
   7   9 -12   83.13   29.71
  -7   9  12   14.41   27.19
   7  -9 -12   50.71   27.11
  -7  -9  12   40.84   27.12
   7   9 -11  156.27   33.96
  -7   9  11  152.83   34.96
   7  -9 -11  126.05   33.30
  -7  -9  11  162.44   35.60
   7   9 -10  568.16   56.95
  -7   9  10  601.61   60.12
   7  -9 -10  587.23   59.92
  -7  -9  10  563.04   58.28
   7   9  -9  337.62   43.64
  -7   9   9  340.47   44.44
   7  -9  -9  359.15   43.68
  -7  -9   9  353.13   43.50
   7   9  -8  665.60   57.59
  -7   9   8  664.51   61.05
   7  -9  -8  637.30   57.66
  -7  -9   8  679.12   60.35
   7   9  -7   99.38   23.21
  -7   9   7  114.61   27.83
   7  -9  -7   83.74   26.65
  -7  -9   7   73.59   12.47
  -7  -9   7   99.69   25.37
   7   9  -6  191.62   24.39
  -7   9   6  190.76   32.75
   7  -9  -6  110.17   28.44
  -7  -9   6  150.59   14.52
  -7  -9   6  114.70   28.93
   7   9  -5  180.29   26.12
  -7   9   5  200.68   31.51
   7  -9  -5  164.81   30.45
  -7  -9   5  125.61   20.26
  -7  -9   5  155.38   27.67
   7   9  -4  464.06   33.95
  -7   9   4  527.26   51.02
   7  -9  -4  474.21   44.49
  -7  -9   4  438.27   28.86
  -7  -9   4  439.16   41.16
   7   9  -3  118.78   17.67
  -7   9   3  107.03   23.92
  -7  -9   3   73.01   20.71
  -7  -9   3   66.60   22.98
   7  -9  -3   73.13   25.39
   7   9  -2   68.22   13.83
  -7   9   2   73.22   20.88
   7  -9  -2   55.72   22.04
  -7  -9   2   56.71   17.21
  -7  -9   2   90.28   26.47
   7   9  -1  462.95   40.97
   7   9  -1  445.16   22.37
  -7   9   1  472.69   39.83
   7  -9  -1  437.82   40.21
  -7  -9   1  410.43   40.99
   7   9   0 1182.06   73.48
  -7   9   0 1192.43   70.93
   7  -9   0 1031.42   40.89
   7  -9   0 1200.28   72.50
  -7  -9   0 1264.46   75.64
   7   9   1  863.05   61.78
  -7   9  -1  702.84   51.25
   7  -9   1  743.56   37.57
   7  -9   1  815.56   60.09
  -7  -9  -1  839.45   60.27
   7   9   2   51.25   20.40
  -7   9  -2  -11.63   15.95
   7  -9   2   11.27    9.99
   7  -9   2   18.33   17.27
  -7  -9  -2  -34.87   18.88
  -7   9  -3  220.58   28.77
   7   9   3  221.15   39.38
   7  -9   3  283.53   23.79
   7  -9   3  279.35   35.84
  -7  -9  -3  281.85   39.71
   7   9   4   29.07   22.17
  -7   9  -4   23.92   14.67
   7  -9   4   12.76   19.36
   7  -9   4  -19.48   13.64
  -7  -9  -4    0.97   21.18
   7   9   5   83.95   32.52
  -7   9  -5  123.26   21.99
   7  -9   5  111.19   26.29
   7  -9   5   64.34   21.00
  -7  -9  -5   98.56   31.50
   7   9   6  100.41   29.29
  -7   9  -6   81.84   21.85
  -7   9  -6   -4.90   17.45
  -7  -9  -6   40.18   27.98
   7  -9   6   93.50   21.58
   7   9   7  109.80   34.72
  -7   9  -7   77.66   20.40
  -7   9  -7  135.90   29.63
   7  -9   7   92.36   27.00
  -7  -9  -7  107.01   32.38
   7   9   8    6.66   27.25
  -7   9  -8    7.28   22.52
   7  -9   8   26.50   24.18
  -7  -9  -8   59.83   26.76
   7   9   9   79.42   37.56
  -7   9  -9  122.05   32.38
   7  -9   9   70.42   32.12
  -7  -9  -9  136.82   37.71
   7   9  10  734.65   88.73
  -7   9 -10  492.31   71.54
   7  -9  10  530.81   77.92
  -7  -9 -10  513.42   74.69
   7  10 -15  145.45   46.42
  -7  10  15  117.45   40.09
   7 -10 -15  162.12   45.85
  -7 -10  15  116.60   42.08
   7  10 -14   22.18   31.85
  -7  10  14   37.77   35.63
   7 -10 -14   32.58   26.75
  -7 -10  14   17.97   29.52
   7  10 -13  192.26   44.01
  -7  10  13  239.89   48.02
   7 -10 -13  294.54   42.62
  -7 -10  13  251.89   59.86
   7  10 -12  321.93   44.59
  -7  10  12  204.76   47.12
   7 -10 -12  253.94   42.10
  -7 -10  12  202.02   44.56
   7  10 -11   -4.60   25.96
  -7  10  11   64.48   28.11
   7 -10 -11   32.13   30.09
  -7 -10  11   29.10   24.08
   7  10 -10  235.42   37.15
  -7  10  10  158.48   40.98
   7 -10 -10  247.89   35.47
  -7 -10  10  168.17   38.32
   7  10  -9  625.75   61.24
  -7  10   9  721.60   68.78
   7 -10  -9  798.10   64.29
  -7 -10   9  682.51   67.09
   7  10  -8 1141.38   80.53
  -7  10   8 1167.45  103.04
   7 -10  -8 1132.27   85.54
  -7 -10   8 1142.76   88.07
   7  10  -7  245.49   29.35
  -7  10   7  165.14   37.32
   7 -10  -7  208.38   32.79
  -7 -10   7  187.61   35.38
   7  10  -6   67.21   20.52
  -7  10   6   54.11   27.11
   7 -10  -6   62.40   27.18
  -7 -10   6   71.25   14.16
  -7 -10   6   75.82   25.29
   7  10  -5 1619.55   84.60
  -7  10   5 1600.57  109.56
   7 -10  -5 1763.52  110.56
  -7 -10   5 1576.61   77.63
  -7 -10   5 1602.82  107.81
   7  10  -4  903.65   46.88
  -7  10   4  892.96   68.73
   7 -10  -4  772.76   64.11
  -7 -10   4  838.72   46.93
  -7 -10   4  836.07   65.65
   7  10  -3  268.38   25.07
  -7  10   3  308.80   37.52
  -7 -10   3  286.54   26.66
  -7 -10   3  260.96   34.90
   7 -10  -3  267.65   34.87
   7  10  -2 1047.64   44.75
  -7  10   2 1127.10   71.78
  -7 -10   2 1123.22   72.68
  -7 -10   2  978.07   71.85
   7 -10  -2  999.92   71.95
   7  10  -1 1312.04   89.00
   7  10  -1 1265.20   50.07
  -7  10   1 1194.36   90.63
   7 -10  -1 1308.33   85.40
  -7 -10   1 1337.49   78.67
   7  10   0 1323.32   93.39
  -7  10   0 1345.30   80.27
   7 -10   0 1375.25   92.31
  -7 -10   0 1476.08   87.40
   7  10   1  320.56   41.74
  -7  10  -1  364.74   40.68
   7 -10   1  311.29   22.78
   7 -10   1  344.10   42.34
  -7 -10  -1  345.73   39.78
  -7  10  -2 1130.28   67.86
   7  10   2 1197.68   83.69
   7 -10   2  981.53   54.58
   7 -10   2 1040.54   77.33
  -7 -10  -2 1112.22   80.40
   7  10   3  278.38   39.05
  -7  10  -3  259.83   29.58
   7 -10   3  237.11   36.84
   7 -10   3  215.92   27.62
  -7 -10  -3  294.17   40.65
   7  10   4  363.77   44.69
  -7  10  -4  286.84   33.89
   7 -10   4  402.76   40.47
   7 -10   4  280.20   34.91
  -7 -10  -4  303.92   43.29
   7  10   5   -9.40   30.64
  -7  10  -5   20.55   20.30
   7 -10   5   30.22   22.23
   7 -10   5   14.48   16.71
  -7 -10  -5   47.53   23.27
   7  10   6   99.57   29.76
  -7  10  -6   62.60   18.04
  -7  10  -6   22.35   18.63
  -7 -10  -6   97.62   27.78
   7 -10   6   37.84   21.51
   7  10   7  188.38   36.68
  -7  10  -7  122.51   32.25
   7 -10   7  107.35   28.63
  -7 -10  -7   89.26   46.46
   7  10   8  133.40   38.00
  -7  10  -8   82.58   35.25
   7 -10   8   53.29   28.02
  -7 -10  -8  104.56   34.96
   7  10   9   31.32   30.15
  -7  10  -9    5.31   25.27
   7 -10   9   47.91   24.93
  -7 -10  -9  -14.15   30.28
   7  11 -14  126.98   42.65
  -7  11  14  142.14   51.28
   7 -11 -14  135.45   40.79
  -7 -11  14  146.58   43.58
   7  11 -13  481.94   65.43
  -7  11  13  546.38   67.37
   7 -11 -13  421.71   59.71
  -7 -11  13  505.66   83.35
   7  11 -12  -11.64   24.70
  -7  11  12  -32.31   24.90
   7 -11 -12  -17.40   23.62
  -7 -11  12   31.33   26.67
   7  11 -11  310.94   46.30
  -7  11  11  259.38   45.56
   7 -11 -11  270.61   52.10
  -7 -11  11  205.49   46.54
   7  11 -10   11.24   25.80
  -7  11  10    9.45   28.09
   7 -11 -10   64.14   25.33
  -7 -11  10   73.86   28.05
   7  11  -9  187.54   36.08
  -7  11   9  221.45   37.18
   7 -11  -9  179.67   34.26
  -7 -11   9  150.29   36.97
   7  11  -8  998.03   89.16
  -7  11   8 1034.25   88.31
   7 -11  -8 1024.23   81.02
  -7 -11   8 1086.13   85.87
   7  11  -7   -6.95   17.37
  -7  11   7   -9.30   21.91
   7 -11  -7  -11.75   20.22
  -7 -11   7   23.74   24.52
   7  11  -6  142.42   25.87
  -7  11   6  191.79   34.18
   7 -11  -6  110.59   32.14
  -7 -11   6  194.57   31.28
  -7 -11   6  134.91   16.59
   7  11  -5 1633.88   93.00
  -7  11   5 1960.87  127.05
   7 -11  -5 1814.06  112.65
  -7 -11   5 1768.40   86.80
  -7 -11   5 1823.93  118.61
   7  11  -4  254.24   32.28
  -7  11   4  340.34   41.10
   7 -11  -4  390.23   38.39
  -7 -11   4  290.04   29.96
  -7 -11   4  318.61   40.76
   7  11  -3  431.53   27.59
  -7  11   3  493.71   47.16
  -7 -11   3  422.86   34.03
  -7 -11   3  385.73   46.71
   7 -11  -3  423.56   44.58
   7  11  -2  873.89   40.74
  -7  11   2  878.09   66.77
   7 -11  -2  854.55   67.66
  -7 -11   2  933.61   58.07
  -7 -11   2  914.10   71.87
   7  11  -1 2770.82  184.99
  -7  11   1 2793.77  176.96
   7 -11  -1 2677.72  184.95
  -7 -11   1 2863.63  166.86
   7  11   0 1290.41   92.88
  -7  11   0 1288.64   80.78
   7 -11   0 1248.92  107.39
  -7 -11   0 1283.82   83.76
   7  11   1  674.75   58.79
  -7  11  -1  671.92   47.75
   7 -11   1  537.41   33.60
   7 -11   1  775.15   61.47
  -7 -11  -1  638.92   56.56
  -7  11  -2  640.63   53.53
   7  11   2  679.56   60.70
   7 -11   2  547.81   36.30
   7 -11   2  632.97   56.94
  -7 -11  -2  641.59   56.93
   7  11   3   96.36   29.50
  -7  11  -3   86.19   23.84
   7 -11   3  118.03   27.56
   7 -11   3   89.08   15.96
  -7 -11  -3   85.52   29.70
   7  11   4   97.45   31.42
  -7  11  -4  134.95   26.88
   7 -11   4  143.51   30.01
   7 -11   4  105.86   20.06
  -7 -11  -4   62.58   35.36
   7  11   5  206.69   44.87
  -7  11  -5  106.00   22.41
   7 -11   5  205.15   33.95
   7 -11   5  141.69   24.53
  -7 -11  -5  103.17   33.43
   7  11   6  773.97   78.76
  -7  11  -6  687.25   54.57
   7 -11   6  605.10   66.43
  -7 -11  -6  708.66   75.67
   7  11   7  140.29   37.41
  -7  11  -7  124.81   41.55
   7 -11   7  100.85   34.85
  -7 -11  -7  112.14   39.30
   7  11   8   23.36   25.29
  -7  11  -8  -10.00   26.28
   7 -11   8  -21.75   20.83
  -7 -11  -8   41.97   27.08
   7  11   9  188.44   46.22
  -7  11  -9  182.19   49.78
   7 -11   9  174.78   39.49
  -7 -11  -9  167.31   57.41
   7  12 -13   81.12   39.12
  -7  12  13  131.86   38.87
   7 -12 -13  113.35   35.72
  -7 -12  13  142.21   40.77
   7  12 -12  385.22   56.59
  -7  12  12  370.08   55.78
   7 -12 -12  367.37   54.06
  -7 -12  12  357.08   59.75
   7  12 -11  499.60   61.06
  -7  12  11  512.32   63.26
   7 -12 -11  416.34   56.08
  -7 -12  11  475.00   65.63
   7  12 -10  209.60   40.66
  -7  12  10  201.55   41.38
   7 -12 -10  187.52   37.73
  -7 -12  10  200.14   43.08
   7  12  -9  153.81   33.31
  -7  12   9  182.98   41.24
   7 -12  -9  174.80   34.62
  -7 -12   9  198.57   38.53
   7  12  -8  384.38   41.16
  -7  12   8  306.59   51.57
   7 -12  -8  315.08   48.44
  -7 -12   8  374.64   50.61
   7  12  -7  140.89   27.07
  -7  12   7  165.28   35.09
   7 -12  -7   67.44   38.29
  -7 -12   7   97.52   31.54
   7  12  -6   90.31   25.43
  -7  12   6   92.05   30.10
   7 -12  -6   80.93   26.53
  -7 -12   6    7.31   33.95
   7  12  -5  105.40   26.47
  -7  12   5   99.28   31.14
   7 -12  -5  123.68   27.19
  -7 -12   5  111.76   30.95
  -7 -12   5  110.59   18.78
   7  12  -4 1247.06   67.43
  -7  12   4 1325.13  108.88
   7 -12  -4 1279.36   94.48
  -7 -12   4 1138.94   68.17
  -7 -12   4 1220.71   93.01
   7  12  -3  674.56   37.96
  -7  12   3  641.42   62.78
   7 -12  -3  664.89   58.44
  -7 -12   3  634.03   51.68
  -7 -12   3  663.15   61.75
   7  12  -2 2799.62  127.32
  -7  12   2 3221.79  194.62
  -7 -12   2 2835.62  147.21
  -7 -12   2 2827.83  184.25
   7 -12  -2 2872.01  176.84
   7  12  -1  216.97   38.01
  -7  12   1  220.74   34.20
   7 -12  -1  231.72   35.60
  -7 -12   1  320.29   30.86
   7  12   0  166.10   32.40
  -7  12   0  185.66   29.14
   7 -12   0  235.46   45.23
  -7 -12   0  205.16   29.31
   7  12   1  556.61   54.32
  -7  12  -1  544.97   46.55
   7 -12   1  491.07   50.65
  -7 -12  -1  506.75   49.81
  -7  12  -2   61.48   24.01
   7  12   2   64.35   32.37
   7 -12   2   46.36   14.99
   7 -12   2   88.44   26.03
  -7  12  -3   61.14   19.74
   7  12   3   56.02   27.87
   7 -12   3   41.83   17.27
   7 -12   3   66.19   26.53
  -7 -12  -3   39.54   26.45
  -7  12  -4  155.82   29.67
   7  12   4  209.50   47.74
   7 -12   4  169.24   28.31
   7 -12   4  136.40   36.85
  -7 -12  -4  128.54   44.25
   7  12   5   24.77   30.78
   7 -12   5   76.94   26.43
   7 -12   5   42.17   20.03
  -7 -12  -5   91.85   29.28
   7  12   6   83.86   32.97
  -7  12  -6   53.76   30.55
   7 -12   6   62.94   23.39
  -7 -12  -6   91.44   30.30
   7  12   7  188.85   46.72
  -7  12  -7  137.84   43.02
   7 -12   7  204.76   34.57
  -7 -12  -7  209.56   53.67
   7  12   8  364.86   62.06
  -7  12  -8  392.39   56.16
   7 -12   8  353.23   51.65
  -7 -12  -8  391.53   63.02
   7  13 -12   76.67   34.51
  -7  13  12   25.91   34.67
   7 -13 -12   94.83   34.32
  -7 -13  12   62.54   36.92
   7  13 -11  249.18   48.59
  -7  13  11  291.42   54.02
   7 -13 -11  262.21   43.83
  -7 -13  11  263.12   51.32
   7  13 -10  326.59   46.78
  -7  13  10  246.31   50.36
   7 -13 -10  287.25   55.21
  -7 -13  10  298.70   52.45
  -7  13   9   29.03   25.71
   7 -13  -9   14.17   22.88
  -7 -13   9  -15.62   25.23
   7  13  -8  166.85   33.44
  -7  13   8  141.82   41.68
   7 -13  -8  163.00   39.82
  -7 -13   8  161.09   38.17
   7  13  -7   17.53   20.80
  -7  13   7   28.40   28.10
   7 -13  -7   20.43   23.47
  -7 -13   7   43.76   25.70
   7  13  -6  120.66   24.65
  -7  13   6  107.00   35.94
   7 -13  -6  155.05   31.13
  -7 -13   6  107.49   34.25
   7  13  -5  360.18   31.50
  -7  13   5  324.52   45.60
   7 -13  -5  303.48   43.27
  -7 -13   5  269.73   26.84
  -7 -13   5  269.84   54.08
   7  13  -4  182.44   25.72
  -7  13   4  118.94   32.75
   7 -13  -4  150.50   31.35
  -7 -13   4  135.51   34.99
  -7 -13   4  122.74   23.16
   7  13  -3  423.54   36.73
  -7  13   3  505.43   61.85
   7 -13  -3  450.68   50.36
  -7 -13   3  403.71   53.99
  -7 -13   3  449.80   34.82
  -7  13   2   46.68   20.40
   7 -13  -2   19.54   23.48
  -7 -13   2   -8.84   20.00
  -7 -13   2   23.34   23.70
   7  13  -1  470.50   49.65
  -7  13   1  437.87   44.21
   7 -13  -1  408.60   52.67
  -7 -13   1  417.35   41.07
   7  13   0   93.31   27.52
  -7  13   0   41.36   26.45
   7 -13   0   61.31   35.95
  -7 -13   0   82.56   24.92
   7  13   1  379.96   46.97
  -7  13  -1  298.00   44.19
   7 -13   1  309.65   46.48
  -7 -13  -1  394.34   42.21
   7  13   2  466.34   54.85
  -7  13  -2  389.83   45.38
   7 -13   2  443.63   53.39
  -7 -13  -2  464.22   50.87
   7  13   3  150.66   38.18
  -7  13  -3  115.95   28.29
   7 -13   3  148.49   36.29
  -7 -13  -3  155.63   35.14
   7  13   4   47.47   31.90
  -7  13  -4   58.60   24.77
   7 -13   4  105.47   30.19
  -7 -13  -4  118.41   37.52
   7  13   5   34.53   31.95
   7 -13   5   85.75   29.56
   7 -13   5   42.69   18.29
  -7 -13  -5   36.38   29.55
   7  13   6   55.91   34.20
  -7  13  -6   98.14   30.30
   7 -13   6   22.80   23.53
  -7 -13  -6   86.34   33.19
   7  13   7   38.37   31.75
  -7  13  -7   57.86   28.30
  -7 -13  -7   16.57   29.09
   7  14 -11  -25.70   26.51
  -7  14  11   38.65   29.09
   7 -14 -11   -2.79   32.85
  -7 -14  11  -49.62   27.36
   7  14 -10  186.38   37.79
  -7  14  10  102.92   38.62
   7 -14 -10  105.06   35.08
  -7 -14  10  104.69   41.05
   7  14  -9  156.70   35.03
  -7  14   9  126.24   40.38
   7 -14  -9  148.35   36.02
  -7 -14   9  145.18   41.14
   7  14  -8  332.66   52.09
  -7  14   8  355.04   52.79
   7 -14  -8  253.42   44.18
  -7 -14   8  290.36   50.67
   7  14  -7   94.36   25.51
  -7  14   7   89.14   36.08
   7 -14  -7   90.69   28.59
  -7 -14   7   51.63   31.78
   7  14  -6  606.36   64.11
  -7  14   6  715.13   73.73
   7 -14  -6  619.59   77.44
  -7 -14   6  599.59   70.49
   7  14  -5  414.68   46.83
  -7  14   5  475.67   57.19
   7 -14  -5  432.21   52.14
  -7 -14   5  430.63   55.70
   7  14  -4  166.42   31.02
  -7  14   4  261.56   40.35
   7 -14  -4  209.17   37.69
  -7 -14   4  169.96   38.92
  -7 -14   4  224.60   27.74
   7  14  -3  535.90   43.93
  -7  14   3  638.02   73.28
   7 -14  -3  600.05   61.74
  -7 -14   3  595.09   59.07
  -7 -14   3  508.72   45.47
  -7  14   2  119.59   30.77
   7 -14  -2  142.13   33.06
  -7 -14   2  121.63   31.26
  -7 -14   2   97.71   28.40
   7  14  -1  135.78   41.76
  -7  14   1  122.83   29.44
   7 -14  -1  178.07   37.20
  -7 -14   1  129.35   25.92
   7  14   0   53.72   27.42
  -7  14   0   39.25   21.04
   7 -14   0   28.23   30.93
  -7 -14   0   34.01   21.55
   7  14   1  246.09   45.35
  -7  14  -1  283.99   33.62
   7 -14   1  256.37   43.04
  -7 -14  -1  241.46   38.27
   7  14   2  115.14   38.10
  -7  14  -2  139.24   26.55
   7 -14   2  217.03   38.48
  -7 -14  -2  142.75   33.31
   7  14   3   64.25   31.45
  -7  14  -3  -18.26   19.93
   7 -14   3   36.07   25.14
  -7 -14  -3   12.44   23.19
   7  14   4  284.69   52.10
   7 -14   4  327.80   48.63
  -7 -14  -4  264.55   58.34
   7  14   5  150.46   40.28
   7 -14   5  112.28   39.17
  -7 -14  -5  131.26   39.38
   7  14   6  180.48   41.45
  -7  14  -6  139.42   41.99
  -7 -14  -6  120.02   42.27
   7  15 -10  189.04   33.37
  -7  15  10   35.73   33.57
   7 -15 -10   56.00   39.66
  -7 -15  10   -1.28   38.42
   7  15  -9  129.44   37.06
  -7  15   9  124.23   43.55
   7 -15  -9  148.79   37.26
  -7 -15   9  190.30   44.32
   7  15  -8   68.16   25.03
  -7  15   8  -10.59   33.86
   7 -15  -8   21.85   27.90
  -7 -15   8   47.67   33.48
   7  15  -7   79.41   25.70
  -7  15   7   43.50   35.18
   7 -15  -7   42.52   28.50
  -7 -15   7   47.33   39.17
   7  15  -6  218.50   32.57
  -7  15   6  251.67   47.35
   7 -15  -6  217.99   47.96
  -7 -15   6  152.60   43.61
   7  15  -5  106.04   22.88
  -7  15   5   80.10   34.60
   7 -15  -5   65.21   31.99
  -7 -15   5   96.20   33.14
   7  15  -4  295.57   30.58
  -7  15   4  363.21   55.87
   7 -15  -4  266.06   46.67
  -7 -15   4  290.15   57.16
  -7  15   3  233.94   48.94
   7 -15  -3  210.07   38.92
  -7 -15   3  149.06   37.69
  -7 -15   3  198.68   25.37
   7  15  -2  104.59   23.60
  -7  15   2   75.78   29.23
   7 -15  -2  135.11   33.25
  -7 -15   2   67.56   22.76
   7  15  -1  643.07   66.41
  -7  15   1  577.66   59.28
   7 -15  -1  672.28   64.23
  -7 -15   1  549.62   51.26
   7  15   0  750.46   75.40
  -7  15   0  764.06   61.23
   7 -15   0  691.29   72.56
  -7 -15   0  730.42   73.36
   7  15   1  119.89   37.41
  -7  15  -1   95.24   31.92
   7 -15   1  147.39   36.80
  -7 -15  -1  185.27   31.17
   7  15   2  474.78   67.60
  -7  15  -2  296.95   45.15
   7 -15   2  378.09   54.43
  -7 -15  -2  459.58   59.68
   7  15   3  125.62   36.83
   7 -15   3   88.65   36.15
  -7 -15  -3   74.06   33.80
   7  15   4   -0.83   27.82
   7 -15   4  -17.98   34.93
  -7 -15  -4   52.68   26.20
   7  15   5  218.99   48.40
  -7 -15  -5  233.16   47.16
   7  16  -9  185.17   45.87
  -7  16   9  122.97   41.83
   7 -16  -9  117.62   44.28
  -7 -16   9  196.35   46.11
   7  16  -8   98.69   41.88
  -7  16   8  220.60   45.23
   7 -16  -8  111.04   36.51
  -7 -16   8   99.04   40.33
   7  16  -7  195.42   36.71
  -7  16   7  160.72   48.76
   7 -16  -7  149.53   36.72
  -7 -16   7  203.69   45.41
   7  16  -6    0.12   24.11
  -7  16   6   40.74   29.00
   7 -16  -6   10.43   29.54
  -7 -16   6    4.74   26.69
   7  16  -5  383.76   44.35
  -7  16   5  291.64   55.96
   7 -16  -5  324.19   53.33
  -7 -16   5  337.55   56.13
  -7  16   4  194.46   41.82
   7 -16  -4  174.20   39.05
  -7 -16   4  136.45   41.09
  -7  16   3  157.88   38.02
   7 -16  -3  120.26   38.99
  -7 -16   3  139.28   39.68
   7  16  -2  462.43   60.52
  -7  16   2  399.80   49.44
   7 -16  -2  431.47   57.47
  -7 -16   2  321.19   40.61
  -7  16   1  146.20   31.87
   7  16  -1  174.34   39.30
  -7 -16   1  125.10   29.05
   7 -16  -1  118.51   38.06
   7  16   0  365.79   56.19
  -7  16   0  354.10   43.27
   7 -16   0  315.28   53.46
  -7 -16   0  346.37   42.39
   7  16   1   80.66   30.57
  -7  16  -1   19.99   27.21
   7 -16   1   56.44   31.81
  -7 -16  -1   62.89   27.67
   7  16   2  127.87   35.44
   7 -16   2   40.65   38.69
  -7 -16  -2   92.58   31.21
   7  16   3   73.44   34.21
   7 -16   3   60.66   40.41
  -7 -16  -3   54.48   30.39
  -7  17   7  761.51   92.72
   7 -17  -7  599.78   76.99
  -7 -17   7  637.60   80.42
  -7  17   6  133.12   44.39
   7 -17  -6  109.02   37.29
  -7 -17   6   95.17   37.93
  -7  17   5  191.80   46.87
   7 -17  -5  269.51   51.90
  -7 -17   5  149.36   47.22
  -7  17   4  595.81   82.26
   7 -17  -4  564.55   69.01
  -7 -17   4  524.21   70.59
  -7  17   3  100.18   32.26
   7 -17  -3   34.11   34.66
  -7 -17   3   52.58   32.31
   7  17  -2   83.82   33.52
  -7  17   2   65.64   36.51
   7 -17  -2   87.07   32.62
   7  17  -1  135.82   39.05
  -7  17   1  103.62   31.28
   7 -17  -1   98.86   45.11
   7  17   0    7.15   31.26
  -7  17   0  -26.94   20.32
   7 -17   0   17.00   27.07
  -7 -17   0   44.59   25.20
   7  17   1   27.52   30.80
   7 -17   1   12.09   31.19
  -7 -17  -1   41.61   25.07
   8   0 -17  -20.37   28.20
   8   0 -16   31.08   26.57
  -8   0  16   -1.75   22.16
   8   0 -15  146.71   49.80
  -8   0  15  461.63   42.13
   8   0 -14  103.73   36.54
  -8   0  14   46.94   19.56
  -8   0  14   65.91   20.70
   8   0 -13   14.40   33.28
  -8   0  13   52.76   19.93
  -8   0  13   52.82   15.47
   8   0 -12 2466.20  169.19
  -8   0  12 2783.98  142.97
  -8   0  12 2607.65  129.23
   8   0 -11  485.85   50.02
  -8   0  11  358.61   33.23
  -8   0  11  441.90   33.56
   8   0 -10  447.53   44.89
  -8   0  10  367.58   25.91
  -8   0  10  376.30   32.04
   8   0  -9  485.91   45.23
  -8   0   9  567.82   42.79
  -8   0   9  493.76   32.65
   8   0  -8   23.48   16.23
  -8   0   8   -8.63   11.79
  -8   0   8    0.78    7.81
   8   0  -7   38.61   18.71
  -8   0   7   60.54   19.44
  -8   0   7   64.83   10.55
   8   0  -6   62.36   16.73
  -8   0   6   20.24   14.05
  -8   0   6   18.46    7.98
   8   0  -5 2955.67  131.07
  -8   0   5 2916.23  131.77
  -8   0   5 2937.19  101.00
   8   0  -4  163.13   12.76
   8   0  -4  165.45   19.47
  -8   0   4  126.05   21.18
   8   0  -3   17.85    8.38
   8   0  -3    7.51   11.98
  -8   0   3   23.27   15.75
   8   0  -2 4939.38  179.27
   8   0  -2 4763.77  187.59
  -8   0   2 5099.54  238.60
   8   0  -1  130.28   14.98
   8   0  -1   97.42   15.75
  -8   0   1  122.22   21.56
   8   0   0   68.49   13.87
   8   0   0   55.57   10.56
  -8   0   0   64.55   20.26
   8   0   1   25.63   13.01
   8   0   1   10.62   10.89
  -8   0  -1   26.21   17.47
   8   0   2 4047.87  187.96
   8   0   2 4316.38  156.98
  -8   0  -2 4241.76  219.13
   8   0   3   69.76   12.07
   8   0   3   87.40   20.07
  -8   0  -3   78.79   28.55
   8   0   4  168.18   14.11
   8   0   4  162.98   27.63
  -8   0  -4  191.41   29.83
   8   0   5  742.96   57.29
  -8   0  -5  579.40   31.40
  -8   0  -5  709.31   58.31
   8   0   6  136.66   30.21
  -8   0  -6  115.89   29.19
   8   0   7    8.14   20.75
  -8   0  -7    1.99   19.98
   8   0   8 1360.63  112.25
  -8   0  -8 1458.70  107.98
   8   0   9   68.94   27.30
  -8   0  -9    1.73   22.53
   8   0  10   80.01   40.73
  -8   0 -10   47.39   28.47
   8   0  11   20.29   27.03
  -8   0 -11   -9.31   28.36
   8  -1 -17  -12.50   28.97
  -8  -1  17   51.12   25.48
   8   1 -16  284.69   48.49
   8  -1 -16  309.34   49.63
  -8  -1  16  214.09   36.42
   8   1 -15  183.99   41.38
  -8   1  15  141.10   31.14
  -8   1  15  202.62   26.43
  -8  -1  15  177.27   31.19
   8  -1 -15  239.94   42.91
   8   1 -14  875.09   92.96
  -8   1  14  682.66   53.45
  -8   1  14  761.83   58.03
  -8  -1  14  682.15   54.83
   8  -1 -14  780.58   70.85
  -8  -1  14  580.30   43.82
   8   1 -13  171.18   35.37
  -8   1  13  116.14   26.30
  -8   1  13  156.69   22.66
  -8  -1  13  112.44   22.62
   8  -1 -13  117.85   35.16
  -8  -1  13  105.95   22.27
   8   1 -12  825.91   74.10
  -8   1  12  714.26   43.55
  -8   1  12  782.68   59.89
   8  -1 -12  842.79   73.23
  -8  -1  12  773.73   43.98
  -8  -1  12  761.47   55.59
   8   1 -11  526.20   53.07
  -8   1  11  478.77   31.57
  -8   1  11  468.08   37.74
  -8  -1  11  430.54   37.94
   8  -1 -11  509.17   53.58
  -8  -1  11  473.97   37.90
  -8   1  10  770.99   42.20
   8   1 -10  767.15   64.07
  -8   1  10  890.18   50.88
   8  -1 -10  893.76   62.58
  -8  -1  10  774.21   50.66
  -8  -1  10  819.19   47.50
   8   1  -9  293.14   35.78
  -8   1   9  275.88   28.45
  -8   1   9  247.23   20.63
   8  -1  -9  251.68   34.80
  -8  -1   9  263.60   29.38
  -8  -1   9  284.26   25.48
   8   1  -8  625.57   45.31
  -8   1   8  557.35   38.93
  -8   1   8  536.29   24.67
   8  -1  -8  561.14   46.56
  -8  -1   8  491.21   35.34
  -8  -1   8  574.17   35.30
   8   1  -7  264.63   28.35
  -8   1   7  236.81   25.92
  -8   1   7  229.37   16.10
   8  -1  -7  285.44   30.68
  -8  -1   7  319.01   28.77
  -8  -1   7  253.31   21.94
   8   1  -6  633.57   41.48
  -8   1   6  665.82   27.28
  -8   1   6  676.90   48.55
  -8  -1   6  685.22   35.26
   8  -1  -6  627.32   43.31
  -8  -1   6  586.39   39.13
  -8   1   5  699.78   45.78
   8   1  -5  780.94   52.44
   8  -1  -5  745.68   44.45
   8  -1  -5  754.48   27.44
  -8  -1   5  667.65   43.65
  -8  -1   5  715.83   32.83
   8   1  -4 2302.91   86.79
  -8   1   4 2166.62  105.30
   8   1  -4 2213.36   93.84
   8  -1  -4 2251.46  101.80
   8  -1  -4 2116.88   68.68
  -8  -1   4 2179.92  102.84
   8   1  -3 3124.19  115.63
  -8   1   3 3288.09  152.00
   8   1  -3 3262.82  125.20
   8  -1  -3 3325.51  144.16
   8  -1  -3 3123.20  101.27
  -8  -1   3 3066.48  141.75
   8   1  -2  151.59   19.19
  -8   1   2  143.92   23.84
   8   1  -2  119.56   18.05
   8  -1  -2  188.93   17.29
   8  -1  -2  115.78   12.82
  -8  -1   2  133.22   24.16
   8   1  -1   53.23   17.64
  -8   1   1   78.64   20.64
   8   1  -1   98.12   13.02
   8  -1  -1   91.08   12.70
   8  -1  -1   79.70   14.60
  -8  -1   1   60.33   21.08
   8   1   0 1066.59   51.78
  -8   1   0 1119.10   65.36
   8   1   0  929.50   34.42
   8  -1   0 1030.70   44.40
   8  -1   0  932.23   44.22
  -8  -1   0 1056.99   62.01
   8   1   1  117.70   19.76
   8   1   1  122.97   13.41
  -8   1  -1  129.63   24.70
   8  -1   1  132.45   17.69
   8  -1   1  126.19   13.90
  -8  -1  -1  158.32   23.82
   8   1   2  406.77   33.01
  -8   1  -2  424.82   38.71
   8   1   2  361.41   21.39
   8  -1   2  393.48   30.40
  -8  -1  -2  435.16   38.75
   8  -1   2  373.45   27.40
   8   1   3  366.12   19.86
   8   1   3  337.71   36.92
  -8   1  -3  306.78   37.18
   8  -1   3  396.03   24.08
   8  -1   3  369.86   35.07
  -8  -1  -3  433.77   40.97
  -8   1  -4  483.22   43.87
   8   1   4  382.03   41.00
   8  -1   4  466.16   40.63
   8  -1   4  426.50   28.91
  -8  -1  -4  408.43   43.61
   8   1   5 1637.45  104.10
  -8   1  -5 1424.68   63.18
  -8   1  -5 1770.38  109.87
   8  -1   5 1611.12  100.42
  -8  -1  -5 1819.01  107.99
   8   1   6  325.48   43.99
  -8   1  -6  348.69   25.19
  -8   1  -6  349.49   47.01
   8  -1   6  278.74   40.29
  -8  -1  -6  325.80   42.96
   8   1   7 1470.32  113.07
  -8   1  -7 1657.01  115.08
   8  -1   7 1571.35  110.08
  -8  -1  -7 1565.07  131.26
   8   1   8  503.71   60.79
  -8   1  -8  548.58   56.83
   8  -1   8  610.63   60.28
  -8  -1  -8  564.79   57.42
   8   1   9   17.43   26.14
  -8   1  -9   15.14   21.60
   8  -1   9   39.11   25.46
  -8  -1  -9    0.65   22.71
   8   1  10 1371.91  134.41
  -8   1 -10 1580.67  118.88
   8  -1  10 1459.05  137.14
  -8  -1 -10 1702.19  139.76
   8   1  11   86.95   50.05
  -8   1 -11  118.45   29.45
   8  -1  11  132.49   39.91
  -8  -1 -11  104.18   34.36
   8   2 -17  189.31   41.68
   8  -2 -17  133.62   40.12
  -8  -2  17   93.34   31.49
   8   2 -16  398.83   65.44
   8  -2 -16  504.28   61.97
  -8  -2  16  426.21   57.52
   8   2 -15   96.23   34.45
  -8   2  15   73.36   21.55
   8  -2 -15  102.43   32.29
  -8  -2  15   96.57   31.17
   8   2 -14  331.56   53.68
  -8   2  14  341.11   41.81
  -8   2  14  284.21   29.67
   8  -2 -14  421.15   48.20
  -8  -2  14  347.55   37.67
  -8   2  13  467.86   30.35
   8   2 -13  552.46   59.66
  -8   2  13  507.63   42.36
  -8  -2  13  329.39   34.32
   8  -2 -13  504.70   53.65
  -8  -2  13  469.89   48.17
   8   2 -12  428.28   50.83
  -8   2  12  302.85   27.82
  -8   2  12  424.56   38.63
  -8  -2  12  343.74   32.42
   8  -2 -12  398.92   45.93
  -8  -2  12  383.83   32.18
   8   2 -11  873.86   86.58
  -8   2  11  722.37   41.16
  -8   2  11  956.45   65.89
   8  -2 -11  765.71   66.45
  -8  -2  11  780.14   51.09
  -8  -2  11  715.37   49.54
   8   2 -10  776.64   67.09
  -8   2  10  725.44   53.39
  -8   2  10  716.49   37.01
  -8  -2  10  784.04   48.87
   8  -2 -10  839.29   64.43
  -8  -2  10  777.28   51.80
   8   2  -9 1267.13   79.47
  -8   2   9 1148.29   46.52
  -8   2   9 1324.58   81.99
  -8  -2   9 1109.40   56.43
   8  -2  -9 1213.47   79.76
  -8  -2   9 1242.82   60.21
   8   2  -8  144.43   30.86
  -8   2   8  130.50   12.93
  -8   2   8  136.93   23.19
  -8  -2   8  169.33   21.11
   8  -2  -8  203.43   28.59
  -8  -2   8  164.75   18.33
   8   2  -7  508.57   46.47
  -8   2   7  532.10   38.97
  -8   2   7  444.26   19.13
   8  -2  -7  517.01   42.44
  -8  -2   7  527.12   32.31
  -8  -2   7  556.84   30.26
   8   2  -6  500.92   36.36
  -8   2   6  454.08   42.68
  -8   2   6  423.96   16.91
   8  -2  -6  468.63   38.13
  -8  -2   6  489.63   26.49
  -8  -2   6  500.52   31.80
  -8   2   5  466.48   37.13
   8   2  -5  453.45   31.08
   8  -2  -5  489.51   35.50
   8  -2  -5  428.04   16.40
  -8  -2   5  496.70   33.16
  -8  -2   5  496.87   30.82
   8   2  -4  268.30   26.90
  -8   2   4  250.65   26.74
   8  -2  -4  242.68   13.90
   8  -2  -4  221.90   25.77
  -8  -2   4  196.25   18.66
  -8  -2   4  183.65   24.17
   8   2  -3 3744.94  148.27
  -8   2   3 4095.28  180.51
   8   2  -3 3852.53  154.47
   8  -2  -3 3471.39  158.26
   8  -2  -3 3818.54  116.04
  -8  -2   3 4060.86  181.02
   8   2  -2 2658.11  107.36
  -8   2   2 2535.61  125.56
   8   2  -2 2604.70   95.42
   8  -2  -2 2771.39  112.52
   8  -2  -2 2485.58   85.09
  -8  -2   2 2687.03  126.36
   8   2  -1  992.17   48.08
  -8   2   1  969.67   60.95
   8   2  -1  923.98   39.13
   8  -2  -1  948.98   49.72
   8  -2  -1  902.34   39.90
  -8  -2   1  957.20   57.73
   8   2   0 1408.35   69.13
   8   2   0 1354.57   47.81
  -8   2   0 1485.78   79.44
   8  -2   0 1333.82   60.62
   8  -2   0 1340.20   58.70
  -8  -2   0 1432.56   76.49
   8   2   1   18.69   13.84
   8   2   1    3.79    6.66
  -8   2  -1   35.85   16.93
   8  -2   1  -11.04   13.32
   8  -2   1    1.62   12.64
  -8  -2  -1   -4.23   15.15
   8   2   2 3959.92  187.02
  -8   2  -2 3845.92  202.07
   8   2   2 3804.13  116.98
   8  -2   2 3773.27  169.07
  -8  -2  -2 4203.96  216.80
   8  -2   2 4009.11  162.34
  -8   2  -3  376.79   36.92
   8   2   3  343.96   35.29
   8  -2   3  333.97   31.17
   8  -2   3  319.00   27.72
  -8  -2  -3  354.99   39.47
  -8   2  -4  821.76   63.99
   8   2   4  861.32   62.61
   8  -2   4  800.96   58.19
   8  -2   4  859.01   43.62
  -8  -2  -4  799.65   64.03
  -8   2  -5   83.72   23.30
   8   2   5   71.05   23.54
   8  -2   5   29.59   28.60
   8  -2   5   66.39   14.45
  -8  -2  -5   33.06   23.74
   8   2   6  324.69   42.90
  -8   2  -6  281.91   26.18
  -8   2  -6  317.18   38.46
   8  -2   6  263.02   40.06
  -8  -2  -6  291.05   41.98
  -8   2  -7  245.87   42.50
   8   2   7  192.49   38.01
  -8   2  -7  186.06   24.76
   8  -2   7  219.36   37.77
  -8  -2  -7  261.73   39.25
   8   2   8 1397.52  118.13
  -8   2  -8 1658.33  112.22
   8  -2   8 1302.81  111.00
  -8  -2  -8 1530.97  114.41
  -8   2  -9   89.55   28.34
   8   2   9   57.36   33.22
  -8  -2  -9  119.40   31.16
   8  -2   9   72.14   32.50
   8   2  10  157.05   45.23
  -8   2 -10  196.16   40.38
   8  -2  10  140.70   40.41
  -8  -2 -10  121.04   39.27
   8   2  11  170.69   48.25
  -8   2 -11  164.29   36.06
   8  -2  11  167.47   44.36
  -8  -2 -11  217.71   40.83
   8   3 -17   28.25   33.56
   8  -3 -17   20.09   29.92
  -8  -3  17   12.99   29.30
   8   3 -16  297.92   47.07
  -8   3  16  131.95   33.08
   8  -3 -16  278.62   56.28
  -8  -3  16  259.54   36.76
   8   3 -15  130.15   40.18
  -8   3  15   17.10   21.81
   8  -3 -15   45.35   30.53
  -8  -3  15   52.71   23.81
   8   3 -14  974.76   88.56
  -8   3  14  844.14   65.59
   8  -3 -14  910.73   83.47
  -8  -3  14  737.47   66.68
   8   3 -13  788.17   72.58
  -8   3  13  650.38   61.51
   8  -3 -13  634.09   67.31
  -8  -3  13  633.74   55.35
   8   3 -12  162.81   31.93
  -8   3  12   70.32   27.23
  -8   3  12   78.85   14.42
  -8  -3  12   48.51   15.94
   8  -3 -12   40.03   36.91
  -8  -3  12   95.79   20.29
   8   3 -11   61.81   26.37
  -8   3  11   40.28   11.64
  -8   3  11   36.08   20.54
  -8  -3  11   47.85   11.78
   8  -3 -11   22.16   25.11
  -8  -3  11   55.78   17.65
   8   3 -10 1507.73  100.27
  -8   3  10 1536.68   93.88
  -8   3  10 1334.50   59.57
   8  -3 -10 1766.67  104.52
  -8  -3  10 1555.88   88.51
  -8  -3  10 1399.25   62.94
   8   3  -9  919.92   74.02
  -8   3   9  942.63   69.48
  -8   3   9  748.97   32.12
   8  -3  -9  880.87   66.08
  -8  -3   9  869.59   50.65
  -8  -3   9  764.08   47.30
   8   3  -8  718.67   54.10
  -8   3   8  694.14   49.46
  -8  -3   8  721.42   42.52
  -8  -3   8  726.64   44.11
   8  -3  -8  720.13   55.89
   8   3  -7  748.03   61.59
  -8   3   7  784.64   53.48
  -8  -3   7  770.54   51.32
  -8  -3   7  847.38   49.42
   8  -3  -7  854.09   55.59
   8   3  -6  230.34   27.06
  -8   3   6  249.54   29.61
  -8  -3   6  267.63   23.00
  -8  -3   6  250.55   21.03
   8  -3  -6  330.97   30.97
  -8   3   5  295.93   29.00
   8   3  -5  247.25   24.38
   8  -3  -5  208.28   35.68
   8  -3  -5  242.09    9.86
  -8  -3   5  245.24   21.16
  -8  -3   5  266.67   22.39
  -8   3   4 1617.65   83.80
   8   3  -4 1501.36   72.06
   8  -3  -4 1601.93   81.04
   8  -3  -4 1365.72   38.28
  -8  -3   4 1523.11   66.70
  -8  -3   4 1642.44   75.36
   8   3  -3 1156.86   55.94
  -8   3   3 1174.31   67.18
   8   3  -3 1272.80   56.48
   8  -3  -3 1218.05   60.63
   8  -3  -3 1106.01   35.84
  -8  -3   3 1220.26   71.65
   8   3  -2  892.99   46.27
   8   3  -2  830.26   36.71
  -8   3   2  875.72   53.30
   8  -3  -2  835.01   31.26
   8  -3  -2 1041.24   49.09
  -8  -3   2  933.40   52.76
   8   3  -1  356.13   33.36
   8   3  -1  369.33   20.97
  -8   3   1  350.76   34.45
   8  -3  -1  338.30   20.75
   8  -3  -1  236.21   30.74
  -8  -3   1  367.96   30.32
   8   3   0 2659.61  123.59
   8   3   0 2436.33   76.00
  -8   3   0 2704.51  136.41
   8  -3   0 2635.97  101.62
   8  -3   0 2504.54  107.00
  -8  -3   0 2683.14  131.69
   8   3   1  174.42   22.80
   8   3   1  142.30   10.01
  -8   3  -1  141.92   25.38
   8  -3   1  151.89   20.84
   8  -3   1  174.47   17.22
  -8  -3  -1  174.80   27.87
   8   3   2  149.84   25.80
  -8   3  -2  130.08   27.12
   8  -3   2  155.36   20.15
  -8  -3  -2  165.85   29.31
   8  -3   2  163.76   20.62
   8   3   3   11.73   19.59
  -8   3  -3   36.91   19.53
   8  -3   3   31.94   15.34
   8  -3   3   28.77   19.48
  -8  -3  -3   30.66   20.48
  -8   3  -4 1391.77   83.07
   8   3   4 1145.54   82.41
   8  -3   4 1198.43   75.24
   8  -3   4 1353.73   66.98
  -8  -3  -4 1287.77   88.59
  -8   3  -5  608.21   53.23
   8   3   5  562.35   58.39
   8  -3   5  627.33   49.45
   8  -3   5  604.42   44.54
  -8  -3  -5  592.89   59.86
   8   3   6 1254.14   99.00
  -8   3  -6 1257.47   75.47
  -8   3  -6 1386.37  105.58
   8  -3   6 1313.64   87.73
  -8  -3  -6 1339.41  100.02
   8   3   7  223.91   40.39
  -8   3  -7  182.15   23.28
  -8   3  -7  241.37   34.35
   8  -3   7  272.85   36.71
  -8  -3  -7  165.12   39.78
   8   3   8  134.60   37.16
  -8   3  -8  118.44   24.68
  -8   3  -8  150.76   29.74
   8  -3   8  107.65   33.17
  -8  -3  -8  114.00   32.92
   8   3   9   58.96   25.25
  -8   3  -9   25.37   23.83
   8  -3   9  -23.60   25.18
  -8  -3  -9  -22.21   22.75
   8   3  10  279.94   56.31
  -8   3 -10  290.03   38.51
   8  -3  10  349.67   54.17
  -8  -3 -10  283.76   51.68
   8   3  11  -14.00   29.94
   8  -3  11   21.91   28.35
  -8  -3 -11   10.05   30.20
   8   4 -17   20.54   34.40
   8  -4 -17   57.61   31.75
  -8  -4  17   23.13   25.36
   8   4 -16   95.39   34.41
  -8   4  16   44.14   24.45
   8  -4 -16    9.73   31.77
  -8  -4  16   73.14   27.06
   8   4 -15  355.11   55.20
  -8   4  15  329.65   50.34
   8  -4 -15  313.53   52.48
  -8  -4  15  299.97   50.06
   8   4 -14   63.05   31.52
  -8   4  14   28.77   22.52
   8  -4 -14   38.47   29.27
  -8  -4  14   84.76   23.68
   8   4 -13  330.81   52.92
  -8   4  13  311.78   45.93
   8  -4 -13  278.96   55.77
  -8  -4  13  308.25   45.37
   8   4 -12   23.38   39.45
  -8   4  12   75.41   23.26
   8  -4 -12  116.85   29.38
  -8  -4  12   72.19   22.68
   8   4 -11  898.12   69.93
  -8   4  11  845.28   62.45
   8  -4 -11  884.56   74.68
  -8  -4  11  802.07   65.17
  -8  -4  11  738.92   42.20
   8   4 -10 1584.08  110.37
  -8   4  10 1784.49  102.05
   8  -4 -10 1632.59  108.05
  -8  -4  10 1560.90   89.50
  -8  -4  10 1430.29   72.80
   8   4  -9 1150.37   82.23
  -8   4   9 1230.35   80.48
   8  -4  -9 1273.92   86.54
  -8  -4   9 1184.82   67.25
  -8  -4   9 1040.61   50.60
   8   4  -8 1866.56  108.58
  -8   4   8 1962.10  112.93
   8  -4  -8 1973.13  114.23
  -8  -4   8 1863.57   97.22
  -8  -4   8 1794.04   83.43
   8   4  -7 2239.41  115.93
  -8   4   7 2157.63  114.91
   8  -4  -7 2252.62  126.61
  -8  -4   7 2240.51  119.55
  -8  -4   7 2053.05   97.76
   8   4  -6  502.25   42.19
  -8   4   6  725.29   48.48
   8  -4  -6  715.62   49.13
  -8  -4   6  641.15   41.10
  -8  -4   6  690.54   45.87
   8   4  -5  746.73   45.50
  -8   4   5  812.43   65.86
   8  -4  -5  941.29   54.82
  -8  -4   5  968.88   54.18
  -8  -4   5  830.33   52.63
   8   4  -4  246.51   22.51
  -8   4   4  294.11   31.21
   8  -4  -4  237.17   27.65
  -8  -4   4  311.03   25.15
  -8  -4   4  273.46   25.02
   8   4  -3  247.33   24.35
   8   4  -3  260.35   19.32
  -8   4   3  323.90   30.71
   8  -4  -3  248.11   11.88
   8  -4  -3  277.34   32.17
  -8  -4   3  276.89   25.75
   8   4  -2 1027.51   56.41
   8   4  -2 1148.44   46.45
  -8   4   2 1051.97   64.31
   8  -4  -2  968.42   33.47
   8  -4  -2 1026.25   55.81
  -8  -4   2 1118.93   62.28
   8   4  -1 1752.62   87.50
   8   4  -1 1705.13   59.10
  -8   4   1 1893.25   96.95
   8  -4  -1 1786.93   62.69
   8  -4  -1 1776.46   95.80
  -8  -4   1 1872.86  107.72
   8   4   0  664.51   45.16
   8   4   0  599.14   21.71
  -8   4   0  600.24   46.38
   8  -4   0  674.00   33.87
   8  -4   0  742.44   41.65
  -8  -4   0  706.57   50.07
   8   4   1 1607.07   89.26
  -8   4  -1 1702.55   96.14
   8  -4   1 1559.23   75.49
  -8  -4  -1 1703.82   98.96
   8  -4   1 1551.29   69.95
   8   4   2 2461.60  149.54
  -8   4  -2 2635.49  133.26
   8  -4   2 2401.33  112.22
  -8  -4  -2 2329.46  135.91
   8  -4   2 2383.73  114.93
   8   4   3 1393.85   91.86
  -8   4  -3 1483.04   93.78
   8  -4   3 1339.74   70.99
   8  -4   3 1410.31   84.46
  -8  -4  -3 1516.87   99.51
   8   4   4 1609.88  112.90
  -8   4  -4 1787.61  107.30
   8  -4   4 1809.50   99.69
   8  -4   4 1669.48   93.41
  -8  -4  -4 1867.89  121.46
  -8   4  -5  903.81   68.03
   8   4   5  811.72   75.27
   8  -4   5  962.77   66.47
   8  -4   5  926.02   63.83
  -8  -4  -5  963.21   78.21
   8   4   6  406.07   47.49
  -8   4  -6  413.02   33.86
  -8   4  -6  457.84   45.20
   8  -4   6  410.44   51.43
  -8  -4  -6  391.33   49.27
   8   4   7  120.03   32.58
  -8   4  -7   72.60   19.52
  -8   4  -7   73.25   25.09
   8  -4   7  127.76   28.40
  -8  -4  -7   90.08   29.96
   8   4   8  682.73   74.70
  -8   4  -8  566.51   46.74
  -8   4  -8  598.65   57.97
   8  -4   8  599.83   63.39
  -8  -4  -8  795.70   71.29
   8   4   9  105.48   32.80
  -8   4  -9   67.00   25.21
   8  -4   9   60.99   31.62
  -8  -4  -9   65.44   31.43
   8   4  10  332.93   59.16
  -8   4 -10  352.85   52.53
   8  -4  10  368.17   68.13
  -8  -4 -10  398.02   54.93
   8   4  11   90.43   39.52
   8  -4  11  113.20   39.53
  -8  -4 -11   94.15   34.25
   8   5 -16  416.47   55.19
  -8   5  16  338.68   47.53
   8  -5 -16  373.91   52.93
  -8  -5  16  242.61   47.72
   8   5 -15   50.59   31.93
  -8   5  15   28.93   22.73
   8  -5 -15   24.26   27.57
  -8  -5  15   19.69   24.33
   8   5 -14  170.10   38.20
  -8   5  14  100.75   29.67
   8  -5 -14   80.15   40.83
  -8  -5  14   85.58   35.61
   8   5 -13  785.67   80.66
  -8   5  13  782.76   64.92
   8  -5 -13  735.92   72.90
  -8  -5  13  689.19   63.48
   8   5 -12  137.43   34.65
  -8   5  12   88.38   28.03
   8  -5 -12  109.48   33.20
  -8  -5  12  128.85   25.93
   8   5 -11  597.67   60.62
  -8   5  11  490.66   61.24
   8  -5 -11  476.24   53.19
  -8  -5  11  518.15   46.08
   8   5 -10  676.70   63.71
  -8   5  10  703.51   59.12
   8  -5 -10  694.27   61.03
  -8  -5  10  610.23   49.71
  -8  -5  10  609.24   37.01
   8   5  -9   29.18   21.94
  -8   5   9  -11.71   18.77
   8  -5  -9   40.68   21.41
  -8  -5   9    6.77   16.73
  -8  -5   9   37.28   13.38
   8   5  -8   34.78   20.10
  -8   5   8  -25.19   22.28
   8  -5  -8   96.09   21.76
  -8  -5   8   18.17   16.51
  -8  -5   8   36.55   14.86
   8   5  -7 2497.63  130.33
  -8   5   7 2521.65  160.44
   8  -5  -7 2555.43  150.47
  -8  -5   7 2524.12  127.54
  -8  -5   7 2433.46  112.93
   8   5  -6   90.37   19.38
  -8   5   6  122.47   28.43
   8  -5  -6   87.48   23.43
  -8  -5   6  103.40   19.90
  -8  -5   6   72.10   14.74
   8   5  -5  265.79   29.87
  -8   5   5  241.03   32.86
  -8  -5   5  301.00   24.31
  -8  -5   5  286.58   27.78
   8  -5  -5  319.31   33.50
   8   5  -4  643.08   34.66
  -8   5   4  646.56   48.43
   8  -5  -4  630.00   47.69
  -8  -5   4  653.90   40.18
  -8  -5   4  677.63   43.24
   8   5  -3  203.94   18.01
  -8   5   3  235.84   29.06
   8  -5  -3  272.85   27.61
  -8  -5   3  234.68   30.90
  -8  -5   3  258.72   26.02
   8   5  -2  239.17   18.26
   8   5  -2  262.87   25.61
  -8   5   2  285.39   30.64
   8  -5  -2  227.96   28.48
  -8  -5   2  243.99   27.62
   8  -5  -2  221.71   11.69
   8   5  -1 2424.36  124.00
   8   5  -1 2279.27   76.82
  -8   5   1 2476.83  128.31
   8  -5  -1 2402.88   78.14
   8  -5  -1 2640.11  121.43
  -8  -5   1 2552.20  125.93
   8   5   0 1472.39   83.92
  -8   5   0 1393.78   84.54
   8  -5   0 1432.92   75.89
  -8  -5   0 1360.57   81.75
   8  -5   0 1457.05   53.42
   8   5   1  139.69   24.83
  -8   5  -1  149.54   27.29
   8  -5   1  155.91   26.85
  -8  -5  -1  160.35   28.58
   8  -5   1  159.84   16.78
   8   5   2  492.43   43.50
  -8   5  -2  439.94   40.82
   8  -5   2  444.23   37.32
  -8  -5  -2  476.10   45.21
   8  -5   2  422.38   36.58
   8   5   3  282.66   42.75
  -8   5  -3  350.70   39.72
   8  -5   3  348.30   29.56
   8  -5   3  394.18   36.24
  -8  -5  -3  351.31   42.87
   8   5   4 1089.16   85.31
  -8   5  -4 1189.47   86.59
   8  -5   4 1164.39   75.33
   8  -5   4 1211.75   77.69
  -8  -5  -4 1188.44   90.67
  -8   5  -5 1297.39   86.57
   8   5   5 1210.79   94.30
   8  -5   5 1280.84   84.76
   8  -5   5 1403.10   78.90
  -8  -5  -5 1242.29   96.40
   8   5   6  117.29   34.86
  -8   5  -6  123.34   24.28
  -8   5  -6  149.32   28.56
   8  -5   6  168.15   29.71
  -8  -5  -6  147.74   42.45
   8   5   7  249.39   42.88
  -8   5  -7  228.74   32.39
  -8   5  -7  207.18   34.15
   8  -5   7  159.34   36.68
  -8  -5  -7  200.09   39.20
   8   5   8  313.34   50.73
  -8   5  -8  278.43   32.90
  -8   5  -8  238.30   35.79
   8  -5   8  331.67   46.14
  -8  -5  -8  236.04   45.41
   8   5   9  151.93   42.86
  -8   5  -9  188.55   34.47
  -8   5  -9  193.57   32.11
   8  -5   9  122.70   40.70
  -8  -5  -9  264.83   42.23
   8   5  10  363.43   66.71
   8  -5  10  423.25   62.00
  -8  -5 -10  431.69   58.76
   8   6 -16   84.82   34.03
  -8   6  16   88.27   29.59
   8  -6 -16   57.99   40.80
  -8  -6  16   27.31   29.23
   8   6 -15  169.55   49.10
  -8   6  15  224.48   39.66
   8  -6 -15  200.79   44.57
  -8  -6  15  258.13   42.27
   8   6 -14   68.48   35.91
  -8   6  14  149.55   29.73
   8  -6 -14  102.14   31.92
  -8  -6  14   59.96   31.13
   8   6 -13  399.83   53.37
  -8   6  13  322.16   44.19
   8  -6 -13  342.46   49.69
  -8  -6  13  312.60   44.67
   8   6 -12  320.40   51.17
  -8   6  12  226.60   38.35
   8  -6 -12  174.35   39.36
  -8  -6  12  191.15   33.15
   8   6 -11 1792.18  133.73
  -8   6  11 1993.81  130.39
   8  -6 -11 1971.24  136.17
  -8  -6  11 1803.94  131.29
   8   6 -10 1587.47  113.18
  -8   6  10 1568.38  108.72
   8  -6 -10 1611.42  116.21
  -8  -6  10 1604.24  103.00
   8   6  -9  105.25   26.17
  -8   6   9   62.57   25.03
   8  -6  -9   93.96   28.17
  -8  -6   9   55.88   11.06
  -8  -6   9  134.64   22.84
   8   6  -8 1225.08   79.82
  -8   6   8 1256.83   84.54
   8  -6  -8 1248.64   89.45
  -8  -6   8 1174.98   56.37
  -8  -6   8 1304.92   79.14
   8   6  -7  294.66   34.33
  -8   6   7  311.05   39.98
   8  -6  -7  348.29   37.77
  -8  -6   7  316.01   25.83
  -8  -6   7  281.07   33.52
   8   6  -6 2771.70  136.24
  -8   6   6 2863.64  164.70
  -8  -6   6 2842.41  129.27
  -8  -6   6 3016.23  150.38
   8  -6  -6 2630.22  154.34
   8   6  -5 1921.90   96.16
  -8   6   5 1963.12  109.57
  -8  -6   5 1912.41   96.06
  -8  -6   5 1860.65   99.54
   8  -6  -5 1891.72  111.77
   8   6  -4  592.32   34.93
  -8   6   4  562.56   50.57
  -8  -6   4  702.71   40.54
  -8  -6   4  630.60   44.22
   8  -6  -4  645.43   47.36
   8   6  -3 1061.94   52.31
  -8   6   3 1050.94   70.30
   8  -6  -3 1086.58   68.63
  -8  -6   3 1256.88   64.86
  -8  -6   3 1053.88   64.42
   8   6  -2  360.29   31.97
   8   6  -2  369.51   22.81
  -8   6   2  349.23   41.38
   8  -6  -2  398.36   34.69
  -8  -6   2  299.85   31.09
   8   6  -1   77.23   20.81
   8   6  -1   75.30   10.04
  -8   6   1   83.43   20.54
   8  -6  -1   67.63   10.74
   8  -6  -1   61.48   19.64
  -8  -6   1   68.12   19.51
   8   6   0  263.08   30.02
  -8   6   0  247.83   31.16
   8  -6   0  154.46   26.47
  -8  -6   0  236.87   30.31
   8  -6   0  220.88   17.76
   8   6   1  864.26   62.77
  -8   6  -1  890.51   58.64
   8  -6   1  862.94   57.57
  -8  -6  -1  819.97   64.48
   8  -6   1  843.59   44.63
   8   6   2 3187.12  181.55
  -8   6  -2 3179.08  168.11
   8  -6   2 3107.31  161.95
  -8  -6  -2 3187.66  179.84
   8  -6   2 3001.49  135.78
   8   6   3  460.39   58.68
  -8   6  -3  479.26   49.06
   8  -6   3  469.36   37.95
   8  -6   3  497.11   36.65
  -8  -6  -3  503.72   50.03
   8   6   4  607.03   57.20
  -8   6  -4  633.38   52.82
   8  -6   4  604.67   47.59
   8  -6   4  609.12   48.11
  -8  -6  -4  672.67   59.91
  -8   6  -5 1061.11   83.95
   8   6   5  999.85   89.48
   8  -6   5 1217.85   78.97
   8  -6   5 1140.59   85.63
  -8  -6  -5 1183.80   91.63
   8   6   6  331.55   46.03
  -8   6  -6  338.72   38.40
   8  -6   6  248.16   45.59
  -8  -6  -6  448.60   47.90
   8   6   7  329.96   48.90
  -8   6  -7  252.15   43.77
  -8   6  -7  348.36   38.74
   8  -6   7  299.68   48.69
  -8  -6  -7  362.87   51.23
   8   6   8  158.89   37.38
  -8   6  -8  112.85   25.59
  -8   6  -8  113.68   31.50
   8  -6   8   95.72   31.40
  -8  -6  -8  129.81   42.56
   8   6   9  271.58   57.53
  -8   6  -9  143.80   32.09
   8  -6   9  235.70   42.51
  -8  -6  -9  263.93   46.63
   8   6  10  162.46   49.50
   8  -6  10  181.43   39.51
  -8  -6 -10  168.31   41.59
   8   7 -16   35.40   30.00
  -8   7  16  -15.08   25.17
   8  -7 -16   37.21   25.82
  -8  -7  16  -16.41   31.09
   8   7 -15  127.80   38.95
  -8   7  15  105.15   40.93
   8  -7 -15  113.79   35.05
  -8  -7  15   79.55   39.65
   8   7 -14   25.61   28.09
  -8   7  14   35.21   24.14
   8  -7 -14    3.69   24.74
  -8  -7  14  -16.13   23.54
   8   7 -13  147.01   40.53
  -8   7  13  200.10   37.04
   8  -7 -13  173.42   36.59
  -8  -7  13  137.94   41.81
   8   7 -12  276.06   48.21
  -8   7  12  299.60   46.97
   8  -7 -12  321.72   46.73
  -8  -7  12  332.18   52.46
   8   7 -11  389.95   50.70
  -8   7  11  475.03   51.66
   8  -7 -11  403.77   52.23
  -8  -7  11  371.04   45.99
   8   7 -10  145.23   31.31
  -8   7  10  144.51   31.36
   8  -7 -10   93.78   31.92
  -8  -7  10  105.84   28.03
   8   7  -9  158.28   32.76
  -8   7   9  210.44   36.40
   8  -7  -9  183.69   33.98
  -8  -7   9  192.17   29.55
   8   7  -8 3203.95  177.45
  -8   7   8 3278.63  191.60
   8  -7  -8 3138.18  197.62
  -8  -7   8 3008.92  128.95
  -8  -7   8 3089.71  173.45
   8   7  -7 2408.45  126.45
  -8   7   7 2242.26  139.69
   8  -7  -7 2195.31  141.82
  -8  -7   7 2172.25   93.72
  -8  -7   7 2297.99  129.85
   8   7  -6  652.50   46.28
  -8   7   6  726.68   62.38
   8  -7  -6  699.79   61.22
  -8  -7   6  733.56   44.05
  -8  -7   6  670.21   49.07
   8   7  -5  229.82   23.57
  -8   7   5  187.30   29.16
  -8  -7   5  215.20   20.34
  -8  -7   5  154.88   27.61
   8  -7  -5  158.86   31.18
   8   7  -4  524.65   37.79
  -8   7   4  559.04   47.80
  -8  -7   4  532.96   34.45
  -8  -7   4  508.42   41.86
   8  -7  -4  603.16   45.25
   8   7  -3 1532.22   67.32
  -8   7   3 1433.28   89.52
   8  -7  -3 1559.93   92.53
  -8  -7   3 1494.30   75.08
  -8  -7   3 1507.99   87.14
   8   7  -2   65.17   19.34
   8   7  -2   49.48   12.01
  -8   7   2   11.95   22.26
   8  -7  -2   89.56   21.23
  -8  -7   2   60.28   18.69
   8   7  -1 1928.94  107.21
  -8   7   1 2081.07  104.75
   8   7  -1 1823.73   60.28
   8  -7  -1 1937.79  105.93
   8  -7  -1 1647.13   53.24
  -8  -7   1 2050.32  105.32
   8   7   0  485.47   41.47
  -8   7   0  305.40   40.91
   8  -7   0  430.70   45.41
  -8  -7   0  481.23   40.21
   8   7   1   23.26   20.59
  -8   7  -1    3.15   18.38
   8  -7   1   23.76   18.10
  -8  -7  -1   45.88   19.81
   8  -7   1   19.91   11.99
   8   7   2  469.22   44.47
  -8   7  -2  462.98   40.50
   8  -7   2  366.85   41.73
  -8  -7  -2  531.49   56.12
   8  -7   2  425.37   29.47
   8   7   3  316.33   41.27
  -8   7  -3  326.10   32.98
   8  -7   3  216.45   31.73
   8  -7   3  281.91   27.93
  -8  -7  -3  345.73   40.01
   8   7   4  346.45   45.76
  -8   7  -4  309.33   38.22
   8  -7   4  377.65   36.71
   8  -7   4  331.17   33.41
  -8  -7  -4  317.54   42.39
   8   7   5    4.02   35.99
  -8   7  -5   61.26   20.36
   8  -7   5   34.42   21.61
   8  -7   5   76.09   20.50
  -8  -7  -5   55.38   27.19
   8   7   6  185.69   36.85
  -8   7  -6  160.63   27.36
   8  -7   6  158.42   29.95
  -8  -7  -6  139.45   37.14
   8   7   7  131.02   41.08
  -8   7  -7   95.81   25.86
  -8   7  -7  100.92   30.03
   8  -7   7   85.07   28.59
  -8  -7  -7  120.82   34.80
   8   7   8   51.68   31.97
  -8   7  -8   59.38   25.28
  -8   7  -8  116.66   24.23
   8  -7   8   39.63   28.01
  -8  -7  -8  122.92   34.36
   8   7   9   83.65   38.70
  -8   7  -9   91.01   32.58
   8  -7   9   81.75   33.11
  -8  -7  -9  108.85   36.20
   8   7  10  144.67   48.65
   8  -7  10  134.84   39.14
  -8  -7 -10  189.19   41.05
   8   8 -15  179.29   42.56
  -8   8  15  167.30   38.62
   8  -8 -15  110.74   40.75
  -8  -8  15  169.11   41.59
   8   8 -14  406.44   61.50
  -8   8  14  472.35   57.67
   8  -8 -14  321.16   69.95
  -8  -8  14  420.61   66.51
   8   8 -13   91.91   35.12
  -8   8  13  110.38   33.75
   8  -8 -13  103.43   32.96
  -8  -8  13   95.90   31.57
   8   8 -12  104.34   37.73
  -8   8  12  154.47   35.47
   8  -8 -12  153.10   34.20
  -8  -8  12   86.73   30.85
   8   8 -11 1326.73  106.90
  -8   8  11 1449.62  110.68
   8  -8 -11 1292.67  110.48
  -8  -8  11 1373.96  116.59
   8   8 -10  113.00   34.49
  -8   8  10   19.23   30.39
   8  -8 -10   87.57   28.58
  -8  -8  10   85.19   27.19
   8   8  -9  630.16   59.31
  -8   8   9  712.59   64.78
   8  -8  -9  592.19   60.41
  -8  -8   9  665.88   59.24
   8   8  -8  221.24   36.04
  -8   8   8  126.36   34.94
   8  -8  -8  107.21   32.03
  -8  -8   8  121.79   16.21
  -8  -8   8  145.60   28.40
   8   8  -7   73.08   23.88
  -8   8   7   93.34   27.62
   8  -8  -7   80.41   27.36
  -8  -8   7   91.11   12.99
  -8  -8   7   83.82   25.24
   8   8  -6  377.66   33.45
  -8   8   6  335.63   45.76
   8  -8  -6  381.91   41.45
  -8  -8   6  298.56   29.68
  -8  -8   6  323.36   37.26
   8   8  -5  574.85   44.92
  -8   8   5  566.60   52.76
  -8  -8   5  581.99   40.11
  -8  -8   5  503.84   45.65
   8  -8  -5  484.80   48.31
   8   8  -4   97.84   17.69
  -8   8   4  110.18   26.48
  -8  -8   4  122.95   19.58
  -8  -8   4  120.58   25.61
   8  -8  -4  146.21   27.86
   8   8  -3  657.75   40.05
  -8   8   3  604.90   54.45
  -8  -8   3  715.03   46.34
  -8  -8   3  677.98   52.65
   8  -8  -3  626.39   49.13
   8   8  -2   40.37   20.08
   8   8  -2   21.34    9.52
  -8   8   2   44.38   19.32
   8  -8  -2   51.20   19.71
  -8  -8   2   23.46   16.57
   8   8  -1  538.81   47.95
  -8   8   1  575.19   47.76
   8  -8  -1  536.80   47.33
  -8  -8   1  636.50   55.56
   8   8   0  659.44   54.33
  -8   8   0  725.22   61.50
   8  -8   0  585.53   27.50
   8  -8   0  646.28   58.74
  -8  -8   0  740.63   52.44
   8   8   1  936.92   69.31
  -8   8  -1  947.85   75.51
   8  -8   1  915.46   75.11
  -8  -8  -1  923.23   69.17
   8  -8   1  844.45   42.36
   8   8   2 2202.51  146.06
  -8   8  -2 2197.26  123.04
   8  -8   2 2286.60  142.09
  -8  -8  -2 2254.10  141.68
   8  -8   2 2102.43  103.52
   8   8   3  123.27   31.28
  -8   8  -3  121.65   25.50
   8  -8   3  118.23   31.58
   8  -8   3  111.97   22.66
  -8  -8  -3  136.58   30.93
   8   8   4  238.81   47.62
  -8   8  -4  232.16   32.48
   8  -8   4  199.59   37.95
   8  -8   4  227.67   31.41
  -8  -8  -4  207.90   41.38
   8   8   5 1548.86  117.06
  -8   8  -5 1527.59  111.62
   8  -8   5 1676.30  123.77
   8  -8   5 1552.53   97.76
  -8  -8  -5 1735.19  122.66
   8   8   6  209.00   42.19
  -8   8  -6  174.68   28.51
   8  -8   6  188.87   32.27
  -8  -8  -6  220.20   40.31
   8   8   7   41.61   28.22
  -8   8  -7   32.02   23.76
  -8   8  -7   36.44   19.75
   8  -8   7   31.71   24.14
  -8  -8  -7   97.44   30.13
   8   8   8   49.82   31.57
  -8   8  -8   30.98   24.98
   8  -8   8   44.88   26.74
  -8  -8  -8   75.44   30.53
   8   8   9  120.62   38.69
  -8   8  -9   85.96   28.33
   8  -8   9   74.38   40.28
  -8  -8  -9   -1.09   42.85
   8   9 -15  458.24   69.13
  -8   9  15  530.49   63.56
   8  -9 -15  464.77   77.04
  -8  -9  15  365.59   63.31
   8   9 -14  232.45   55.70
  -8   9  14  188.91   44.43
   8  -9 -14  174.73   42.59
  -8  -9  14  175.84   43.43
   8   9 -13  129.86   49.11
  -8   9  13  135.05   38.57
   8  -9 -13  119.30   37.58
  -8  -9  13  176.35   38.07
   8   9 -12  500.98   58.87
  -8   9  12  503.77   62.32
   8  -9 -12  495.96   57.72
  -8  -9  12  390.19   57.66
   8   9 -11   29.71   30.29
  -8   9  11   53.10   32.03
   8  -9 -11  101.58   30.12
  -8  -9  11   69.40   28.46
   8   9 -10   66.04   30.69
  -8   9  10   25.51   28.43
   8  -9 -10   19.93   26.81
  -8  -9  10   49.78   23.60
   8   9  -9   99.30   32.19
  -8   9   9  194.04   37.53
   8  -9  -9  185.90   33.81
  -8  -9   9  150.95   32.09
   8   9  -8 3620.70  207.70
  -8   9   8 3773.59  258.51
   8  -9  -8 3668.08  230.38
  -8  -9   8 3439.24  216.27
   8   9  -7  398.88   41.02
  -8   9   7  509.15   51.70
   8  -9  -7  489.10   48.84
  -8  -9   7  369.26   29.92
  -8  -9   7  417.20   45.66
   8   9  -6  793.61   59.65
  -8   9   6  708.89   66.63
  -8  -9   6  671.30   43.55
  -8  -9   6  663.53   59.83
   8  -9  -6  720.95   60.55
   8   9  -5  982.52   60.53
  -8   9   5 1101.05   77.16
   8  -9  -5 1095.14   78.91
  -8  -9   5  990.10   54.41
  -8  -9   5  996.97   72.22
   8   9  -4   53.90   14.11
  -8   9   4   48.81   22.73
  -8  -9   4   44.68   20.05
  -8  -9   4   53.70   22.41
   8  -9  -4   50.89   23.31
   8   9  -3 1811.08   77.80
  -8   9   3 1812.51  113.34
  -8  -9   3 2004.63  110.28
  -8  -9   3 1861.79  111.64
   8  -9  -3 1881.76  134.27
   8   9  -2   32.82   20.02
   8   9  -2   28.96   12.62
  -8   9   2   10.25   21.47
   8  -9  -2   38.80   21.90
  -8  -9   2   73.10   17.95
   8   9  -1 3381.44  190.55
  -8   9   1 3500.61  186.92
   8  -9  -1 3333.52  189.21
  -8  -9   1 3436.98  184.39
   8   9   0  185.12   39.44
  -8   9   0  194.46   28.49
   8  -9   0  143.13   38.44
  -8  -9   0  187.23   35.67
   8   9   1  405.95   44.55
  -8   9  -1  320.83   36.28
   8  -9   1  328.36   24.94
   8  -9   1  404.09   42.35
  -8  -9  -1  417.38   42.31
   8   9   2  431.24   47.46
  -8   9  -2  393.58   39.51
   8  -9   2  368.62   29.46
   8  -9   2  367.01   41.58
  -8  -9  -2  502.39   48.03
   8   9   3  316.13   41.52
  -8   9  -3  277.83   30.59
   8  -9   3  174.06   41.99
   8  -9   3  226.12   23.84
  -8  -9  -3  279.75   45.29
   8   9   4  154.61   35.18
  -8   9  -4  141.08   26.26
   8  -9   4  160.45   31.54
   8  -9   4  117.70   26.93
  -8  -9  -4  151.39   34.80
   8   9   5  254.49   39.66
  -8   9  -5   89.24   34.93
   8  -9   5  166.87   32.68
   8  -9   5  169.69   32.27
  -8  -9  -5  139.12   37.73
   8   9   6  283.27   60.68
  -8   9  -6  257.60   40.22
   8  -9   6  314.47   37.46
  -8  -9  -6  364.85   50.78
   8   9   7  279.45   51.78
  -8   9  -7  306.62   44.93
   8  -9   7  271.18   42.14
  -8  -9  -7  427.44   53.07
   8   9   8   -9.15   26.84
  -8   9  -8   11.42   24.14
   8  -9   8  -12.13   20.69
  -8  -9  -8   21.45   29.76
   8   9   9  249.29   52.09
  -8   9  -9  259.71   45.40
   8  -9   9  225.36   44.69
  -8  -9  -9  322.77   51.10
   8  10 -14  118.85   42.76
  -8  10  14  144.26   40.80
   8 -10 -14  135.90   39.41
  -8 -10  14  132.11   40.62
   8  10 -13   64.58   33.90
  -8  10  13  133.52   33.81
   8 -10 -13   49.88   32.64
  -8 -10  13   79.97   34.98
  -8  10  12  106.60   30.36
   8 -10 -12   22.26   28.27
  -8 -10  12    2.95   34.90
   8  10 -11  229.99   38.29
  -8  10  11  153.66   38.90
   8 -10 -11  111.51   36.94
  -8 -10  11  131.64   34.93
   8  10 -10  178.07   39.09
  -8  10  10  263.69   45.09
   8 -10 -10  217.20   39.60
  -8 -10  10  185.66   40.18
   8  10  -9 1215.65  101.48
  -8  10   9 1308.11  100.87
   8 -10  -9 1087.97   98.48
  -8 -10   9 1280.73   96.42
   8  10  -8  124.82   34.04
  -8  10   8  146.68   34.88
   8 -10  -8  158.34   32.95
  -8 -10   8  168.99   33.38
   8  10  -7   65.51   27.98
  -8  10   7  100.35   27.67
   8 -10  -7  113.05   26.10
  -8 -10   7   54.59   15.81
  -8 -10   7  123.17   28.18
   8  10  -6  757.17   56.49
  -8  10   6  794.59   72.24
   8 -10  -6  833.70   69.08
  -8 -10   6  716.01   43.63
  -8 -10   6  739.15   63.92
   8  10  -5 1204.03   82.77
  -8  10   5 1291.26   98.92
   8 -10  -5 1398.90   96.59
  -8 -10   5 1237.60   65.00
  -8 -10   5 1272.73   93.86
   8  10  -4 1623.37   77.16
  -8  10   4 1561.50  107.76
  -8 -10   4 1531.23  105.57
  -8 -10   4 1496.00   79.80
   8 -10  -4 1604.64  109.96
   8  10  -3  588.18   38.67
  -8  10   3  610.17   55.69
  -8 -10   3  624.08   50.05
  -8 -10   3  552.79   55.68
   8 -10  -3  645.83   58.15
   8  10  -2  171.06   33.01
   8  10  -2  172.55   18.55
  -8  10   2  240.07   38.93
   8 -10  -2  195.23   32.31
  -8 -10   2  155.09   32.06
   8  10  -1  312.72   44.03
  -8  10   1  384.54   40.94
   8 -10  -1  373.30   41.59
  -8 -10   1  352.54   39.67
   8  10   0  176.52   32.81
  -8  10   0  201.25   27.62
   8 -10   0  166.14   39.48
  -8 -10   0  158.42   36.47
   8  10   1  553.80   55.61
  -8  10  -1  550.00   46.53
   8 -10   1  538.86   56.02
  -8 -10  -1  588.41   53.97
  -8  10  -2  316.26   34.02
   8  10   2  342.07   44.97
   8 -10   2  261.06   25.22
   8 -10   2  297.53   37.00
  -8 -10  -2  301.61   44.39
   8  10   3  314.17   46.42
  -8  10  -3  304.18   40.00
   8 -10   3  385.21   40.35
   8 -10   3  251.86   24.85
  -8 -10  -3  249.20   42.21
   8  10   4  303.81   48.36
  -8  10  -4  301.70   33.47
   8 -10   4  230.45   42.74
   8 -10   4  306.35   30.92
  -8 -10  -4  405.40   57.40
   8  10   5  199.01   40.62
  -8  10  -5  141.22   27.78
   8 -10   5  193.98   35.38
   8 -10   5  145.88   31.99
  -8 -10  -5  180.69   39.25
   8  10   6  421.63   63.50
  -8  10  -6  459.21   42.60
   8 -10   6  416.20   53.33
  -8 -10  -6  503.29   61.27
   8  10   7  239.26   43.61
  -8  10  -7  134.93   38.77
   8 -10   7  190.78   34.54
  -8 -10  -7  200.22   43.85
   8  10   8  220.55   49.10
  -8  10  -8  196.20   50.18
   8 -10   8  244.27   39.53
  -8 -10  -8  248.46   50.89
   8  11 -14   93.99   39.22
  -8  11  14   42.54   38.18
   8 -11 -14   96.02   43.00
  -8 -11  14  123.80   41.17
   8  11 -13  136.36   42.54
  -8  11  13  130.62   43.25
   8 -11 -13  135.25   37.45
  -8 -11  13  144.53   41.30
   8  11 -12   23.75   30.64
  -8  11  12   53.01   33.82
   8 -11 -12    0.63   34.54
  -8 -11  12  139.08   32.24
   8  11 -11  -37.05   28.49
  -8  11  11  109.45   31.28
   8 -11 -11   33.40   26.67
  -8 -11  11   25.82   29.45
   8  11 -10   19.20   32.37
  -8  11  10   16.89   36.20
   8 -11 -10   62.41   24.88
  -8 -11  10   40.21   27.12
   8  11  -9  489.64   51.70
  -8  11   9  423.95   61.05
   8 -11  -9  442.29   53.92
  -8 -11   9  395.85   56.90
   8  11  -8  328.53   39.66
  -8  11   8  264.84   58.78
   8 -11  -8  313.98   42.09
  -8 -11   8  248.76   55.57
   8  11  -7 1266.70   81.27
  -8  11   7 1348.22  105.58
   8 -11  -7 1267.60  101.54
  -8 -11   7 1184.96   94.09
   8  11  -6   31.85   18.83
  -8  11   6   54.84   27.24
   8 -11  -6   48.42   27.24
  -8 -11   6   36.84   12.54
  -8 -11   6   70.99   23.83
   8  11  -5  625.21   42.81
  -8  11   5  593.07   64.99
   8 -11  -5  589.99   61.99
  -8 -11   5  559.25   38.02
  -8 -11   5  565.28   71.03
   8  11  -4  227.69   26.85
  -8  11   4  118.29   36.92
  -8 -11   4  221.28   28.83
  -8 -11   4  192.10   36.46
   8 -11  -4  160.34   35.67
   8  11  -3 1555.39   71.45
  -8  11   3 1277.88  105.07
  -8 -11   3 1617.31  100.04
  -8 -11   3 1561.14  107.96
   8 -11  -3 1472.94  102.19
   8  11  -2  495.23   50.90
  -8  11   2  465.98   56.69
   8 -11  -2  468.45   50.73
  -8 -11   2  473.05   43.43
   8  11  -1  549.12   55.20
  -8  11   1  539.69   59.65
   8 -11  -1  527.31   66.02
  -8 -11   1  584.86   48.95
   8  11   0  104.01   34.91
  -8  11   0   87.04   24.97
   8 -11   0  110.54   28.59
  -8 -11   0  100.37   32.97
   8  11   1   95.00   31.98
  -8  11  -1  118.73   26.32
   8 -11   1  115.46   37.59
  -8 -11  -1  130.89   36.39
   8  11   2   16.93   27.85
  -8  11  -2   35.78   17.58
   8 -11   2   -5.36   20.49
  -8 -11  -2   -9.26   22.04
   8  11   3  496.36   55.93
  -8  11  -3  435.95   41.05
   8 -11   3  454.68   48.72
   8 -11   3  385.55   32.49
  -8 -11  -3  394.58   51.26
   8  11   4  131.09   36.17
  -8  11  -4  120.95   24.10
   8 -11   4  160.35   32.19
   8 -11   4   80.92   25.13
  -8 -11  -4  118.70   40.95
   8  11   5  116.14   38.58
  -8  11  -5  139.20   32.57
   8 -11   5  152.90   35.28
   8 -11   5  127.72   30.75
  -8 -11  -5  172.60   37.68
   8  11   6   52.99   32.96
  -8  11  -6   56.86   20.29
   8 -11   6   55.97   27.76
  -8 -11  -6   57.77   32.22
   8  11   7  758.34   92.02
  -8  11  -7  861.46   86.14
   8 -11   7  738.61   83.68
  -8 -11  -7  878.57   94.40
   8  11   8  145.26   37.37
  -8  11  -8   67.03   39.61
   8 -11   8   17.85   29.59
  -8 -11  -8   92.51   39.66
   8  12 -13  -34.61   27.74
  -8  12  13   10.89   27.83
   8 -12 -13   31.15   24.22
  -8 -12  13    1.19   29.56
   8  12 -12  294.45   58.68
  -8  12  12  396.11   62.80
   8 -12 -12  381.32   57.88
  -8 -12  12  492.33   61.87
   8  12 -11  241.03   44.01
  -8  12  11  312.43   56.60
   8 -12 -11  277.42   52.66
  -8 -12  11  189.94   49.12
   8  12 -10    3.04   21.80
  -8  12  10  -22.40   24.12
   8 -12 -10   25.94   23.87
  -8 -12  10  -30.24   24.05
   8  12  -9  331.40   46.46
  -8  12   9  369.04   56.02
   8 -12  -9  385.20   51.30
  -8 -12   9  398.50   53.09
   8  12  -8   -9.64   24.37
  -8  12   8   -7.67   25.43
   8 -12  -8   36.43   23.72
  -8 -12   8   12.97   23.08
   8  12  -7   15.05   26.82
  -8  12   7   30.30   30.88
   8 -12  -7   89.47   29.30
  -8 -12   7   84.06   27.70
   8  12  -6  190.29   27.30
  -8  12   6  217.52   38.85
   8 -12  -6  198.83   35.80
  -8 -12   6  126.34   36.11
   8  12  -5  342.87   39.23
  -8  12   5  316.60   50.06
   8 -12  -5  385.71   48.75
  -8 -12   5  335.74   33.06
  -8 -12   5  362.18   46.64
   8  12  -4  272.72   30.89
  -8  12   4  290.00   46.65
   8 -12  -4  277.75   43.15
  -8 -12   4  286.31   29.82
  -8 -12   4  255.71   40.70
   8  12  -3    9.80   13.13
  -8  12   3    9.03   21.48
   8 -12  -3   15.42   20.89
  -8 -12   3    0.61   18.92
  -8 -12   3   -0.81   20.73
   8  12  -2   94.72   32.58
  -8  12   2  120.75   30.43
   8 -12  -2  123.96   31.27
  -8 -12   2  140.71   30.31
   8  12  -1   44.15   27.03
  -8  12   1   32.89   23.25
   8 -12  -1   75.54   26.28
  -8 -12   1   73.09   22.70
   8  12   0   98.72   29.03
  -8  12   0   34.44   22.72
   8 -12   0   57.75   30.56
  -8 -12   0  133.48   30.19
   8  12   1  264.13   44.50
  -8  12  -1  253.50   36.02
   8 -12   1  308.11   39.37
  -8 -12  -1  315.45   40.18
   8  12   2   51.62   28.53
  -8  12  -2   55.23   20.42
   8 -12   2   67.88   27.21
  -8 -12  -2   47.86   25.94
   8  12   3   79.03   29.20
  -8  12  -3   34.02   20.81
   8 -12   3   37.51   27.74
  -8 -12  -3   49.88   27.07
  -8  12  -4   42.32   21.73
   8  12   4   86.26   40.48
  -8 -12  -4  135.11   38.54
   8 -12   4   77.76   30.14
   8  12   5  276.36   48.91
   8 -12   5  254.46   45.74
  -8 -12  -5  263.31   51.31
   8  12   6   36.67   44.15
  -8  12  -6   41.43   29.92
  -8 -12  -6  112.19   33.72
   8  12   7  269.77   49.13
  -8  12  -7  190.60   44.01
  -8 -12  -7  148.83   48.79
   8  13 -12   93.94   33.78
  -8  13  12   19.54   32.80
   8 -13 -12   72.35   30.24
   8  13 -11  117.98   34.96
  -8  13  11  121.75   39.68
   8 -13 -11  111.46   37.86
  -8 -13  11  103.22   41.00
   8  13 -10  151.26   36.52
  -8  13  10  147.26   45.86
   8 -13 -10  131.73   40.09
  -8 -13  10  160.24   40.89
   8  13  -9  116.61   34.08
  -8  13   9  178.93   44.33
   8 -13  -9  187.88   46.87
  -8 -13   9  184.80   39.88
   8  13  -8  102.61   27.78
  -8  13   8   36.89   37.99
   8 -13  -8  115.65   32.12
  -8 -13   8   68.90   33.07
   8  13  -7 1581.28  111.27
  -8  13   7 2439.72  153.92
   8 -13  -7 1586.51  128.51
  -8 -13   7 1406.86  131.29
   8  13  -6  395.33   48.32
  -8  13   6  522.88   60.60
   8 -13  -6  430.78   54.95
  -8 -13   6  471.05   55.33
   8  13  -5  174.27   23.47
  -8  13   5  140.67   39.15
   8 -13  -5  149.28   35.35
  -8 -13   5  112.83   23.32
  -8 -13   5  127.83   36.00
   8  13  -4   10.01   14.27
  -8  13   4   57.48   30.52
  -8 -13   4   34.24   23.55
  -8 -13   4   30.69   15.08
   8 -13  -4   -1.37   23.68
  -8  13   3  300.66   40.31
  -8 -13   3  249.62   28.93
  -8 -13   3  221.58   42.29
   8 -13  -3  280.01   41.63
   8  13  -2  170.72   37.56
  -8  13   2  150.33   32.67
   8 -13  -2  148.85   34.87
  -8 -13   2  177.48   26.61
   8  13  -1   94.43   33.80
  -8  13   1  147.50   29.98
   8 -13  -1  145.70   34.28
  -8 -13   1  102.20   27.03
   8  13   0   58.19   26.29
  -8  13   0   29.09   20.43
   8 -13   0   10.11   25.13
  -8 -13   0    1.90   20.79
   8  13   1  249.68   46.65
  -8  13  -1  269.92   36.70
   8 -13   1  332.95   44.70
  -8 -13  -1  251.25   39.34
   8  13   2   52.79   30.92
  -8  13  -2   78.45   22.82
   8 -13   2   70.33   36.37
  -8 -13  -2   57.51   34.79
   8  13   3  361.47   51.52
  -8  13  -3  254.05   36.53
   8 -13   3  352.78   49.01
  -8 -13  -3  363.23   49.45
   8  13   4   36.74   28.92
   8 -13   4   25.71   27.38
  -8 -13  -4    2.64   34.82
   8  13   5  111.87   38.30
   8 -13   5  130.36   37.10
  -8 -13  -5  122.00   37.95
   8  13   6  133.45   41.92
  -8  13  -6   79.06   36.88
  -8 -13  -6  141.24   41.63
   8  14 -11   58.78   34.83
  -8  14  11   55.56   38.03
   8 -14 -11   64.16   41.88
  -8 -14  11   85.68   34.42
   8  14 -10  193.75   47.40
  -8  14  10  137.22   42.35
   8 -14 -10  108.84   38.42
  -8 -14  10  209.35   54.69
   8  14  -9  133.02   34.49
  -8  14   9  204.35   44.59
   8 -14  -9  145.30   37.26
  -8 -14   9   83.83   40.84
   8  14  -8  149.54   39.55
  -8  14   8  213.75   42.15
   8 -14  -8  102.16   37.45
  -8 -14   8  131.02   38.60
   8  14  -7    8.64   22.72
  -8  14   7   25.26   30.90
   8 -14  -7   60.88   27.01
  -8 -14   7   44.26   27.90
   8  14  -6  145.80   30.78
  -8  14   6  111.58   37.31
   8 -14  -6  105.32   34.09
  -8 -14   6  112.54   34.16
   8  14  -5  160.05   27.32
  -8  14   5  178.12   43.22
   8 -14  -5  169.42   37.65
  -8 -14   5  242.51   40.31
  -8  14   4  244.64   44.21
   8 -14  -4  185.01   40.40
  -8 -14   4  154.95   28.63
  -8 -14   4  269.06   41.21
  -8  14   3  487.07   66.68
  -8 -14   3  427.20   57.25
  -8 -14   3  430.21   47.14
   8 -14  -3  525.01   56.93
   8  14  -2   58.86   35.94
  -8  14   2   74.58   26.46
   8 -14  -2   31.18   28.34
  -8 -14   2   43.97   20.45
   8  14  -1  125.11   51.58
  -8  14   1  244.93   35.00
   8 -14  -1  191.68   44.77
  -8 -14   1  248.97   33.52
   8  14   0   58.91   38.84
  -8  14   0   20.78   25.10
   8 -14   0   88.34   30.62
  -8 -14   0  111.59   25.46
   8  14   1  119.59   41.42
  -8  14  -1  211.84   38.59
   8 -14   1  189.57   39.03
  -8 -14  -1  241.29   37.26
   8  14   2  365.16   56.89
  -8  14  -2  346.47   42.07
   8 -14   2  428.13   52.42
  -8 -14  -2  445.85   54.79
   8  14   3   76.40   30.71
   8 -14   3    3.63   33.83
  -8 -14  -3   -2.41   34.06
   8  14   4   63.75   32.56
   8 -14   4   28.23   30.69
  -8 -14  -4   -2.78   37.03
   8  14   5   37.05   32.89
   8 -14   5   -5.03   39.57
  -8 -14  -5   96.85   37.83
   8  15 -10  301.99   48.17
  -8  15  10  281.99   58.21
   8 -15 -10  253.85   50.53
  -8 -15  10  234.67   54.73
   8  15  -9  271.61   45.51
  -8  15   9  337.14   62.02
   8 -15  -9  273.41   51.77
  -8 -15   9  178.28   65.79
   8  15  -8   26.09   27.41
  -8  15   8   -8.70   34.89
   8 -15  -8  100.25   29.85
  -8 -15   8   40.09   30.10
   8  15  -7  441.43   54.12
  -8  15   7  474.08   61.40
   8 -15  -7  324.77   53.71
  -8 -15   7  330.39   55.00
   8  15  -6  186.88   32.30
  -8  15   6  119.82   42.67
   8 -15  -6  276.58   39.59
  -8 -15   6  129.93   38.21
  -8  15   5  165.08   47.39
   8 -15  -5  220.13   41.62
  -8 -15   5  242.71   43.75
  -8  15   4  -23.76   34.79
   8 -15  -4   43.02   27.03
  -8 -15   4   41.71   25.27
  -8  15   3  809.74   91.10
  -8 -15   3  711.64   79.27
  -8 -15   3  807.04   59.48
   8 -15  -3  849.64   84.24
   8  15  -2  187.87   38.86
  -8  15   2  218.44   36.89
   8 -15  -2  186.65   42.89
  -8 -15   2  137.59   29.38
   8  15  -1  132.40   39.47
  -8  15   1  157.79   42.50
   8 -15  -1  231.93   43.95
  -8 -15   1  179.22   32.33
   8  15   0  171.99   39.64
  -8  15   0  100.67   37.14
   8 -15   0  110.17   38.28
  -8 -15   0  145.99   36.31
   8  15   1   53.54   38.07
  -8  15  -1  108.58   27.59
   8 -15   1  114.47   37.91
  -8 -15  -1  119.33   31.73
   8  15   2  127.27   38.04
   8 -15   2   96.74   49.03
  -8 -15  -2  118.73   34.87
   8  15   3  164.59   42.02
   8 -15   3  146.66   42.61
  -8 -15  -3  114.83   37.69
   8  16  -8  194.51   46.17
  -8  16   8  236.89   51.08
   8 -16  -8  168.63   45.35
  -8 -16   8  141.80   44.54
  -8  16   7   44.86   32.90
   8 -16  -7   26.84   26.51
  -8 -16   7   -0.90   29.75
  -8  16   6   51.67   34.71
   8 -16  -6   55.50   30.17
  -8 -16   6   66.41   33.43
  -8  16   5  563.80   70.35
   8 -16  -5  470.60   78.74
  -8 -16   5  478.49   79.02
  -8  16   4  303.00   57.25
   8 -16  -4  321.96   51.35
  -8 -16   4  307.71   52.86
   8  16  -3  229.15   34.05
  -8  16   3  214.39   50.18
   8 -16  -3  197.32   56.98
   8  16  -2  122.38   38.45
  -8  16   2  127.57   32.72
   8 -16  -2   91.50   38.99
   8  16  -1   55.27   41.14
  -8  16   1   60.82   35.70
   8 -16  -1  153.56   33.77
  -8 -16   1   47.14   32.24
   8  16   0  105.32   41.49
  -8  16   0  112.21   38.81
   8 -16   0  171.91   41.19
  -8 -16   0  139.88   31.72
   8  16   1  353.84   61.73
   8 -16   1  374.45   55.23
  -8 -16  -1  351.38   51.23
   8  16   2  513.68   70.93
   8 -16   2  423.18   72.18
  -8 -16  -2  471.25   59.74
  -8  17   4   86.75   39.14
   8 -17  -4  115.10   41.22
  -8 -17   4  110.60   36.05
   8  17  -3  142.86   37.60
  -8  17   3   67.15   34.34
   8 -17  -3   98.09   37.96
   8  17  -2   53.38   33.07
  -8  17   2   52.35   29.19
   8 -17  -2   46.65   37.80
   9   0 -17    8.92   29.74
   9   0 -16 1069.50  109.13
   9   0 -15  219.10   36.30
  -9   0  15   69.06   22.70
   9   0 -14 1558.84  127.70
  -9   0  14 1390.97   86.42
  -9   0  14 1264.33   83.06
   9   0 -13  339.58   57.00
  -9   0  13  301.36   32.94
  -9   0  13  208.72   29.00
   9   0 -12  -39.62   25.08
  -9   0  12   24.59   15.99
  -9   0  12   27.82   15.54
   9   0 -11 1342.35   91.11
  -9   0  11 1150.79   80.87
  -9   0  11 1185.47   70.24
   9   0 -10   41.45   22.50
  -9   0  10   20.15   20.85
  -9   0  10   36.88   14.94
   9   0  -9  348.34   41.12
  -9   0   9  346.50   31.46
  -9   0   9  293.23   25.83
   9   0  -8  180.15   31.10
  -9   0   8  221.53   25.48
  -9   0   8  207.97   20.39
   9   0  -7  978.81   61.35
  -9   0   7  882.80   55.88
  -9   0   7  849.13   42.26
   9   0  -6   21.30   14.90
  -9   0   6   15.51   17.13
  -9   0   6   -8.19    8.86
   9   0  -5 1289.05   49.97
   9   0  -5 1471.63   74.69
  -9   0   5 1427.20   77.75
   9   0  -4  201.37   16.23
   9   0  -4  221.71   27.80
  -9   0   4  259.65   28.18
   9   0  -3 1153.18   53.26
   9   0  -3 1144.50   64.21
  -9   0   3 1124.51   69.53
   9   0  -2  695.13   39.22
   9   0  -2  646.28   36.01
  -9   0   2  631.91   49.26
   9   0  -1 1862.99   83.11
   9   0  -1 1720.40   71.17
  -9   0   1 2016.75  110.76
   9   0   0   82.37   21.62
   9   0   0  110.78   14.22
  -9   0   0  149.48   25.98
   9   0   1  387.76   31.27
   9   0   1  379.86   25.58
  -9   0  -1  418.50   40.45
   9   0   2    2.44   14.59
   9   0   2    1.68   10.77
  -9   0  -2   25.90   19.01
   9   0   3 1720.61   73.44
   9   0   3 1820.78  103.43
  -9   0  -3 1976.32  121.66
   9   0   4  123.16   16.31
   9   0   4  151.18   27.40
  -9   0  -4  101.34   29.38
   9   0   5  487.73   52.41
  -9   0  -5  581.37   53.73
   9   0   6   27.64   24.25
  -9   0  -6   74.69   25.54
   9   0   7   42.75   27.86
  -9   0  -7  101.78   29.05
   9   0   8  -18.49   24.68
  -9   0  -8   24.05   23.48
   9   0   9  516.25   71.56
  -9   0  -9  568.96   73.89
   9   0  10  280.32   49.71
  -9   0 -10  168.30   43.73
   9   1 -17  121.81   49.32
   9  -1 -17   70.62   39.46
   9   1 -16  -10.39   27.01
   9  -1 -16   -9.96   33.36
  -9  -1  16   12.56   16.72
   9   1 -15  155.43   41.47
  -9   1  15  141.83   29.42
   9  -1 -15  206.75   40.90
  -9  -1  15  148.84   26.52
   9   1 -14  318.72   46.63
  -9   1  14  239.50   28.50
  -9   1  14  189.95   22.33
   9  -1 -14  254.93   45.60
  -9  -1  14  200.94   27.36
  -9  -1  14  174.98   29.50
   9   1 -13  532.48   64.44
  -9   1  13  399.99   36.40
  -9   1  13  288.96   32.24
   9  -1 -13  471.19   50.67
  -9  -1  13  415.53   39.99
  -9  -1  13  362.39   32.30
   9   1 -12  517.60   56.77
  -9   1  12  442.26   33.77
  -9   1  12  483.29   42.51
   9  -1 -12  496.29   56.64
  -9  -1  12  436.10   40.62
  -9  -1  12  496.54   40.81
   9   1 -11  192.25   44.39
  -9   1  11  194.10   30.80
  -9   1  11  180.34   20.78
  -9  -1  11  157.84   23.21
   9  -1 -11  229.02   37.01
  -9  -1  11  164.19   21.34
   9   1 -10  738.38   73.65
  -9   1  10  614.23   37.13
  -9   1  10  682.93   58.52
  -9  -1  10  679.64   44.37
   9  -1 -10  664.17   61.52
  -9  -1  10  697.23   46.79
   9   1  -9  517.54   49.13
  -9   1   9  492.57   39.66
  -9   1   9  451.02   29.04
   9  -1  -9  495.58   50.05
  -9  -1   9  512.79   43.78
  -9  -1   9  472.69   36.57
   9   1  -8 2091.69  114.30
  -9   1   8 2003.47   79.67
  -9   1   8 2062.39  111.48
   9  -1  -8 2285.10  141.70
  -9  -1   8 2023.21  103.50
  -9  -1   8 2080.57   89.97
   9   1  -7 1810.92   98.59
  -9   1   7 1911.85  102.19
  -9   1   7 1826.56   66.10
   9  -1  -7 1936.86  109.89
  -9  -1   7 1855.55   91.65
  -9  -1   7 1613.95   78.17
  -9   1   6  337.23   33.91
   9   1  -6  409.90   34.13
   9  -1  -6  351.17   34.29
   9  -1  -6  342.12   18.70
  -9  -1   6  346.39   31.67
  -9  -1   6  343.77   21.93
   9   1  -5  409.76   23.50
  -9   1   5  472.72   38.21
   9   1  -5  441.92   39.09
   9  -1  -5  285.14   34.04
   9  -1  -5  376.44   21.20
  -9  -1   5  401.58   35.55
   9   1  -4  226.49   22.19
  -9   1   4  336.23   35.90
   9   1  -4  251.98   28.80
   9  -1  -4  256.21   26.69
   9  -1  -4  226.15   17.50
  -9  -1   4  258.24   29.73
   9   1  -3 2044.21   92.01
  -9   1   3 2084.25  113.35
   9   1  -3 2112.05  101.27
   9  -1  -3 2107.46   98.52
   9  -1  -3 2086.30   74.35
  -9  -1   3 2050.58  112.98
   9   1  -2 2204.95   91.91
  -9   1   2 2080.05  117.20
   9   1  -2 2034.95   91.74
   9  -1  -2 2091.84   91.64
   9  -1  -2 2028.25   84.97
  -9  -1   2 2167.03  121.26
   9   1  -1  290.77   23.10
  -9   1   1  219.90   30.01
   9   1  -1  233.22   17.49
   9  -1  -1  217.10   20.90
   9  -1  -1  243.04   20.41
  -9  -1   1  328.35   32.88
   9   1   0  969.80   61.68
  -9   1   0 1133.30   74.65
   9   1   0  925.07   42.95
   9  -1   0  912.49   43.73
   9  -1   0  935.05   47.23
  -9  -1   0  948.04   67.19
   9   1   1 1156.99   75.28
   9   1   1 1106.80   46.41
  -9   1  -1 1226.34   77.79
   9  -1   1 1137.55   60.82
   9  -1   1 1149.60   56.13
  -9  -1  -1 1176.57   78.24
   9   1   2 1376.72   79.47
  -9   1  -2 1391.27   91.43
   9   1   2 1436.77   56.30
   9  -1   2 1455.95   69.05
   9  -1   2 1507.15   81.65
  -9  -1  -2 1572.65   99.92
  -9   1  -3 1238.31   84.11
   9   1   3 1141.71   76.10
   9  -1   3 1142.36   84.58
   9  -1   3 1193.64   58.92
  -9  -1  -3 1239.78   85.62
  -9   1  -4  226.71   38.45
   9   1   4  276.31   36.27
   9  -1   4  322.05   34.79
   9  -1   4  229.17   24.53
  -9  -1  -4  240.90   38.52
   9   1   5  290.93   41.88
  -9   1  -5  252.13   20.50
  -9   1  -5  296.56   48.61
   9  -1   5  289.17   36.40
  -9  -1  -5  309.92   38.72
   9   1   6   85.64   27.75
  -9   1  -6   53.83   26.91
   9  -1   6   79.55   32.04
  -9  -1  -6   40.82   35.60
   9   1   7  460.63   55.15
  -9   1  -7  476.27   54.54
   9  -1   7  406.75   54.60
  -9  -1  -7  463.21   54.93
   9   1   8   42.32   29.53
  -9   1  -8   27.74   26.82
   9  -1   8   90.64   28.59
  -9  -1  -8   22.49   28.39
   9   1   9   59.62   42.50
  -9   1  -9   84.19   29.49
   9  -1   9  133.17   34.88
  -9  -1  -9   89.89   32.74
   9   1  10    8.39   28.44
  -9   1 -10  -39.43   28.47
   9  -1  10   34.81   27.71
  -9  -1 -10   28.78   24.87
   9   2 -17  443.23   69.42
   9  -2 -17  351.70   63.72
   9   2 -16  135.23   41.36
   9  -2 -16  157.97   42.13
  -9  -2  16  158.63   30.06
   9   2 -15  418.94   55.06
  -9   2  15  366.56   46.24
   9  -2 -15  344.35   54.99
  -9  -2  15  288.39   45.48
   9   2 -14  181.96   37.90
  -9   2  14  121.06   26.50
   9  -2 -14  131.00   46.63
  -9  -2  14  146.46   26.41
   9   2 -13    6.29   25.06
  -9   2  13   31.12   17.32
  -9  -2  13   12.42   14.73
  -9  -2  13    9.58   16.05
   9  -2 -13   -6.18   24.81
   9   2 -12   90.43   35.41
  -9   2  12  156.09   25.00
  -9  -2  12  110.16   21.35
  -9  -2  12  112.24   21.65
   9  -2 -12  145.98   34.92
   9   2 -11 3560.21  210.73
  -9   2  11 3302.74  181.75
  -9   2  11 2807.81  127.74
   9  -2 -11 3477.57  209.97
  -9  -2  11 3393.99  181.75
  -9  -2  11 3198.10  165.12
   9   2 -10   66.67   24.82
  -9   2  10   52.36   12.24
  -9   2  10   67.66   21.20
  -9  -2  10   22.77   19.24
   9  -2 -10  113.98   25.12
  -9  -2  10   39.72   16.21
   9   2  -9 1785.71  124.30
  -9   2   9 1814.76   98.89
  -9   2   9 1549.12   64.92
   9  -2  -9 1859.17  118.55
  -9  -2   9 1752.36   95.44
  -9  -2   9 1825.44   95.94
   9   2  -8  554.11   49.86
  -9   2   8  582.27   47.60
   9  -2  -8  605.16   52.59
  -9  -2   8  580.10   41.51
  -9  -2   8  566.34   36.08
   9   2  -7  625.76   52.96
  -9   2   7  509.03   53.64
   9  -2  -7  586.98   48.36
  -9  -2   7  531.50   32.71
  -9  -2   7  492.39   36.27
   9   2  -6  603.00   54.82
  -9   2   6  802.25   52.44
   9  -2  -6  665.77   52.83
  -9  -2   6  711.72   36.40
  -9  -2   6  723.64   46.70
  -9   2   5 1621.09   89.22
   9   2  -5 1701.52   90.56
   9  -2  -5 1592.54   84.07
   9  -2  -5 1502.85   49.68
  -9  -2   5 1530.99   68.07
  -9  -2   5 1595.37   83.53
   9   2  -4  800.16   41.30
  -9   2   4  858.99   53.29
   9   2  -4  852.40   44.95
   9  -2  -4  929.65   63.30
   9  -2  -4  764.72   30.53
  -9  -2   4  771.00   53.81
   9   2  -3 1665.02   81.48
  -9   2   3 1680.23   97.97
   9   2  -3 1670.02   76.76
   9  -2  -3 1364.14   79.61
   9  -2  -3 1584.44   57.74
  -9  -2   3 1784.65   93.56
   9   2  -2   52.84   14.85
  -9   2   2   45.01   21.03
   9   2  -2   33.40   14.45
   9  -2  -2   53.98   14.57
   9  -2  -2   34.04   11.89
  -9  -2   2   25.89   20.08
   9   2  -1 4236.26  187.85
   9   2  -1 3807.18  143.77
  -9   2   1 4177.83  213.02
   9  -2  -1 3941.68  159.51
   9  -2  -1 4115.90  180.05
  -9  -2   1 4108.92  209.99
   9   2   0 2681.30  138.36
   9   2   0 2332.29   84.08
  -9   2   0 2536.68  137.10
   9  -2   0 2587.99  111.36
   9  -2   0 2514.52  109.26
  -9  -2   0 2616.03  139.99
   9   2   1 2155.89  121.81
   9   2   1 1913.35   70.98
  -9   2  -1 2337.86  135.14
   9  -2   1 2108.32   95.73
   9  -2   1 2101.75   90.19
  -9  -2  -1 2339.96  134.04
   9   2   2  387.35   37.76
  -9   2  -2  412.70   41.35
   9  -2   2  341.66   25.86
  -9  -2  -2  398.01   44.86
   9  -2   2  355.24   39.07
  -9   2  -3   -9.39   18.38
   9   2   3    1.70   21.23
   9  -2   3    7.16   18.41
   9  -2   3  -17.79   13.66
  -9  -2  -3  100.42   24.98
  -9   2  -4  286.91   36.43
   9   2   4  240.85   42.46
   9  -2   4  192.24   32.55
   9  -2   4  248.41   26.36
  -9  -2  -4  237.78   37.53
  -9   2  -5  610.26   58.87
   9   2   5  529.47   55.14
   9  -2   5  482.75   50.93
   9  -2   5  551.72   34.92
  -9  -2  -5  571.38   70.18
   9   2   6  328.70   44.03
  -9   2  -6  256.15   29.70
  -9   2  -6  257.96   41.83
   9  -2   6  306.57   41.59
  -9  -2  -6  400.16   46.83
   9   2   7   12.02   25.17
  -9   2  -7   12.80   27.11
   9  -2   7   -7.30   22.51
  -9  -2  -7   53.68   25.79
   9   2   8  264.64   52.48
  -9   2  -8  335.58   47.84
   9  -2   8  367.52   47.71
  -9  -2  -8  385.87   49.91
   9   2   9  514.16   72.99
  -9   2  -9  622.22   65.59
   9  -2   9  496.70   66.92
  -9  -2  -9  617.16   67.50
   9   2  10  101.19   34.78
  -9   2 -10   10.27   28.46
   9  -2  10   48.17   39.55
  -9  -2 -10   89.73   31.56
   9   3 -17   91.23   39.78
   9  -3 -17  133.40   39.54
  -9  -3  17   60.41   35.25
   9   3 -16   54.51   30.60
  -9   3  16   40.82   22.77
   9  -3 -16   39.98   34.01
  -9  -3  16   23.29   29.25
   9   3 -15  142.49   36.61
  -9   3  15   69.21   24.32
   9  -3 -15   72.59   41.13
  -9  -3  15   15.74   30.19
   9   3 -14   -3.27   30.68
  -9   3  14   47.36   21.03
   9  -3 -14   36.21   28.67
  -9  -3  14   26.48   19.53
   9   3 -13  184.76   42.14
  -9   3  13  193.98   30.81
   9  -3 -13  190.83   39.69
  -9  -3  13  120.66   32.61
   9   3 -12   37.18   29.37
  -9   3  12   78.25   23.01
   9  -3 -12   84.20   26.87
  -9  -3  12   12.03   16.16
  -9  -3  12   36.16   17.43
   9   3 -11  256.86   36.94
  -9   3  11  255.14   37.53
   9  -3 -11  236.86   38.53
  -9  -3  11  158.20   26.20
  -9  -3  11  202.65   26.06
   9   3 -10  718.37   63.71
  -9   3  10  713.81   55.79
   9  -3 -10  778.72   65.20
  -9  -3  10  717.48   42.90
  -9  -3  10  745.44   50.48
   9   3  -9  548.34   54.84
  -9   3   9  612.49   47.86
  -9  -3   9  576.47   47.89
  -9  -3   9  554.98   43.64
   9  -3  -9  620.43   52.84
   9   3  -8  397.87   44.15
  -9   3   8  559.47   46.73
  -9  -3   8  515.79   41.73
  -9  -3   8  458.94   33.22
   9  -3  -8  531.40   47.20
   9   3  -7 1675.75   93.33
  -9   3   7 1646.08  101.48
   9  -3  -7 1643.53  101.63
  -9  -3   7 1756.17   85.22
  -9  -3   7 1682.83   94.62
   9   3  -6  914.21   57.26
  -9   3   6  935.83   65.00
   9  -3  -6 1079.23   78.84
  -9  -3   6  960.08   51.07
  -9  -3   6  988.14   55.27
   9   3  -5  383.33   30.67
  -9   3   5  374.92   40.31
   9  -3  -5  389.12   36.91
  -9  -3   5  410.14   35.09
  -9  -3   5  388.44   42.34
   9   3  -4  279.68   24.09
   9   3  -4  245.27   24.82
  -9   3   4  280.23   35.63
   9  -3  -4  248.63   30.87
  -9  -3   4  330.35   37.06
   9   3  -3 2933.54  138.98
  -9   3   3 2859.02  150.72
   9   3  -3 2873.75  114.68
   9  -3  -3 2894.38  146.18
   9  -3  -3 2629.90   84.57
  -9  -3   3 2957.44  145.40
   9   3  -2  515.69   37.93
   9   3  -2  548.31   32.34
  -9   3   2  605.33   48.63
   9  -3  -2  557.71   27.37
   9  -3  -2  509.08   36.82
  -9  -3   2  515.94   43.59
   9   3  -1   71.82   22.42
   9   3  -1   78.64   10.73
  -9   3   1  119.26   25.22
   9  -3  -1   86.20   14.91
   9  -3  -1   94.40   21.67
  -9  -3   1   93.72   24.39
   9   3   0 1545.40   84.22
   9   3   0 1359.39   47.78
  -9   3   0 1502.62   95.74
   9  -3   0 1527.39   71.73
   9  -3   0 1473.41   78.89
  -9  -3   0 1732.16  100.41
   9   3   1 1336.05   80.04
  -9   3  -1 1371.59  101.81
   9  -3   1 1195.72   69.34
  -9  -3  -1 1389.47   90.25
   9  -3   1 1239.62   67.76
   9   3   2 2275.56  128.79
  -9   3  -2 2118.90  129.46
   9  -3   2 2206.95  105.02
  -9  -3  -2 2204.65  138.20
   9  -3   2 2057.69  103.14
   9   3   3 1328.10   87.13
  -9   3  -3 1279.23  103.60
   9  -3   3 1391.20   69.64
   9  -3   3 1260.17   87.42
  -9  -3  -3 1293.57   97.13
  -9   3  -4  219.01   34.57
   9   3   4  291.42   36.49
   9  -3   4  259.88   32.56
   9  -3   4  210.64   29.25
  -9  -3  -4  240.75   39.90
  -9   3  -5  580.88   62.64
   9   3   5  537.97   56.92
   9  -3   5  523.64   51.38
   9  -3   5  595.48   44.57
  -9  -3  -5  576.57   59.02
   9   3   6   36.43   29.30
  -9   3  -6   51.49   19.18
  -9   3  -6   74.80   26.09
   9  -3   6   44.27   23.58
  -9  -3  -6   51.86   34.77
   9   3   7 1093.98   99.50
  -9   3  -7 1251.54  103.04
   9  -3   7 1117.72   91.63
  -9  -3  -7 1060.43   98.81
   9   3   8  269.24   63.98
  -9   3  -8  311.23   45.97
   9  -3   8  306.91   43.47
  -9  -3  -8  290.04   49.53
   9   3   9  357.24   58.24
  -9   3  -9  408.21   48.37
   9  -3   9  336.89   62.82
  -9  -3  -9  315.14   56.36
   9   3  10   59.74   33.97
  -9   3 -10  118.28   32.80
   9  -3  10   24.50   39.87
  -9  -3 -10   -0.76   32.08
   9   4 -16  184.31   48.06
  -9   4  16  165.29   40.29
   9  -4 -16  277.36   55.31
  -9  -4  16  170.93   37.29
   9   4 -15  335.15   52.97
  -9   4  15  217.98   37.19
   9  -4 -15  251.18   46.74
  -9  -4  15  227.12   38.75
   9   4 -14  747.45   76.96
  -9   4  14  639.18   62.56
   9  -4 -14  641.39   73.70
  -9  -4  14  584.02   69.10
   9   4 -13   82.63   33.31
  -9   4  13   28.97   24.75
   9  -4 -13   86.88   29.50
  -9  -4  13   82.06   26.49
   9   4 -12  147.39   35.88
  -9   4  12  130.36   29.66
   9  -4 -12   91.05   33.30
  -9  -4  12  150.81   25.52
   9   4 -11  111.69   41.54
  -9   4  11   81.25   29.24
   9  -4 -11  137.64   31.75
  -9  -4  11  142.67   25.01
  -9  -4  11  126.41   17.84
   9   4 -10   55.66   22.75
  -9   4  10    9.33   20.60
   9  -4 -10  118.40   28.71
  -9  -4  10    2.10   19.93
  -9  -4  10   -4.86   15.58
   9   4  -9  228.58   32.43
  -9   4   9  199.33   31.23
  -9  -4   9  155.34   24.55
  -9  -4   9  168.36   24.09
   9  -4  -9  183.38   33.59
   9   4  -8  456.11   43.75
  -9   4   8  479.98   47.46
  -9  -4   8  399.66   42.38
  -9  -4   8  428.58   31.80
   9  -4  -8  460.29   47.80
   9   4  -7  762.87   53.41
  -9   4   7  804.12   59.49
  -9  -4   7  765.96   56.24
  -9  -4   7  883.89   57.03
   9  -4  -7  815.40   65.32
   9   4  -6  195.85   25.43
  -9   4   6  214.91   30.28
   9  -4  -6  207.45   31.71
  -9  -4   6  184.62   24.24
  -9  -4   6  157.41   24.13
   9   4  -5 4854.78  218.50
  -9   4   5 4838.27  261.28
   9  -4  -5 5018.05  264.51
  -9  -4   5 4816.96  227.37
  -9  -4   5 4964.44  236.33
   9   4  -4 2452.16  106.56
  -9   4   4 2318.00  134.74
   9  -4  -4 2485.98  132.56
  -9  -4   4 2479.02  123.55
   9   4  -3  256.64   27.90
   9   4  -3  314.96   25.80
  -9   4   3  298.40   35.74
   9  -4  -3  257.72   14.90
   9  -4  -3  349.72   31.31
  -9  -4   3  334.28   30.98
   9   4  -2 1693.59   84.81
   9   4  -2 1498.74   63.89
  -9   4   2 1499.23   88.81
   9  -4  -2 1491.25   54.42
   9  -4  -2 1646.24   86.32
  -9  -4   2 1661.80   94.10
   9   4  -1 1967.60  100.54
   9   4  -1 1748.87   63.34
  -9   4   1 1933.38  107.83
   9  -4  -1 1825.09   71.20
   9  -4  -1 1730.18   89.69
  -9  -4   1 1947.53  110.38
   9   4   0  306.74   32.00
   9   4   0  215.04   13.68
  -9   4   0  270.49   33.61
   9  -4   0  253.22   22.93
   9  -4   0  305.11   26.13
  -9  -4   0  262.06   36.94
   9   4   1   75.85   23.25
  -9   4  -1   81.55   22.96
   9  -4   1   61.87   17.35
  -9  -4  -1   99.94   26.24
   9  -4   1   55.75   17.26
   9   4   2  621.17   54.51
  -9   4  -2  627.76   56.27
   9  -4   2  641.78   50.61
  -9  -4  -2  592.10   54.22
   9  -4   2  545.02   46.05
   9   4   3 1127.61   87.10
  -9   4  -3 1206.16   84.76
   9  -4   3 1206.20   69.51
   9  -4   3 1227.39   71.65
  -9  -4  -3 1342.66   91.93
  -9   4  -4  420.01   43.05
   9   4   4  436.55   45.64
   9  -4   4  382.55   39.31
   9  -4   4  450.95   35.56
  -9  -4  -4  300.44   48.10
  -9   4  -5  672.23   59.83
   9   4   5  623.63   78.12
   9  -4   5  612.38   62.45
   9  -4   5  764.36   58.82
  -9  -4  -5  737.93   68.70
   9   4   6  929.60   86.00
  -9   4  -6  908.49   61.71
  -9   4  -6 1089.56   83.17
   9  -4   6  927.16   76.51
  -9  -4  -6 1055.68   87.12
   9   4   7   38.33   28.90
  -9   4  -7   39.53   16.63
  -9   4  -7   67.83   28.96
   9  -4   7   20.65   23.76
  -9  -4  -7   -2.40   27.25
   9   4   8  142.28   45.81
  -9   4  -8  206.53   36.72
   9  -4   8  180.63   37.83
  -9  -4  -8  219.06   41.92
   9   4   9  135.29   38.97
  -9   4  -9   87.22   29.80
   9  -4   9   35.20   32.05
  -9  -4  -9   99.90   35.12
   9   5 -16    8.74   30.88
  -9   5  16   24.08   22.87
   9  -5 -16    9.88   26.96
  -9  -5  16    6.83   23.42
   9   5 -15  181.19   43.55
  -9   5  15  127.20   33.24
   9  -5 -15  128.69   39.94
  -9  -5  15  128.44   34.21
   9   5 -14  228.03   42.77
  -9   5  14  158.29   32.16
   9  -5 -14  115.13   39.74
  -9  -5  14   89.34   32.10
   9   5 -13  531.75   65.08
  -9   5  13  488.42   53.62
   9  -5 -13  530.30   61.95
  -9  -5  13  476.70   51.64
   9   5 -12  449.53   56.37
  -9   5  12  466.72   50.56
   9  -5 -12  447.60   56.96
  -9  -5  12  405.33   44.49
   9   5 -11 1421.97  115.67
  -9   5  11 1513.39  109.95
   9  -5 -11 1508.20  133.87
  -9  -5  11 1476.92   96.46
   9   5 -10  -31.17   21.64
  -9   5  10    6.90   24.91
   9  -5 -10  -26.86   21.33
  -9  -5  10    4.10   15.92
  -9  -5  10    4.31   10.88
   9   5  -9 2205.77  133.87
  -9   5   9 1983.77  134.27
   9  -5  -9 2223.22  147.79
  -9  -5   9 2124.80  119.95
  -9  -5   9 1979.63  105.50
   9   5  -8  229.10   36.39
  -9   5   8  335.71   37.32
   9  -5  -8  327.66   41.11
  -9  -5   8  212.31   38.52
  -9  -5   8  325.03   30.75
   9   5  -7  436.17   42.22
  -9   5   7  431.04   45.50
   9  -5  -7  388.05   49.58
  -9  -5   7  487.29   39.95
  -9  -5   7  487.63   38.91
   9   5  -6 3873.39  188.34
  -9   5   6 3866.38  216.74
   9  -5  -6 3891.87  223.49
  -9  -5   6 4016.10  211.55
  -9  -5   6 4016.95  189.44
   9   5  -5  154.18   25.97
  -9   5   5  118.62   30.31
   9  -5  -5  246.59   28.45
  -9  -5   5  122.60   27.78
  -9  -5   5  132.80   23.36
   9   5  -4  177.49   24.91
  -9   5   4  152.29   32.84
   9  -5  -4  255.10   29.77
  -9  -5   4  235.80   27.49
  -9  -5   4  196.04   31.81
   9   5  -3  394.63   33.21
   9   5  -3  378.27   28.77
  -9   5   3  429.83   42.70
   9  -5  -3  374.85   34.84
  -9  -5   3  393.91   38.30
   9   5  -2  806.73   53.45
   9   5  -2  739.37   35.72
  -9   5   2  771.87   57.48
   9  -5  -2  671.99   27.49
   9  -5  -2  799.70   54.54
  -9  -5   2  812.56   56.10
   9   5  -1 2623.16  139.09
   9   5  -1 2337.88   84.10
  -9   5   1 2566.95  147.90
   9  -5  -1 2500.96   90.76
   9  -5  -1 2979.61  149.05
  -9  -5   1 2792.13  151.63
   9   5   0   26.91   17.53
  -9   5   0  -19.46   20.02
   9  -5   0   20.75   15.29
  -9  -5   0   10.67   17.76
   9  -5   0   11.82   11.39
   9   5   1  226.08   30.24
  -9   5  -1  143.13   28.96
   9  -5   1  173.55   23.49
  -9  -5  -1  135.84   31.19
   9  -5   1  172.99   18.73
   9   5   2  446.34   49.19
  -9   5  -2  535.74   49.16
   9  -5   2  437.99   47.95
  -9  -5  -2  558.17   52.31
   9  -5   2  487.15   36.78
   9   5   3  843.53   70.62
  -9   5  -3  779.65   77.66
   9  -5   3  817.97   62.57
   9  -5   3  745.73   53.95
  -9  -5  -3  792.56   72.08
   9   5   4  329.77   42.25
  -9   5  -4  304.75   37.60
   9  -5   4  247.24   30.22
   9  -5   4  258.85   32.25
  -9  -5  -4  231.34   44.15
  -9   5  -5  519.37   50.52
   9   5   5  499.62   56.37
   9  -5   5  501.76   48.56
   9  -5   5  470.05   45.26
  -9  -5  -5  554.72   57.48
   9   5   6  110.83   36.76
  -9   5  -6   96.27   23.15
  -9   5  -6  125.50   28.10
   9  -5   6   85.80   27.40
  -9  -5  -6  128.10   33.83
   9   5   7  649.42   73.60
  -9   5  -7  690.83   61.83
  -9   5  -7  693.00   66.25
   9  -5   7  727.36   68.18
  -9  -5  -7  738.76   91.36
   9   5   8  -38.44   26.66
  -9   5  -8   -6.91   24.56
   9  -5   8   12.36   22.74
  -9  -5  -8   18.96   24.77
   9   5   9  117.69   44.21
  -9   5  -9  145.17   33.93
   9  -5   9  144.56   40.09
  -9  -5  -9  192.40   41.37
   9   6 -16   86.28   43.10
  -9   6  16   69.96   40.97
   9  -6 -16  140.82   40.87
  -9  -6  16  132.03   41.55
   9   6 -15   87.29   36.57
  -9   6  15   78.02   34.32
   9  -6 -15   78.34   33.49
  -9  -6  15   39.16   29.01
   9   6 -14  205.55   42.62
  -9   6  14  172.23   34.92
   9  -6 -14  119.56   40.78
  -9  -6  14  155.49   33.95
   9   6 -13  337.81   57.54
  -9   6  13  358.58   48.77
   9  -6 -13  351.47   53.13
  -9  -6  13  370.46   44.97
   9   6 -12  122.46   37.53
  -9   6  12  166.77   32.07
   9  -6 -12  175.35   36.02
  -9  -6  12   92.13   29.34
   9   6 -11  437.50   51.06
  -9   6  11  364.65   50.93
   9  -6 -11  437.13   52.11
  -9  -6  11  308.45   40.46
   9   6 -10  532.61   58.79
  -9   6  10  695.09   62.35
   9  -6 -10  644.64   62.41
  -9  -6  10  575.19   53.01
  -9  -6  10  521.65   35.22
   9   6  -9  691.19   56.82
  -9   6   9  696.95   61.73
  -9  -6   9  534.20   32.82
  -9  -6   9  552.40   51.44
   9  -6  -9  595.21   62.57
   9   6  -8  305.37   35.59
  -9   6   8  219.48   38.81
  -9  -6   8  233.26   27.04
  -9  -6   8  266.27   33.65
   9  -6  -8  227.26   40.86
   9   6  -7 1407.65   87.78
  -9   6   7 1395.34   97.48
  -9  -6   7 1397.14   70.22
  -9  -6   7 1419.71   88.45
   9  -6  -7 1530.53  105.04
   9   6  -6  633.75   46.31
  -9   6   6  670.32   58.11
  -9  -6   6  719.09   45.01
  -9  -6   6  578.63   47.78
   9  -6  -6  662.19   58.07
   9   6  -5 1021.39   65.52
  -9   6   5 1018.22   74.25
   9  -6  -5 1060.55   77.91
  -9  -6   5 1050.35   68.94
  -9  -6   5 1090.80   62.77
   9   6  -4 1563.52   77.60
  -9   6   4 1460.38  107.48
   9  -6  -4 1402.57   91.04
  -9  -6   4 1488.28   84.48
  -9  -6   4 1397.10   92.20
   9   6  -3 1081.22   66.47
   9   6  -3 1016.76   47.43
  -9   6   3  973.11   70.82
   9  -6  -3 1105.55   72.78
  -9  -6   3 1016.92   67.26
   9   6  -2 1561.05   91.45
   9   6  -2 1540.95   65.68
  -9   6   2 1545.46   96.08
   9  -6  -2 1527.49   91.99
  -9  -6   2 1728.63   99.82
   9   6  -1  621.58   54.57
   9   6  -1  498.53   23.37
  -9   6   1  631.48   50.66
   9  -6  -1  576.32   26.52
   9  -6  -1  590.05   45.07
  -9  -6   1  609.61   47.77
   9   6   0   29.68   20.84
  -9   6   0   86.21   21.21
   9  -6   0   24.77   17.15
  -9  -6   0   12.81   20.64
   9  -6   0   28.45   12.88
   9   6   1  711.15   59.34
  -9   6  -1  622.08   65.37
   9  -6   1  654.31   49.14
  -9  -6  -1  655.08   59.22
   9  -6   1  646.52   42.60
   9   6   2  264.92   37.81
  -9   6  -2  214.14   32.66
   9  -6   2  260.64   35.88
  -9  -6  -2  170.67   38.55
   9  -6   2  213.60   29.42
   9   6   3  667.47   67.75
  -9   6  -3  767.56   63.04
   9  -6   3  698.90   54.77
   9  -6   3  780.58   49.58
  -9  -6  -3  657.37   67.14
   9   6   4  581.71   60.69
  -9   6  -4  548.66   49.50
   9  -6   4  630.86   49.15
   9  -6   4  601.95   56.51
  -9  -6  -4  509.51   61.91
  -9   6  -5  970.46   76.15
   9   6   5  969.86   89.91
   9  -6   5 1108.15   76.45
   9  -6   5 1121.01   87.42
  -9  -6  -5  999.08   96.08
   9   6   6  224.57   37.39
  -9   6  -6   97.72   20.93
  -9   6  -6  215.63   32.48
   9  -6   6  234.71   32.73
  -9  -6  -6  161.65   39.52
   9   6   7   -2.42   30.75
  -9   6  -7   41.43   24.78
  -9   6  -7   46.82   24.02
   9  -6   7   23.02   24.81
  -9  -6  -7   85.00   31.59
   9   6   8  200.64   48.57
  -9   6  -8  207.80   34.52
  -9   6  -8  162.26   31.27
  -9  -6  -8  200.68   45.56
   9  -6   8  208.66   45.56
   9   6   9  109.62   59.31
   9  -6   9  165.74   39.33
  -9  -6  -9  184.22   42.83
   9   7 -15  -16.75   29.98
  -9   7  15   18.95   25.77
   9  -7 -15   35.20   27.46
  -9  -7  15    4.36   25.37
   9   7 -14   30.92   28.40
  -9   7  14   32.75   32.09
  -9  -7  14    7.46   31.07
   9   7 -13  345.14   56.85
  -9   7  13  434.71   52.43
   9  -7 -13  414.80   55.95
  -9  -7  13  283.60   57.17
   9   7 -12  692.13   69.70
  -9   7  12  601.97   67.18
   9  -7 -12  644.55   71.13
  -9  -7  12  580.88   58.19
   9   7 -11  470.23   53.20
  -9   7  11  473.28   54.94
   9  -7 -11  412.33   53.75
  -9  -7  11  356.70   46.64
   9   7 -10  130.17   28.72
  -9   7  10   60.95   31.05
   9  -7 -10   65.57   36.12
  -9  -7  10   85.53   24.87
   9   7  -9  311.88   45.22
  -9   7   9  493.76   49.74
   9  -7  -9  383.19   47.92
  -9  -7   9  374.21   28.68
   9   7  -8  201.45   35.58
  -9   7   8  114.66   36.13
   9  -7  -8  229.96   34.41
  -9  -7   8  150.14   22.48
  -9  -7   8  157.75   34.66
   9   7  -7  753.37   54.36
  -9   7   7  679.46   66.43
  -9  -7   7  733.87   44.08
  -9  -7   7  807.22   59.01
   9  -7  -7  732.58   65.35
   9   7  -6  725.04   53.90
  -9   7   6  697.12   62.36
  -9  -7   6  811.30   51.17
  -9  -7   6  669.02   56.50
   9  -7  -6  782.55   65.22
   9   7  -5  163.36   22.16
  -9   7   5  190.70   31.16
  -9  -7   5  172.67   23.62
  -9  -7   5  188.34   27.15
   9  -7  -5  122.72   31.04
   9   7  -4   -1.41   12.22
  -9   7   4  -18.21   23.76
   9  -7  -4   37.05   18.09
  -9  -7   4   20.97   14.42
  -9  -7   4   22.84   17.39
   9   7  -3 1115.50   73.48
   9   7  -3 1028.20   48.26
  -9   7   3 1050.04   76.93
   9  -7  -3 1122.66   77.59
  -9  -7   3 1112.50   77.91
   9   7  -2 1585.83   96.52
   9   7  -2 1543.04   63.69
  -9   7   2 1567.32  101.31
   9  -7  -2 1618.63   96.76
  -9  -7   2 1669.75   96.45
   9   7  -1  694.57   55.34
  -9   7   1  668.18   54.27
   9  -7  -1  612.29   51.78
  -9  -7   1  571.36   55.35
   9   7   0  348.88   35.38
  -9   7   0  139.29   35.10
   9  -7   0  299.51   31.50
  -9  -7   0  264.33   35.91
   9  -7   0  222.20   18.77
   9   7   1  317.16   38.41
  -9   7  -1  212.92   36.05
   9  -7   1  268.90   32.63
  -9  -7  -1  280.26   39.56
   9  -7   1  265.80   23.16
   9   7   2  147.21   37.77
  -9   7  -2  147.35   26.75
   9  -7   2  135.78   27.44
  -9  -7  -2  130.17   32.25
   9  -7   2  107.71   22.73
   9   7   3  200.96   37.71
  -9   7  -3  119.88   33.37
   9  -7   3  197.49   30.28
   9  -7   3  173.59   23.48
  -9  -7  -3  180.24   34.40
   9   7   4  164.77   35.84
  -9   7  -4  130.34   26.24
   9  -7   4  148.52   28.25
   9  -7   4  124.51   24.31
  -9  -7  -4  109.38   34.15
  -9   7  -5   71.80   25.67
   9   7   5  147.01   35.46
   9  -7   5  154.80   26.47
   9  -7   5  107.11   34.00
  -9  -7  -5  136.10   41.81
   9   7   6  139.98   39.87
  -9   7  -6  178.03   29.96
   9  -7   6  171.41   31.88
  -9  -7  -6  171.19   41.94
   9   7   7    6.62   25.72
  -9   7  -7   -1.76   18.65
  -9   7  -7   -6.51   22.63
   9  -7   7   -0.28   25.69
  -9  -7  -7   21.38   26.66
   9   7   8  619.79   81.01
  -9   7  -8  538.01   57.27
   9  -7   8  623.12   66.32
  -9  -7  -8  680.19   76.17
   9   7   9    9.58   29.20
   9  -7   9    9.30   27.79
  -9  -7  -9  -11.31   27.59
   9   8 -15  -12.52   31.40
  -9   8  15   17.51   29.69
   9  -8 -15   28.79   28.42
  -9  -8  15   49.91   33.11
   9   8 -14  156.23   49.56
  -9   8  14  123.00   36.91
   9  -8 -14  136.60   38.20
  -9  -8  14   69.63   33.10
   9   8 -13  138.90   37.36
  -9   8  13  126.77   36.69
   9  -8 -13  143.06   37.79
  -9  -8  13  128.63   33.26
   9   8 -12  260.76   51.31
  -9   8  12  352.21   51.00
   9  -8 -12  335.51   51.21
  -9  -8  12  307.70   45.46
   9   8 -11   20.61   28.00
  -9   8  11  112.67   28.15
   9  -8 -11   22.92   28.06
  -9  -8  11   22.78   31.19
   9   8 -10  154.88   33.41
  -9   8  10  149.42   37.48
   9  -8 -10  215.62   37.90
  -9  -8  10  119.06   32.35
   9   8  -9  241.23   39.46
  -9   8   9  372.77   45.83
   9  -8  -9  277.39   44.37
  -9  -8   9  280.80   48.82
   9   8  -8  -10.98   18.12
  -9   8   8   32.45   21.99
   9  -8  -8   -4.42   20.22
  -9  -8   8   -4.64    9.65
  -9  -8   8    8.88   18.24
   9   8  -7  154.29   27.72
  -9   8   7  134.82   34.70
  -9  -8   7  133.40   22.42
  -9  -8   7  146.41   29.67
   9  -8  -7  141.71   34.54
   9   8  -6  173.46   26.12
  -9   8   6  175.79   36.61
  -9  -8   6  210.31   26.06
  -9  -8   6  209.41   32.47
   9  -8  -6  213.57   33.59
   9   8  -5  241.38   24.84
  -9   8   5  172.78   35.37
  -9  -8   5  207.73   29.06
  -9  -8   5  210.67   31.73
   9  -8  -5  217.97   34.19
   9   8  -4  693.42   46.89
  -9   8   4  648.67   58.41
   9  -8  -4  724.67   62.54
  -9  -8   4  697.88   48.81
  -9  -8   4  602.81   65.95
   9   8  -3  350.52   40.82
   9   8  -3  410.52   25.47
  -9   8   3  358.92   43.35
   9  -8  -3  469.18   44.52
  -9  -8   3  382.73   45.83
   9   8  -2  642.19   58.30
   9   8  -2  670.25   35.49
  -9   8   2  726.39   61.32
   9  -8  -2  762.92   58.10
  -9  -8   2  764.63   55.22
   9   8  -1  258.37   35.68
  -9   8   1  262.22   36.54
   9  -8  -1  241.27   33.39
  -9  -8   1  233.46   34.38
   9   8   0  348.46   40.75
  -9   8   0  380.58   40.87
   9  -8   0  247.19   39.50
  -9  -8   0  421.98   41.57
   9   8   1  583.51   59.29
  -9   8  -1  605.73   52.44
   9  -8   1  627.14   53.13
  -9  -8  -1  598.03   58.12
   9  -8   1  549.08   35.03
   9   8   2  374.38   46.35
  -9   8  -2  295.22   40.32
   9  -8   2  359.22   42.27
  -9  -8  -2  375.02   46.08
   9  -8   2  352.56   31.78
   9   8   3  316.98   48.60
  -9   8  -3  346.27   38.67
   9  -8   3  320.94   40.27
   9  -8   3  316.11   30.14
  -9  -8  -3  373.94   45.31
   9   8   4   25.76   28.85
  -9   8  -4   39.17   23.61
   9  -8   4   39.52   22.37
   9  -8   4   26.82   21.96
  -9  -8  -4   72.37   28.39
   9   8   5  265.21   43.11
  -9   8  -5  296.12   44.27
   9  -8   5  273.22   39.50
   9  -8   5  248.70   33.53
  -9  -8  -5  243.91   49.36
   9   8   6  475.98   71.04
  -9   8  -6  390.62   52.55
   9  -8   6  384.40   54.77
  -9  -8  -6  469.18   70.29
   9   8   7   88.59   39.60
  -9   8  -7  122.76   36.89
  -9   8  -7  135.38   28.57
   9  -8   7  102.21   30.42
  -9  -8  -7  114.72   39.55
   9   8   8  127.65   43.79
  -9   8  -8  141.71   32.41
   9  -8   8  117.96   43.46
  -9  -8  -8  154.27   45.00
   9   9 -14   -7.56   26.86
  -9   9  14   50.56   26.86
   9  -9 -14  -31.76   25.80
  -9  -9  14   11.89   28.54
   9   9 -13  155.13   41.57
  -9   9  13  127.92   43.26
   9  -9 -13  204.52   39.70
  -9  -9  13  169.09   39.37
   9   9 -12   64.61   28.50
  -9   9  12   -1.91   31.05
   9  -9 -12   43.09   28.71
  -9  -9  12   57.95   27.50
   9   9 -11  128.14   35.02
  -9   9  11  170.08   39.66
   9  -9 -11  146.26   38.93
  -9  -9  11  122.60   34.29
   9   9 -10  612.51   63.51
  -9   9  10  638.94   74.48
   9  -9 -10  734.40   70.59
  -9  -9  10  589.24   75.61
   9   9  -9  693.91   63.98
  -9   9   9  760.05   71.87
   9  -9  -9  707.50   73.96
  -9  -9   9  837.85   80.25
   9   9  -8  360.77   41.64
  -9   9   8  458.68   51.31
   9  -9  -8  354.98   46.64
  -9  -9   8  312.94   28.84
  -9  -9   8  361.43   44.67
   9   9  -7  254.64   33.47
  -9   9   7  350.96   45.74
   9  -9  -7  207.18   42.13
  -9  -9   7  278.86   28.64
  -9  -9   7  320.56   39.16
   9   9  -6 2518.45  132.42
  -9   9   6 2599.96  174.20
  -9  -9   6 2241.23  127.28
  -9  -9   6 2314.33  143.70
   9  -9  -6 2299.71  151.22
   9   9  -5  663.32   47.56
  -9   9   5  655.70   62.99
  -9  -9   5  713.74   53.96
  -9  -9   5  729.84   60.12
   9  -9  -5  759.65   66.74
   9   9  -4  436.50   37.35
   9  -9  -4  481.84   59.42
  -9  -9   4  495.99   39.56
  -9  -9   4  474.32   46.68
   9   9  -3  898.98   69.60
   9   9  -3  919.48   50.84
  -9   9   3  929.93   73.65
   9  -9  -3  900.27   76.12
  -9  -9   3  965.36   73.41
   9   9  -2  489.64   55.38
  -9   9   2  505.68   50.32
   9  -9  -2  482.69   49.55
  -9  -9   2  498.11   46.66
   9   9  -1  251.10   35.72
  -9   9   1  315.58   37.27
   9  -9  -1  212.34   36.81
  -9  -9   1  268.57   33.09
   9   9   0 2535.90  160.42
  -9   9   0 2362.61  150.25
   9  -9   0 2676.77  160.89
  -9  -9   0 2538.16  159.86
   9   9   1  395.73   52.29
  -9   9  -1  412.22   45.89
   9  -9   1  500.27   56.36
  -9  -9  -1  432.21   56.42
   9   9   2  136.47   31.22
  -9   9  -2  121.59   33.47
   9  -9   2   71.74   26.54
   9  -9   2   77.90   18.12
  -9  -9  -2   89.76   30.62
   9   9   3  125.61   31.52
  -9   9  -3   91.43   30.71
   9  -9   3  103.32   28.87
   9  -9   3   68.45   20.64
  -9  -9  -3  136.20   33.17
   9   9   4  934.51   86.40
  -9   9  -4 1074.58   88.82
   9  -9   4  884.78   79.55
   9  -9   4  846.16   59.47
  -9  -9  -4  963.11   91.66
   9   9   5  490.25   62.64
  -9   9  -5  464.55   45.94
   9  -9   5  554.58   54.40
   9  -9   5  443.99   53.61
  -9  -9  -5  518.29   65.55
   9   9   6  298.32   52.19
  -9   9  -6  305.10   36.70
   9  -9   6  235.73   37.83
  -9  -9  -6  298.34   55.00
   9   9   7  205.52   43.10
  -9   9  -7  146.60   36.65
   9  -9   7  152.68   33.27
  -9  -9  -7  156.40   43.99
   9   9   8   34.20   39.82
  -9   9  -8   31.14   24.93
   9  -9   8   29.01   30.99
  -9  -9  -8   15.86   32.21
   9  10 -14  221.63   61.39
  -9  10  14  242.46   51.67
   9 -10 -14  184.91   47.94
  -9 -10  14  218.07   47.81
   9  10 -13   29.77   32.36
  -9  10  13   24.86   35.40
   9 -10 -13   75.02   31.41
  -9 -10  13   75.29   29.94
   9  10 -12  190.51   35.04
  -9  10  12   82.49   47.60
   9 -10 -12   40.72   37.38
  -9 -10  12  137.45   35.54
   9  10 -11   32.71   28.82
  -9  10  11  156.35   38.73
   9 -10 -11   18.64   29.78
  -9 -10  11   40.11   28.48
   9  10 -10  -14.79   25.30
  -9  10  10    4.92   23.15
   9 -10 -10   24.21   22.05
  -9 -10  10  -15.48   20.93
   9  10  -9   16.51   28.10
  -9  10   9   23.32   26.34
   9 -10  -9   29.51   26.31
  -9 -10   9   18.84   23.79
   9  10  -8   80.33   28.38
  -9  10   8  108.00   34.32
   9 -10  -8  155.30   31.79
  -9 -10   8  128.66   29.72
   9  10  -7  289.86   41.22
  -9  10   7  300.16   44.47
   9 -10  -7  249.74   41.05
  -9 -10   7  232.36   26.20
  -9 -10   7  288.80   38.61
   9  10  -6  605.39   47.23
  -9  10   6  551.57   65.16
  -9 -10   6  556.94   39.13
  -9 -10   6  617.17   56.50
   9 -10  -6  669.63   66.82
   9  10  -5  467.01   42.57
  -9  10   5  542.21   57.00
  -9 -10   5  473.51   37.43
  -9 -10   5  430.98   51.15
   9 -10  -5  491.29   57.05
   9  10  -4 1247.32   72.01
  -9  10   4 1290.54   94.94
  -9 -10   4 1235.11   84.55
  -9 -10   4 1225.36   92.34
   9 -10  -4 1176.44   91.04
   9  10  -3  701.23   57.89
   9  10  -3  619.09   41.47
  -9  10   3  669.59   63.42
   9 -10  -3  647.72   60.60
  -9 -10   3  714.70   50.89
   9  10  -2  544.30   54.27
  -9  10   2  582.87   53.40
   9 -10  -2  507.04   50.57
  -9 -10   2  506.15   45.90
   9  10  -1   48.88   27.16
  -9  10   1   29.90   24.03
   9 -10  -1   80.12   24.65
  -9 -10   1   81.44   23.71
   9  10   0  134.15   32.98
  -9  10   0  149.31   28.53
   9 -10   0   96.37   31.29
  -9 -10   0  120.45   31.70
   9  10   1  659.62   83.61
  -9  10  -1  602.30   59.41
   9 -10   1  765.78   68.33
  -9 -10  -1  764.92   67.07
  -9  10  -2  779.50   62.96
   9  10   2  786.96   75.02
  -9 -10  -2  841.34   76.54
   9 -10   2  794.81   72.43
  -9  10  -3  214.14   35.18
   9  10   3  242.91   45.98
  -9 -10  -3  273.71   44.85
   9 -10   3  250.50   40.16
   9  10   4   44.06   28.69
  -9  10  -4    7.48   21.44
   9 -10   4   42.31   24.18
   9 -10   4   19.01   19.68
  -9 -10  -4   31.67   28.04
   9  10   5  238.03   50.94
  -9  10  -5  216.86   41.30
   9 -10   5  366.20   53.15
   9 -10   5  179.88   37.98
  -9 -10  -5  308.18   48.92
   9  10   6  714.32   82.47
   9 -10   6  679.56   61.15
  -9 -10  -6  698.48   81.05
   9  10   7   -9.32   27.87
  -9  10  -7   14.61   25.32
  -9 -10  -7   29.96   26.74
   9  11 -13  201.25   51.94
  -9  11  13  187.59   55.96
   9 -11 -13  155.12   42.01
  -9 -11  13  107.19   41.91
   9  11 -12  341.50   53.99
  -9  11  12  295.33   59.61
   9 -11 -12  294.71   53.41
  -9 -11  12  307.55   51.97
   9  11 -11  170.40   41.41
  -9  11  11  231.59   45.62
   9 -11 -11  191.27   43.45
  -9 -11  11  198.68   51.17
   9  11 -10  290.20   47.99
  -9  11  10  363.48   54.63
   9 -11 -10  365.18   62.89
  -9 -11  10  318.21   49.29
   9  11  -9   69.91   25.99
  -9  11   9   31.67   33.01
   9 -11  -9   36.20   28.82
  -9 -11   9   80.58   29.69
   9  11  -8  145.74   28.63
  -9  11   8  168.31   46.03
   9 -11  -8  109.32   33.18
  -9 -11   8  113.90   33.24
   9  11  -7   57.54   22.30
  -9  11   7   44.11   39.01
   9 -11  -7   71.30   32.11
  -9 -11   7   91.65   28.68
   9  11  -6  242.27   31.27
  -9  11   6  283.66   47.00
  -9 -11   6  253.38   25.60
  -9 -11   6  198.73   41.20
   9 -11  -6  310.38   45.90
   9  11  -5  655.77   51.57
  -9  11   5  799.55   80.77
  -9 -11   5  722.46   66.49
  -9 -11   5  622.50   53.14
   9 -11  -5  664.77   67.02
   9  11  -4   64.87   14.94
  -9  11   4   19.55   33.21
  -9 -11   4   69.63   23.27
  -9 -11   4   45.99   27.82
   9 -11  -4  116.23   28.10
   9  11  -3   93.78   30.07
  -9  11   3  109.84   29.08
   9 -11  -3  111.66   36.93
  -9 -11   3   83.73   24.47
   9  11  -2  297.74   41.91
  -9  11   2  245.13   40.27
   9 -11  -2  311.06   42.33
  -9 -11   2  261.81   44.20
   9  11  -1  435.13   54.05
  -9  11   1  472.33   49.71
   9 -11  -1  455.85   53.64
  -9 -11   1  482.09   59.06
   9  11   0  288.16   42.09
  -9  11   0  224.75   47.25
   9 -11   0  375.25   44.39
  -9 -11   0  283.99   49.72
   9  11   1  131.27   37.12
  -9  11  -1  142.77   28.80
   9 -11   1  175.59   36.11
  -9 -11  -1  145.93   32.68
  -9  11  -2  194.39   33.34
   9  11   2  251.94   45.87
  -9 -11  -2  270.52   42.34
   9 -11   2  201.12   40.36
  -9  11  -3  160.57   28.64
   9  11   3  174.95   40.20
  -9 -11  -3  121.89   46.28
   9 -11   3  130.18   35.09
  -9  11  -4  427.64   47.19
   9  11   4  498.05   65.41
  -9 -11  -4  550.70   64.56
   9 -11   4  433.08   60.38
  -9  11  -5  248.05   42.42
   9  11   5  181.60   47.69
  -9 -11  -5  188.95   47.91
   9 -11   5  296.80   43.80
   9  11   6   46.32   32.25
  -9  11  -6   10.49   19.33
  -9 -11  -6   43.52   29.14
   9  12 -12  367.01   57.33
  -9  12  12  270.92   64.90
   9 -12 -12  368.71   55.03
  -9 -12  12  399.48   56.84
   9  12 -11   -8.65   25.16
  -9  12  11  -30.06   28.49
   9 -12 -11    1.49   24.97
  -9 -12  11   53.10   26.40
   9  12 -10  202.61   39.38
  -9  12  10  192.06   45.93
   9 -12 -10  165.52   38.61
  -9 -12  10  147.35   42.74
   9  12  -9   55.19   25.19
  -9  12   9   59.04   31.55
   9 -12  -9   18.75   30.64
  -9 -12   9   68.64   28.80
   9  12  -8  185.02   33.76
  -9  12   8  187.30   43.39
   9 -12  -8  235.37   43.24
  -9 -12   8  135.74   39.68
   9  12  -7   92.59   34.52
  -9  12   7  161.34   41.46
   9 -12  -7  192.75   39.84
  -9 -12   7  193.75   35.35
   9  12  -6  239.82   30.24
  -9  12   6  293.78   47.68
   9 -12  -6  220.57   44.74
  -9 -12   6  257.58   40.45
   9  12  -5  533.34   47.75
  -9  12   5  563.69   62.96
  -9 -12   5  508.11   40.82
  -9 -12   5  585.06   59.76
   9 -12  -5  579.72   61.95
  -9  12   4  250.20   41.24
  -9 -12   4  182.92   39.61
  -9 -12   4  227.51   33.31
   9 -12  -4  200.49   39.64
   9  12  -3  375.62   45.59
  -9  12   3  371.16   46.11
   9 -12  -3  253.48   44.35
  -9 -12   3  258.43   43.14
   9  12  -2  196.60   34.72
  -9  12   2  123.10   39.69
   9 -12  -2  133.28   36.28
  -9 -12   2  164.65   30.74
   9  12  -1  116.73   33.79
  -9  12   1  106.18   29.32
   9 -12  -1  146.73   34.08
  -9 -12   1  128.10   35.41
   9  12   0  343.37   52.08
  -9  12   0  288.70   51.69
   9 -12   0  456.98   60.70
  -9 -12   0  359.95   45.50
   9  12   1   66.31   32.29
  -9  12  -1   50.99   23.93
   9 -12   1   28.17   28.87
  -9 -12  -1  128.88   28.02
  -9  12  -2  308.94   42.07
   9  12   2  332.23   64.08
  -9 -12  -2  303.43   47.04
   9 -12   2  379.89   48.49
  -9  12  -3  162.86   37.96
   9  12   3  242.95   46.95
  -9 -12  -3  187.46   41.83
   9 -12   3  251.96   40.63
  -9  12  -4  101.55   24.87
   9  12   4   43.88   35.62
  -9 -12  -4   71.62   33.56
   9 -12   4   93.70   31.94
   9  12   5   -7.15   29.66
   9 -12   5   44.58   25.17
  -9 -12  -5  -15.90   28.64
   9  13 -11   86.49   31.75
  -9  13  11   39.74   39.81
   9 -13 -11  148.49   43.60
  -9 -13  11   20.88   35.30
   9  13 -10  316.60   52.66
  -9  13  10  316.31   57.07
   9 -13 -10  371.83   56.46
  -9 -13  10  319.23   54.95
   9  13  -9   62.19   33.53
  -9  13   9   38.69   36.48
   9 -13  -9   81.21   34.10
  -9 -13   9   56.34   31.83
   9  13  -8   45.03   35.93
  -9  13   8  145.87   40.77
   9 -13  -8  127.54   34.40
  -9 -13   8  141.63   32.95
   9  13  -7   92.24   22.69
  -9  13   7   44.15   34.97
   9 -13  -7   32.16   30.46
  -9 -13   7   64.98   30.22
   9  13  -6  344.23   37.08
  -9  13   6  447.17   60.78
   9 -13  -6  424.93   55.84
  -9 -13   6  301.65   55.10
   9  13  -5   90.80   18.86
  -9  13   5   90.43   31.27
  -9 -13   5   61.16   17.52
  -9 -13   5   83.98   32.68
   9 -13  -5  104.50   37.69
  -9  13   4 1037.05   87.26
   9 -13  -4  859.35   84.85
  -9 -13   4  853.28   85.96
  -9 -13   4  836.99   68.75
   9  13  -3  131.55   34.56
  -9  13   3  132.14   39.68
   9 -13  -3   93.61   33.79
  -9 -13   3  110.89   24.64
   9  13  -2  155.57   39.95
  -9  13   2  224.47   36.80
   9 -13  -2  139.91   41.25
  -9 -13   2  212.49   31.36
   9  13  -1   46.16   27.83
  -9  13   1   26.44   23.87
   9 -13  -1    0.76   27.30
  -9 -13   1   43.38   26.32
   9  13   0  347.20   51.80
  -9  13   0  278.88   41.86
   9 -13   0  289.06   52.52
  -9 -13   0  343.90   42.55
   9  13   1   25.98   27.45
  -9  13  -1   44.09   21.49
   9 -13   1   32.11   26.49
  -9 -13  -1  -10.10   24.05
  -9  13  -2  306.33   40.69
   9  13   2  411.26   59.30
  -9 -13  -2  348.75   49.94
   9 -13   2  318.68   63.59
  -9  13  -3   17.42   20.65
   9  13   3   73.17   29.19
  -9 -13  -3   12.74   26.05
   9 -13   3    2.18   28.91
   9  13   4  417.54   60.64
   9 -13   4  304.16   54.17
  -9 -13  -4  322.46   56.91
   9  14 -10   -7.56   24.21
  -9  14  10    1.50   28.38
   9 -14 -10  -12.34   26.02
  -9 -14  10    9.97   27.01
   9  14  -9   52.77   26.29
  -9  14   9   39.73   34.56
   9 -14  -9   51.40   30.48
  -9 -14   9    6.67   29.67
   9  14  -8  138.07   32.46
  -9  14   8  119.42   46.01
   9 -14  -8  147.97   40.91
  -9 -14   8  140.58   39.18
   9  14  -7   35.56   24.41
  -9  14   7  115.41   36.57
   9 -14  -7   42.74   31.48
  -9 -14   7  103.02   32.63
  -9  14   6  127.58   37.56
   9 -14  -6   99.33   34.97
  -9 -14   6   64.29   34.36
  -9  14   5   -2.50   27.92
   9 -14  -5   32.86   27.00
  -9 -14   5   30.50   27.91
  -9  14   4  259.79   43.72
  -9 -14   4  250.77   46.03
  -9 -14   4  197.57   29.36
   9 -14  -4  168.38   46.17
   9  14  -3  214.21   43.31
  -9  14   3  239.54   43.25
   9 -14  -3  202.15   44.29
  -9 -14   3  253.18   38.55
   9  14  -2  -21.89   28.64
  -9  14   2   49.07   32.51
   9 -14  -2    8.03   29.51
  -9 -14   2   76.36   22.11
   9  14  -1  222.66   42.80
  -9  14   1  176.15   35.79
   9 -14  -1  273.62   45.14
  -9 -14   1  117.10   32.92
   9  14   0  109.72   32.84
  -9  14   0   21.12   24.68
   9 -14   0  103.68   32.59
  -9 -14   0   71.67   33.70
   9  14   1   57.38   28.19
  -9  14  -1   -4.41   25.76
   9 -14   1   36.05   27.01
  -9 -14  -1    0.13   25.19
   9  14   2  377.64   56.60
  -9  14  -2  251.07   40.22
   9 -14   2  292.39   53.71
  -9 -14  -2  364.26   50.96
   9  14   3   55.84   35.84
   9 -14   3   73.39   41.82
  -9 -14  -3   48.54   33.60
   9  15  -8  195.57   35.90
  -9  15   8  208.22   49.71
   9 -15  -8  132.84   45.21
  -9 -15   8  189.85   42.15
  -9  15   7   30.59   33.04
   9 -15  -7   37.11   27.39
  -9 -15   7   -8.09   27.70
  -9  15   6  259.17   50.28
   9 -15  -6  222.13   45.66
  -9 -15   6  135.46   55.71
  -9  15   5   29.07   32.58
   9 -15  -5   19.18   30.17
  -9 -15   5  103.05   31.76
  -9  15   4  154.50   40.73
   9 -15  -4  154.34   41.08
  -9 -15   4  161.63   40.85
   9  15  -3   49.21   40.13
  -9  15   3  151.68   34.08
   9 -15  -3   59.10   36.35
   9  15  -2   -7.91   24.60
  -9  15   2  -19.64   27.59
   9 -15  -2  -11.18   28.44
  -9 -15   2   -8.78   20.31
   9  15  -1  158.75   45.40
  -9  15   1  242.42   39.53
   9 -15  -1  252.25   48.32
  -9 -15   1  213.18   38.06
   9  15   0  403.92   73.06
  -9  15   0  400.70   48.69
   9 -15   0  335.72   55.90
  -9 -15   0  285.12   50.77
   9  15   1  647.06   64.39
  -9  15  -1  206.05   44.17
   9 -15   1  379.05   62.80
  -9 -15  -1  365.66   64.36
  -9 -15  -2  152.09   37.41
  -9  16   6   44.03   38.23
   9 -16  -6   98.52   33.83
  -9 -16   6   39.46   36.02
  -9  16   5   27.87   35.95
   9 -16  -5   -1.26   28.05
  -9 -16   5   26.97   29.32
   9  16  -4   28.65   22.86
  -9  16   4   21.84   28.41
   9 -16  -4   30.37   30.51
   9  16  -3   73.95   42.43
  -9  16   3  189.13   38.17
   9 -16  -3  162.53   54.93
   9  16  -2  136.82   42.25
  -9  16   2  137.37   46.77
   9 -16  -2  107.49   39.69
   9  16  -1  312.61   58.55
  -9  16   1  321.05   48.47
   9 -16  -1  332.66   59.24
  -9 -16   1  376.50   46.36
  10   0 -16   30.73   31.62
  10   0 -15  488.80   67.67
  10   0 -14  773.04   74.14
 -10   0  14  522.83   50.06
  10   0 -13  170.52   41.39
 -10   0  13  206.28   32.11
 -10   0  13  156.16   26.36
  10   0 -12 1324.44   98.05
 -10   0  12 1206.77   77.32
 -10   0  12 1071.71   73.75
  10   0 -11   11.18   24.29
 -10   0  11   15.37   22.20
 -10   0  11   20.84   12.49
  10   0 -10 3030.61  193.60
 -10   0  10 2988.87  165.07
 -10   0  10 3057.09  147.98
  10   0  -9   94.40   23.38
 -10   0   9   46.69   22.79
 -10   0   9    3.61   14.05
  10   0  -8  545.34   50.27
 -10   0   8  506.78   32.93
 -10   0   8  531.56   45.95
  10   0  -7  283.10   39.46
 -10   0   7  279.06   39.53
 -10   0   7  274.31   21.63
  10   0  -6 1290.48   54.49
  10   0  -6 1522.57   85.20
 -10   0   6 1302.16   92.59
  10   0  -5  233.38   22.33
  10   0  -5  295.29   30.56
 -10   0   5  251.02   34.02
  10   0  -4 1602.60   67.77
  10   0  -4 1680.29   86.68
 -10   0   4 1648.58  102.50
  10   0  -3   55.03   15.81
  10   0  -3   11.15   16.01
 -10   0   3   86.73   22.57
  10   0  -2   49.05   14.95
  10   0  -2   82.47   15.57
 -10   0   2   91.83   25.78
  10   0  -1   64.59   20.45
  10   0  -1   82.30   15.78
 -10   0   1   51.22   26.61
  10   0   0 1196.34   63.69
  10   0   0 1119.20   52.05
 -10   0   0 1343.85   87.82
  10   0   1  469.53   37.70
  10   0   1  445.86   25.24
 -10   0  -1  482.51   48.47
  10   0   2 1162.16   73.33
  10   0   2 1217.25   60.26
 -10   0  -2 1336.25  113.39
  10   0   3   16.22   21.26
 -10   0  -3  -13.22   20.44
  10   0   4   24.92   20.89
 -10   0  -4    3.35   25.36
  10   0   5   39.48   24.62
 -10   0  -5   53.05   27.24
  10   0   6  127.73   38.72
 -10   0  -6  292.43   42.06
  10   0   7  -11.57   22.56
 -10   0  -7   17.58   23.55
  10   0   8  122.36   36.65
 -10   0  -8  104.53   33.52
  10   0   9   24.17   30.21
 -10   0  -9   44.60   29.07
  10   1 -16   62.63   43.94
  10  -1 -16   34.41   34.06
  10   1 -15  109.95   38.14
 -10   1  15   61.35   28.38
  10  -1 -15  181.17   38.60
  10   1 -14  514.33   63.79
 -10   1  14  392.65   42.02
  10  -1 -14  509.55   62.31
 -10  -1  14  350.46   36.42
 -10  -1  14  387.23   37.30
  10   1 -13   45.36   30.32
 -10   1  13   66.12   20.23
  10  -1 -13   22.23   31.06
 -10  -1  13   70.78   17.75
 -10  -1  13   61.20   16.88
  10   1 -12   95.67   27.62
 -10   1  12   16.16   18.27
  10  -1 -12   33.43   27.03
 -10  -1  12    5.55   16.51
 -10  -1  12   13.33   18.04
  10   1 -11  802.62   71.96
 -10   1  11  770.61   60.13
  10  -1 -11  801.08   81.32
 -10  -1  11  786.75   61.11
 -10  -1  11  666.21   53.33
  10   1 -10  467.49   49.64
 -10   1  10  367.32   29.20
 -10   1  10  433.62   52.14
 -10  -1  10  441.95   44.18
  10  -1 -10  533.51   53.38
 -10  -1  10  439.05   32.31
  10   1  -9 1228.67   84.33
 -10   1   9 1037.76   52.50
 -10   1   9 1278.79   79.73
  10  -1  -9 1181.11   88.50
 -10  -1   9 1255.30   75.21
 -10  -1   9 1162.32   66.60
  10   1  -8  691.18   53.34
 -10   1   8  618.44   50.95
 -10   1   8  524.83   30.76
  10  -1  -8  638.77   54.72
 -10  -1   8  628.47   48.66
 -10  -1   8  639.01   40.82
 -10   1   7 3201.13  174.14
  10   1  -7 3157.82  172.61
  10  -1  -7 3167.39  174.90
  10  -1  -7 2977.43  109.26
 -10  -1   7 3153.96  167.94
 -10  -1   7 3072.05  131.86
  10   1  -6  140.30   16.15
 -10   1   6  163.05   26.79
  10   1  -6  126.07   24.13
  10  -1  -6  175.10   26.12
  10  -1  -6  149.45   14.79
 -10  -1   6  150.50   33.32
  10   1  -5 1161.37   60.70
 -10   1   5 1193.69   79.24
  10   1  -5 1243.11   79.09
  10  -1  -5 1140.05   75.72
  10  -1  -5 1193.04   50.23
 -10  -1   5 1304.12   80.71
  10   1  -4 1371.89   67.84
 -10   1   4 1394.03   88.56
  10   1  -4 1291.50   81.02
  10  -1  -4 1434.32   87.86
  10  -1  -4 1358.33   58.98
 -10  -1   4 1449.36   86.92
  10   1  -3  933.18   54.59
 -10   1   3  932.69   72.20
  10   1  -3  907.33   48.95
  10  -1  -3  854.75   53.40
  10  -1  -3  867.75   46.25
 -10  -1   3 1026.95   70.14
  10   1  -2 3232.28  147.54
 -10   1   2 3109.87  169.22
  10   1  -2 2637.16  122.93
  10  -1  -2 3061.31  139.25
  10  -1  -2 3099.17  126.25
 -10  -1   2 3585.72  208.44
  10   1  -1  198.77   29.29
 -10   1   1  221.83   34.24
  10   1  -1  186.33   16.87
  10  -1  -1  151.20   21.11
  10  -1  -1  204.22   20.41
 -10  -1   1  226.89   33.14
  10   1   0  100.30   25.48
 -10   1   0  105.94   29.26
  10   1   0   94.20   15.56
 -10  -1   0   94.34   24.82
  10  -1   0   91.93   18.16
  10   1   1  548.36   44.21
  10   1   1  521.79   28.61
 -10   1  -1  538.54   56.18
  10  -1   1  544.19   41.39
  10  -1   1  608.63   32.52
 -10  -1  -1  631.06   56.06
  10   1   2  836.85   62.19
 -10   1  -2  961.96   76.68
  10  -1   2  982.94   71.77
  10  -1   2  904.56   52.22
 -10  -1  -2  984.93   94.70
 -10   1  -3  186.29   40.37
  10   1   3  155.37   30.20
  10  -1   3  157.73   28.50
  10  -1   3  147.43   17.72
 -10  -1  -3  233.37   37.53
  10   1   4  965.66   74.18
 -10   1  -4  842.54   82.19
  10  -1   4  957.39   69.65
 -10  -1  -4  905.06   83.94
  10   1   5  183.22   39.76
 -10   1  -5  108.89   35.87
  10  -1   5  180.45   37.08
 -10  -1  -5  140.32   35.00
  10   1   6  -20.93   26.54
 -10   1  -6   54.23   25.09
  10  -1   6   40.11   24.66
 -10  -1  -6   10.36   25.18
  10   1   7  173.82   35.18
 -10   1  -7   54.44   34.40
  10  -1   7   86.33   34.26
 -10  -1  -7  161.97   34.95
  10   1   8  390.88   70.12
 -10   1  -8  473.73   57.56
  10  -1   8  329.89   57.40
 -10  -1  -8  374.26   58.57
  10   1   9   91.02   36.35
 -10   1  -9   80.77   32.81
  10  -1   9   73.42   34.03
 -10  -1  -9   72.50   31.99
  10   2 -16  -42.66   32.05
  10  -2 -16   11.41   31.42
  10   2 -15   95.58   35.24
 -10   2  15   28.87   26.85
  10  -2 -15   77.75   34.59
 -10  -2  15   17.98   23.63
  10   2 -14  677.84   74.78
 -10   2  14  607.43   55.57
  10  -2 -14  703.94   77.85
 -10  -2  14  581.62   57.84
  10   2 -13  357.96   54.88
 -10   2  13  414.14   43.22
 -10  -2  13  325.16   31.74
 -10  -2  13  369.64   41.13
  10  -2 -13  550.02   57.18
  10   2 -12  114.24   34.30
 -10   2  12  130.20   25.66
 -10  -2  12   97.14   20.42
 -10  -2  12  103.74   24.35
  10  -2 -12   93.96   33.83
  10   2 -11  379.18   47.01
 -10   2  11  315.44   46.03
  10  -2 -11  327.70   46.94
 -10  -2  11  360.78   36.43
 -10  -2  11  250.30   30.78
  10   2 -10  708.77   64.57
 -10   2  10  632.59   55.76
  10  -2 -10  747.73   67.19
 -10  -2  10  650.48   48.05
 -10  -2  10  696.13   50.55
  10   2  -9  992.04   79.03
 -10   2   9 1090.84   74.20
  10  -2  -9 1134.31   81.60
 -10  -2   9 1012.16   65.86
 -10  -2   9 1036.53   75.45
  10   2  -8  214.30   30.63
 -10   2   8  264.04   33.00
  10  -2  -8  192.52   34.65
 -10  -2   8  250.79   28.73
 -10  -2   8  195.29   21.86
  10   2  -7    0.28   21.09
 -10   2   7   14.54   17.91
  10  -2  -7   12.62   18.10
 -10  -2   7    6.30   11.28
 -10  -2   7   -3.24   15.51
 -10   2   6  462.31   46.68
  10   2  -6  524.84   42.97
  10  -2  -6  572.62   48.02
  10  -2  -6  461.30   22.88
 -10  -2   6  546.92   33.30
 -10  -2   6  515.48   43.09
  10   2  -5  330.43   29.55
 -10   2   5  371.88   37.06
  10   2  -5  277.37   29.51
  10  -2  -5  293.16   34.77
  10  -2  -5  268.80   17.32
 -10  -2   5  301.23   33.66
  10   2  -4 1988.47  101.95
 -10   2   4 1943.52  124.45
  10   2  -4 2097.70   99.42
  10  -2  -4 2055.16  109.93
  10  -2  -4 1946.90   73.62
 -10  -2   4 2179.57  124.78
  10   2  -3   52.45   18.05
 -10   2   3    8.23   24.31
  10   2  -3   25.17   13.98
  10  -2  -3   59.29   17.79
  10  -2  -3   35.32   10.06
 -10  -2   3   53.44   20.53
  10   2  -2 2209.86  107.40
 -10   2   2 2182.83  133.21
  10   2  -2 2086.21   89.54
  10  -2  -2 2040.60   99.55
  10  -2  -2 2021.59   79.08
 -10  -2   2 2178.04  124.97
  10   2  -1   10.30   19.94
  10   2  -1    4.89   11.49
 -10   2   1   59.95   21.44
  10  -2  -1   26.27   13.86
  10  -2  -1   -8.20   18.12
 -10  -2   1   67.29   21.40
  10   2   0 2221.13  125.33
  10   2   0 2050.90   83.63
 -10   2   0 2471.43  144.67
  10  -2   0 2067.00   97.51
  10  -2   0 2022.08  105.84
 -10  -2   0 2177.08  135.75
  10   2   1  285.95   34.75
  10   2   1  270.16   18.81
 -10   2  -1  321.56   39.38
  10  -2   1  271.84   32.94
  10  -2   1  292.91   24.48
 -10  -2  -1  336.39   42.18
  10   2   2  429.39   42.70
 -10   2  -2  370.76   48.28
  10  -2   2  415.03   35.75
 -10  -2  -2  437.33   52.41
  10  -2   2  360.00   44.27
 -10   2  -3  116.91   28.71
  10   2   3  115.30   25.80
  10  -2   3   87.55   22.38
  10  -2   3   68.58   19.62
 -10  -2  -3  142.61   32.40
 -10   2  -4    0.01   21.60
  10   2   4  -26.93   19.69
  10  -2   4   14.67   16.10
  10  -2   4    8.30   12.17
 -10  -2  -4   11.36   21.67
  10   2   5  210.68   49.12
 -10   2  -5  215.35   42.18
  10  -2   5  275.94   36.59
 -10  -2  -5  262.54   44.61
  10   2   6  621.32   66.46
 -10   2  -6  524.89   61.45
  10  -2   6  566.46   58.54
 -10  -2  -6  547.45   67.99
  10   2   7  232.47   45.25
 -10   2  -7  251.37   43.45
  10  -2   7  209.24   41.59
 -10  -2  -7  269.23   45.80
  10   2   8   29.69   29.08
 -10   2  -8   37.12   26.13
  10  -2   8   26.17   31.88
 -10  -2  -8    9.46   28.21
  10   2   9  110.25   39.59
 -10   2  -9  151.01   35.42
  10  -2   9   69.76   38.20
 -10  -2  -9  104.88   38.03
  10   3 -16   24.79   38.48
  10  -3 -16  139.53   44.29
  10   3 -15  258.00   54.38
 -10   3  15  254.18   39.23
  10  -3 -15  320.92   53.45
 -10  -3  15  239.45   43.80
  10   3 -14  139.19   44.10
 -10   3  14  158.73   36.69
  10  -3 -14  160.32   42.46
 -10  -3  14  173.65   35.15
  10   3 -13  380.20   56.20
 -10   3  13  333.47   43.01
  10  -3 -13  350.56   49.57
 -10  -3  13  382.23   37.35
  10   3 -12  190.71   38.42
 -10   3  12  168.29   30.67
 -10  -3  12  153.16   24.78
 -10  -3  12  145.21   25.07
  10  -3 -12  189.70   37.38
  10   3 -11   96.92   30.43
 -10   3  11   95.55   27.82
 -10  -3  11  118.42   21.44
 -10  -3  11  106.00   18.50
  10  -3 -11   94.91   29.85
  10   3 -10  958.42   78.63
 -10   3  10  954.60   78.93
  10  -3 -10 1053.97   83.34
 -10  -3  10 1049.42   67.37
 -10  -3  10  936.89   65.81
  10   3  -9  173.03   30.12
 -10   3   9  165.06   29.53
  10  -3  -9  142.44   32.15
 -10  -3   9  112.41   22.61
 -10  -3   9  158.61   28.24
  10   3  -8  529.22   54.86
 -10   3   8  750.37   61.44
  10  -3  -8  829.29   63.51
 -10  -3   8  788.48   47.84
 -10  -3   8  763.75   49.37
  10   3  -7 1072.53   67.91
 -10   3   7 1111.58   79.54
  10  -3  -7 1186.41   80.28
 -10  -3   7 1037.29   61.21
 -10  -3   7 1083.72   65.66
  10   3  -6  284.34   33.10
 -10   3   6  423.44   41.64
 -10  -3   6  382.97   29.55
 -10  -3   6  373.32   36.89
  10   3  -5 1111.58   58.92
  10   3  -5 1095.86   61.52
 -10   3   5 1074.77   76.37
  10  -3  -5  720.74   69.72
 -10  -3   5 1250.00   82.88
  10   3  -4   10.18   15.28
 -10   3   4   27.97   21.24
  10   3  -4   29.09   14.46
  10  -3  -4   58.22   18.60
  10  -3  -4   41.15    8.36
 -10  -3   4   43.43   20.51
  10   3  -3  875.31   62.17
 -10   3   3  897.14   69.51
  10   3  -3  918.27   46.18
  10  -3  -3  984.69   58.76
  10  -3  -3  858.34   37.48
 -10  -3   3  880.63   64.03
  10   3  -2 1975.24  102.96
  10   3  -2 1939.24   83.75
 -10   3   2 1942.39  120.91
  10  -3  -2 1792.04   76.24
  10  -3  -2 1848.19   97.05
 -10  -3   2 1913.31  116.83
  10   3  -1  294.58   30.30
  10   3  -1  202.22   19.61
 -10   3   1  267.87   37.03
  10  -3  -1  245.77   22.65
  10  -3  -1  233.64   25.07
 -10  -3   1  278.33   38.13
  10   3   0  363.94   36.19
  10   3   0  333.85   20.40
 -10   3   0  311.36   42.95
  10  -3   0  353.01   31.19
  10  -3   0  333.01   29.81
 -10  -3   0  469.73   51.74
  10   3   1  786.57   60.01
 -10   3  -1  780.58   66.57
  10  -3   1  576.41   44.01
 -10  -3  -1 1069.32   75.46
  10  -3   1  731.82   46.52
  10   3   2  207.56   32.39
 -10   3  -2  230.45   34.85
  10  -3   2  202.62   23.93
 -10  -3  -2  197.52   40.03
  10  -3   2  141.87   32.05
 -10   3  -3   81.53   23.73
  10   3   3   50.10   22.99
  10  -3   3   29.35   18.50
  10  -3   3   36.39   15.21
 -10  -3  -3   57.75   26.69
 -10   3  -4  355.64   62.73
  10   3   4  403.05   47.28
  10  -3   4  397.73   41.59
  10  -3   4  383.62   33.00
 -10  -3  -4  498.00   55.33
 -10   3  -5  964.72   79.28
  10   3   5  842.27   83.09
  10  -3   5  833.69   78.85
  10  -3   5  900.69   58.85
 -10  -3  -5  903.45   83.42
  10   3   6   81.56   32.58
 -10   3  -6  111.79   32.58
  10  -3   6   53.41   35.37
 -10  -3  -6  106.23   32.94
  10   3   7  134.53   37.18
 -10   3  -7  134.43   32.29
  10  -3   7   78.00   30.86
 -10  -3  -7   42.59   43.72
  10   3   8  413.51   77.80
 -10   3  -8  391.00   55.80
  10  -3   8  368.67   55.85
 -10  -3  -8  398.89   57.22
  10   4 -16   72.05   46.46
 -10   4  16   66.26   33.45
  10  -4 -16   74.34   42.34
 -10  -4  16   47.66   25.85
  10   4 -15  260.72   52.74
 -10   4  15  280.42   47.41
  10  -4 -15  268.69   50.55
 -10  -4  15  135.44   44.12
  10   4 -14  198.29   43.43
 -10   4  14  127.96   34.51
  10  -4 -14  204.06   43.61
 -10  -4  14  149.73   36.91
  10   4 -13  239.06   44.06
 -10   4  13  167.55   34.46
  10  -4 -13  160.37   42.92
 -10  -4  13  204.15   36.78
  10   4 -12   86.20   33.91
 -10   4  12   83.98   28.27
  10  -4 -12  113.62   34.41
 -10  -4  12  109.58   30.27
  10   4 -11   21.77   24.92
 -10   4  11   14.64   22.12
 -10  -4  11   38.05   20.65
 -10  -4  11   30.38   15.90
  10  -4 -11   -0.13   25.80
  10   4 -10  582.01   76.06
 -10   4  10  733.36   63.28
 -10  -4  10  756.73   63.95
 -10  -4  10  686.35   49.36
  10  -4 -10  817.58   70.62
  10   4  -9   97.47   28.28
 -10   4   9  120.09   28.30
 -10  -4   9   79.51   24.56
 -10  -4   9  103.12   19.49
  10  -4  -9  111.70   29.20
  10   4  -8  101.34   31.36
 -10   4   8  149.88   28.43
  10  -4  -8  119.83   30.22
 -10  -4   8   87.82   22.22
 -10  -4   8  133.26   23.36
  10   4  -7  102.82   25.05
 -10   4   7   80.39   29.93
  10  -4  -7  153.10   29.32
 -10  -4   7  131.07   21.41
 -10  -4   7  107.51   27.98
  10   4  -6  495.62   41.81
 -10   4   6  622.42   64.42
  10  -4  -6  576.33   52.37
 -10  -4   6  587.31   48.60
 -10  -4   6  545.90   44.07
  10   4  -5 1338.18   81.26
 -10   4   5 1450.54  101.90
  10  -4  -5 1478.80   93.72
 -10  -4   5 1397.27   84.02
  10   4  -4  284.00   38.14
  10   4  -4  295.70   32.70
 -10   4   4  299.58   40.88
  10  -4  -4  345.50   37.17
 -10  -4   4  320.70   35.19
  10   4  -3  125.97   22.55
  10   4  -3  131.96   19.79
 -10   4   3  106.51   34.95
  10  -4  -3  107.46   24.73
 -10  -4   3  116.76   26.63
  10   4  -2  132.91   24.76
  10   4  -2  153.56   16.94
 -10   4   2   96.03   28.11
  10  -4  -2  103.22   14.86
  10  -4  -2  144.79   23.68
 -10  -4   2  178.72   29.07
  10   4  -1  127.27   29.97
  10   4  -1  106.25   13.06
 -10   4   1   97.45   27.86
  10  -4  -1  107.81   15.98
  10  -4  -1   78.59   21.13
 -10  -4   1  137.62   28.25
  10   4   0  872.99   64.67
 -10   4   0  847.65   66.98
  10  -4   0  791.71   52.39
 -10  -4   0  999.97   73.33
  10  -4   0  784.90   47.91
  10   4   1  712.70   59.32
 -10   4  -1  701.38   65.11
  10  -4   1  655.47   45.58
 -10  -4  -1  659.60   62.24
  10  -4   1  667.32   48.39
  10   4   2  125.18   28.13
 -10   4  -2   94.97   30.50
  10  -4   2   83.80   25.92
 -10  -4  -2  112.35   28.97
  10  -4   2   92.16   23.98
  10   4   3  672.08   71.48
 -10   4  -3  590.62   58.89
  10  -4   3  644.03   44.29
  10  -4   3  539.55   47.42
 -10  -4  -3  646.94   64.20
 -10   4  -4 1270.84   94.71
  10   4   4 1273.13  111.54
  10  -4   4 1266.65   82.98
  10  -4   4 1294.77   86.48
 -10  -4  -4 1207.10  107.94
 -10   4  -5   11.67   27.62
  10   4   5   33.01   25.01
  10  -4   5    5.52   18.74
  10  -4   5   14.74   16.31
 -10  -4  -5   -0.59   24.92
  10   4   6  365.11   49.45
 -10   4  -6  226.99   38.71
 -10   4  -6  349.29   45.60
  10  -4   6  283.65   48.99
 -10  -4  -6  292.11   50.66
  10   4   7   49.57   34.09
 -10   4  -7   52.61   26.42
  10  -4   7   32.98   32.70
 -10  -4  -7   84.08   32.86
  10   4   8  288.31   51.60
 -10   4  -8  274.05   46.61
  10  -4   8  245.03   48.64
 -10  -4  -8  310.19   55.16
  10   5 -16  -16.74   36.31
 -10   5  16   27.21   28.00
  10  -5 -16   14.62   34.77
 -10  -5  16  -20.24   21.44
  10   5 -15  239.66   46.10
 -10   5  15  185.54   38.40
  10  -5 -15  114.26   45.70
 -10  -5  15  204.09   43.46
  10   5 -14   45.32   34.99
 -10   5  14   16.64   27.73
  10  -5 -14   90.32   32.91
 -10  -5  14   94.24   25.19
  10   5 -13  773.32   93.72
 -10   5  13  687.35   72.07
  10  -5 -13  781.48   79.79
 -10  -5  13  570.52   67.33
 -10   5  12  494.91   51.39
  10   5 -12  444.97   58.39
 -10  -5  12  346.52   42.99
  10  -5 -12  351.39   57.70
  10   5 -11  331.68   45.79
 -10   5  11  297.43   41.19
  10  -5 -11  253.99   46.40
 -10  -5  11  265.76   35.21
 -10  -5  11  300.77   30.80
  10   5 -10  329.16   45.21
 -10   5  10  281.63   44.30
  10  -5 -10  336.53   49.11
 -10  -5  10  298.62   43.17
 -10  -5  10  364.41   34.27
  10   5  -9  549.63   52.21
 -10   5   9  569.36   53.68
  10  -5  -9  466.74   59.38
 -10  -5   9  516.38   54.12
 -10  -5   9  472.43   34.97
  10   5  -8  915.77   74.93
 -10   5   8  873.23   77.64
 -10  -5   8  948.71   61.07
 -10  -5   8  897.28   56.18
  10  -5  -8 1063.20   79.31
  10   5  -7 2521.62  148.67
 -10   5   7 2551.20  156.45
  10  -5  -7 2526.35  157.48
 -10  -5   7 2427.50  149.03
 -10  -5   7 2523.23  129.71
  10   5  -6 1539.98   90.49
 -10   5   6 1469.08  101.83
  10  -5  -6 1491.05  104.59
 -10  -5   6 1454.44   85.24
 -10  -5   6 1503.35   99.52
  10   5  -5 1165.33   64.35
 -10   5   5 1301.30   91.51
  10  -5  -5 1181.87   84.46
 -10  -5   5 1160.89   73.76
 -10  -5   5 1111.61   85.29
  10   5  -4 2172.68  120.14
  10   5  -4 2407.10  117.26
 -10   5   4 2293.92  142.86
  10  -5  -4 2210.97  128.72
 -10  -5   4 2366.28  143.24
  10   5  -3  140.41   23.68
  10   5  -3  143.09   19.59
 -10   5   3  130.07   29.56
  10  -5  -3  104.08   26.18
 -10  -5   3  142.32   28.39
  10   5  -2 1605.59   93.40
  10   5  -2 1465.28   65.22
 -10   5   2 1567.41  109.06
  10  -5  -2 1722.44   96.74
 -10  -5   2 1619.62  104.03
  10   5  -1  359.99   39.48
 -10   5   1  310.87   43.39
  10  -5  -1  369.57   34.87
 -10  -5   1  433.70   42.12
  10  -5  -1  295.83   22.91
  10   5   0  159.97   29.51
 -10   5   0  210.01   31.41
  10  -5   0  134.77   23.43
 -10  -5   0  130.35   32.72
  10  -5   0  140.12   19.23
  10   5   1  115.84   28.15
 -10   5  -1   81.96   27.37
  10  -5   1  108.12   26.78
 -10  -5  -1   67.31   35.57
  10  -5   1  110.53   19.90
  10   5   2   72.07   29.39
 -10   5  -2   85.20   28.07
  10  -5   2   80.70   26.74
 -10  -5  -2  104.51   29.90
  10  -5   2   66.32   21.78
  10   5   3  404.47   45.70
 -10   5  -3  288.67   43.23
  10  -5   3  364.56   41.23
  10  -5   3  354.11   40.60
 -10  -5  -3  325.04   50.37
 -10   5  -4  247.56   34.47
  10   5   4  142.65   37.72
  10  -5   4  168.04   28.91
  10  -5   4  171.07   33.13
 -10  -5  -4  211.37   41.44
 -10   5  -5  142.79   32.29
  10   5   5  110.76   34.47
  10  -5   5  115.25   27.77
  10  -5   5  150.25   30.06
 -10  -5  -5  122.87   37.30
  10   5   6   32.59   28.31
 -10   5  -6   16.58   19.05
 -10   5  -6   -3.89   19.78
  10  -5   6  -27.15   19.10
 -10  -5  -6    1.89   24.16
  10   5   7  152.81   42.60
 -10   5  -7  205.36   43.36
  10  -5   7   90.94   34.37
 -10  -5  -7  143.83   38.56
  10   5   8  313.01   60.98
 -10   5  -8  382.90   48.08
  10  -5   8  342.56   52.60
 -10  -5  -8  453.50   62.53
  10   6 -15   63.34   36.72
 -10   6  15   34.01   29.13
  10  -6 -15   78.27   32.78
 -10  -6  15   28.31   31.78
  10   6 -14   53.69   29.39
 -10   6  14   21.21   30.91
  10  -6 -14  -10.70   28.23
 -10  -6  14   -0.15   27.86
  10   6 -13  767.42   77.19
 -10   6  13  678.13   73.84
  10  -6 -13  649.43   90.39
 -10  -6  13  601.66   73.22
  10   6 -12  382.46   52.12
 -10   6  12  292.20   50.94
  10  -6 -12  370.54   51.62
 -10  -6  12  272.81   39.24
  10   6 -11  389.68   48.70
 -10   6  11  410.48   60.44
  10  -6 -11  351.69   53.33
 -10  -6  11  328.35   40.85
  10   6 -10  292.39   40.43
 -10   6  10  235.12   39.35
  10  -6 -10  277.52   42.36
 -10  -6  10  219.38   27.93
 -10  -6  10  248.42   34.36
  10   6  -9  210.07   33.85
 -10   6   9  215.39   36.20
 -10  -6   9  163.74   25.77
 -10  -6   9  149.52   29.65
  10  -6  -9  186.99   38.09
  10   6  -8  195.83   28.85
 -10   6   8  145.76   34.44
 -10  -6   8  153.14   22.35
 -10  -6   8  137.72   27.52
  10  -6  -8  144.33   36.21
  10   6  -7  287.49   42.87
 -10   6   7  350.52   44.24
  10  -6  -7  356.55   54.15
 -10  -6   7  368.44   39.05
 -10  -6   7  313.45   35.60
  10   6  -6 1396.13   78.56
 -10   6   6 1361.10  100.07
  10  -6  -6 1383.52  101.33
 -10  -6   6 1461.86   95.38
 -10  -6   6 1330.70   85.54
  10   6  -5  189.94   27.69
 -10   6   5  124.23   33.27
  10  -6  -5  100.79   31.27
 -10  -6   5  157.53   26.41
 -10  -6   5  172.56   31.95
  10   6  -4  801.23   67.69
  10   6  -4  701.33   42.25
 -10   6   4  634.87   63.92
  10  -6  -4  816.04   62.05
 -10  -6   4  874.18   57.23
  10   6  -3  147.68   30.48
  10   6  -3  121.25   16.24
 -10   6   3  156.42   31.45
  10  -6  -3  152.46   28.59
 -10  -6   3  121.50   34.12
  10   6  -2 1313.02   83.89
  10   6  -2 1163.71   49.27
 -10   6   2 1373.40  103.67
  10  -6  -2 1290.23   81.32
 -10  -6   2 1367.52   89.19
  10   6  -1  430.25   45.83
 -10   6   1  385.98   46.01
  10  -6  -1  432.24   41.67
 -10  -6   1  403.11   45.25
  10   6   0  563.37   51.35
 -10   6   0  498.26   63.81
  10  -6   0  561.87   50.80
 -10  -6   0  483.05   64.44
  10  -6   0  515.47   33.72
  10   6   1  288.77   48.68
 -10   6  -1  270.79   39.93
  10  -6   1  294.24   33.13
 -10  -6  -1  261.11   43.41
  10  -6   1  309.31   29.42
  10   6   2  166.54   34.50
 -10   6  -2  144.17   33.44
  10  -6   2  106.89   34.54
 -10  -6  -2  121.37   45.12
  10  -6   2  179.73   21.57
  10   6   3 1319.99  109.14
 -10   6  -3 1418.32  109.47
  10  -6   3 1373.96   87.33
  10  -6   3 1319.48   89.55
 -10  -6  -3 1341.48  108.72
  10   6   4   46.96   27.65
 -10   6  -4    5.20   24.75
  10  -6   4   72.43   25.58
  10  -6   4   54.08   20.47
 -10  -6  -4   60.50   35.27
 -10   6  -5  119.07   30.15
  10   6   5  108.68   36.62
  10  -6   5  145.50   28.97
  10  -6   5  130.63   29.74
 -10  -6  -5  142.71   35.54
  10   6   6  336.87   61.07
 -10   6  -6  284.75   36.86
 -10   6  -6  292.61   51.62
  10  -6   6  283.44   41.05
 -10  -6  -6  253.00   51.65
  10   6   7  365.93   61.30
 -10   6  -7  333.77   49.11
  10  -6   7  269.97   48.39
 -10  -6  -7  431.61   59.59
  10   6   8   90.26   39.04
  10  -6   8   22.67   38.03
 -10  -6  -8  132.91   37.94
  10   7 -15  349.05   63.99
 -10   7  15  379.84   54.17
  10  -7 -15  324.07   61.77
 -10  -7  15  386.82   54.69
  10   7 -14   58.67   29.91
 -10   7  14   -7.66   27.33
  10  -7 -14   49.71   29.34
 -10  -7  14    7.11   31.33
  10   7 -13  284.29   47.30
 -10   7  13  238.08   46.29
  10  -7 -13  238.47   45.90
 -10  -7  13  146.38   46.56
  10   7 -12  580.46   67.03
 -10   7  12  469.69   66.09
  10  -7 -12  590.49   69.65
 -10  -7  12  462.57   52.50
  10   7 -11   12.35   35.51
 -10   7  11   29.28   30.15
  10  -7 -11   71.87   30.05
 -10  -7  11   77.66   24.49
  10   7 -10   37.84   23.17
 -10   7  10  -38.16   30.68
  10  -7 -10   25.89   25.54
 -10  -7  10   11.24   19.81
  10   7  -9  115.13   29.95
 -10   7   9  103.10   32.60
  10  -7  -9  135.49   41.64
 -10  -7   9  116.13   20.51
 -10  -7   9  113.52   28.13
  10   7  -8  890.41   71.51
 -10   7   8 1010.06   84.11
 -10  -7   8  971.14   58.44
 -10  -7   8  955.15   70.90
  10  -7  -8  997.90   84.61
  10   7  -7  498.89   42.29
 -10   7   7  495.63   57.82
 -10  -7   7  499.36   46.54
 -10  -7   7  464.81   47.89
  10  -7  -7  528.19   55.56
  10   7  -6   55.32   17.56
 -10   7   6   35.11   27.14
  10  -7  -6   51.61   24.60
 -10  -7   6   66.95   20.43
 -10  -7   6   42.43   21.61
  10   7  -5  270.34   33.22
 -10   7   5  328.25   42.70
  10  -7  -5  300.81   39.37
 -10  -7   5  306.30   40.40
 -10  -7   5  224.29   33.96
  10   7  -4  337.26   36.75
  10   7  -4  308.29   30.46
 -10   7   4  310.65   41.90
  10  -7  -4  307.27   41.79
 -10  -7   4  390.50   36.71
  10   7  -3 1855.54  113.41
  10   7  -3 1780.95   82.84
 -10   7   3 1768.80  121.65
  10  -7  -3 1787.12  114.32
 -10  -7   3 1893.44  111.58
  10   7  -2  285.59   37.69
 -10   7   2  248.53   47.76
  10  -7  -2  303.39   36.45
 -10  -7   2  295.43   35.96
  10   7  -1 1247.87   95.13
 -10   7   1 1303.95   94.96
  10  -7  -1 1375.98   89.34
 -10  -7   1 1384.46   96.99
  10   7   0   56.12   27.97
 -10   7   0   66.82   32.15
  10  -7   0  114.06   23.00
 -10  -7   0   81.37   27.89
  10   7   1  203.20   37.25
 -10   7  -1  240.51   36.70
  10  -7   1  190.93   31.01
 -10  -7  -1  291.25   43.41
  10  -7   1  175.05   24.89
  10   7   2 1015.01   85.12
 -10   7  -2 1071.55   80.61
  10  -7   2 1077.58   86.85
 -10  -7  -2 1095.82   86.69
  10  -7   2  916.06   64.86
  10   7   3   94.66   32.68
 -10   7  -3  102.38   28.81
  10  -7   3  104.98   31.02
  10  -7   3   77.60   24.71
 -10  -7  -3  102.78   32.38
  10   7   4  260.84   49.24
 -10   7  -4  267.85   40.25
  10  -7   4  327.87   39.44
  10  -7   4  357.74   41.58
 -10  -7  -4  264.96   49.64
 -10   7  -5   78.64   25.96
  10   7   5  122.00   34.49
  10  -7   5   54.53   24.30
  10  -7   5   81.69   26.84
 -10  -7  -5   67.38   34.10
  10   7   6  180.75   40.12
 -10   7  -6  116.66   23.05
 -10   7  -6  181.40   33.43
  10  -7   6  175.19   38.47
 -10  -7  -6  163.51   44.28
  10   7   7   63.66   31.85
 -10   7  -7   13.62   28.32
 -10   7  -7   22.02   29.55
  10  -7   7   30.39   28.07
 -10  -7  -7   31.29   30.91
  10   8 -14  212.49   37.99
 -10   8  14   37.59   35.88
  10  -8 -14  111.37   38.64
 -10  -8  14   27.47   33.14
  10   8 -13   50.21   37.71
 -10   8  13  107.64   37.67
  10  -8 -13  185.11   37.62
 -10  -8  13  126.33   32.65
  10   8 -12  212.34   47.48
 -10   8  12  146.89   44.40
  10  -8 -12  163.83   42.38
 -10  -8  12  164.91   34.80
  10   8 -11  234.78   58.42
 -10   8  11  312.14   50.31
  10  -8 -11  340.24   49.67
 -10  -8  11  229.17   50.14
  10   8 -10  141.24   34.74
 -10   8  10  171.49   38.35
  10  -8 -10  171.76   38.82
 -10  -8  10  177.75   39.69
  10   8  -9  137.44   36.31
 -10   8   9  112.84   36.24
  10  -8  -9   99.80   35.85
 -10  -8   9  195.92   30.92
  10   8  -8   30.08   29.80
 -10   8   8   99.76   31.81
  10  -8  -8   67.84   30.87
 -10  -8   8  111.36   21.41
 -10  -8   8   61.28   26.07
  10   8  -7  865.72   61.82
 -10   8   7  877.66   80.30
 -10  -8   7  929.67   60.37
 -10  -8   7  765.89   69.03
  10  -8  -7  998.54   82.38
  10   8  -6 1015.76   69.95
 -10   8   6  854.74   83.23
 -10  -8   6  908.85   74.62
 -10  -8   6  984.37   66.83
  10  -8  -6  944.30   81.18
  10   8  -5  422.14   38.15
 -10   8   5  482.17   53.24
  10  -8  -5  501.72   53.57
 -10  -8   5  441.86   46.60
 -10  -8   5  332.89   51.70
  10   8  -4  543.93   51.92
  10   8  -4  547.93   41.30
 -10   8   4  563.34   57.76
  10  -8  -4  645.33   59.94
 -10  -8   4  671.65   50.22
  10   8  -3   39.64   25.52
  10   8  -3   11.23   10.41
 -10   8   3    3.30   23.62
  10  -8  -3   51.81   21.23
 -10  -8   3   19.17   19.95
  10   8  -2  140.16   29.04
 -10   8   2   81.56   29.34
  10  -8  -2   93.57   29.45
 -10  -8   2  144.49   28.96
  10   8  -1  230.14   35.75
 -10   8   1  229.74   36.07
  10  -8  -1  224.18   38.74
 -10  -8   1  238.13   34.81
  10   8   0   38.29   25.69
 -10   8   0    6.63   24.58
  10  -8   0   86.66   23.52
 -10  -8   0   86.18   25.12
  10   8   1  284.56   40.56
 -10   8  -1  181.31   36.64
  10  -8   1  228.03   37.01
 -10  -8  -1  307.05   40.33
  10   8   2  307.14   45.11
 -10   8  -2  256.38   46.34
  10  -8   2  232.73   45.34
 -10  -8  -2  225.97   42.22
  10   8   3  716.94   73.90
 -10   8  -3  774.15   65.70
  10  -8   3  717.66   63.13
  10  -8   3  629.15   57.60
 -10  -8  -3  723.40   74.97
  10   8   4  -35.78   31.40
 -10   8  -4   39.26   23.59
  10  -8   4   38.93   23.46
  10  -8   4   71.77   19.94
 -10  -8  -4   58.94   30.60
 -10   8  -5  293.11   45.38
  10   8   5  250.56   62.26
  10  -8   5  271.11   36.08
  10  -8   5  282.89   43.11
 -10  -8  -5  285.38   63.37
  10   8   6  257.49   46.18
 -10   8  -6  104.93   25.59
 -10   8  -6  218.57   41.83
  10  -8   6  233.54   34.23
 -10  -8  -6  327.17   46.90
  10   8   7  280.98   57.21
 -10   8  -7  273.46   44.12
  10  -8   7  279.84   52.07
 -10  -8  -7  303.70   58.22
  10   9 -14   64.97   35.40
 -10   9  14   62.23   32.74
  10  -9 -14   14.01   43.86
 -10  -9  14   85.74   31.83
  10   9 -13  235.23   45.68
 -10   9  13  177.17   47.07
  10  -9 -13  221.57   55.37
 -10  -9  13  182.34   39.53
  10   9 -12   74.40   32.13
 -10   9  12   33.28   33.99
  10  -9 -12   48.27   33.69
 -10  -9  12   99.11   30.38
  10   9 -11  302.23   44.89
 -10   9  11  315.87   52.59
  10  -9 -11  284.81   50.90
 -10  -9  11  247.68   50.12
  10   9 -10  455.20   56.38
 -10   9  10  422.35   61.54
  10  -9 -10  433.92   61.67
 -10  -9  10  515.94   55.40
  10   9  -9  743.70   76.80
 -10   9   9  879.11   86.46
  10  -9  -9  782.19   77.81
 -10  -9   9  658.99   68.08
  10   9  -8  120.16   33.61
 -10   9   8   91.43   34.19
 -10  -9   8  120.61   23.40
 -10  -9   8  173.76   29.99
  10  -9  -8  148.94   35.90
  10   9  -7  441.31   40.89
 -10   9   7  411.62   52.01
 -10  -9   7  365.55   38.62
 -10  -9   7  348.20   54.01
  10  -9  -7  373.56   51.72
  10   9  -6  102.95   21.59
 -10   9   6  119.23   38.15
 -10  -9   6   79.18   20.61
 -10  -9   6   63.54   29.29
  10  -9  -6   94.37   30.91
  10   9  -5  445.14   42.29
 -10   9   5  445.86   49.59
  10  -9  -5  483.74   53.98
 -10  -9   5  422.34   40.03
 -10  -9   5  406.49   47.75
  10   9  -4   90.49   28.44
  10   9  -4  103.97   20.52
 -10   9   4   93.94   28.94
  10  -9  -4   89.12   29.19
 -10  -9   4   84.59   23.26
  10   9  -3  222.87   34.97
 -10   9   3  239.22   36.32
  10  -9  -3  176.88   37.09
 -10  -9   3  256.15   33.94
  10   9  -2   35.15   25.10
 -10   9   2   46.86   25.82
  10  -9  -2   42.24   26.05
 -10  -9   2   95.17   28.04
  10   9  -1  492.76   53.07
 -10   9   1  447.32   50.48
  10  -9  -1  413.65   57.26
 -10  -9   1  442.82   48.17
  10   9   0  160.34   37.54
 -10   9   0  182.55   33.14
  10  -9   0  178.48   34.03
 -10  -9   0  166.90   35.58
  10   9   1  347.55   53.36
 -10   9  -1  416.81   48.69
  10  -9   1  451.93   49.86
 -10  -9  -1  412.76   62.17
 -10   9  -2  607.07   60.97
  10   9   2  583.58   67.44
 -10  -9  -2  670.49   65.70
  10  -9   2  573.59   58.17
 -10   9  -3  298.67   50.69
  10   9   3  403.18   66.75
 -10  -9  -3  332.31   56.15
  10  -9   3  409.58   45.80
 -10   9  -4  177.66   35.44
  10   9   4  191.18   45.24
 -10  -9  -4  200.37   44.25
  10  -9   4  165.58   38.00
 -10   9  -5   96.59   27.87
  10   9   5   88.09   40.93
 -10  -9  -5  144.77   37.55
  10  -9   5   82.79   39.28
  10   9   6    5.89   25.32
 -10   9  -6  -19.01   15.61
 -10   9  -6   12.05   19.05
 -10  -9  -6   10.39   28.91
  10  10 -13   25.67   38.92
 -10  10  13   20.22   33.76
  10 -10 -13  109.69   31.75
 -10 -10  13   10.87   28.16
  10  10 -12  122.47   35.26
 -10  10  12   98.36   38.44
  10 -10 -12   56.86   34.46
 -10 -10  12   84.17   33.72
  10  10 -11  225.37   37.27
 -10  10  11  152.98   45.62
  10 -10 -11  136.88   50.96
 -10 -10  11  156.05   37.04
  10  10 -10  130.83   32.96
 -10  10  10  120.33   49.67
  10 -10 -10  155.51   40.23
 -10 -10  10  129.86   35.13
  10  10  -9  425.13   46.99
 -10  10   9  371.40   58.89
  10 -10  -9  353.83   56.97
 -10 -10   9  397.83   52.57
  10  10  -8   12.69   25.68
 -10  10   8   41.66   30.09
  10 -10  -8   53.74   26.06
 -10 -10   8    9.62   24.91
  10  10  -7  104.24   25.20
 -10  10   7  140.81   34.53
 -10 -10   7   95.88   23.30
 -10 -10   7  122.72   30.39
  10 -10  -7  107.63   36.97
  10  10  -6  352.69   41.43
 -10  10   6  310.11   60.53
 -10 -10   6  384.38   39.74
 -10 -10   6  371.64   47.93
  10 -10  -6  351.57   54.47
  10  10  -5  121.04   26.76
 -10  10   5  227.91   35.79
  10 -10  -5  141.95   36.32
 -10 -10   5  138.74   25.11
 -10 -10   5  151.80   39.72
  10  10  -4  258.89   38.17
 -10  10   4  255.31   40.81
  10 -10  -4  192.56   43.32
 -10 -10   4  213.41   31.44
 -10  10   3   -8.20   20.88
  10 -10  -3  -16.88   21.33
 -10 -10   3    7.62   20.87
  10  10  -2  291.75   40.75
 -10  10   2  218.98   39.85
  10 -10  -2  253.08   38.64
 -10 -10   2  261.34   35.51
  10  10  -1 1196.04   96.04
 -10  10   1 1106.11   91.77
  10 -10  -1 1289.31  109.48
 -10 -10   1 1217.95   93.27
  10  10   0  239.33   46.08
 -10  10   0  357.73   41.49
  10 -10   0  322.52   53.75
 -10 -10   0  288.31   42.77
  10  10   1   20.49   24.53
 -10  10  -1  -11.59   21.65
  10 -10   1   80.28   24.22
 -10 -10  -1   -9.04   24.64
 -10  10  -2  201.10   44.21
  10  10   2  228.38   41.14
 -10 -10  -2  185.81   51.84
  10 -10   2  202.74   39.43
 -10  10  -3  568.61   58.14
  10  10   3  567.49   72.26
 -10 -10  -3  613.30   68.12
  10 -10   3  570.65   63.58
 -10  10  -4  135.39   30.49
  10  10   4  123.26   41.00
 -10 -10  -4  105.50   40.84
  10 -10   4  142.76   43.79
 -10  10  -5  140.53   31.43
  10  10   5  209.32   45.00
 -10 -10  -5  147.82   43.67
  10 -10   5  164.27   38.80
  10  10   6   84.05   36.16
 -10  10  -6   37.40   20.78
 -10 -10  -6   84.48   36.98
  10  11 -12  163.34   33.43
 -10  11  12   33.62   37.07
  10 -11 -12   74.96   37.20
 -10 -11  12   -9.24   41.93
  10  11 -11  118.39   35.10
 -10  11  11  137.12   40.81
  10 -11 -11   93.80   39.40
 -10 -11  11  117.28   36.51
  10  11 -10   58.80   29.63
 -10  11  10   76.85   37.33
  10 -11 -10   55.49   31.52
 -10 -11  10   89.27   30.08
  10  11  -9  630.89   55.55
 -10  11   9  619.72   88.97
  10 -11  -9  573.15   65.52
 -10 -11   9  476.53   65.19
  10  11  -8   85.97   28.33
 -10  11   8  131.49   38.62
  10 -11  -8  179.46   38.97
 -10 -11   8  117.92   33.74
  10  11  -7   18.28   18.09
 -10  11   7   27.71   27.86
  10 -11  -7   24.69   26.15
 -10 -11   7   -6.01   28.30
  10  11  -6  309.11   40.03
 -10  11   6  338.03   53.64
 -10 -11   6  335.44   31.80
 -10 -11   6  318.96   48.00
  10 -11  -6  344.54   50.07
  10  11  -5  236.08   27.55
 -10  11   5  307.58   44.63
 -10 -11   5  227.09   29.83
 -10 -11   5  231.36   41.29
  10 -11  -5  211.76   43.43
  10  11  -4   92.05   29.14
 -10  11   4   99.74   31.51
  10 -11  -4  100.48   33.26
 -10 -11   4   99.75   28.49
  10  11  -3  757.50   81.65
 -10  11   3  763.66   71.98
  10 -11  -3  693.64   72.46
 -10 -11   3  754.17   63.76
  10  11  -2  266.97   49.55
 -10  11   2  150.86   37.40
  10 -11  -2  173.57   37.55
 -10 -11   2  271.92   35.53
  10  11  -1  100.13   35.47
 -10  11   1  179.04   33.53
  10 -11  -1  135.09   34.62
 -10 -11   1  136.83   31.36
  10  11   0   42.05   32.19
 -10  11   0   49.48   26.82
  10 -11   0   97.22   30.91
 -10 -11   0  116.87   29.05
  10  11   1  160.25   35.55
 -10  11  -1   86.05   29.58
  10 -11   1  104.87   30.97
 -10 -11  -1   83.21   33.16
 -10  11  -2   30.77   27.62
  10  11   2  106.13   34.73
 -10 -11  -2  103.14   33.83
  10 -11   2   87.95   30.41
 -10  11  -3   50.13   21.65
  10  11   3   13.94   29.30
 -10 -11  -3    1.41   28.36
  10 -11   3   10.30   26.40
 -10  11  -4  326.68   45.06
  10  11   4  366.54   60.66
 -10 -11  -4  367.82   61.96
  10 -11   4  338.22   53.02
  10  11   5  261.05   52.21
  10 -11   5  149.50   55.23
 -10 -11  -5  227.51   47.34
  10  12 -11  147.46   42.80
 -10  12  11  116.64   41.24
  10 -12 -11  126.87   38.47
 -10 -12  11   49.26   37.90
  10  12 -10  407.48   61.47
 -10  12  10  488.15   68.46
  10 -12 -10  367.84   62.34
 -10 -12  10  409.94   58.41
  10  12  -9   35.95   28.09
 -10  12   9  147.80   34.67
  10 -12  -9   38.17   45.87
 -10 -12   9   68.67   32.92
  10  12  -8   55.21   31.25
 -10  12   8  105.88   38.71
  10 -12  -8  106.01   36.66
 -10 -12   8   51.17   28.88
  10  12  -7  287.41   43.71
 -10  12   7  314.68   52.02
  10 -12  -7  313.65   51.15
 -10 -12   7  287.29   50.99
  10  12  -6  181.14   28.03
 -10  12   6  193.17   45.08
  10 -12  -6  192.66   42.94
 -10 -12   6  224.99   49.04
 -10  12   5  282.43   43.03
 -10 -12   5  146.18   26.67
 -10 -12   5  166.24   37.77
  10 -12  -5  155.98   41.98
  10  12  -4   48.75   30.77
 -10  12   4   38.55   36.25
  10 -12  -4   41.39   28.93
 -10 -12   4   81.71   22.45
  10  12  -3  211.03   47.38
 -10  12   3  293.17   45.02
  10 -12  -3  204.49   42.65
 -10 -12   3  318.23   43.62
  10  12  -2  -30.44   26.47
 -10  12   2   46.50   25.59
  10 -12  -2   61.32   27.73
 -10 -12   2   40.96   22.45
  10  12  -1  264.59   48.60
 -10  12   1  271.44   42.57
  10 -12  -1  322.34   46.29
 -10 -12   1  302.06   44.26
  10  12   0  278.25   53.22
 -10  12   0  303.82   43.18
  10 -12   0  355.52   50.45
 -10 -12   0  348.79   48.62
  10  12   1  155.06   44.12
 -10  12  -1  208.19   34.74
  10 -12   1  152.47   37.79
 -10 -12  -1  175.35   40.40
 -10  12  -2  332.19   47.42
  10  12   2  398.18   63.04
 -10 -12  -2  479.60   56.65
  10 -12   2  307.76   66.27
 -10  12  -3  -29.61   21.07
  10  12   3  -35.73   30.14
 -10 -12  -3   -7.08   27.19
  10 -12   3   11.23   27.08
  10  12   4   29.92   31.98
  10 -12   4  -28.51   27.33
 -10 -12  -4   42.27   26.93
  10  13 -10   43.02   27.56
 -10  13  10  -24.64   30.72
  10 -13 -10  -19.86   28.80
 -10 -13  10  -27.69   31.36
  10  13  -9  244.10   39.30
 -10  13   9  285.18   55.73
  10 -13  -9  254.92   63.15
 -10 -13   9  211.08   46.72
  10  13  -8   42.60   23.18
 -10  13   8   -8.05   40.41
  10 -13  -8   36.52   32.25
 -10 -13   8   84.93   30.21
  10  13  -7  384.08   41.70
 -10  13   7  461.27   75.57
  10 -13  -7  377.02   61.52
 -10 -13   7  401.05   56.01
 -10  13   6  275.66   49.56
  10 -13  -6  237.05   48.19
 -10 -13   6  227.79   45.21
 -10  13   5  545.28   70.20
  10 -13  -5  590.83   71.89
 -10 -13   5  552.83   67.12
  10  13  -4   30.66   26.04
 -10  13   4   30.29   25.17
  10 -13  -4    5.79   25.05
 -10 -13   4    7.39   18.45
  10  13  -3  331.97   54.00
 -10  13   3  446.81   53.53
  10 -13  -3  374.63   52.73
 -10 -13   3  275.44   43.28
  10  13  -2  251.97   56.19
 -10  13   2  186.35   51.19
  10 -13  -2  224.80   44.99
 -10 -13   2  256.24   39.13
  10  13  -1  212.67   43.89
 -10  13   1  186.35   36.07
  10 -13  -1  219.98   45.86
 -10 -13   1  120.84   45.51
  10  13   0  297.49   56.20
 -10  13   0  278.29   43.42
  10 -13   0  321.34   52.00
 -10 -13   0  231.17   44.36
  10  13   1  142.24   35.60
 -10  13  -1   27.20   27.68
  10 -13   1   46.92   32.27
 -10 -13  -1   66.14   30.91
  10  13   2  585.23   72.39
 -10  13  -2  463.16   64.74
  10 -13   2  390.34   63.56
 -10 -13  -2  447.04   63.68
  10  13   3  107.76   44.92
  10 -13   3   78.39   40.30
 -10 -13  -3    4.21   31.05
  10  14  -9   17.40   24.38
 -10  14   9   -0.04   34.00
  10 -14  -9    8.55   34.90
 -10 -14   9   46.05   30.48
 -10  14   8   81.74   37.37
  10 -14  -8   35.50   41.81
 -10 -14   8   34.63   31.49
 -10  14   7  192.43   56.67
  10 -14  -7  253.81   48.67
 -10 -14   7  279.18   51.03
 -10  14   6  160.84   41.51
  10 -14  -6   33.26   30.59
 -10 -14   6   16.16   31.41
 -10  14   5    0.14   29.23
  10 -14  -5   50.31   28.82
 -10 -14   5   28.29   28.06
  10  14  -4  -19.33   31.97
 -10  14   4  120.80   32.90
  10 -14  -4   31.84   31.09
  10  14  -3  172.64   42.17
 -10  14   3  132.20   38.80
  10 -14  -3  140.73   43.93
 -10 -14   3  178.54   31.74
  10  14  -2   30.10   28.89
 -10  14   2   34.58   27.87
  10 -14  -2   64.62   32.40
 -10 -14   2   -0.85   23.16
  10  14  -1  220.42   49.59
 -10  14   1  208.54   51.34
  10 -14  -1  305.75   52.12
 -10 -14   1  239.60   40.37
  10  14   0  312.42   61.15
 -10  14   0  289.77   54.67
  10 -14   0  329.35   67.76
 -10 -14   0  401.71   48.10
  10  14   1   28.14   32.92
 -10  14  -1   43.91   30.14
  10 -14   1   46.75   30.77
 -10 -14  -1   31.63   33.91
 -10  15   6   70.85   36.52
  10 -15  -6    0.23   26.80
 -10 -15   6   -7.23   28.91
 -10  15   5  221.73   48.84
  10 -15  -5  211.19   48.40
 -10 -15   5  205.81   48.87
  10  15  -4  328.66   59.46
 -10  15   4  320.97   66.30
  10 -15  -4  381.54   58.04
  10  15  -3  444.82   58.65
 -10  15   3  277.28   62.59
  10 -15  -3  294.16   61.69
  10  15  -2  337.39   59.45
 -10  15   2  282.26   49.95
  10 -15  -2  346.90   58.35
 -10 -15   2  240.10   42.20
  10  15  -1  256.32   53.76
 -10  15   1  275.32   46.88
  10 -15  -1  227.21   52.18
 -10 -15   1  291.78   43.98
  11   0 -16  -18.01   31.77
  11   0 -15    1.21   25.81
  11   0 -14  132.17   37.53
 -11   0  14   94.55   28.87
  11   0 -13 1065.70   91.99
 -11   0  13  910.65   69.59
  11   0 -12   97.23   32.76
 -11   0  12   87.54   28.41
  11   0 -11  427.97   56.37
 -11   0  11  434.80   43.59
  11   0 -10 1465.45  109.77
 -11   0  10 1397.99   93.75
 -11   0  10 1257.42   70.32
  11   0  -9   57.16   26.48
 -11   0   9   54.96   22.32
 -11   0   9   66.78   15.31
  11   0  -8   -3.40   18.13
 -11   0   8   34.14   16.93
 -11   0   8   -4.68    8.75
  11   0  -7  255.22   22.04
  11   0  -7  243.38   35.37
 -11   0   7  291.09   35.15
  11   0  -6  409.12   28.41
  11   0  -6  444.63   42.17
 -11   0   6  382.21   45.64
  11   0  -5 1370.93   67.12
  11   0  -5 1535.85   88.80
 -11   0   5 1387.31   98.87
  11   0  -4   -6.50   12.82
  11   0  -4    7.43   14.92
 -11   0   4   18.03   19.31
  11   0  -3 1008.98   53.04
  11   0  -3  984.56   58.60
 -11   0   3 1008.92   78.33
  11   0  -2 1600.45   80.72
  11   0  -2 1504.70   75.99
 -11   0   2 1685.57  118.20
  11   0  -1 1136.19   70.41
  11   0  -1 1122.10   63.43
 -11   0   1 1177.62   89.16
  11   0   0   22.52   23.54
  11   0   0   67.20   13.39
 -11   0   0   75.30   27.07
  11   0   1  557.81   43.87
  11   0   1  479.21   32.84
 -11   0  -1  555.73   56.10
  11   0   2  229.60   30.18
 -11   0  -2  213.00   40.36
  11   0   3  221.14   32.13
 -11   0  -3  158.65   41.88
  11   0   4   93.49   27.90
 -11   0  -4   79.02   31.82
  11   0   5   27.78   22.01
 -11   0  -5   15.06   26.10
  11   0   6   -0.29   22.73
 -11   0  -6   -7.13   26.06
  11   0   7  436.77   63.99
 -11   0  -7  510.46   66.03
  11   1 -16  -11.32   30.59
  11  -1 -16   31.85   30.56
  11   1 -15  126.92   40.49
  11  -1 -15  171.27   55.05
  11   1 -14  162.79   45.80
 -11   1  14  116.34   28.55
  11  -1 -14  117.74   42.02
  11   1 -13  106.67   27.02
 -11   1  13   -1.67   19.87
  11  -1 -13   13.61   34.74
 -11  -1  13   12.75   17.77
  11   1 -12  188.80   37.21
 -11   1  12  115.13   29.33
  11  -1 -12  173.01   48.59
 -11  -1  12  173.07   31.34
 -11  -1  12  180.78   27.08
  11   1 -11 1063.20   85.84
 -11   1  11 1047.45   88.70
  11  -1 -11  989.48   85.63
 -11  -1  11  884.89   67.16
 -11  -1  11 1002.21   68.39
  11   1 -10  651.70   58.21
 -11   1  10  539.69   52.22
  11  -1 -10  573.60   60.30
 -11  -1  10  478.71   55.62
 -11  -1  10  501.76   43.94
  11   1  -9  418.60   48.43
 -11   1   9  363.05   42.36
  11  -1  -9  424.37   45.85
 -11  -1   9  400.17   46.88
 -11  -1   9  342.07   27.68
  11   1  -8  177.99   42.88
 -11   1   8  256.47   35.13
  11  -1  -8  277.97   37.23
 -11  -1   8  257.91   33.52
 -11  -1   8  228.43   24.99
  11   1  -7  718.30   44.78
 -11   1   7  655.27   61.24
  11   1  -7  757.26   65.73
  11  -1  -7  734.26   59.09
  11  -1  -7  673.70   34.87
 -11  -1   7  803.86   58.88
  11   1  -6  151.80   18.51
 -11   1   6  157.53   32.68
  11   1  -6  169.46   28.09
  11  -1  -6  170.97   29.65
  11  -1  -6  163.53   17.39
 -11  -1   6  178.59   28.98
  11   1  -5  475.77   32.55
 -11   1   5  608.18   66.01
  11   1  -5  620.56   44.52
  11  -1  -5  579.18   54.44
  11  -1  -5  515.47   30.78
 -11  -1   5  583.72   59.73
  11   1  -4  534.82   39.85
 -11   1   4  511.92   58.47
  11   1  -4  623.05   42.15
  11  -1  -4  572.27   45.85
  11  -1  -4  567.56   35.10
 -11  -1   4  630.95   58.02
  11   1  -3  754.18   44.58
 -11   1   3  775.75   63.62
  11   1  -3  792.36   48.14
  11  -1  -3  807.68   57.32
  11  -1  -3  646.32   43.05
 -11  -1   3  777.75   68.70
  11   1  -2  879.58   54.05
 -11   1   2  928.44   78.16
  11   1  -2  864.48   53.06
  11  -1  -2  906.18   58.82
  11  -1  -2  850.95   51.18
 -11  -1   2  903.95   73.48
  11   1  -1 1926.05  105.10
 -11   1   1 2355.32  159.77
  11   1  -1 1877.36   91.82
  11  -1  -1 1915.56   94.75
  11  -1  -1 1832.47  101.35
 -11  -1   1 2005.19  129.64
  11   1   0  316.45   32.80
  11   1   0  266.13   24.09
 -11   1   0  299.55   45.06
  11  -1   0  307.29   35.29
  11  -1   0  286.69   28.95
 -11  -1   0  305.12   41.51
  11   1   1  611.38   47.00
 -11   1  -1  677.28   61.91
  11  -1   1  588.34   46.35
  11  -1   1  526.96   34.99
 -11  -1  -1  557.54   60.94
  11   1   2   68.08   23.99
 -11   1  -2   82.40   28.03
  11  -1   2   90.99   22.26
  11  -1   2   70.86   18.10
 -11  -1  -2   98.01   29.21
  11   1   3  503.04   56.96
 -11   1  -3  488.24   56.00
  11  -1   3  411.08   43.77
 -11  -1  -3  520.75   59.75
  11   1   4   89.03   28.39
 -11   1  -4   50.28   41.79
  11  -1   4   80.12   26.20
 -11  -1  -4   97.53   31.67
  11   1   5  417.07   53.27
 -11   1  -5  416.99   52.70
  11  -1   5  317.08   55.79
 -11  -1  -5  417.15   56.27
  11   1   6  122.64   36.78
 -11   1  -6  109.19   36.54
  11  -1   6  138.62   34.64
 -11  -1  -6  122.72   40.66
  11   1   7  124.33   34.77
 -11   1  -7  105.08   41.73
  11  -1   7   71.21   33.07
 -11  -1  -7   10.83   36.70
  11   2 -16  289.92   60.13
  11  -2 -16  328.80   63.80
  11   2 -15   33.32   34.59
 -11   2  15   51.51   22.82
  11  -2 -15   43.79   34.04
  11   2 -14  169.85   42.23
 -11   2  14  140.61   30.76
  11  -2 -14  199.46   45.41
  11   2 -13  109.90   32.11
 -11   2  13   39.95   28.90
  11  -2 -13  109.13   33.88
 -11  -2  13   50.35   19.67
 -11  -2  13   51.36   23.88
  11   2 -12  504.11   58.00
 -11   2  12  409.79   48.39
  11  -2 -12  537.80   70.72
 -11  -2  12  389.45   37.35
 -11  -2  12  423.45   37.00
  11   2 -11  267.68   41.36
 -11   2  11  251.80   35.74
  11  -2 -11  245.69   43.84
 -11  -2  11  174.84   29.83
 -11  -2  11  260.48   27.87
  11   2 -10  197.77   37.81
 -11   2  10  231.44   33.48
  11  -2 -10  214.08   43.79
 -11  -2  10  210.99   27.92
 -11  -2  10  154.80   24.66
  11   2  -9  425.13   46.82
 -11   2   9  499.64   47.95
  11  -2  -9  495.59   49.49
 -11  -2   9  387.91   32.85
 -11  -2   9  443.81   43.32
  11   2  -8   53.66   27.94
 -11   2   8   82.07   26.03
  11  -2  -8   51.16   24.93
 -11  -2   8   65.38   18.66
 -11  -2   8   40.24   21.28
  11   2  -7   63.55   21.70
 -11   2   7   40.74   24.81
  11  -2  -7   -3.16   23.13
 -11  -2   7   59.01   14.40
 -11  -2   7   53.57   20.15
  11   2  -6   87.68   21.55
  11   2  -6  104.64   23.26
 -11   2   6  103.64   27.35
  11  -2  -6  115.56   25.81
 -11  -2   6   90.66   24.02
  11   2  -5  426.44   38.02
  11   2  -5  467.52   39.81
 -11   2   5  486.57   51.06
  11  -2  -5  489.44   47.22
 -11  -2   5  502.51   47.29
  11   2  -4 1066.25   59.90
 -11   2   4 1087.19   82.72
  11   2  -4  993.12   59.56
  11  -2  -4 1041.33   68.08
  11  -2  -4  922.26   45.48
 -11  -2   4 1119.98   77.40
  11   2  -3   25.40   16.40
 -11   2   3    0.56   24.86
  11   2  -3   33.41   14.69
  11  -2  -3   60.57   16.93
  11  -2  -3   32.00   12.84
 -11  -2   3   53.45   22.81
  11   2  -2  142.74   23.63
  11   2  -2  127.24   16.67
 -11   2   2  168.47   30.13
  11  -2  -2  123.27   18.85
  11  -2  -2  126.06   19.82
 -11  -2   2  151.82   31.07
  11   2  -1  154.79   25.03
  11   2  -1  136.38   17.73
 -11   2   1  182.07   32.37
  11  -2  -1  127.92   22.33
  11  -2  -1  119.12   21.04
 -11  -2   1  138.94   30.69
  11   2   0  479.88   54.40
  11   2   0  447.10   28.39
 -11   2   0  593.84   55.84
  11  -2   0  444.46   42.47
  11  -2   0  459.12   35.15
 -11  -2   0  653.31   58.10
  11   2   1 1967.90  122.47
 -11   2  -1 2069.92  140.80
  11  -2   1 1879.47   94.72
 -11  -2  -1 2174.02  150.44
  11  -2   1 1978.89  107.03
  11   2   2    6.65   23.99
 -11   2  -2   13.79   22.84
  11  -2   2   -1.83   21.58
  11  -2   2   30.44   16.24
 -11  -2  -2   46.31   27.21
 -11   2  -3  338.74   46.90
  11   2   3  279.11   41.39
  11  -2   3  317.07   35.91
  11  -2   3  267.28   30.66
 -11  -2  -3  349.88   47.46
  11   2   4   74.26   31.23
 -11   2  -4  143.64   33.73
  11  -2   4   94.97   26.39
 -11  -2  -4  106.36   35.17
  11   2   5    1.39   24.13
 -11   2  -5   32.81   24.57
  11  -2   5   30.52   21.33
 -11  -2  -5  -33.12   26.23
  11   2   6   44.28   29.09
 -11   2  -6   11.86   27.43
  11  -2   6   50.72   24.71
 -11  -2  -6   35.11   30.53
  11   2   7   49.53   37.04
 -11   2  -7  108.95   35.38
  11  -2   7   96.63   34.10
 -11  -2  -7  221.63   47.16
  11   3 -16   28.59   36.30
  11  -3 -16   89.19   36.17
  11   3 -15   99.21   47.37
 -11   3  15   56.85   31.41
  11  -3 -15   65.70   37.62
  11   3 -14  442.46   69.42
 -11   3  14  325.09   45.98
  11  -3 -14  472.55   59.83
 -11  -3  14  313.64   40.77
  11   3 -13  392.92   53.48
 -11   3  13  318.57   42.90
  11  -3 -13  394.48   56.38
 -11  -3  13  260.74   43.07
  11   3 -12  245.86   41.15
 -11   3  12  238.77   35.32
  11  -3 -12  237.76   52.71
 -11  -3  12  167.90   33.33
 -11  -3  12  164.28   26.20
  11   3 -11  366.19   46.68
 -11   3  11  371.52   53.13
  11  -3 -11  315.27   49.16
 -11  -3  11  344.70   40.38
 -11  -3  11  317.71   33.60
  11   3 -10  180.89   41.00
 -11   3  10  110.40   33.76
  11  -3 -10  154.53   37.14
 -11  -3  10  237.39   29.71
 -11  -3  10  146.63   30.18
  11   3  -9  103.42   29.09
 -11   3   9  198.13   31.57
  11  -3  -9  136.38   34.06
 -11  -3   9  138.91   22.42
 -11  -3   9  155.16   29.63
  11   3  -8  231.96   31.57
 -11   3   8  147.75   35.43
  11  -3  -8  230.90   37.05
 -11  -3   8  187.61   25.49
 -11  -3   8  262.74   34.01
  11   3  -7   64.41   22.07
 -11   3   7   75.44   27.53
  11  -3  -7   66.32   25.76
 -11  -3   7   71.31   17.85
 -11  -3   7   76.25   21.57
  11   3  -6  218.52   24.97
  11   3  -6  194.65   34.33
 -11   3   6  249.89   36.40
  11  -3  -6  173.72   33.90
 -11  -3   6  197.33   32.13
  11   3  -5  469.39   39.95
  11   3  -5  487.94   45.18
 -11   3   5  547.08   60.50
  11  -3  -5  353.41   44.19
 -11  -3   5  438.38   54.56
  11   3  -4  785.28   51.09
  11   3  -4  733.09   48.12
 -11   3   4  799.56   71.40
  11  -3  -4  766.90   57.81
 -11  -3   4  850.54   62.15
  11   3  -3  815.24   55.10
  11   3  -3  825.05   44.56
 -11   3   3  834.42   73.89
  11  -3  -3  736.92   38.13
  11  -3  -3  815.84   54.47
 -11  -3   3  841.90   67.29
  11   3  -2  607.51   47.71
  11   3  -2  500.65   34.34
 -11   3   2  609.73   59.13
  11  -3  -2  550.04   35.18
  11  -3  -2  593.31   52.73
 -11  -3   2  613.19   56.78
  11   3  -1  719.74   53.86
  11   3  -1  642.87   33.31
 -11   3   1  676.45   65.18
  11  -3  -1  578.60   37.23
  11  -3  -1  750.21   46.14
 -11  -3   1  800.74   72.96
  11   3   0  297.18   36.37
 -11   3   0  298.27   45.42
  11  -3   0  269.24   33.32
 -11  -3   0  306.93   42.06
  11  -3   0  254.94   30.38
  11   3   1  165.78   39.12
 -11   3  -1  216.33   36.37
  11  -3   1  195.08   25.20
 -11  -3  -1  249.32   38.06
  11  -3   1  152.42   27.93
  11   3   2  206.66   39.16
 -11   3  -2  158.94   37.16
  11  -3   2  153.79   28.53
 -11  -3  -2  224.74   36.93
  11  -3   2  136.04   30.35
 -11   3  -3  471.38   55.10
  11   3   3  447.47   51.90
  11  -3   3  466.13   44.66
  11  -3   3  474.33   41.54
 -11  -3  -3  526.15   59.33
  11   3   4   93.19   32.52
 -11   3  -4  148.62   32.99
  11  -3   4   83.38   27.12
 -11  -3  -4  144.51   35.87
  11   3   5  742.52   77.09
 -11   3  -5  789.01   74.52
  11  -3   5  619.08   62.66
 -11  -3  -5  766.06   83.01
  11   3   6  119.68   35.83
 -11   3  -6  152.39   34.80
  11  -3   6   45.46   30.80
 -11  -3  -6   50.81   43.61
  11   3   7   54.10   36.66
 -11   3  -7   97.61   32.36
  11  -3   7   20.03   36.35
 -11  -3  -7  148.15   43.55
  11   4 -15  138.02   48.53
 -11   4  15  141.31   34.26
  11  -4 -15  229.43   47.13
 -11  -4  15  156.41   31.43
  11   4 -14  365.55   58.81
 -11   4  14  370.38   47.15
  11  -4 -14  317.44   70.25
 -11  -4  14  308.70   48.65
  11   4 -13  193.10   55.88
 -11   4  13  185.45   37.32
  11  -4 -13  252.13   46.07
 -11  -4  13  203.30   31.00
  11   4 -12   96.98   31.77
 -11   4  12   60.73   28.10
  11  -4 -12  101.37   30.52
 -11  -4  12   57.85   23.10
  11   4 -11  101.16   32.16
 -11   4  11   98.90   30.05
  11  -4 -11  108.76   31.15
 -11  -4  11  103.27   24.49
 -11  -4  11  103.53   23.74
  11   4 -10  295.27   37.97
 -11   4  10  259.90   40.89
  11  -4 -10  211.80   43.36
 -11  -4  10  276.19   32.02
 -11  -4  10  249.53   29.47
  11   4  -9  102.60   36.64
 -11   4   9  171.08   35.81
  11  -4  -9  142.30   36.16
 -11  -4   9  180.05   24.58
 -11  -4   9  134.25   30.78
  11   4  -8  251.27   39.60
 -11   4   8  236.07   40.20
  11  -4  -8  250.37   39.35
 -11  -4   8  235.19   32.63
 -11  -4   8  218.93   34.04
  11   4  -7   46.22   18.46
 -11   4   7   17.97   22.62
  11  -4  -7    3.07   27.91
 -11  -4   7   40.81   20.61
 -11  -4   7   -3.69   17.70
  11   4  -6 1222.30   70.70
  11   4  -6 1234.24   85.71
 -11   4   6 1260.86   90.29
  11  -4  -6 1248.05   89.56
 -11  -4   6 1199.34   90.03
  11   4  -5   -9.42   18.19
  11   4  -5  -22.04   17.30
 -11   4   5   -4.25   20.81
  11  -4  -5  -14.96   18.73
 -11  -4   5   15.70   18.35
  11   4  -4  391.09   43.18
  11   4  -4  361.97   35.16
 -11   4   4  383.08   45.98
  11  -4  -4  333.96   40.36
 -11  -4   4  390.36   40.43
  11   4  -3  511.91   49.70
  11   4  -3  457.32   29.95
 -11   4   3  489.39   49.76
  11  -4  -3  404.92   49.24
 -11  -4   3  454.44   46.05
  11   4  -2  723.56   63.82
  11   4  -2  600.24   37.58
 -11   4   2  741.13   63.94
  11  -4  -2  642.02   54.21
 -11  -4   2  859.56   63.99
  11   4  -1  571.97   47.97
 -11   4   1  516.99   53.00
  11  -4  -1  470.21   40.31
 -11  -4   1  565.04   55.69
  11  -4  -1  433.55   33.21
  11   4   0  832.19   78.96
 -11   4   0  928.22   77.55
  11  -4   0  873.65   58.24
 -11  -4   0 1056.01   84.16
  11  -4   0  871.22   54.04
  11   4   1   87.48   27.15
 -11   4  -1  147.27   30.49
  11  -4   1  103.14   19.98
 -11  -4  -1   88.83   31.55
  11  -4   1   55.87   22.24
  11   4   2  801.11   72.18
 -11   4  -2  824.36   75.11
  11  -4   2  756.99   55.62
 -11  -4  -2  881.13   78.42
  11  -4   2  735.20   51.77
 -11   4  -3  160.65   35.23
  11   4   3   99.75   35.12
  11  -4   3  159.56   25.64
  11  -4   3  140.79   28.54
 -11  -4  -3  120.14   38.47
 -11   4  -4  210.01   31.67
  11   4   4   53.54   32.17
  11  -4   4   47.05   29.71
  11  -4   4   94.46   26.66
 -11  -4  -4  116.77   36.84
  11   4   5   98.28   33.53
 -11   4  -5   96.55   33.74
  11  -4   5   68.56   32.01
 -11  -4  -5  157.32   38.81
  11   4   6   96.38   33.88
 -11   4  -6   64.86   31.14
  11  -4   6   59.10   27.12
 -11  -4  -6   50.75   35.50
  11   4   7  357.16   80.58
 -11   4  -7  459.87   60.23
  11  -4   7  411.49   55.82
 -11  -4  -7  537.68   65.79
  11   5 -15  116.52   38.75
 -11   5  15  117.07   31.69
  11  -5 -15   67.75   36.94
 -11  -5  15   58.87   28.40
  11   5 -14  179.45   41.70
 -11   5  14  186.21   36.35
  11  -5 -14  130.37   49.89
 -11  -5  14  104.83   29.94
  11   5 -13   32.35   25.52
 -11   5  13   42.13   22.41
  11  -5 -13  -24.84   30.31
 -11  -5  13  -31.20   18.52
  11   5 -12  213.56   42.81
 -11   5  12  190.14   38.39
  11  -5 -12  290.61   46.40
 -11  -5  12  191.36   32.54
  11   5 -11  209.79   41.48
 -11   5  11  277.08   39.10
 -11  -5  11  167.66   31.03
 -11  -5  11  222.00   30.25
  11  -5 -11  222.71   46.09
  11   5 -10  480.41   56.89
 -11   5  10  542.35   60.58
  11  -5 -10  503.61   62.42
 -11  -5  10  481.55   45.83
 -11  -5  10  489.80   44.10
  11   5  -9  387.65   43.61
 -11   5   9  396.39   59.85
  11  -5  -9  390.86   49.37
 -11  -5   9  315.47   37.81
 -11  -5   9  381.07   33.99
  11   5  -8  326.39   38.59
 -11   5   8  323.80   45.25
  11  -5  -8  367.19   45.41
 -11  -5   8  306.67   35.38
 -11  -5   8  329.53   39.04
  11   5  -7  407.55   40.37
 -11   5   7  397.39   51.18
  11  -5  -7  433.67   51.64
 -11  -5   7  442.44   37.86
 -11  -5   7  460.68   47.37
  11   5  -6  219.97   34.45
 -11   5   6  225.83   41.60
  11  -5  -6  224.49   36.57
 -11  -5   6  278.50   33.94
 -11  -5   6  238.15   31.27
  11   5  -5  410.32   37.65
  11   5  -5  371.69   38.72
 -11   5   5  331.31   48.94
  11  -5  -5  416.21   45.31
 -11  -5   5  324.67   39.23
  11   5  -4   37.89   18.75
  11   5  -4   35.02   17.66
 -11   5   4   -9.17   25.48
  11  -5  -4   41.35   23.20
 -11  -5   4  139.51   27.24
  11   5  -3   26.55   26.95
  11   5  -3   71.32   15.98
 -11   5   3   47.66   27.98
  11  -5  -3   83.24   23.81
 -11  -5   3   67.63   25.21
  11   5  -2  141.82   26.96
 -11   5   2   98.40   37.64
  11  -5  -2  102.60   23.65
 -11  -5   2   85.22   30.67
  11   5  -1  855.75   68.87
 -11   5   1  886.60   76.49
  11  -5  -1  836.98   59.30
 -11  -5   1  845.42   79.59
  11   5   0  156.88   35.70
 -11   5   0  232.26   36.71
  11  -5   0  203.24   34.53
 -11  -5   0  258.07   38.09
  11  -5   0  153.19   23.00
  11   5   1  880.31   87.32
 -11   5  -1  970.27   81.46
  11  -5   1  815.62   58.02
 -11  -5  -1  920.03   80.95
  11  -5   1  784.19   55.75
  11   5   2  583.88   72.65
 -11   5  -2  566.33   65.25
  11  -5   2  537.02   48.08
 -11  -5  -2  683.66   64.97
  11  -5   2  566.74   49.06
  11   5   3  113.93   42.40
 -11   5  -3  118.78   33.09
  11  -5   3  106.57   29.62
  11  -5   3  116.40   24.32
 -11  -5  -3  182.02   38.18
 -11   5  -4  -17.52   23.91
  11   5   4   37.03   26.54
  11  -5   4   32.65   23.82
  11  -5   4   39.55   23.40
 -11  -5  -4   30.07   29.32
  11   5   5  120.93   38.20
 -11   5  -5  115.07   32.59
  11  -5   5   87.17   27.32
 -11  -5  -5  117.26   39.06
  11   5   6  164.03   38.58
 -11   5  -6   68.59   40.84
  11  -5   6   85.51   30.38
 -11  -5  -6   97.45   37.37
  11   5   7  -32.81   37.01
 -11   5  -7    4.00   25.67
  11  -5   7  -12.28   23.99
 -11  -5  -7  -39.15   29.31
  11   6 -15  269.64   52.92
 -11   6  15  205.91   47.90
  11  -6 -15  270.45   57.12
 -11  -6  15  303.84   42.42
  11   6 -14   69.67   27.59
 -11   6  14   -2.03   24.03
  11  -6 -14   -2.36   29.35
 -11  -6  14    7.11   21.67
  11   6 -13  305.12   57.74
 -11   6  13  345.56   53.85
  11  -6 -13  502.60   57.65
 -11  -6  13  418.17   48.47
  11   6 -12  199.03   46.67
 -11   6  12  202.69   38.03
  11  -6 -12  133.67   43.14
 -11  -6  12  122.37   39.03
  11   6 -11  -27.18   23.89
 -11   6  11  -25.39   23.90
  11  -6 -11  -32.87   27.32
 -11  -6  11   32.39   24.77
  11   6 -10  537.75   56.00
 -11   6  10  568.84   62.26
 -11  -6  10  474.53   44.94
 -11  -6  10  517.59   48.46
  11  -6 -10  481.17   63.97
  11   6  -9  617.22   53.80
 -11   6   9  545.91   62.93
  11  -6  -9  604.23   69.23
 -11  -6   9  534.07   49.75
 -11  -6   9  533.83   58.73
  11   6  -8   21.12   23.09
 -11   6   8   95.73   30.17
  11  -6  -8   62.64   29.58
 -11  -6   8   80.44   20.25
 -11  -6   8   75.21   27.20
  11   6  -7  544.75   55.33
 -11   6   7  521.99   58.40
  11  -6  -7  533.44   60.07
 -11  -6   7  603.27   46.25
 -11  -6   7  458.73   48.10
  11   6  -6 1360.49   93.28
 -11   6   6 1402.41  110.41
  11  -6  -6 1280.32  107.02
 -11  -6   6 1540.44   94.52
 -11  -6   6 1450.08   92.30
  11   6  -5  348.11   39.67
  11   6  -5  381.91   38.93
 -11   6   5  368.81   58.94
  11  -6  -5  335.43   53.92
 -11  -6   5  459.89   43.00
  11   6  -4 1168.95   80.92
  11   6  -4 1183.49   70.80
 -11   6   4 1216.53   97.44
  11  -6  -4 1434.11   96.26
 -11  -6   4 1298.35   94.53
  11   6  -3  808.31   61.85
  11   6  -3  661.62   43.39
 -11   6   3  677.33   66.96
  11  -6  -3  792.25   65.63
 -11  -6   3  885.23   66.93
  11   6  -2   80.27   23.83
 -11   6   2   24.63   25.40
  11  -6  -2   30.74   21.83
 -11  -6   2   47.89   25.50
  11   6  -1  220.42   34.87
 -11   6   1  284.76   37.54
  11  -6  -1  195.00   30.74
 -11  -6   1  121.90   35.62
  11   6   0  128.91   34.00
 -11   6   0  117.19   33.99
  11  -6   0  146.51   26.27
 -11  -6   0  203.76   34.62
  11   6   1  212.36   44.96
 -11   6  -1  152.60   36.05
  11  -6   1  231.74   31.50
 -11  -6  -1  223.66   40.27
  11   6   2  203.87   53.88
 -11   6  -2  298.75   46.83
  11  -6   2  272.40   43.23
 -11  -6  -2  411.11   48.11
  11  -6   2  250.17   35.13
  11   6   3  130.48   36.29
 -11   6  -3  129.71   33.46
  11  -6   3  150.76   27.16
  11  -6   3  123.68   30.28
 -11  -6  -3  233.05   39.66
 -11   6  -4   12.51   21.90
  11   6   4   37.10   25.18
  11  -6   4   35.27   18.61
  11  -6   4   -4.99   23.79
 -11  -6  -4  -18.75   26.87
 -11   6  -5  287.36   58.19
  11   6   5  304.99   49.52
  11  -6   5  276.03   40.11
  11  -6   5  341.70   39.37
 -11  -6  -5  376.97   56.22
  11   6   6   68.39   33.75
 -11   6  -6   67.25   29.82
  11  -6   6   70.27   30.11
 -11  -6  -6   -9.82   40.29
  11   7 -14  144.95   33.48
 -11   7  14   15.14   32.72
  11  -7 -14   20.37   36.68
 -11  -7  14   19.47   33.17
  11   7 -13   43.42   28.47
 -11   7  13   19.27   32.99
  11  -7 -13   27.94   28.16
 -11  -7  13  -10.79   22.12
  11   7 -12  148.95   48.14
 -11   7  12  175.16   49.06
  11  -7 -12  232.25   42.25
 -11  -7  12  118.08   34.81
  11   7 -11  196.72   36.89
 -11   7  11  141.77   37.92
  11  -7 -11  103.28   42.80
 -11  -7  11  116.74   31.92
  11   7 -10  103.52   30.81
 -11   7  10   90.59   32.11
  11  -7 -10   71.86   34.38
 -11  -7  10  120.65   27.13
  11   7  -9  156.62   29.50
 -11   7   9  130.71   36.21
 -11  -7   9   92.54   26.82
 -11  -7   9  122.85   33.30
  11  -7  -9  133.97   43.25
  11   7  -8  680.18   63.67
 -11   7   8  588.05   69.05
  11  -7  -8  640.48   66.23
 -11  -7   8  649.66   56.76
 -11  -7   8  591.90   57.73
  11   7  -7  103.53   26.50
 -11   7   7  143.04   36.64
  11  -7  -7  199.39   35.13
 -11  -7   7  173.29   32.85
 -11  -7   7  154.44   30.38
  11   7  -6  379.48   43.00
 -11   7   6  414.30   52.47
  11  -7  -6  431.70   47.32
 -11  -7   6  415.82   41.37
 -11  -7   6  353.25   48.65
  11   7  -5   36.70   23.53
  11   7  -5   74.76   21.03
 -11   7   5   53.32   28.22
  11  -7  -5   53.81   25.01
 -11  -7   5   94.64   27.71
  11   7  -4  125.65   28.17
  11   7  -4  108.48   22.33
 -11   7   4  168.20   33.99
  11  -7  -4  118.81   31.06
 -11  -7   4  125.80   28.29
  11   7  -3  101.28   28.89
 -11   7   3   32.74   27.39
  11  -7  -3   79.80   24.61
 -11  -7   3   45.80   24.50
  11   7  -2  450.85   47.51
 -11   7   2  342.52   60.30
  11  -7  -2  411.91   45.98
 -11  -7   2  380.63   48.67
  11   7  -1  127.83   33.83
 -11   7   1  136.78   33.52
  11  -7  -1  148.09   26.85
 -11  -7   1  172.36   34.56
  11   7   0  185.65   38.26
 -11   7   0  225.94   38.48
  11  -7   0  167.39   37.84
 -11  -7   0  217.16   39.28
  11   7   1  334.40   48.13
 -11   7  -1  313.03   43.12
  11  -7   1  341.65   46.46
 -11  -7  -1  302.37   48.47
  11   7   2  380.27   54.22
 -11   7  -2  371.30   51.40
  11  -7   2  345.12   48.72
 -11  -7  -2  434.34   67.07
 -11   7  -3   12.95   26.11
  11   7   3   39.57   28.10
 -11  -7  -3   50.42   30.87
  11  -7   3   59.03   26.84
 -11   7  -4  528.49   68.01
  11   7   4  521.94   68.64
 -11  -7  -4  536.07   67.47
  11  -7   4  448.22   52.75
  11   7   5  175.95   40.64
 -11   7  -5  126.29   33.18
  11  -7   5  134.73   31.08
 -11  -7  -5  139.01   52.07
  11   7   6   60.19   47.56
 -11   7  -6  108.55   40.81
 -11  -7  -6  129.37   39.18
 -11   8  14  112.62   38.15
  11  -8 -14   61.05   39.49
 -11  -8  14   87.29   39.94
  11   8 -13  511.79   83.62
 -11   8  13  509.98   72.84
  11  -8 -13  562.64   73.77
 -11  -8  13  521.81   70.14
  11   8 -12  274.31   50.34
 -11   8  12  314.33   50.55
  11  -8 -12  291.46   53.14
 -11  -8  12  291.48   43.86
  11   8 -11  133.84   32.68
 -11   8  11  106.09   43.29
  11  -8 -11  106.49   32.56
 -11  -8  11   17.54   37.80
  11   8 -10  542.18   59.46
 -11   8  10  444.90   62.84
  11  -8 -10  512.30   78.03
 -11  -8  10  436.36   65.53
  11   8  -9  923.33   70.79
 -11   8   9  877.97   88.18
  11  -8  -9  854.10   89.92
 -11  -8   9  788.38   71.00
  11   8  -8   23.63   20.72
 -11   8   8   44.93   26.93
 -11  -8   8   10.02   17.03
 -11  -8   8   27.22   22.68
  11  -8  -8   49.62   28.28
  11   8  -7   94.08   26.84
 -11   8   7   95.07   32.07
  11  -8  -7   86.44   31.31
 -11  -8   7   85.54   21.22
 -11  -8   7   56.80   26.97
  11   8  -6 1097.86   71.49
 -11   8   6 1084.44   99.40
  11  -8  -6 1291.27   97.93
 -11  -8   6 1146.00   75.48
 -11  -8   6 1201.05   86.28
  11   8  -5   74.21   24.65
  11   8  -5   87.48   21.19
 -11   8   5   24.82   29.74
  11  -8  -5   96.99   30.14
 -11  -8   5   34.44   23.40
  11   8  -4 1027.08   76.21
  11   8  -4  919.42   56.63
 -11   8   4  883.08   85.41
  11  -8  -4  932.25   92.03
 -11  -8   4  977.93   73.52
  11   8  -3   69.99   25.69
 -11   8   3   71.10   30.20
  11  -8  -3   82.84   27.47
 -11  -8   3   85.57   26.54
  11   8  -2  301.28   43.18
 -11   8   2  261.57   42.21
  11  -8  -2  299.92   49.01
 -11  -8   2  338.86   43.52
  11   8  -1   89.46   30.78
 -11   8   1  112.65   35.97
  11  -8  -1   89.07   26.56
 -11  -8   1   87.38   30.69
  11   8   0  910.96   78.10
 -11   8   0  781.29   74.31
  11  -8   0  774.52   65.62
 -11  -8   0  772.88   76.08
  11   8   1   59.55   29.48
 -11   8  -1   46.78   25.12
  11  -8   1   23.74   24.61
 -11  -8  -1   65.23   36.11
 -11   8  -2   95.79   36.72
  11   8   2  111.14   35.41
 -11  -8  -2  144.74   33.45
  11  -8   2   49.03   31.83
 -11   8  -3   71.17   32.60
  11   8   3  136.88   37.13
 -11  -8  -3  137.76   36.19
  11  -8   3   80.17   28.78
 -11   8  -4  494.33   60.53
  11   8   4  552.00   73.91
 -11  -8  -4  531.19   69.77
  11  -8   4  680.14   59.19
  11   8   5   84.55   46.65
 -11   8  -5  104.77   36.07
  11  -8   5  110.82   31.08
 -11  -8  -5  134.12   41.58
  11   9 -13  275.16   48.69
 -11   9  13  221.88   63.26
  11  -9 -13  214.50   55.05
 -11  -9  13  259.09   56.94
  11   9 -12   33.85   29.20
 -11   9  12   73.83   32.53
  11  -9 -12   10.97   31.03
 -11  -9  12   55.16   28.16
  11   9 -11  231.65   43.87
 -11   9  11  287.07   59.82
  11  -9 -11  231.78   47.19
 -11  -9  11  203.08   40.50
  11   9 -10  124.59   34.39
 -11   9  10  176.90   42.77
  11  -9 -10  164.64   41.59
 -11  -9  10  137.11   35.00
  11   9  -9  254.44   38.70
 -11   9   9  269.86   46.81
  11  -9  -9  230.91   47.68
 -11  -9   9  229.37   40.96
  11   9  -8  194.43   31.67
 -11   9   8  272.49   54.39
 -11  -9   8  170.50   26.76
 -11  -9   8  165.25   43.03
  11  -9  -8  244.18   42.88
  11   9  -7  183.69   27.85
 -11   9   7  196.72   40.43
  11  -9  -7  141.14   37.09
 -11  -9   7  147.38   30.90
 -11  -9   7  160.61   32.68
  11   9  -6  310.16   38.48
 -11   9   6  298.17   48.80
  11  -9  -6  375.52   60.79
 -11  -9   6  285.17   37.21
 -11  -9   6  340.25   45.06
  11   9  -5  300.60   42.48
  11   9  -5  236.23   27.71
 -11   9   5  283.43   47.11
  11  -9  -5  345.77   50.39
 -11  -9   5  360.63   36.89
  11   9  -4  333.35   44.26
 -11   9   4  265.96   47.99
  11  -9  -4  320.38   45.51
 -11  -9   4  290.42   37.93
  11   9  -3  159.89   31.05
 -11   9   3   99.07   33.01
  11  -9  -3   96.26   31.04
 -11  -9   3  113.67   35.62
  11   9  -2  164.26   38.80
 -11   9   2  272.33   40.15
  11  -9  -2  190.10   44.39
 -11  -9   2  210.77   38.94
  11   9  -1  166.86   38.89
 -11   9   1  112.58   35.63
  11  -9  -1  195.61   39.76
 -11  -9   1  184.12   36.20
  11   9   0   62.54   30.37
 -11   9   0   58.45   26.53
  11  -9   0   60.42   25.26
 -11  -9   0    9.06   27.55
  11   9   1  107.55   38.56
 -11   9  -1  137.88   34.51
  11  -9   1  138.85   32.76
 -11  -9  -1  172.83   36.71
 -11   9  -2  336.06   44.77
  11   9   2  349.54   55.42
 -11  -9  -2  377.65   54.46
  11  -9   2  231.52   52.96
 -11   9  -3   74.97   28.30
  11   9   3   71.37   35.39
 -11  -9  -3   17.24   33.26
  11  -9   3   89.77   27.45
 -11   9  -4  195.22   39.44
  11   9   4  185.80   47.59
 -11  -9  -4  220.86   49.79
  11  -9   4  226.73   48.66
  11   9   5  147.10   42.00
 -11   9  -5  115.89   40.31
  11  -9   5  128.97   35.19
 -11  -9  -5  141.83   44.22
  11  10 -12   32.15   38.94
 -11  10  12  -34.15   36.08
  11 -10 -12   31.47   34.70
 -11 -10  12  135.18   31.61
  11  10 -11  227.34   44.47
 -11  10  11  196.21   51.56
  11 -10 -11  228.37   50.67
 -11 -10  11  226.05   41.57
  11  10 -10  131.87   34.62
 -11  10  10  129.36   35.74
  11 -10 -10   99.91   40.30
 -11 -10  10  103.74   32.99
  11  10  -9   35.61   23.75
 -11  10   9   56.29   30.59
  11 -10  -9  -19.14   29.36
 -11 -10   9   79.26   27.58
  11  10  -8   79.99   25.96
 -11  10   8  111.98   36.12
  11 -10  -8   69.54   35.50
 -11 -10   8  118.77   31.11
  11  10  -7  217.37   32.62
 -11  10   7  192.12   46.30
 -11 -10   7  232.73   33.80
 -11 -10   7  311.28   41.52
  11 -10  -7  224.74   60.64
  11  10  -6  517.27   50.49
 -11  10   6  551.60   67.05
  11 -10  -6  560.07   71.26
 -11 -10   6  534.09   47.79
 -11 -10   6  542.17   59.29
  11  10  -5   36.01   26.47
 -11  10   5   52.00   28.98
  11 -10  -5   53.14   28.61
 -11 -10   5   50.05   22.19
  11  10  -4  113.48   35.09
 -11  10   4  102.88   30.04
  11 -10  -4  -21.07   37.19
 -11 -10   4   61.48   29.94
  11  10  -3  342.76   48.79
 -11  10   3  349.68   48.72
  11 -10  -3  322.63   48.78
 -11 -10   3  289.05   50.11
  11  10  -2  380.53   54.57
 -11  10   2  476.32   56.87
  11 -10  -2  496.11   53.43
 -11 -10   2  481.99   52.22
  11  10  -1  177.17   36.38
 -11  10   1   94.65   33.97
  11 -10  -1  193.77   41.82
 -11 -10   1  142.34   33.67
  11  10   0  410.01   56.35
 -11  10   0  317.29   61.53
  11 -10   0  446.35   54.95
 -11 -10   0  415.11   63.15
  11  10   1  106.25   35.95
 -11  10  -1  133.79   37.77
  11 -10   1   93.70   39.64
 -11 -10  -1  139.32   36.53
 -11  10  -2  350.24   49.33
  11  10   2  386.80   61.88
 -11 -10  -2  357.53   58.27
  11 -10   2  452.07   52.02
 -11  10  -3   70.78   29.70
  11  10   3   77.12   36.19
 -11 -10  -3   98.33   45.34
  11 -10   3   68.30   29.50
 -11  10  -4  245.22   50.72
  11  10   4  369.14   70.03
 -11 -10  -4  360.84   54.77
  11 -10   4  248.02   45.90
  11  11 -11  376.06   55.72
 -11  11  11  466.60   69.41
  11 -11 -11  393.38   62.99
 -11 -11  11  409.38   57.19
  11  11 -10  339.05   47.07
 -11  11  10  332.10   66.84
  11 -11 -10  365.02   54.17
 -11 -11  10  314.99   52.41
  11  11  -9  133.98   43.11
 -11  11   9  194.05   43.88
  11 -11  -9  132.11   44.07
 -11 -11   9  167.70   46.70
  11  11  -8  516.25   65.47
 -11  11   8  678.48   75.23
  11 -11  -8  591.89   77.29
 -11 -11   8  514.14   76.36
  11  11  -7   68.21   28.72
 -11  11   7  112.02   38.79
  11 -11  -7   75.88   36.54
 -11 -11   7   95.95   32.94
 -11  11   6  365.09   51.63
  11 -11  -6  425.96   51.69
 -11 -11   6  232.75   34.01
 -11 -11   6  312.61   48.42
  11  11  -5   -9.29   23.78
 -11  11   5   55.62   26.54
  11 -11  -5   13.86   26.93
 -11 -11   5    3.62   22.14
  11  11  -4   71.11   31.45
 -11  11   4   90.44   34.06
  11 -11  -4   65.93   33.36
 -11 -11   4  120.14   25.90
  11  11  -3   37.39   26.60
 -11  11   3   24.01   26.41
  11 -11  -3   22.01   25.03
 -11 -11   3   28.13   22.35
  11  11  -2  271.22   45.00
 -11  11   2  227.12   42.06
  11 -11  -2  281.46   41.22
 -11 -11   2  196.29   38.89
  11  11  -1   61.97   31.42
 -11  11   1   66.84   26.74
  11 -11  -1    7.85   29.33
 -11 -11   1   59.10   27.05
  11  11   0  179.41   40.91
 -11  11   0  145.08   44.98
  11 -11   0  186.06   39.01
 -11 -11   0  176.53   41.19
  11  11   1   -6.78   34.31
 -11  11  -1   11.66   28.16
  11 -11   1    7.86   23.79
 -11 -11  -1   28.27   27.09
 -11  11  -2  156.89   36.56
  11  11   2  168.97   46.18
 -11 -11  -2  228.33   44.43
  11 -11   2  123.78   35.74
 -11  11  -3   87.50   27.63
  11  11   3   84.98   34.87
 -11 -11  -3  -31.13   40.73
  11 -11   3   17.04   28.30
  11  12 -10  232.85   48.63
 -11  12  10  237.09   52.96
  11 -12 -10  272.62   54.30
 -11 -12  10  161.22   55.28
  11  12  -9   18.95   24.06
 -11  12   9  -11.77   39.58
  11 -12  -9   18.85   41.79
 -11 -12   9  117.36   30.46
  11  12  -8  199.86   35.56
 -11  12   8  315.03   51.16
  11 -12  -8  246.58   51.26
 -11 -12   8  165.01   45.21
 -11  12   7  355.66   54.74
  11 -12  -7  286.38   52.63
 -11 -12   7  233.50   46.83
 -11  12   6  507.97   57.67
  11 -12  -6  224.03   56.63
 -11 -12   6  271.48   61.89
  11  12  -5  199.74   43.03
 -11  12   5  201.33   43.93
  11 -12  -5  205.77   45.73
 -11 -12   5  183.72   32.24
  11  12  -4  613.27   76.07
 -11  12   4  429.26   67.14
  11 -12  -4  522.39   67.30
 -11 -12   4  543.11   62.14
  11  12  -3  369.88   55.40
 -11  12   3  410.80   53.62
  11 -12  -3  340.03   56.69
 -11 -12   3  353.60   45.71
  11  12  -2  109.66   37.04
 -11  12   2  134.40   34.98
  11 -12  -2  108.39   38.55
 -11 -12   2  131.18   38.85
  11  12  -1  -23.73   39.07
 -11  12   1   11.06   26.29
  11 -12  -1   59.96   29.90
 -11 -12   1   92.45   31.83
  11  12   0  847.18   90.30
 -11  12   0  791.13   90.95
  11 -12   0  706.70   80.62
 -11 -12   0  749.43   95.91
 -11  12  -1  167.63   47.91
  11  12   1  176.09   47.79
 -11 -12  -1  208.92   46.20
  11 -12   1  190.26   41.95
 -11  12  -2  157.22   38.73
  11  12   2  197.97   51.46
 -11 -12  -2  223.36   49.36
  11 -12   2  256.23   42.79
 -11  13   9   28.02   37.02
  11 -13  -9   34.03   35.42
 -11 -13   9   85.78   32.57
 -11  13   8  526.45   77.58
  11 -13  -8  504.02   83.42
 -11 -13   8  536.98   70.55
 -11  13   7   55.53   39.91
  11 -13  -7  116.95   41.02
 -11 -13   7  130.86   36.62
 -11  13   6  191.12   39.69
  11 -13  -6   58.75   38.09
 -11 -13   6   59.27   35.21
  11  13  -5   -5.38   25.46
 -11  13   5    4.10   27.67
  11 -13  -5  -15.34   25.73
  11  13  -4  532.56   69.27
 -11  13   4  645.84   70.13
  11 -13  -4  521.54   68.65
 -11 -13   4  452.75   52.65
  11  13  -3   -9.66   27.68
 -11  13   3   17.03   26.46
  11 -13  -3   -9.26   29.99
 -11 -13   3   38.36   22.02
  11  13  -2   18.48   39.06
 -11  13   2  124.19   35.46
  11 -13  -2  171.37   37.70
 -11 -13   2  134.47   39.59
  11  13  -1  224.01   44.30
 -11  13   1  168.25   39.28
  11 -13  -1  139.79   43.53
 -11 -13   1  126.51   38.45
  11  13   0   50.45   31.62
 -11  13   0  -11.23   25.36
  11 -13   0  -18.12   27.04
 -11 -13   0   79.09   28.83
 -11  14   6  133.58   37.91
  11 -14  -6   79.69   38.26
 -11 -14   6   41.92   34.62
  11  14  -5  346.50   56.64
 -11  14   5  401.76   62.66
  11 -14  -5  360.79   57.68
  11  14  -4  142.20   46.90
 -11  14   4  274.37   45.43
  11 -14  -4  150.30   47.05
  11  14  -3   63.81   32.70
 -11  14   3   39.55   31.44
  11 -14  -3   25.91   34.71
  11  14  -2   40.83   34.28
 -11  14   2   78.76   30.18
  11 -14  -2   48.07   34.55
 -11 -14   2   20.31   25.91
  12   0 -15   26.70   33.36
  12   0 -14  198.76   44.26
 -12   0  14   87.75   33.09
  12   0 -13   28.66   26.98
 -12   0  13  -14.43   21.10
  12   0 -12  353.06   56.57
 -12   0  12  383.48   51.99
  12   0 -11  845.44   79.90
 -12   0  11  825.91   66.97
  12   0 -10   37.66   26.70
 -12   0  10   52.42   28.04
  12   0  -9   69.34   26.49
 -12   0   9   33.79   30.42
  12   0  -8   27.36   23.00
 -12   0   8   47.74   27.14
  12   0  -7   35.64   13.67
  12   0  -7   64.38   21.41
 -12   0   7   30.49   23.98
  12   0  -6   96.13   19.61
  12   0  -6  207.77   28.78
 -12   0   6  192.82   32.71
  12   0  -5   91.70   16.37
  12   0  -5  132.12   30.96
 -12   0   5  190.66   30.10
  12   0  -4   88.86   19.05
  12   0  -4  103.42   21.70
 -12   0   4  105.57   30.97
  12   0  -3  291.05   27.22
  12   0  -3  323.16   31.45
 -12   0   3  284.29   47.55
  12   0  -2  769.46   55.64
  12   0  -2  756.81   48.98
 -12   0   2  832.51   77.81
  12   0  -1  362.76   37.01
  12   0  -1  321.44   27.59
 -12   0   1  404.67   49.31
  12   0   0  267.10   33.08
  12   0   0  261.94   26.71
 -12   0   0  334.81   44.27
  12   0   1    9.85   22.48
 -12   0  -1   42.76   26.17
  12   0   2   21.56   21.00
 -12   0  -2   44.54   26.31
  12   0   3   74.10   28.57
 -12   0  -3  138.80   34.26
  12   0   4  571.60   61.83
 -12   0  -4  606.18   75.41
  12   0   5   36.90   31.67
 -12   0  -5   14.20   28.78
  12   0   6   15.16   26.37
 -12   0  -6   41.46   30.61
  12   1 -15  222.92   51.90
  12  -1 -15  175.28   53.03
  12   1 -14   69.25   31.05
 -12   1  14    7.51   21.00
  12  -1 -14   12.36   30.79
  12   1 -13  261.27   43.62
 -12   1  13  130.67   32.31
  12  -1 -13  223.11   50.41
 -12  -1  13  120.12   29.17
  12   1 -12  246.20   47.09
 -12   1  12  251.57   35.88
  12  -1 -12  164.58   44.22
 -12  -1  12  211.04   30.42
  12   1 -11  174.65   45.96
 -12   1  11  152.88   32.36
  12  -1 -11  178.41   39.64
 -12  -1  11  141.84   34.42
  12   1 -10    5.31   22.44
 -12   1  10   -1.69   19.67
  12  -1 -10   31.87   24.10
 -12  -1  10    5.17   19.50
  12   1  -9  236.19   37.77
 -12   1   9  309.14   38.42
  12  -1  -9  291.15   42.32
 -12  -1   9  258.51   35.61
 -12  -1   9  195.29   26.52
  12   1  -8  128.59   21.99
  12   1  -8  173.87   30.38
 -12   1   8  149.09   33.61
  12  -1  -8  187.10   39.66
 -12  -1   8  139.36   30.06
  12   1  -7  144.92   22.70
  12   1  -7  148.51   29.59
 -12   1   7  129.91   33.36
  12  -1  -7  193.65   31.75
 -12  -1   7  195.07   31.03
  12   1  -6  156.98   24.03
  12   1  -6  194.93   34.48
 -12   1   6  159.73   34.79
  12  -1  -6  170.99   29.72
 -12  -1   6  131.78   32.77
  12   1  -5   21.09   16.03
 -12   1   5   25.79   24.50
  12   1  -5   39.44   23.11
  12  -1  -5   14.28   19.85
  12  -1  -5   16.55   13.16
 -12  -1   5   81.15   22.61
  12   1  -4 1527.64   85.03
 -12   1   4 1513.46  111.83
  12   1  -4 1442.26   94.76
  12  -1  -4 1478.44   87.75
  12  -1  -4 1303.49   71.86
 -12  -1   4 1556.42  110.00
  12   1  -3  179.49   28.27
 -12   1   3  157.28   38.36
  12   1  -3  231.61   28.23
  12  -1  -3  166.41   24.19
  12  -1  -3  157.28   23.10
 -12  -1   3  205.69   37.89
  12   1  -2  563.50   43.21
 -12   1   2  625.80   64.41
  12   1  -2  510.89   35.54
  12  -1  -2  589.99   44.09
  12  -1  -2  568.35   41.40
 -12  -1   2  573.26   62.57
  12   1  -1  353.97   35.84
  12   1  -1  365.38   31.18
 -12   1   1  434.67   48.74
  12  -1  -1  322.99   31.57
  12  -1  -1  313.91   35.42
 -12  -1   1  401.27   49.47
  12   1   0  262.38   31.54
 -12   1   0  326.72   43.06
  12  -1   0  198.90   27.85
 -12  -1   0  239.84   42.38
  12  -1   0  239.51   34.27
  12   1   1   21.52   22.32
 -12   1  -1  146.89   33.41
  12  -1   1   75.82   19.85
  12  -1   1   56.04   18.12
 -12  -1  -1   50.08   29.45
  12   1   2  115.86   29.25
 -12   1  -2  146.63   39.09
  12  -1   2  145.26   27.56
 -12  -1  -2  168.92   36.68
  12   1   3  180.74   40.21
 -12   1  -3  127.91   39.38
  12  -1   3  132.89   37.69
 -12  -1  -3  212.32   41.18
  12   1   4   91.83   36.69
 -12   1  -4  115.89   35.24
  12  -1   4   96.11   27.25
 -12  -1  -4   56.67   35.48
  12   1   5   48.33   37.73
 -12   1  -5   89.02   32.32
  12  -1   5   69.31   28.93
 -12  -1  -5   46.88   35.29
  12   1   6  282.81   56.00
 -12   1  -6  200.57   46.47
  12  -1   6  244.84   52.57
 -12  -1  -6  250.45   55.33
  12   2 -15  152.76   37.58
 -12   2  15   61.86   31.75
  12  -2 -15   33.50   39.34
  12   2 -14   86.02   33.57
 -12   2  14   57.23   27.56
  12  -2 -14   91.22   37.15
  12   2 -13  -16.44   26.26
 -12   2  13  -14.74   20.79
  12  -2 -13   42.21   28.07
 -12  -2  13  -27.28   20.49
  12   2 -12  286.48   44.61
 -12   2  12  298.64   38.89
  12  -2 -12  201.95   47.59
 -12  -2  12  189.87   38.36
  12   2 -11  477.11   55.20
 -12   2  11  524.23   52.54
  12  -2 -11  498.50   58.75
 -12  -2  11  421.46   41.64
 -12  -2  11  450.20   46.54
  12   2 -10  148.15   39.66
 -12   2  10  140.80   30.73
  12  -2 -10  114.64   33.72
 -12  -2  10   68.96   24.69
 -12  -2  10  153.30   26.86
  12   2  -9  163.61   39.18
 -12   2   9  146.39   31.32
  12  -2  -9  138.24   35.28
 -12  -2   9  122.56   24.38
 -12  -2   9  121.83   29.50
  12   2  -8   58.50   16.33
  12   2  -8  100.66   25.48
 -12   2   8   62.02   28.70
  12  -2  -8  111.68   34.20
 -12  -2   8   90.20   24.23
  12   2  -7  422.01   38.10
  12   2  -7  365.76   42.35
 -12   2   7  433.91   49.58
  12  -2  -7  516.30   55.71
 -12  -2   7  412.48   45.90
  12   2  -6   10.35   12.14
  12   2  -6  -18.18   20.04
 -12   2   6  -24.65   20.95
  12  -2  -6   13.73   19.09
 -12  -2   6    2.82   20.76
  12   2  -5   11.17   14.29
  12   2  -5   25.86   16.77
 -12   2   5   28.90   22.65
  12  -2  -5   17.71   19.79
 -12  -2   5    0.52   23.05
  12   2  -4  647.87   45.03
  12   2  -4  631.12   44.70
 -12   2   4  580.08   64.31
  12  -2  -4  585.68   60.97
 -12  -2   4  633.72   60.56
  12   2  -3  280.79   33.31
 -12   2   3  231.59   39.23
  12   2  -3  186.83   23.82
  12  -2  -3  230.51   33.90
  12  -2  -3  178.35   23.10
 -12  -2   3  230.95   39.62
  12   2  -2  433.51   39.21
  12   2  -2  382.58   32.21
 -12   2   2  443.40   52.20
  12  -2  -2  360.59   33.18
  12  -2  -2  423.85   36.93
 -12  -2   2  354.32   51.38
  12   2  -1  279.19   35.61
 -12   2   1  264.77   39.45
  12  -2  -1  136.48   24.67
 -12  -2   1  162.77   38.96
  12  -2  -1  192.57   27.82
  12   2   0   25.56   22.95
 -12   2   0   -1.99   24.96
  12  -2   0   10.56   16.32
 -12  -2   0   15.07   24.19
  12  -2   0   23.25   18.21
  12   2   1  179.77   31.39
 -12   2  -1  200.86   37.36
  12  -2   1  214.18   30.52
  12  -2   1  123.96   25.48
 -12  -2  -1  186.13   50.35
  12   2   2  194.42   31.53
 -12   2  -2  158.71   47.49
  12  -2   2  138.60   28.07
 -12  -2  -2  137.04   51.43
  12   2   3   15.79   21.98
 -12   2  -3   16.80   24.88
  12  -2   3    0.49   23.57
 -12  -2  -3   34.41   34.31
  12   2   4  131.34   36.02
 -12   2  -4  110.29   39.96
  12  -2   4  129.39   29.79
 -12  -2  -4  199.72   52.51
  12   2   5   38.75   32.55
 -12   2  -5  120.03   34.12
  12  -2   5    3.56   33.13
 -12  -2  -5  124.79   37.03
  12   2   6  104.43   31.15
 -12   2  -6   19.44   32.04
  12  -2   6   26.96   26.89
 -12  -2  -6   17.01   34.34
  12   3 -15  122.08   39.73
 -12   3  15   72.82   28.18
  12  -3 -15   65.13   47.02
  12   3 -14  498.32   67.82
 -12   3  14  416.02   64.29
  12  -3 -14  458.92   69.14
  12   3 -13  105.22   38.59
 -12   3  13  126.38   39.79
  12  -3 -13  173.09   41.52
  12   3 -12  -27.70   23.59
 -12   3  12   52.34   20.96
  12  -3 -12    6.68   24.42
 -12  -3  12   -6.71   18.91
 -12  -3  12  -10.38   16.19
  12   3 -11   51.21   27.79
 -12   3  11   45.27   25.09
  12  -3 -11   51.01   29.72
 -12  -3  11   58.23   18.64
 -12  -3  11   68.91   20.10
  12   3 -10   18.92   20.17
 -12   3  10   13.39   21.15
  12  -3 -10   16.14   22.33
 -12  -3  10   -5.82   17.38
 -12  -3  10   -0.06   20.93
  12   3  -9  250.59   39.29
 -12   3   9  346.73   52.42
  12  -3  -9  275.98   46.28
 -12  -3   9  273.16   35.24
 -12  -3   9  301.69   35.83
  12   3  -8 1142.81   80.15
 -12   3   8 1088.72   91.00
  12  -3  -8 1214.80  104.68
 -12  -3   8  930.77   74.32
 -12  -3   8 1122.04   83.31
  12   3  -7  102.40   20.07
  12   3  -7   73.85   25.84
 -12   3   7  129.38   32.87
  12  -3  -7  151.92   36.14
 -12  -3   7   77.96   29.39
  12   3  -6  276.69   29.40
  12   3  -6  296.22   41.25
 -12   3   6  255.14   52.06
  12  -3  -6  335.17   40.44
 -12  -3   6  270.31   38.06
  12   3  -5  -12.86   15.33
  12   3  -5   43.47   15.55
 -12   3   5  -14.31   22.19
  12  -3  -5   -8.39   19.27
 -12  -3   5   22.93   25.70
  12   3  -4  337.48   32.18
  12   3  -4  268.04   28.85
 -12   3   4  291.37   46.06
  12  -3  -4  299.35   36.31
 -12  -3   4  355.15   40.97
  12   3  -3  740.25   64.43
  12   3  -3  756.59   46.78
 -12   3   3  716.22   73.01
  12  -3  -3  712.24   54.74
 -12  -3   3  706.50   79.63
  12   3  -2  181.60   27.75
  12   3  -2  139.86   19.96
 -12   3   2  141.24   43.60
  12  -3  -2  108.84   23.46
 -12  -3   2  191.18   35.82
  12   3  -1  481.86   45.45
 -12   3   1  513.66   60.04
  12  -3  -1  440.36   38.97
 -12  -3   1  524.57   59.63
  12  -3  -1  397.03   31.49
  12   3   0   30.92   24.44
 -12   3   0   19.17   26.50
  12  -3   0   20.99   19.63
 -12  -3   0   27.70   27.40
  12  -3   0   24.09   18.28
  12   3   1   65.25   25.81
 -12   3  -1   44.62   30.90
  12  -3   1   71.38   18.00
 -12  -3  -1   93.74   31.38
  12  -3   1   50.09   22.84
  12   3   2  421.01   45.90
 -12   3  -2  411.67   51.32
  12  -3   2  281.23   38.07
  12  -3   2  376.35   40.95
 -12  -3  -2  397.73   56.48
  12   3   3  143.96   46.60
 -12   3  -3  222.09   39.84
  12  -3   3  170.65   31.55
 -12  -3  -3  226.48   44.43
  12   3   4  -27.98   23.50
 -12   3  -4  -22.32   24.20
  12  -3   4   17.51   19.40
 -12  -3  -4   44.67   27.61
  12   3   5   38.19   25.73
 -12   3  -5   31.34   26.70
  12  -3   5    7.31   20.26
 -12  -3  -5  -52.32   28.13
  12   3   6  120.29   43.01
 -12   3  -6  211.50   40.37
  12  -3   6   98.69   34.84
 -12  -3  -6  185.65   45.61
  12   4 -15  228.15   53.95
 -12   4  15  122.29   36.30
  12  -4 -15  128.37   46.18
  12   4 -14  123.62   37.14
 -12   4  14   27.10   30.10
  12  -4 -14   99.57   38.95
  12   4 -13  149.11   38.12
 -12   4  13  104.17   32.66
  12  -4 -13  126.24   37.01
 -12  -4  13   75.22   25.88
  12   4 -12  115.42   33.42
 -12   4  12   90.67   32.48
  12  -4 -12   54.39   33.16
 -12  -4  12   96.81   23.57
  12   4 -11  166.71   37.16
 -12   4  11  183.19   35.58
  12  -4 -11  183.53   38.60
 -12  -4  11  144.97   32.26
 -12  -4  11  162.58   26.85
  12   4 -10  -20.03   20.53
 -12   4  10  -28.70   21.49
  12  -4 -10   35.24   23.59
 -12  -4  10    9.60   19.46
 -12  -4  10   22.70   16.40
  12   4  -9   55.62   24.92
 -12   4   9   87.67   29.38
  12  -4  -9   40.66   29.03
 -12  -4   9   68.59   25.11
 -12  -4   9   75.45   23.25
  12   4  -8  116.25   28.34
 -12   4   8   63.40   29.04
  12  -4  -8   24.93   28.97
 -12  -4   8   47.45   20.26
 -12  -4   8   86.20   27.55
  12   4  -7  404.93   41.64
  12   4  -7  409.87   41.34
 -12   4   7  359.26   54.11
  12  -4  -7  296.45   49.29
 -12  -4   7  403.04   41.89
  12   4  -6  203.90   26.44
  12   4  -6  236.44   27.90
 -12   4   6  169.29   39.37
  12  -4  -6  130.49   35.82
 -12  -4   6  190.45   31.93
  12   4  -5  261.20   36.24
  12   4  -5  256.45   27.45
 -12   4   5  190.46   41.45
  12  -4  -5  250.42   44.93
 -12  -4   5  211.55   41.85
  12   4  -4  242.85   30.34
  12   4  -4  183.66   27.05
 -12   4   4  203.78   40.96
  12  -4  -4  188.19   33.08
 -12  -4   4  175.34   34.63
  12   4  -3   25.33   19.20
  12   4  -3   18.34   12.42
 -12   4   3   24.89   25.23
  12  -4  -3   17.19   19.47
 -12  -4   3    9.52   24.27
  12   4  -2  916.16   69.21
 -12   4   2  873.55   80.59
  12  -4  -2  877.33   67.34
 -12  -4   2 1046.66   93.94
  12   4  -1  131.68   33.25
 -12   4   1  148.49   42.22
  12  -4  -1   60.22   27.84
 -12  -4   1  113.90   35.36
  12   4   0  444.68   51.43
 -12   4   0  580.80   60.07
  12  -4   0  406.44   38.11
 -12  -4   0  496.48   60.94
  12   4   1  521.45   56.02
 -12   4  -1  558.73   60.22
  12  -4   1  498.62   41.97
 -12  -4  -1  542.62   63.61
  12  -4   1  460.16   43.88
  12   4   2   42.63   29.58
 -12   4  -2   26.40   24.15
  12  -4   2    7.32   17.26
 -12  -4  -2   15.70   26.91
  12  -4   2   20.40   16.86
  12   4   3   59.97   27.36
 -12   4  -3   54.46   28.22
  12  -4   3   38.14   25.76
 -12  -4  -3   36.82   33.19
  12   4   4  563.35   78.71
 -12   4  -4  482.57   66.67
  12  -4   4  443.50   55.87
 -12  -4  -4  670.00   73.26
  12   4   5  156.93   45.64
 -12   4  -5  233.63   44.68
  12  -4   5  186.91   35.71
 -12  -4  -5  286.98   51.74
  12   5 -14  136.67   41.08
 -12   5  14  149.06   36.96
  12  -5 -14  165.56   44.14
 -12  -5  14   61.85   37.46
  12   5 -13   47.05   32.77
 -12   5  13   79.43   31.25
  12  -5 -13   69.84   33.49
 -12  -5  13   47.79   24.54
  12   5 -12  220.78   41.39
 -12   5  12  236.86   40.89
  12  -5 -12  136.54   44.78
 -12  -5  12  149.55   31.80
  12   5 -11  121.09   34.80
 -12   5  11   11.77   30.16
  12  -5 -11   64.75   32.78
 -12  -5  11   49.52   22.32
 -12  -5  11   73.08   19.69
  12   5 -10  632.90   61.65
 -12   5  10  680.69   66.33
  12  -5 -10  644.35   72.27
 -12  -5  10  545.05   52.68
 -12  -5  10  597.58   47.04
  12   5  -9  484.06   58.59
 -12   5   9  482.90   60.07
  12  -5  -9  485.96   62.32
 -12  -5   9  509.38   53.30
 -12  -5   9  472.34   51.28
  12   5  -8  359.67   37.07
 -12   5   8  350.33   48.37
  12  -5  -8  280.47   49.38
 -12  -5   8  270.68   34.87
 -12  -5   8  302.75   35.37
  12   5  -7   21.94   12.40
  12   5  -7   39.64   21.86
 -12   5   7    2.88   24.52
  12  -5  -7   11.61   24.34
 -12  -5   7   21.11   19.39
  12   5  -6  212.41   36.95
  12   5  -6  233.84   30.53
 -12   5   6  236.53   41.44
  12  -5  -6  255.32   46.69
 -12  -5   6  227.13   40.92
  12   5  -5  251.31   34.35
  12   5  -5  271.04   31.86
 -12   5   5  315.56   46.00
  12  -5  -5  196.34   38.27
 -12  -5   5  314.11   45.64
  12   5  -4  162.10   27.99
  12   5  -4  124.34   23.40
 -12   5   4  139.68   36.13
  12  -5  -4   97.84   30.97
 -12  -5   4  141.47   38.96
  12   5  -3   -3.91   19.65
 -12   5   3  -28.93   21.86
  12  -5  -3   -2.18   23.18
 -12  -5   3    5.42   21.11
  12   5  -2  228.30   35.60
 -12   5   2  286.88   43.89
  12  -5  -2  232.05   33.73
 -12  -5   2  269.06   43.18
  12   5  -1  118.03   33.63
 -12   5   1  173.93   35.40
  12  -5  -1  141.69   27.67
 -12  -5   1  201.73   37.81
  12   5   0  193.18   43.27
 -12   5   0  248.89   39.07
  12  -5   0  172.89   26.92
 -12  -5   0  205.25   39.70
  12   5   1   86.89   30.96
 -12   5  -1  125.98   41.72
  12  -5   1   61.04   22.41
 -12  -5  -1   93.76   31.16
  12   5   2  308.05   50.84
 -12   5  -2  480.32   53.95
  12  -5   2  305.02   45.07
 -12  -5  -2  444.61   59.80
  12   5   3  452.54   50.89
 -12   5  -3  288.97   49.67
  12  -5   3  247.71   34.36
 -12  -5  -3  317.89   57.08
  12   5   4  216.12   47.36
 -12   5  -4  272.73   45.21
 -12  -5  -4  200.43   52.58
  12   5   5  389.88   63.62
 -12   5  -5  487.16   60.71
 -12  -5  -5  456.19   69.92
  12   6 -14   -9.05   31.59
 -12   6  14   58.71   28.80
  12  -6 -14   -0.41   32.31
 -12  -6  14   34.88   23.52
  12   6 -13  187.03   44.04
 -12   6  13  175.49   52.14
  12  -6 -13  182.95   45.59
 -12  -6  13  128.96   42.05
  12   6 -12  447.29   71.10
 -12   6  12  450.13   70.51
  12  -6 -12  475.02   65.82
 -12  -6  12  369.67   47.45
  12   6 -11  231.05   45.84
 -12   6  11  161.27   40.73
  12  -6 -11  167.67   40.97
 -12  -6  11  109.91   30.23
  12   6 -10   92.51   30.88
 -12   6  10  122.93   34.98
  12  -6 -10  128.77   44.10
 -12  -6  10   94.70   26.36
 -12  -6  10   73.53   29.75
  12   6  -9  311.66   40.80
 -12   6   9  283.42   47.43
  12  -6  -9  220.40   50.26
 -12  -6   9  305.01   40.20
 -12  -6   9  318.29   37.60
  12   6  -8   18.30   24.14
 -12   6   8   33.36   26.73
  12  -6  -8   24.67   26.68
 -12  -6   8   44.76   18.68
 -12  -6   8   15.27   19.68
  12   6  -7  101.01   21.86
 -12   6   7   78.43   39.84
 -12  -6   7   80.09   24.36
 -12  -6   7   40.64   24.13
  12  -6  -7  105.70   31.79
  12   6  -6   74.76   22.28
  12   6  -6   33.27   23.49
 -12   6   6   67.35   29.59
  12  -6  -6   14.91   26.85
 -12  -6   6   60.82   23.12
  12   6  -5   33.67   28.95
  12   6  -5   28.41   22.83
 -12   6   5  138.66   31.35
  12  -6  -5   98.43   28.07
 -12  -6   5  116.44   26.95
  12   6  -4  226.73   31.98
  12   6  -4  174.66   21.43
 -12   6   4  200.58   37.80
  12  -6  -4  255.72   44.51
 -12  -6   4  199.08   44.04
  12   6  -3  303.08   38.60
 -12   6   3  247.05   45.98
  12  -6  -3  234.63   38.00
 -12  -6   3  274.25   52.68
  12   6  -2    4.28   19.43
 -12   6   2  -34.83   22.54
  12  -6  -2   21.75   17.96
 -12  -6   2  -15.07   20.48
  12   6  -1   -8.09   22.44
 -12   6   1   90.85   25.52
  12  -6  -1    7.76   20.09
 -12  -6   1   45.54   25.96
  12   6   0   81.57   34.35
 -12   6   0   64.96   30.69
  12  -6   0   25.50   22.83
 -12  -6   0  116.73   31.46
  12   6   1  200.16   41.93
 -12   6  -1  203.27   44.31
  12  -6   1  237.04   34.04
 -12  -6  -1  216.94   45.63
  12   6   2   -0.35   25.38
 -12   6  -2  -48.53   29.62
  12  -6   2  -13.18   18.33
 -12  -6  -2   -0.92   28.08
 -12   6  -3  140.40   37.49
  12   6   3   98.70   38.10
 -12  -6  -3  141.69   39.81
  12  -6   3  158.34   33.64
  12   6   4  271.07   52.49
 -12   6  -4  283.71   47.29
 -12  -6  -4  269.76   70.47
  12   6   5  205.20   51.24
 -12   6  -5  273.76   54.14
 -12  -6  -5  229.96   49.17
  12   7 -13  636.12   74.85
 -12   7  13  503.18   71.69
  12  -7 -13  633.59   76.94
 -12  -7  13  510.83   61.00
  12   7 -12   51.58   28.27
 -12   7  12   53.62   29.45
  12  -7 -12    4.57   30.75
 -12  -7  12  -25.35   28.81
  12   7 -11  169.92   45.57
 -12   7  11  207.05   42.11
  12  -7 -11  122.29   42.85
 -12  -7  11  119.69   34.25
  12   7 -10   52.87   29.78
 -12   7  10   14.26   28.37
  12  -7 -10   32.19   28.83
 -12  -7  10   30.47   28.12
  12   7  -9  158.42   32.85
 -12   7   9  131.30   40.18
  12  -7  -9  152.69   42.41
 -12  -7   9  183.59   28.46
 -12  -7   9  259.84   33.71
  12   7  -8  242.15   33.85
 -12   7   8  191.60   47.44
  12  -7  -8  193.80   48.09
 -12  -7   8  277.96   33.83
 -12  -7   8  227.63   43.06
  12   7  -7  350.94   47.76
 -12   7   7  392.13   54.31
  12  -7  -7  443.80   56.53
 -12  -7   7  479.72   45.07
 -12  -7   7  389.01   45.67
  12   7  -6   97.15   27.99
  12   7  -6  107.72   22.90
 -12   7   6  140.01   36.10
  12  -7  -6  116.72   33.62
 -12  -7   6  127.71   28.94
  12   7  -5  180.60   31.12
  12   7  -5  137.31   22.94
 -12   7   5  143.24   38.34
  12  -7  -5  150.52   36.95
 -12  -7   5  198.57   33.34
  12   7  -4  122.91   34.85
 -12   7   4   76.28   35.31
  12  -7  -4  151.80   32.65
 -12  -7   4  116.88   36.48
  12   7  -3   30.80   21.96
 -12   7   3  -18.08   24.71
  12  -7  -3   41.05   22.56
 -12  -7   3   13.18   22.95
  12   7  -2   20.79   24.24
 -12   7   2    3.64   26.63
  12  -7  -2    6.77   21.15
 -12  -7   2   63.85   24.17
  12   7  -1  153.83   37.51
 -12   7   1  176.35   38.73
  12  -7  -1  178.54   38.74
 -12  -7   1  244.10   41.51
  12   7   0   52.44   26.46
 -12   7   0   -8.13   26.72
  12  -7   0   20.37   20.31
 -12  -7   0   45.41   26.15
  12   7   1  157.14   39.70
 -12   7  -1  205.01   38.40
  12  -7   1  159.10   30.83
 -12  -7  -1  135.43   41.06
 -12   7  -2  134.19   37.56
  12   7   2  125.34   46.55
 -12  -7  -2  151.04   49.00
  12  -7   2  123.38   28.06
 -12   7  -3  401.82   53.37
  12   7   3  379.86   59.74
 -12  -7  -3  384.49   58.55
  12  -7   3  388.02   45.02
  12   7   4   79.90   37.50
 -12   7  -4   66.03   32.85
 -12  -7  -4  133.46   40.02
  12   8 -13   -9.59   33.84
 -12   8  13  -10.43   29.11
  12  -8 -13   28.49   31.20
 -12  -8  13   37.03   29.07
  12   8 -12  140.28   37.53
 -12   8  12  125.08   43.41
  12  -8 -12  130.37   45.07
 -12  -8  12  185.31   35.27
  12   8 -11   51.48   34.58
 -12   8  11   -4.11   32.62
  12  -8 -11  136.16   36.65
 -12  -8  11   29.19   33.14
  12   8 -10 1021.56   93.82
 -12   8  10  956.74  113.55
  12  -8 -10  786.96   92.94
 -12  -8  10  819.69   89.59
  12   8  -9  354.39   47.13
 -12   8   9  454.30   62.45
  12  -8  -9  460.26   75.32
 -12  -8   9  429.88   52.26
  12   8  -8  163.02   30.03
 -12   8   8  263.94   44.34
  12  -8  -8  162.87   42.65
 -12  -8   8  182.77   28.68
 -12  -8   8  123.96   32.33
  12   8  -7  186.41   34.12
 -12   8   7  204.77   40.95
  12  -8  -7  153.04   36.91
 -12  -8   7  170.85   29.12
 -12  -8   7  117.71   32.30
  12   8  -6  113.28   27.95
  12   8  -6   95.09   25.65
 -12   8   6  107.52   33.20
  12  -8  -6  167.16   44.14
 -12  -8   6  110.00   26.67
  12   8  -5  159.75   41.83
 -12   8   5  256.20   43.46
  12  -8  -5  152.90   40.84
 -12  -8   5  227.00   33.57
  12   8  -4  -27.98   24.16
 -12   8   4   46.91   24.25
  12  -8  -4  -33.31   21.38
 -12  -8   4   12.78   20.01
  12   8  -3  214.09   53.33
 -12   8   3  441.61   46.46
  12  -8  -3  254.17   42.12
 -12  -8   3  246.94   45.42
  12   8  -2   75.79   33.07
 -12   8   2   36.79   27.76
  12  -8  -2   13.14   25.46
 -12  -8   2   69.87   27.86
  12   8  -1  123.55   41.32
 -12   8   1  131.51   36.50
  12  -8  -1   99.06   30.09
 -12  -8   1  123.06   35.87
  12   8   0  466.36   61.61
 -12   8   0  357.46   56.09
  12  -8   0  516.35   59.48
 -12  -8   0  488.46   74.23
  12   8   1  185.90   43.35
 -12   8  -1  197.29   48.79
  12  -8   1  172.10   36.55
 -12  -8  -1  293.98   51.87
 -12   8  -2   93.47   29.52
  12   8   2   96.12   33.70
 -12  -8  -2   -8.41   38.90
  12  -8   2   28.14   25.55
 -12   8  -3   65.92   28.19
  12   8   3   32.62   31.80
 -12  -8  -3   15.24   40.26
  12  -8   3   13.92   29.91
  12   8   4  371.84   66.59
 -12   8  -4  492.87   69.20
  12  -8   4  444.58   55.10
 -12  -8  -4  514.48   71.58
  12   9 -12   11.28   26.22
 -12   9  12   56.60   30.72
  12  -9 -12  -22.09   28.93
 -12  -9  12   10.60   29.21
  12   9 -11   52.68   30.40
 -12   9  11  113.30   36.86
  12  -9 -11  134.74   38.10
 -12  -9  11   42.85   30.39
  12   9 -10  219.87   37.26
 -12   9  10  108.02   47.24
  12  -9 -10  246.99   46.99
 -12  -9  10  152.56   37.13
  12   9  -9  272.70   38.98
 -12   9   9  293.00   54.10
  12  -9  -9  251.05   49.43
 -12  -9   9  198.60   39.11
  12   9  -8  259.33   34.67
 -12   9   8  209.41   45.68
  12  -9  -8  202.33   43.38
 -12  -9   8  204.28   40.04
  12   9  -7   38.40   24.11
 -12   9   7   22.18   30.72
  12  -9  -7   38.66   32.34
 -12  -9   7   45.16   20.84
 -12  -9   7   29.68   25.51
  12   9  -6  328.09   46.17
 -12   9   6  313.76   59.83
  12  -9  -6  303.51   53.18
 -12  -9   6  273.33   46.45
  12   9  -5  166.35   36.00
 -12   9   5  203.12   42.09
  12  -9  -5  135.06   39.19
 -12  -9   5  205.47   41.41
  12   9  -4  122.08   30.26
 -12   9   4  125.41   33.13
  12  -9  -4  100.07   31.37
 -12  -9   4   51.37   28.97
  12   9  -3   74.86   30.77
 -12   9   3  155.33   33.20
  12  -9  -3   95.65   29.85
 -12  -9   3   36.23   29.00
  12   9  -2  101.60   33.01
 -12   9   2   11.63   28.97
  12  -9  -2   43.56   26.12
 -12  -9   2   40.22   33.76
  12   9  -1  214.79   47.46
 -12   9   1  214.86   39.11
  12  -9  -1  102.68   37.28
 -12  -9   1  203.65   41.03
  12   9   0  124.83   37.59
 -12   9   0  115.18   35.88
  12  -9   0   99.47   31.60
 -12  -9   0  129.52   38.11
  12   9   1   31.64   29.90
 -12   9  -1   27.79   27.40
  12  -9   1   50.10   25.98
 -12  -9  -1   18.95   29.62
 -12   9  -2  123.26   35.20
  12   9   2   48.68   37.92
 -12  -9  -2  107.51   37.28
  12  -9   2   96.18   30.80
 -12   9  -3  548.77   63.42
  12   9   3  509.64   71.49
 -12  -9  -3  584.40   74.66
  12  -9   3  446.50   61.06
  12  10 -11   62.76   30.50
 -12  10  11   69.62   34.73
  12 -10 -11   32.27   37.23
 -12 -10  11   50.22   29.32
  12  10 -10  100.13   35.85
 -12  10  10  141.08   55.03
  12 -10 -10  196.04   45.51
 -12 -10  10  160.42   36.47
  12  10  -9   65.14   30.16
 -12  10   9   93.36   35.72
  12 -10  -9   22.90   34.04
 -12 -10   9   53.09   29.84
  12  10  -8   22.06   21.34
 -12  10   8   58.81   29.22
  12 -10  -8    7.93   32.99
 -12 -10   8   40.31   26.87
 -12  10   7  227.08   45.98
  12 -10  -7  186.73   48.87
 -12 -10   7  182.01   30.22
 -12 -10   7  169.74   37.76
  12  10  -6  231.01   40.88
 -12  10   6  163.49   49.86
  12 -10  -6  161.41   43.12
 -12 -10   6  225.29   33.98
  12  10  -5  488.22   58.88
 -12  10   5  451.73   63.65
  12 -10  -5  434.39   65.45
 -12 -10   5  511.13   52.59
  12  10  -4   70.24   31.25
 -12  10   4  131.98   36.96
  12 -10  -4  115.64   35.37
 -12 -10   4   92.35   29.77
  12  10  -3  180.43   37.63
 -12  10   3   67.53   36.45
  12 -10  -3  147.75   34.60
 -12 -10   3  117.39   33.65
  12  10  -2  130.13   33.50
 -12  10   2   77.57   32.65
  12 -10  -2   98.12   31.19
 -12 -10   2   70.54   29.04
  12  10  -1   87.83   33.29
 -12  10   1   32.75   38.42
  12 -10  -1  117.47   29.40
 -12 -10   1   75.32   33.17
  12  10   0   58.44   30.04
 -12  10   0    6.16   27.83
  12 -10   0   20.08   34.82
 -12 -10   0   67.96   27.86
  12  10   1   97.76   36.38
 -12  10  -1   70.42   31.69
  12 -10   1   83.26   35.94
 -12 -10  -1   62.49   35.71
 -12  10  -2   84.28   34.32
  12  10   2  153.27   42.51
 -12 -10  -2  156.85   42.34
  12 -10   2  126.71   33.14
  12  11 -10  104.56   32.04
 -12  11  10  100.29   42.36
  12 -11 -10  110.09   39.91
 -12 -11  10   90.93   34.23
  12  11  -9  117.93   30.19
 -12  11   9   45.02   41.26
  12 -11  -9   99.03   39.26
 -12 -11   9  120.92   34.73
 -12  11   8   -3.63   36.00
  12 -11  -8   54.01   38.36
 -12 -11   8  111.76   29.82
 -12  11   7  217.50   48.06
  12 -11  -7  244.59   47.45
 -12 -11   7  229.83   43.84
  12  11  -6  130.67   39.64
 -12  11   6  183.16   44.24
  12 -11  -6  231.86   44.73
 -12 -11   6  138.18   30.38
  12  11  -5  195.26   32.49
 -12  11   5   -4.54   33.93
  12 -11  -5   32.49   32.98
 -12 -11   5   12.82   30.66
  12  11  -4   34.30   27.84
 -12  11   4   50.54   29.76
  12 -11  -4   21.58   29.09
 -12 -11   4   47.95   23.85
  12  11  -3   66.18   31.24
 -12  11   3   74.01   30.77
  12 -11  -3   -2.17   30.69
 -12 -11   3   68.08   25.99
  12  11  -2   82.82   37.50
 -12  11   2   99.21   35.80
  12 -11  -2  102.00   34.65
 -12 -11   2  107.94   32.91
  12  11  -1  363.17   64.31
 -12  11   1  370.45   71.19
  12 -11  -1  542.32   63.05
 -12 -11   1  502.32   61.27
  12  11   0  275.44   54.03
 -12  11   0  228.50   49.27
  12 -11   0  263.73   46.32
 -12 -11   0  324.43   63.18
 -12  11  -1  225.22   44.71
  12  11   1  221.06   49.24
 -12 -11  -1  243.73   47.73
  12 -11   1  164.44   41.31
 -12  12   8  324.77   59.25
  12 -12  -8  372.38   60.57
 -12 -12   8  265.60   52.85
 -12  12   7   80.69   39.27
  12 -12  -7   98.16   36.72
 -12 -12   7   52.10   34.55
  12  12  -6  150.55   41.21
 -12  12   6  180.13   47.86
  12 -12  -6  219.46   46.27
  12  12  -5  170.41   45.71
 -12  12   5  259.38   59.25
  12 -12  -5  261.99   60.00
  12  12  -4    6.03   28.36
 -12  12   4    0.13   29.71
  12 -12  -4   16.53   28.78
 -12 -12   4   48.60   24.06
  12  12  -3   83.80   43.77
 -12  12   3  178.59   36.72
  12 -12  -3   47.39   44.67
 -12 -12   3   99.84   33.32
  12  12  -2   -2.36   32.73
 -12  12   2  109.58   32.61
  12 -12  -2   91.39   33.38
 -12 -12   2   51.64   30.96
  12  12  -1  -20.31   31.01
 -12  12   1    9.70   28.33
  12 -12  -1   41.37   29.80
 -12 -12   1   65.97   29.02
  13   0 -14   23.43   30.98
  13   0 -13  249.46   43.08
 -13   0  13  118.77   31.54
  13   0 -12   -3.59   26.45
 -13   0  12   26.49   25.72
  13   0 -11  216.06   40.43
 -13   0  11  173.40   34.97
  13   0 -10  156.92   37.14
 -13   0  10  198.33   35.69
  13   0  -9   50.53   27.17
 -13   0   9   55.48   26.38
  13   0  -8  231.16   46.42
 -13   0   8  191.57   39.16
  13   0  -7    9.81   21.04
 -13   0   7    6.92   21.75
  13   0  -6   37.60   22.67
 -13   0   6   68.90   27.64
  13   0  -5  161.59   24.97
  13   0  -5  241.89   36.86
 -13   0   5  205.27   35.75
  13   0  -4  490.67   44.84
  13   0  -4  557.02   46.10
 -13   0   4  646.95   68.05
  13   0  -3  181.55   25.32
  13   0  -3  209.84   29.80
 -13   0   3  190.52   41.94
  13   0  -2   24.01   17.80
  13   0  -2  -11.26   18.10
 -13   0   2   39.32   25.91
  13   0  -1  896.91   71.85
  13   0  -1  895.25   59.11
 -13   0   1 1049.22   91.37
  13   0   0   44.57   24.61
 -13   0   0   55.82   29.38
  13   0   1   44.16   22.32
 -13   0  -1   61.23   30.56
  13   0   2   -0.80   19.51
 -13   0  -2  -33.85   27.85
  13   0   3   14.62   24.14
 -13   0  -3   47.28   30.37
  13   0   4  127.16   38.16
 -13   0  -4   85.08   39.06
  13   1 -14  341.04   58.47
 -13   1  14  278.46   43.57
  13  -1 -14  360.34   60.83
  13   1 -13  236.40   48.53
 -13   1  13  223.98   39.22
  13  -1 -13  281.00   49.27
 -13  -1  13  235.30   36.64
  13   1 -12  277.14   44.98
 -13   1  12  243.88   36.93
  13  -1 -12  230.33   46.08
 -13  -1  12  168.63   36.07
  13   1 -11  111.48   33.17
 -13   1  11   71.96   37.61
  13  -1 -11  144.43   34.55
 -13  -1  11   84.42   28.31
  13   1 -10  -35.84   25.05
 -13   1  10    0.13   24.07
  13  -1 -10  -44.54   25.57
 -13  -1  10   -7.66   22.31
  13   1  -9   32.94   20.64
 -13   1   9  -26.32   21.49
  13  -1  -9    4.10   27.19
 -13  -1   9   15.95   21.86
  13   1  -8   32.17   21.39
 -13   1   8   23.94   24.49
 -13  -1   8    1.93   23.03
  13   1  -7  193.45   23.23
  13   1  -7  200.31   34.96
 -13   1   7  265.07   39.72
  13  -1  -7  279.71   38.43
 -13  -1   7  248.39   38.51
  13   1  -6  157.13   22.04
  13   1  -6  184.96   31.28
 -13   1   6  223.85   48.57
  13  -1  -6  186.36   33.83
 -13  -1   6  179.44   45.41
  13   1  -5   81.19   21.09
  13   1  -5  103.64   23.05
 -13   1   5  131.63   31.62
  13  -1  -5   73.20   25.74
 -13  -1   5  102.47   32.86
  13   1  -4  152.12   28.35
  13   1  -4  147.64   26.24
 -13   1   4  393.18   44.10
  13  -1  -4  186.85   35.49
 -13  -1   4  177.43   36.88
  13   1  -3  889.61   68.66
 -13   1   3 1011.59   89.92
  13   1  -3  845.56   63.32
  13  -1  -3  818.95   59.59
  13  -1  -3  818.94   52.75
 -13  -1   3 1022.78   88.03
  13   1  -2   42.24   22.23
  13   1  -2   37.67   15.00
 -13   1   2   19.04   28.19
  13  -1  -2   26.07   18.78
  13  -1  -2   48.86   21.72
 -13  -1   2   50.84   29.17
  13   1  -1   70.00   21.49
 -13   1   1   74.96   31.76
  13  -1  -1   64.23   21.09
 -13  -1   1   76.41   35.30
  13  -1  -1   60.72   18.31
  13   1   0  164.36   27.44
 -13   1   0  108.14   37.76
  13  -1   0  104.38   25.09
 -13  -1   0  134.96   39.28
  13   1   1  178.73   30.32
 -13   1  -1   97.19   39.71
  13  -1   1  146.73   27.76
 -13  -1  -1  121.66   40.90
  13   1   2   47.23   31.22
 -13   1  -2   87.68   33.07
  13  -1   2   36.70   22.97
 -13  -1  -2   64.87   33.39
  13   1   3  106.10   36.46
 -13   1  -3  123.94   38.56
  13  -1   3   55.04   34.66
 -13  -1  -3   90.63   37.23
  13   1   4    7.73   29.97
 -13   1  -4   -4.29   28.06
  13  -1   4   -4.68   21.68
 -13  -1  -4  -34.10   27.66
  13   2 -14  339.79   61.53
 -13   2  14  193.78   45.75
  13  -2 -14  160.14   50.29
  13   2 -13   55.65   26.94
 -13   2  13  -12.67   21.76
  13  -2 -13  -10.32   29.12
  13   2 -12   -0.46   27.63
 -13   2  12   74.49   29.21
  13  -2 -12   -3.04   36.16
 -13  -2  12   13.93   20.96
  13   2 -11   28.24   27.91
 -13   2  11   85.20   26.56
  13  -2 -11   81.38   29.02
 -13  -2  11   -0.30   22.40
  13   2 -10   64.99   35.53
 -13   2  10   94.51   29.07
  13  -2 -10   92.81   30.10
 -13  -2  10   34.16   24.83
  13   2  -9   22.27   19.46
  13   2  -9   26.96   23.92
 -13   2   9   33.38   26.31
  13  -2  -9   48.53   26.69
 -13  -2   9   45.95   22.74
  13   2  -8  134.67   22.07
  13   2  -8  165.44   33.77
 -13   2   8  196.22   35.84
  13  -2  -8  182.72   35.70
 -13  -2   8  232.95   32.38
  13   2  -7   37.74   19.90
  13   2  -7   11.83   26.69
 -13   2   7   61.12   27.29
  13  -2  -7   40.73   24.81
 -13  -2   7   43.71   25.23
  13   2  -6  310.29   38.40
  13   2  -6  318.42   38.06
 -13   2   6  361.70   52.24
  13  -2  -6  382.39   52.11
 -13  -2   6  396.52   45.96
  13   2  -5  183.48   25.43
  13   2  -5  180.97   32.43
 -13   2   5  185.92   37.89
  13  -2  -5  187.10   39.70
 -13  -2   5  153.87   36.14
  13   2  -4  327.76   43.57
  13   2  -4  352.95   39.93
 -13   2   4  495.38   54.26
  13  -2  -4  362.13   40.20
 -13  -2   4  403.09   57.73
  13   2  -3  290.08   32.26
  13   2  -3  261.48   30.56
 -13   2   3  296.18   47.52
  13  -2  -3  243.98   35.56
 -13  -2   3  296.20   47.76
  13   2  -2  258.79   34.62
 -13   2   2  380.90   52.66
  13  -2  -2  292.18   31.60
 -13  -2   2  280.94   45.40
  13   2  -1  589.24   49.06
 -13   2   1  528.65   61.22
  13  -2  -1  443.57   38.07
 -13  -2   1  557.32   64.12
  13  -2  -1  432.24   38.16
  13   2   0   44.33   25.90
 -13   2   0   18.80   28.26
  13  -2   0   21.34   15.27
 -13  -2   0  -13.83   28.18
  13  -2   0   30.69   16.30
  13   2   1  445.60   50.20
 -13   2  -1  540.99   62.95
  13  -2   1  336.73   46.78
 -13  -2  -1  565.27   65.71
  13   2   2   14.97   22.67
 -13   2  -2   83.98   33.38
  13  -2   2   -3.08   18.78
 -13  -2  -2   12.92   29.02
  13   2   3  142.89   42.05
 -13   2  -3  110.94   38.92
  13  -2   3   98.39   28.53
 -13  -2  -3  166.80   46.12
  13   2   4   45.34   41.16
 -13   2  -4  106.40   38.19
  13  -2   4  140.13   34.41
 -13  -2  -4   74.10   50.85
  13   3 -14  122.22   37.96
 -13   3  14   74.87   32.38
  13  -3 -14  118.59   40.91
  13   3 -13  285.63   51.19
 -13   3  13  290.49   47.13
  13  -3 -13  312.05   56.93
  13   3 -12  217.10   41.39
 -13   3  12  182.98   39.38
  13  -3 -12  213.09   46.12
 -13  -3  12  150.32   30.60
  13   3 -11   16.06   28.12
 -13   3  11   24.79   26.49
  13  -3 -11   -2.86   31.18
 -13  -3  11   72.70   20.46
  13   3 -10  160.82   35.00
 -13   3  10  159.05   37.32
  13  -3 -10  113.32   38.30
 -13  -3  10  134.05   23.73
 -13  -3  10  154.49   29.59
  13   3  -9   44.87   12.93
  13   3  -9   79.82   26.55
 -13   3   9  105.76   29.44
  13  -3  -9   91.53   29.03
 -13  -3   9   76.53   26.33
  13   3  -8   76.71   27.03
  13   3  -8  168.84   28.90
 -13   3   8  139.93   35.62
  13  -3  -8  114.94   33.56
 -13  -3   8  123.02   37.29
  13   3  -7  405.02   36.98
  13   3  -7  396.56   41.75
 -13   3   7  463.50   54.51
  13  -3  -7  405.64   53.21
 -13  -3   7  415.94   49.14
  13   3  -6   98.34   23.80
  13   3  -6   68.06   26.64
 -13   3   6   68.07   30.49
  13  -3  -6   47.20   27.39
 -13  -3   6   94.05   33.15
  13   3  -5  432.65   41.84
  13   3  -5  496.17   41.88
 -13   3   5  484.22   61.88
  13  -3  -5  472.91   48.87
 -13  -3   5  505.39   62.67
  13   3  -4   28.92   26.76
  13   3  -4   81.88   21.82
 -13   3   4   49.92   39.14
  13  -3  -4   75.70   23.16
 -13  -3   4  122.21   28.51
  13   3  -3  557.27   55.07
 -13   3   3  484.88   59.68
  13  -3  -3  412.08   44.63
 -13  -3   3  384.76   55.44
  13   3  -2   76.38   26.32
 -13   3   2  140.67   36.15
  13  -3  -2   95.39   22.23
 -13  -3   2  100.06   33.30
  13   3  -1  283.51   40.14
 -13   3   1  243.90   65.20
  13  -3  -1  303.61   40.23
 -13  -3   1  395.30   50.82
  13   3   0  377.15   54.34
 -13   3   0  445.68   56.22
  13  -3   0  317.48   35.33
 -13  -3   0  428.36   58.62
  13   3   1  269.54   43.47
 -13   3  -1  276.17   51.00
 -13  -3  -1  336.11   61.81
  13   3   2  120.47   40.23
 -13   3  -2  181.88   38.43
 -13  -3  -2   78.63   39.60
  13   3   3   -9.44   23.38
 -13   3  -3  -29.75   26.77
 -13  -3  -3   53.92   27.05
  13   3   4  142.44   40.32
 -13   3  -4  162.75   41.83
 -13  -3  -4  144.79   46.40
  13   4 -14  111.47   38.69
 -13   4  14   76.49   39.36
  13  -4 -14   74.22   41.10
  13   4 -13  125.23   36.78
 -13   4  13  112.98   41.27
  13  -4 -13   91.77   54.24
  13   4 -12   35.81   28.76
 -13   4  12   34.91   34.61
  13  -4 -12   50.75   32.01
  13   4 -11   60.62   26.41
 -13   4  11   46.42   27.58
  13  -4 -11   57.44   35.46
 -13  -4  11   23.29   19.28
 -13  -4  11    2.99   26.07
  13   4 -10   29.55   23.33
 -13   4  10   20.05   30.89
  13  -4 -10   60.26   26.12
 -13  -4  10  -13.10   20.83
 -13  -4  10   -4.11   24.51
  13   4  -9  120.09   30.63
 -13   4   9  126.35   36.02
  13  -4  -9  124.79   33.58
 -13  -4   9   81.20   29.41
 -13  -4   9  148.65   28.75
  13   4  -8   97.46   27.41
  13   4  -8  123.80   26.09
 -13   4   8   66.90   32.89
  13  -4  -8   83.74   31.09
 -13  -4   8   42.03   32.18
  13   4  -7   31.83   16.85
  13   4  -7   30.74   23.90
 -13   4   7  -13.96   32.76
  13  -4  -7   -1.24   24.96
 -13  -4   7   28.56   21.81
  13   4  -6  129.71   23.71
  13   4  -6   87.97   22.84
 -13   4   6  138.06   35.20
  13  -4  -6   99.56   31.75
 -13  -4   6  111.65   29.45
  13   4  -5   68.93   26.98
  13   4  -5    3.37   22.94
 -13   4   5  130.29   35.85
  13  -4  -5   66.71   24.37
 -13  -4   5   72.78   26.27
  13   4  -4  402.48   45.65
  13   4  -4  365.81   32.32
 -13   4   4  416.78   59.09
  13  -4  -4  492.01   59.88
 -13  -4   4  446.81   53.03
  13   4  -3  113.28   28.28
 -13   4   3  108.25   35.82
  13  -4  -3  130.93   29.10
 -13  -4   3  161.31   42.88
  13   4  -2  231.66   36.22
 -13   4   2  267.22   43.22
  13  -4  -2  213.70   38.19
 -13  -4   2  155.65   44.63
  13   4  -1  372.49   42.90
 -13   4   1  361.63   57.78
  13  -4  -1  320.33   37.10
 -13  -4   1  277.11   54.93
  13   4   0   83.65   28.67
 -13   4   0   33.49   34.64
  13  -4   0   64.18   21.43
 -13  -4   0   55.46   34.20
  13   4   1   -4.67   26.94
 -13   4  -1    9.91   23.21
  13  -4   1   -3.48   16.40
 -13  -4  -1   11.38   27.13
  13   4   2  134.05   39.19
 -13   4  -2  181.09   49.32
 -13  -4  -2  217.39   43.22
  13   4   3  173.48   41.11
 -13   4  -3  140.15   41.31
 -13  -4  -3  207.32   46.90
  13   4   4  165.75   39.48
 -13   4  -4   69.96   40.26
 -13  -4  -4  146.41   42.91
  13   5 -13  202.54   42.49
 -13   5  13  143.04   50.30
  13  -5 -13  120.88   45.92
  13   5 -12  132.97   34.18
 -13   5  12  127.69   45.51
  13  -5 -12  109.27   46.89
 -13  -5  12   77.91   27.28
  13   5 -11  103.16   32.56
 -13   5  11   82.07   35.51
  13  -5 -11  102.68   36.04
 -13  -5  11  111.89   26.03
  13   5 -10  242.46   45.78
 -13   5  10  234.28   52.29
  13  -5 -10  241.35   44.50
 -13  -5  10  225.27   39.27
 -13  -5  10  194.05   32.29
  13   5  -9   57.69   29.50
 -13   5   9   48.17   30.43
  13  -5  -9   42.66   30.61
 -13  -5   9   46.41   20.90
 -13  -5   9    4.18   26.50
  13   5  -8  146.79   26.94
  13   5  -8  174.03   32.59
 -13   5   8  174.19   39.66
  13  -5  -8  184.05   38.17
 -13  -5   8  124.37   30.03
  13   5  -7  272.41   41.36
  13   5  -7  274.08   35.50
 -13   5   7  240.51   54.38
  13  -5  -7  290.16   44.78
 -13  -5   7  256.24   37.19
  13   5  -6  444.79   54.05
  13   5  -6  407.93   38.97
 -13   5   6  450.18   58.57
  13  -5  -6  387.35   50.58
 -13  -5   6  460.83   48.04
  13   5  -5   25.35   21.70
  13   5  -5  -30.18   16.70
 -13   5   5  -11.30   29.93
  13  -5  -5   17.18   19.37
 -13  -5   5   23.89   21.91
  13   5  -4  267.20   37.63
 -13   5   4  266.00   49.88
  13  -5  -4  265.19   40.27
 -13  -5   4  247.93   44.15
  13   5  -3   59.83   25.21
 -13   5   3   55.19   30.53
  13  -5  -3   58.65   23.45
 -13  -5   3   70.94   28.66
  13   5  -2  141.17   28.89
 -13   5   2  102.06   32.53
  13  -5  -2   32.23   31.28
 -13  -5   2   93.93   34.58
  13   5  -1   99.76   33.08
 -13   5   1  151.95   36.59
  13  -5  -1   97.28   26.33
 -13  -5   1  163.90   37.93
  13   5   0  -48.29   27.76
 -13   5   0   98.88   27.18
  13  -5   0   -6.18   23.15
 -13  -5   0    9.34   27.15
  13   5   1  111.49   31.59
 -13   5  -1   35.70   35.48
  13  -5   1   92.84   29.40
 -13  -5  -1   90.50   35.25
  13   5   2   18.83   24.87
 -13   5  -2   15.69   26.43
 -13  -5  -2  -13.01   30.37
  13   5   3   97.16   36.17
 -13   5  -3  103.34   36.73
 -13  -5  -3  131.30   42.87
  13   6 -13   53.80   29.98
 -13   6  13  -32.69   28.44
  13  -6 -13   40.02   32.06
  13   6 -12  107.91   31.88
 -13   6  12   71.64   33.61
  13  -6 -12   43.61   36.49
 -13  -6  12   64.33   26.76
  13   6 -11   -1.55   23.28
 -13   6  11  -30.98   26.95
  13  -6 -11  -18.74   27.21
 -13  -6  11   15.21   19.11
  13   6 -10   36.81   26.67
 -13   6  10   96.20   35.04
  13  -6 -10   61.84   33.42
 -13  -6  10   82.00   22.70
 -13  -6  10   67.49   25.67
  13   6  -9   14.14   23.91
 -13   6   9   78.35   39.04
  13  -6  -9   51.49   31.28
 -13  -6   9   14.57   21.64
 -13  -6   9  135.35   28.87
  13   6  -8  134.58   22.99
  13   6  -8  166.26   37.15
 -13   6   8  203.86   40.75
  13  -6  -8  207.88   41.54
 -13  -6   8  216.55   33.71
  13   6  -7    7.98   21.03
  13   6  -7    2.08   23.35
 -13   6   7   68.71   27.71
  13  -6  -7    6.45   32.56
 -13  -6   7   38.64   27.25
  13   6  -6  161.80   30.24
  13   6  -6  166.44   28.73
 -13   6   6  146.91   39.33
  13  -6  -6  143.47   34.37
 -13  -6   6  122.93   31.88
  13   6  -5  164.60   32.35
 -13   6   5  195.75   41.34
  13  -6  -5  204.27   37.81
 -13  -6   5  127.86   37.19
  13   6  -4  140.53   30.86
 -13   6   4  126.83   33.66
  13  -6  -4   93.86   33.73
 -13  -6   4  164.46   43.99
  13   6  -3  234.54   39.13
 -13   6   3  191.16   47.36
  13  -6  -3  232.27   38.00
 -13  -6   3  255.22   44.62
  13   6  -2   98.84   31.81
 -13   6   2  112.39   38.30
  13  -6  -2  106.87   28.87
 -13  -6   2  161.59   36.73
  13   6  -1  210.24   37.17
 -13   6   1  227.16   40.31
  13  -6  -1  154.94   30.90
 -13  -6   1  137.23   41.90
  13   6   0  219.54   50.95
 -13   6   0  218.15   44.54
  13  -6   0  155.50   40.44
 -13  -6   0  226.65   47.73
  13   6   1  355.04   55.51
 -13   6  -1  570.81   71.62
  13  -6   1  303.63   51.62
 -13  -6  -1  231.19   56.77
 -13   6  -2  323.49   56.64
  13   6   2  411.99   58.15
 -13  -6  -2  424.57   65.25
  13  -6   2  324.84   38.35
  13   6   3  105.14   39.09
 -13   6  -3  140.10   38.83
 -13  -6  -3  134.54   55.00
  13   7 -12   23.78   27.95
 -13   7  12   28.41   30.71
  13  -7 -12   45.54   30.08
 -13  -7  12    5.87   24.27
  13   7 -11  169.97   37.32
 -13   7  11  134.11   45.38
  13  -7 -11  152.18   45.01
 -13  -7  11  128.09   40.34
  13   7 -10   24.22   24.01
 -13   7  10   36.79   31.04
  13  -7 -10   49.11   29.55
 -13  -7  10    3.11   21.52
  13   7  -9  350.32   41.55
 -13   7   9  254.72   51.14
  13  -7  -9  319.44   50.26
 -13  -7   9  226.92   44.23
 -13  -7   9  264.91   41.93
  13   7  -8  143.12   35.45
 -13   7   8  145.55   39.90
  13  -7  -8  161.87   41.06
 -13  -7   8  147.68   38.50
  13   7  -7  125.75   27.78
  13   7  -7  109.01   28.83
 -13   7   7   40.48   35.27
  13  -7  -7   48.45   32.61
 -13  -7   7   87.42   27.85
 -13   7   6   52.29   29.80
  13  -7  -6   32.28   29.49
 -13  -7   6   46.06   26.01
  13   7  -5   90.01   28.72
 -13   7   5  107.76   34.79
  13  -7  -5   55.48   30.98
 -13  -7   5   79.53   35.73
  13   7  -4  261.74   42.53
 -13   7   4  329.26   50.15
  13  -7  -4  242.18   43.00
 -13  -7   4  271.23   43.66
  13   7  -3  250.94   42.81
 -13   7   3   93.45   42.93
  13  -7  -3  171.14   35.95
 -13  -7   3  226.14   38.85
  13   7  -2   15.92   33.02
 -13   7   2   51.09   30.56
  13  -7  -2   53.10   24.89
 -13  -7   2   33.37   27.80
  13   7  -1  144.00   38.03
 -13   7   1  143.15   38.12
  13  -7  -1  132.41   30.67
 -13  -7   1  147.70   40.33
  13   7   0  116.68   38.50
 -13   7   0  113.45   37.92
  13  -7   0  165.54   32.12
 -13  -7   0  114.31   41.41
  13   7   1   68.80   48.48
 -13   7  -1  112.35   38.22
  13  -7   1  187.00   37.97
 -13  -7  -1  147.79   44.70
 -13   7  -2   72.02   39.43
  13   7   2   66.72   34.24
 -13  -7  -2   37.81   37.02
  13  -7   2   78.88   30.73
  13   8 -11  292.69   48.68
 -13   8  11  321.78   57.37
  13  -8 -11  340.93   73.69
 -13  -8  11  258.20   53.77
 -13   8  10   -8.15   26.97
  13  -8 -10   16.20   25.22
 -13  -8  10  -13.25   25.46
  13   8  -9  229.20   35.44
 -13   8   9  235.01   59.77
  13  -8  -9  214.00   60.26
 -13  -8   9  138.06   38.30
  13   8  -8   51.86   28.95
 -13   8   8   50.16   34.18
  13  -8  -8   69.11   32.40
 -13  -8   8   41.60   23.88
 -13  -8   8   75.57   26.26
  13   8  -7  -17.71   28.11
 -13   8   7   12.94   28.62
  13  -8  -7  -37.99   26.26
 -13  -8   7  -10.40   20.78
  13   8  -6  139.18   34.38
 -13   8   6  139.31   37.68
  13  -8  -6  170.63   51.25
 -13  -8   6  174.64   33.83
  13   8  -5   92.32   32.07
 -13   8   5  155.35   46.93
  13  -8  -5  123.24   35.09
 -13  -8   5  132.23   38.92
  13   8  -4  329.17   45.52
 -13   8   4  262.86   51.17
  13  -8  -4  311.24   46.47
 -13  -8   4  292.91   46.74
  13   8  -3    0.46   23.47
 -13   8   3  -35.47   26.07
  13  -8  -3   17.83   22.36
 -13  -8   3   -8.18   29.16
 -13   8   2   26.01   29.19
  13  -8  -2   13.31   24.51
 -13  -8   2   50.16   28.72
  13   8  -1  166.12   40.56
 -13   8   1  204.62   52.24
  13  -8  -1  125.42   35.55
 -13  -8   1  201.15   43.16
  13   8   0  130.27   40.40
 -13   8   0   89.70   32.88
  13  -8   0   45.92   30.21
 -13  -8   0  120.37   39.83
  13   8   1   76.41   31.98
 -13   8  -1  -13.16   39.56
  13  -8   1   56.04   31.13
 -13  -8  -1   21.59   32.82
  13   9 -10  168.58   36.17
 -13   9  10  143.64   50.62
  13  -9 -10  192.70   45.56
 -13  -9  10  198.69   39.44
  13   9  -9   27.67   25.92
 -13   9   9   -5.25   30.26
  13  -9  -9  -14.75   29.46
 -13  -9   9   36.50   24.20
 -13   9   8  -21.81   31.14
  13  -9  -8   44.47   35.41
 -13  -9   8   42.17   25.44
  13   9  -7   59.55   26.87
 -13   9   7   53.64   33.17
  13  -9  -7   26.69   34.96
 -13  -9   7   44.55   29.38
  13   9  -6  126.64   34.51
 -13   9   6  134.54   41.12
  13  -9  -6  134.05   39.90
 -13  -9   6  143.56   39.85
  13   9  -5   38.62   27.47
 -13   9   5   60.18   30.19
  13  -9  -5   24.74   30.08
 -13  -9   5   27.70   32.16
  13   9  -4   62.01   26.03
 -13   9   4  -23.78   28.91
  13  -9  -4   15.05   27.70
 -13  -9   4   46.81   26.58
  13   9  -3  143.46   44.97
 -13   9   3  164.52   40.39
  13  -9  -3  143.54   37.64
 -13  -9   3  109.53   37.47
  13   9  -2   65.85   33.54
 -13   9   2   74.61   34.98
  13  -9  -2   86.77   34.70
 -13  -9   2   82.30   41.52
  13   9  -1   51.41   26.02
 -13   9   1   13.23   27.18
  13  -9  -1  -32.29   27.25
 -13  -9   1    0.95   27.25
  13   9   0  267.66   46.50
 -13   9   0  187.95   45.13
  13  -9   0  185.94   50.25
 -13  -9   0  164.46   46.96
 -13  10   9   10.73   34.06
  13 -10  -9   62.66   33.78
 -13 -10   9   26.26   28.03
 -13  10   8   85.98   40.15
  13 -10  -8  173.36   41.56
 -13 -10   8   43.87   35.58
  13  10  -7   34.03   29.33
 -13  10   7   84.86   36.80
  13 -10  -7   66.96   36.09
  13  10  -6  228.18   40.41
 -13  10   6  159.19   44.83
  13 -10  -6  185.38   41.90
 -13 -10   6  135.05   34.02
  13  10  -5   55.06   30.93
 -13  10   5   69.41   34.77
  13 -10  -5   77.44   31.78
 -13 -10   5   31.10   27.49
  13  10  -4    5.74   29.30
 -13  10   4   71.47   31.66
  13 -10  -4   59.54   37.54
 -13 -10   4   60.02   29.11
  13  10  -3    0.19   25.99
 -13  10   3   22.54   26.28
  13 -10  -3  -18.22   23.59
 -13 -10   3   16.89   25.16
  13  10  -2  501.22   69.45
 -13  10   2  502.13   71.18
  13 -10  -2  582.16   67.35
 -13 -10   2  535.25   66.67
  13  10  -1  285.03   52.76
 -13  10   1  256.71   51.76
  13 -10  -1  306.95   47.83
 -13 -10   1  188.60   59.68
  13  11  -7  -23.58   27.97
 -13  11   7  -41.19   40.83
  13 -11  -7    0.42   33.82
  13  11  -6  106.73   37.11
 -13  11   6  130.74   44.59
  13 -11  -6  122.24   40.67
  13  11  -5  126.42   41.24
 -13  11   5   47.79   39.85
  13 -11  -5   52.50   44.20
 -13 -11   5   79.90   29.70
  13  11  -4  180.63   41.49
 -13  11   4  155.02   43.40
  13 -11  -4  112.78   41.57
 -13 -11   4  177.34   44.86
  13  11  -3   65.76   36.36
 -13  11   3   76.34   35.84
  13 -11  -3  105.02   35.32
 -13 -11   3   74.98   39.12
  14   0 -13  264.08   52.68
 -14   0  13  238.55   41.63
  14   0 -12   25.02   32.46
 -14   0  12   94.59   28.23
  14   0 -11  199.81   43.45
 -14   0  11  228.66   41.09
  14   0 -10   28.82   23.94
 -14   0  10  -10.37   23.22
  14   0  -9   36.54   30.12
 -14   0   9   79.14   27.65
  14   0  -8  227.57   50.89
 -14   0   8  307.25   44.56
  14   0  -7  299.82   49.37
 -14   0   7  326.22   49.49
  14   0  -6   19.98   23.93
 -14   0   6  131.07   31.63
  14   0  -5  532.67   57.80
 -14   0   5  495.71   67.47
  14   0  -4   17.35   20.64
 -14   0   4   20.68   26.97
  14   0  -3  359.53   47.07
 -14   0   3  566.22   63.42
 -14   0   2  438.99   61.28
  14   0  -1   62.79   27.62
 -14   0   1  137.28   36.63
  14   0   0   16.92   25.26
 -14   0   0   61.40   32.35
  14   0   1   -9.39   23.93
 -14   0  -1   33.92   28.34
  14   0   2   59.02   26.39
 -14   0  -2  103.10   45.81
  14   1 -13   59.76   33.63
 -14   1  13   48.14   28.24
  14  -1 -13   63.52   34.22
  14   1 -12  133.29   36.36
 -14   1  12  123.90   33.01
  14  -1 -12   92.17   37.61
 -14  -1  12   93.33   30.10
  14   1 -11  165.52   38.94
 -14   1  11  166.98   36.21
  14  -1 -11  160.58   40.04
 -14  -1  11  167.57   43.84
  14   1 -10  215.10   44.18
 -14   1  10  246.68   41.31
  14  -1 -10  280.88   48.46
 -14  -1  10  272.43   40.78
  14   1  -9   82.37   27.74
 -14   1   9   24.94   37.90
  14  -1  -9   60.60   30.58
 -14  -1   9   43.62   33.48
  14   1  -8   65.39   27.14
 -14   1   8   57.26   30.71
  14  -1  -8    3.95   27.69
 -14  -1   8   74.50   27.95
  14   1  -7  -19.85   20.24
 -14   1   7   14.47   24.72
  14  -1  -7   23.50   22.20
 -14  -1   7    0.26   24.10
  14   1  -6  446.63   47.81
 -14   1   6  424.32   59.25
  14  -1  -6  493.15   59.64
 -14  -1   6  438.63   60.15
  14   1  -5  127.26   32.25
 -14   1   5  110.06   35.85
  14  -1  -5  175.66   31.02
 -14  -1   5  185.94   45.66
  14   1  -4   49.99   22.82
 -14   1   4  134.07   35.10
  14  -1  -4   49.78   20.97
 -14  -1   4   32.15   31.60
  14   1  -3   39.43   22.46
 -14   1   3  -12.12   32.17
  14  -1  -3   43.30   23.28
 -14  -1   3   24.59   28.85
  14   1  -2  502.29   47.64
 -14   1   2  687.08   70.55
  14  -1  -2  497.96   43.16
 -14  -1   2  564.42   65.68
  14   1  -1  108.98   35.41
 -14   1   1  214.09   51.15
 -14  -1   1  193.47   44.08
  14   1   0  159.85   31.15
 -14   1   0  212.43   43.25
 -14  -1   0  121.35   43.97
 -14   1  -1   -5.46   31.72
 -14  -1  -1  -39.22   27.75
  14   1   2   49.34   27.17
 -14   1  -2   42.88   35.06
 -14  -1  -2   71.97   36.91
  14   2 -13  189.39   46.54
 -14   2  13  177.23   40.08
  14  -2 -13  179.01   48.98
  14   2 -12  342.56   47.56
 -14   2  12  174.86   44.33
  14  -2 -12  267.67   57.67
 -14  -2  12  200.73   36.01
  14   2 -11  -20.51   29.01
 -14   2  11   42.85   35.11
  14  -2 -11   55.23   32.49
 -14  -2  11   71.17   23.89
  14   2 -10   82.70   32.36
 -14   2  10   14.82   28.83
  14  -2 -10   49.03   31.11
 -14  -2  10   33.81   24.94
  14   2  -9   25.33   24.99
 -14   2   9   30.03   28.43
  14  -2  -9   20.88   34.39
 -14  -2   9   58.96   26.69
  14   2  -8  926.85   94.53
 -14   2   8  974.11   98.16
  14  -2  -8  986.24   89.70
 -14  -2   8  980.95  105.25
  14   2  -7  531.54   55.87
 -14   2   7  472.95   66.06
  14  -2  -7  576.26   70.24
 -14  -2   7  578.61   64.11
  14   2  -6  317.30   40.71
 -14   2   6  279.78   51.68
  14  -2  -6  296.71   44.58
 -14  -2   6  330.77   48.74
  14   2  -5  172.30   27.67
  14   2  -5  191.83   28.45
 -14   2   5  155.15   43.22
  14  -2  -5  223.15   35.88
 -14  -2   5  231.80   50.06
  14   2  -4  299.92   34.06
  14   2  -4  227.88   36.24
 -14   2   4  349.16   50.54
  14  -2  -4  287.81   36.28
 -14  -2   4  336.30   51.80
  14   2  -3  106.58   26.46
 -14   2   3  175.63   38.31
  14  -2  -3  127.22   27.80
 -14  -2   3  136.54   36.66
  14   2  -2  356.82   49.27
 -14   2   2  407.18   60.11
  14  -2  -2  305.93   45.98
 -14  -2   2  514.73   68.32
  14   2  -1  106.48   25.73
 -14   2   1  127.15   36.23
 -14  -2   1   39.18   35.85
  14   2   0   71.60   33.20
 -14   2   0  111.99   38.27
 -14  -2   0  154.55   38.49
  14   2   1   97.71   31.70
 -14   2  -1  147.72   39.86
 -14  -2  -1  125.28   39.97
  14   2   2  198.28   41.92
 -14   2  -2  161.20   52.34
 -14  -2  -2  253.13   47.86
  14   3 -12  256.36   48.76
 -14   3  12  220.70   45.92
  14  -3 -12  171.80   49.29
  14   3 -11  260.41   44.00
 -14   3  11  222.13   47.61
  14  -3 -11  176.60   50.33
 -14  -3  11  230.17   40.25
  14   3 -10  354.83   43.89
 -14   3  10  246.81   49.42
  14  -3 -10  217.55   49.51
 -14  -3  10  284.82   44.00
  14   3  -9  120.20   35.35
 -14   3   9   70.72   36.70
  14  -3  -9  163.80   34.03
 -14  -3   9   35.40   29.81
  14   3  -8   18.59   22.60
 -14   3   8   16.72   28.60
  14  -3  -8   16.84   26.60
 -14  -3   8   25.67   23.77
  14   3  -7   17.45   19.77
  14   3  -7   12.80   23.99
 -14   3   7  -26.22   25.55
  14  -3  -7   47.87   21.97
 -14  -3   7  -13.54   23.90
  14   3  -6  330.67   43.91
  14   3  -6  414.54   49.98
 -14   3   6  373.19   55.31
  14  -3  -6  387.51   47.72
 -14  -3   6  466.67   61.04
  14   3  -5   89.76   24.69
  14   3  -5   84.29   21.67
 -14   3   5   87.65   36.14
  14  -3  -5   97.90   29.22
 -14  -3   5  148.75   32.01
  14   3  -4   63.74   23.97
 -14   3   4   63.75   35.12
  14  -3  -4   97.42   27.80
 -14  -3   4  158.75   33.43
  14   3  -3  178.29   37.12
 -14   3   3  201.49   44.76
  14  -3  -3  136.81   29.24
 -14  -3   3  178.33   39.94
  14   3  -2   20.97   28.91
 -14   3   2   49.98   34.10
  14  -3  -2   56.81   19.79
 -14  -3   2   19.38   32.08
  14   3  -1   89.84   28.31
 -14   3   1   75.49   36.95
  14  -3  -1   75.39   21.67
 -14  -3   1   95.58   36.18
  14   3   0  154.81   38.19
 -14   3   0  129.50   43.25
 -14  -3   0  110.94   41.56
  14   3   1   76.60   31.62
 -14   3  -1   98.10   37.37
 -14  -3  -1  125.73   40.49
  14   3   2  167.23   39.13
 -14   3  -2  148.10   54.41
 -14  -3  -2  127.00   44.04
  14   4 -12  131.12   38.43
 -14   4  12  140.67   41.95
  14  -4 -12  131.56   54.49
  14   4 -11  757.69   78.17
 -14   4  11  838.79   83.28
  14  -4 -11  809.79   87.56
 -14  -4  11  669.55   67.26
  14   4 -10   70.21   28.30
 -14   4  10   49.80   41.94
  14  -4 -10   61.27   34.30
 -14  -4  10   87.96   25.85
  14   4  -9   86.69   32.83
 -14   4   9   93.56   32.69
  14  -4  -9   57.21   39.18
 -14  -4   9   37.84   25.59
  14   4  -8  196.22   34.94
  14   4  -8  201.45   35.80
 -14   4   8  146.23   46.76
  14  -4  -8  243.55   42.47
 -14  -4   8  219.06   43.24
  14   4  -7   37.86   27.73
  14   4  -7  111.42   31.12
 -14   4   7   78.54   34.24
  14  -4  -7  111.48   32.92
 -14  -4   7   79.99   26.04
  14   4  -6   60.78   29.51
  14   4  -6   56.61   27.96
 -14   4   6   93.56   41.04
  14  -4  -6  107.61   35.26
 -14  -4   6  121.60   30.62
  14   4  -5   61.00   22.03
 -14   4   5   51.61   31.57
  14  -4  -5   34.00   25.27
 -14  -4   5    7.17   27.04
  14   4  -4  181.19   34.61
 -14   4   4  222.12   48.87
  14  -4  -4  263.63   40.87
 -14  -4   4  294.65   45.02
  14   4  -3  117.11   29.95
 -14   4   3  125.46   40.44
  14  -4  -3  144.82   34.43
 -14  -4   3   87.02   36.51
  14   4  -2  234.28   37.49
 -14   4   2  252.81   50.10
  14  -4  -2  208.51   40.75
 -14  -4   2  177.67   44.99
  14   4  -1  -12.60   26.91
 -14   4   1   13.38   29.67
  14  -4  -1  -31.55   21.54
 -14  -4   1   -4.30   34.63
  14   4   0  184.20   39.07
 -14   4   0  244.86   47.03
 -14  -4   0  173.50   47.37
  14   4   1  -44.76   23.97
 -14   4  -1   56.99   33.01
 -14  -4  -1   -2.23   27.85
  14   5 -12   63.98   28.36
 -14   5  12   25.42   31.26
  14  -5 -12    9.00   33.50
 -14   5  11  -25.03   26.36
  14  -5 -11   26.80   27.63
  14   5 -10  -16.01   23.62
 -14   5  10   38.79   33.83
  14  -5 -10   30.83   29.07
 -14  -5  10   16.58   20.41
  14   5  -9  149.57   29.38
  14   5  -9  158.78   32.73
 -14   5   9  110.50   41.28
  14  -5  -9  148.15   40.26
 -14  -5   9  122.90   29.23
  14   5  -8   35.10   28.26
  14   5  -8   69.50   25.13
 -14   5   8   70.18   33.42
  14  -5  -8   36.03   33.24
 -14  -5   8  108.34   31.16
  14   5  -7  157.18   39.16
  14   5  -7  213.52   30.47
 -14   5   7  238.88   44.65
  14  -5  -7  149.71   40.39
 -14  -5   7  106.97   36.58
  14   5  -6  136.05   35.47
 -14   5   6  118.69   41.52
  14  -5  -6  157.69   37.27
 -14  -5   6  154.34   41.83
  14   5  -5  120.80   30.69
 -14   5   5  132.82   42.38
  14  -5  -5  130.71   36.14
 -14  -5   5  175.89   35.41
  14   5  -4  115.75   31.48
 -14   5   4  139.67   37.80
  14  -5  -4  122.29   32.14
 -14  -5   4  134.73   35.66
  14   5  -3  274.69   44.88
 -14   5   3  333.88   57.75
  14  -5  -3  333.03   54.28
 -14  -5   3  392.78   55.05
  14   5  -2   73.75   36.11
 -14   5   2   74.99   35.86
  14  -5  -2   68.26   25.31
 -14  -5   2  111.33   36.09
  14   5  -1    8.25   26.49
 -14   5   1   51.51   31.99
  14  -5  -1   52.58   25.66
 -14  -5   1   11.39   31.84
  14   5   0  240.81   46.35
 -14   5   0  295.82   62.17
 -14  -5   0  245.05   53.90
  14   5   1  121.36   37.99
 -14   5  -1  186.04   42.73
 -14  -5  -1  125.85   46.38
  14   6 -11   60.60   28.64
 -14   6  11   40.94   36.87
  14  -6 -11   62.35   36.53
  14   6 -10  124.82   32.66
 -14   6  10  127.10   40.88
  14  -6 -10  118.65   39.95
 -14  -6  10  114.50   36.83
  14   6  -9  107.41   28.33
  14   6  -9   97.24   30.09
 -14   6   9  116.10   46.86
  14  -6  -9   77.26   38.29
 -14  -6   9  104.89   30.52
  14   6  -8  634.82   69.55
  14   6  -8  529.43   56.86
 -14   6   8  619.05   77.29
  14  -6  -8  658.59   72.13
 -14  -6   8  555.15   75.55
  14   6  -7  -12.88   19.20
 -14   6   7   -0.48   31.39
  14  -6  -7   15.85   25.64
 -14  -6   7  -11.06   21.34
  14   6  -6   46.61   28.15
 -14   6   6  115.89   36.79
  14  -6  -6  132.62   35.01
 -14  -6   6   91.48   33.30
  14   6  -5  171.24   45.54
 -14   6   5  188.12   48.56
  14  -6  -5  265.47   51.84
 -14  -6   5  237.14   44.10
  14   6  -4  121.90   33.07
 -14   6   4  153.15   42.56
  14  -6  -4  115.42   34.37
 -14  -6   4  164.34   46.63
  14   6  -3  123.19   37.43
 -14   6   3  190.33   45.72
  14  -6  -3  182.65   35.68
 -14  -6   3  183.61   42.34
  14   6  -2  125.82   41.76
 -14   6   2  132.81   39.52
  14  -6  -2   85.14   37.11
 -14  -6   2  152.01   38.83
  14   6  -1    3.49   25.94
 -14   6   1  -13.42   31.91
  14  -6  -1   39.24   19.50
 -14  -6   1   11.02   28.56
  14   6   0   33.03   29.74
 -14   6   0   46.27   33.11
  14  -6   0    6.72   26.92
 -14  -6   0   58.02   34.12
  14   7 -10  294.13   43.93
 -14   7  10  274.27   57.42
  14  -7 -10  269.91   58.29
 -14  -7  10  300.44   44.00
  14   7  -9  334.29   44.24
  14   7  -9  269.69   53.78
 -14   7   9  278.98   58.44
  14  -7  -9  351.41   57.80
  14   7  -8   47.89   33.29
 -14   7   8   79.18   36.60
  14  -7  -8  119.58   35.68
 -14  -7   8   49.02   35.11
  14   7  -7   27.46   23.43
 -14   7   7   76.30   27.97
  14  -7  -7   10.43   26.56
 -14  -7   7   -8.22   25.26
  14   7  -6  106.74   40.04
 -14   7   6  108.77   42.23
  14  -7  -6  133.79   40.95
 -14  -7   6  147.74   33.32
  14   7  -5  203.07   40.80
 -14   7   5  207.30   49.52
  14  -7  -5  249.49   42.73
 -14  -7   5  195.69   49.86
  14   7  -4   19.29   25.42
 -14   7   4   63.42   30.34
  14  -7  -4   20.04   26.69
 -14  -7   4  -16.71   26.47
  14   7  -3   92.04   38.81
 -14   7   3   93.13   38.61
  14  -7  -3   85.63   30.00
 -14  -7   3   39.36   34.43
  14   7  -2  226.95   47.04
 -14   7   2  208.94   47.62
  14  -7  -2  234.46   39.32
 -14  -7   2  333.89   61.81
  14   7  -1  -24.10   31.48
 -14   7   1   -5.22   25.12
  14  -7  -1   11.69   20.83
 -14  -7   1  -13.58   28.56
  14   8  -9   26.60   24.82
 -14   8   9   18.21   32.86
  14  -8  -9   24.99   30.44
  14   8  -8   72.59   30.93
 -14   8   8   80.68   46.81
  14  -8  -8  141.14   36.44
  14   8  -7   -4.12   26.73
 -14   8   7  126.29   33.54
  14  -8  -7    4.15   34.00
 -14  -8   7   68.57   25.97
  14   8  -6   96.01   36.29
 -14   8   6   90.88   34.57
  14  -8  -6   28.68   35.65
 -14  -8   6   68.84   30.15
  14   8  -5  109.65   36.85
 -14   8   5  124.59   42.03
  14  -8  -5  149.84   38.12
 -14  -8   5  145.52   36.39
  14   8  -4  128.24   49.41
 -14   8   4  139.35   46.04
  14  -8  -4  257.50   40.91
 -14  -8   4  136.63   49.62
  14   8  -3   12.86   26.78
 -14   8   3   61.10   31.76
  14  -8  -3  -11.88   24.42
 -14  -8   3   27.54   27.89
  14   8  -2  177.95   40.01
 -14   8   2  125.89   42.73
  14  -8  -2  116.19   35.77
 -14  -8   2  150.48   44.19
  14   9  -7  211.93   55.14
 -14   9   7  304.61   57.70
  14  -9  -7  255.69   55.15
  14   9  -6   20.48   23.45
 -14   9   6  -30.92   29.02
  14  -9  -6    3.25   27.05
 -14  -9   6    7.98   23.89
  14   9  -5   43.51   29.43
 -14   9   5   30.04   34.53
  14  -9  -5   36.15   32.59
 -14  -9   5   70.82   30.67
  14   9  -4  317.95   52.73
 -14   9   4  324.48   55.67
  14  -9  -4  248.61   51.74
 -14  -9   4  314.37   52.74
  15   0 -11  121.59   39.42
 -15   0  11  112.21   44.46
  15   0 -10   67.46   30.46
 -15   0  10   26.06   29.43
  15   0  -9   96.91   40.02
 -15   0   9   95.98   43.21
  15   0  -8   10.50   23.18
 -15   0   8   16.63   27.42
  15   0  -7   -1.81   25.49
 -15   0   7   -9.05   27.12
  15   0  -6   24.69   22.98
 -15   0   6   15.60   29.65
  15   0  -5  479.75   58.39
 -15   0   5  522.70   70.72
 -15   0   4  265.31   54.01
 -15   0   3   45.89   33.81
 -15   0   2   89.09   37.86
 -15   0   1  687.54   86.18
  15   1 -11   33.68   25.92
 -15   1  11   24.97   28.32
 -15  -1  11   -8.46   30.81
  15   1 -10  177.86   45.70
 -15   1  10  240.26   44.60
  15  -1 -10  306.22   47.74
 -15  -1  10  172.96   43.12
  15   1  -9    7.09   22.64
 -15   1   9  -32.63   26.66
  15  -1  -9   47.46   24.57
 -15  -1   9  -12.94   25.06
  15   1  -8  321.09   45.54
 -15   1   8  298.70   61.47
  15  -1  -8  273.06   57.38
 -15  -1   8  300.85   53.54
  15   1  -7  164.16   43.90
 -15   1   7  242.22   52.58
  15  -1  -7  160.56   38.51
 -15  -1   7  220.86   46.26
  15   1  -6    4.84   23.37
 -15   1   6  167.90   34.20
  15  -1  -6   42.25   25.54
 -15  -1   6   22.58   29.26
 -15   1   5  425.51   71.10
  15  -1  -5  428.60   56.89
 -15  -1   5  450.19   63.55
 -15   1   4   50.14   33.08
  15  -1  -4   31.79   22.28
 -15  -1   4   46.22   31.80
 -15   1   3  368.56   58.81
 -15  -1   3  320.42   66.53
 -15   1   2  -10.78   31.46
 -15  -1   2   55.30   29.13
 -15   1   1    5.19   28.10
 -15  -1   1  -14.92   28.46
  15   2 -11   31.10   40.48
 -15   2  11   74.90   34.83
  15  -2 -11   76.40   35.56
 -15  -2  11   85.53   31.80
  15   2 -10  126.06   42.56
 -15   2  10  114.34   37.57
  15  -2 -10   56.75   46.78
 -15  -2  10  109.24   34.99
  15   2  -9   25.22   24.40
 -15   2   9   19.82   29.99
  15  -2  -9   18.59   26.81
 -15  -2   9    7.97   32.20
  15   2  -8  223.25   40.87
 -15   2   8  187.84   50.83
  15  -2  -8  297.81   44.78
 -15  -2   8  186.52   42.55
  15   2  -7   -1.81   23.64
 -15   2   7    1.45   25.51
  15  -2  -7  -21.80   22.40
 -15  -2   7   20.18   23.45
 -15   2   6  -45.05   27.07
  15  -2  -6   35.47   26.71
 -15  -2   6  -20.50   25.76
 -15   2   5  171.70   55.85
  15  -2  -5  154.10   32.61
 -15  -2   5  149.75   40.75
 -15   2   4   96.32   32.73
  15  -2  -4   -4.85   26.89
 -15  -2   4   -5.82   28.65
 -15   2   3  274.02   57.49
 -15  -2   3  291.61   56.72
 -15   2   2   77.35   35.79
 -15  -2   2   29.42   34.37
 -15   2   1   42.35   33.70
 -15  -2   1   30.70   34.16
  15   3 -10   69.05   34.14
 -15   3  10   -0.01   33.66
  15  -3 -10   62.21   32.39
 -15  -3  10   63.14   33.58
  15   3  -9  311.87   46.86
 -15   3   9  268.93   57.76
  15  -3  -9  431.51   55.70
 -15  -3   9  267.00   45.63
  15   3  -8  281.00   45.59
 -15   3   8  235.79   57.32
  15  -3  -8  380.39   51.70
 -15  -3   8  278.06   47.60
  15   3  -7   52.36   28.14
 -15   3   7   19.41   33.03
  15  -3  -7   38.97   27.88
 -15  -3   7   48.50   28.92
 -15   3   6   -1.44   27.08
  15  -3  -6   -2.68   26.65
 -15  -3   6   16.16   23.81
 -15   3   5  158.56   36.24
  15  -3  -5   40.62   30.43
 -15  -3   5   83.06   34.87
 -15   3   4   19.64   37.08
  15  -3  -4   25.18   31.36
 -15  -3   4  107.24   32.57
 -15   3   3  464.15   63.97
  15  -3  -3  265.05   41.73
 -15  -3   3  386.83   59.19
 -15   3   2  106.99   41.05
 -15  -3   2  125.31   41.16
 -15   3   1   23.21   29.90
 -15  -3   1    4.90   31.14
  15   4 -10   62.41   34.31
 -15   4  10   89.12   34.72
  15  -4 -10   39.41   35.15
 -15  -4  10   40.84   27.41
  15   4  -9  411.47   52.58
 -15   4   9  342.50   65.81
  15  -4  -9  356.47   72.03
 -15  -4   9  371.22   51.42
  15   4  -8   94.23   29.72
 -15   4   8  105.57   41.94
  15  -4  -8   96.27   34.83
 -15  -4   8  116.61   32.86
 -15   4   7   33.63   32.16
  15  -4  -7   29.29   27.09
 -15  -4   7   32.59   26.18
 -15   4   6   -9.32   29.35
  15  -4  -6    6.55   29.28
 -15  -4   6   29.10   25.08
 -15   4   5  -27.07   26.16
  15  -4  -5   31.97   22.89
 -15  -4   5    0.66   24.50
  15   4  -4  115.57   34.18
 -15   4   4   57.68   40.13
  15  -4  -4   93.09   28.23
 -15  -4   4  126.22   39.33
  15   4  -3   49.12   26.08
 -15   4   3   15.63   33.93
  15  -4  -3   54.26   29.85
 -15  -4   3   37.24   33.09
  15   4  -2   48.38   39.80
 -15   4   2  117.33   39.86
 -15  -4   2  148.58   41.22
 -15   5   9  124.67   42.99
  15  -5  -9  125.97   39.26
 -15  -5   9   93.95   32.41
 -15   5   8  -24.95   29.56
  15  -5  -8  -14.70   30.67
 -15  -5   8   33.67   23.51
 -15   5   7   33.10   28.38
  15  -5  -7   -3.40   24.16
 -15  -5   7   -1.46   24.02
 -15   5   6   38.02   36.63
  15  -5  -6   94.54   39.86
 -15  -5   6   84.46   33.57
  15   5  -5   75.49   31.82
 -15   5   5   21.83   43.61
  15  -5  -5   24.06   30.12
 -15  -5   5   99.88   31.07
  15   5  -4   10.88   24.70
 -15   5   4   14.57   34.05
  15  -5  -4   52.61   26.11
 -15  -5   4   72.41   31.66
  15   5  -3   62.23   28.60
 -15   5   3    8.63   33.59
  15  -5  -3   48.94   24.26
 -15  -5   3   -0.47   39.91
 -15   6   8   -7.82   31.81
  15  -6  -8   32.94   27.62
 -15  -6   8   28.37   25.58
 -15   6   7   87.54   36.62
  15  -6  -7   47.67   38.79
 -15  -6   7   35.61   30.15
  15   6  -6  189.32   33.66
 -15   6   6   -5.84   37.17
  15  -6  -6   -6.30   30.87
 -15  -6   6   26.96   37.75
  15   6  -5   47.34   28.03
 -15   6   5   91.72   36.33
  15  -6  -5   25.16   29.60
  15   6  -4   91.81   32.21
 -15   6   4  127.93   41.61
  15  -6  -4   86.29   34.11
 -15  -6   4   99.31   38.72
;
_shelx_hkl_checksum              28277
loop_
_space_group_symop_id
_space_group_symop_operation_xyz
1 +X,+Y,+Z
2 -X,1/2+Y,-Z
loop_
_atom_site_label
_atom_site_type_symbol
_atom_site_fract_x
_atom_site_fract_y
_atom_site_fract_z
_atom_site_U_iso_or_equiv
_atom_site_adp_type
_atom_site_occupancy
_atom_site_site_symmetry_order
_atom_site_calc_flag
_atom_site_refinement_flags_posn
_atom_site_refinement_flags_adp
S1 S 0.90282(7) 0.44595(5) 0.15462(6) 0.02753(17) Uani 1 1 d . .
S2 S 0.58946(6) -0.09897(5) 0.35561(6) 0.02799(17) Uani 1 1 d . .
O3 O 0.69641(19) -0.11199(16) 0.33882(17) 0.0376(5) Uani 1 1 d . .
O4 O 0.1445(2) -0.10119(18) 0.17784(18) 0.0417(6) Uani 1 1 d . .
O6 O 0.87177(19) 0.08575(14) 0.21156(17) 0.0305(5) Uani 1 1 d . .
O11 O 0.8526(2) 0.16015(15) 0.34637(16) 0.0361(5) Uani 1 1 d . .
O12 O 0.64211(19) 0.48044(15) 0.05854(16) 0.0332(5) Uani 1 1 d . .
O13 O 0.16202(19) -0.21132(15) 0.07535(19) 0.0387(6) Uani 1 1 d . .
O14 O 0.99811(19) 0.38729(16) 0.19782(18) 0.0365(5) Uani 1 1 d . .
O17 O 0.8759(2) 0.47826(15) 0.05172(17) 0.0369(5) Uani 1 1 d . .
O18 O 0.63412(19) 0.04706(16) 0.21724(19) 0.0396(6) Uani 1 1 d . .
O28 O 0.5218(2) -0.17217(14) 0.36657(18) 0.0372(6) Uani 1 1 d . .
N5 N 0.7884(2) 0.38977(16) 0.15958(18) 0.0248(5) Uani 1 1 d . .
N7 N 0.6146(2) 0.38348(15) 0.17852(17) 0.0228(5) Uani 1 1 d . .
N9 N 0.4358(2) 0.07244(15) 0.15401(17) 0.0220(5) Uani 1 1 d . .
N23 N 0.5015(2) -0.04459(17) 0.25400(18) 0.0252(5) Uani 1 1 d . .
C8 C 0.6111(3) -0.0279(2) 0.4611(2) 0.0267(6) Uani 1 1 d . .
C10 C 0.4957(2) 0.4000(2) 0.1664(2) 0.0262(6) Uani 1 1 d . .
C15 C 0.8467(2) 0.1564(2) 0.2568(2) 0.0252(6) Uani 1 1 d . .
C16 C 0.2008(3) -0.1417(2) 0.1366(2) 0.0274(6) Uani 1 1 d . .
C19 C 0.8009(3) 0.31790(18) 0.2339(2) 0.0229(6) Uani 1 1 d . .
H19 H 0.8707 0.3280 0.2968 0.028 Uiso 1 1 calc R U
C20 C 0.6881(2) 0.32698(18) 0.2613(2) 0.0225(6) Uani 1 1 d . .
H20 H 0.6507 0.2682 0.2580 0.027 Uiso 1 1 calc R U
C21 C 0.3748(2) -0.04867(19) 0.2274(2) 0.0214(6) Uani 1 1 d . .
H21 H 0.3544 -0.0578 0.2912 0.026 Uiso 1 1 calc R U
C22 C 0.6750(2) 0.42496(17) 0.1245(2) 0.0223(6) Uani 1 1 d . .
C24 C 0.4290(3) 0.14108(18) 0.0827(2) 0.0246(6) Uani 1 1 d . .
C25 C 0.9292(3) 0.6741(2) 0.3740(2) 0.0288(7) Uani 1 1 d . .
C26 C 0.3126(3) 0.10527(19) 0.2599(2) 0.0238(6) Uani 1 1 d . .
C27 C 0.3367(2) 0.04404(18) 0.1823(2) 0.0211(6) Uani 1 1 d . .
H27 H 0.2662 0.0394 0.1189 0.025 Uiso 1 1 calc R U
C29 C 0.8450(3) 0.6080(2) 0.2045(2) 0.0346(7) Uani 1 1 d . .
H29 H 0.7926 0.6108 0.1354 0.041 Uiso 1 1 calc R U
C30 C 0.5162(3) 0.1538(2) 0.0402(2) 0.0342(7) Uani 1 1 d . .
H30 H 0.5834 0.1177 0.0608 0.041 Uiso 1 1 calc R U
C31 C 0.5562(3) 0.0228(2) 0.6018(3) 0.0379(8) Uani 1 1 d . .
H31 H 0.5079 0.0182 0.6429 0.045 Uiso 1 1 calc R U
C32 C 0.9907(3) 0.5298(2) 0.3406(2) 0.0315(7) Uani 1 1 d . .
H32 H 1.0377 0.4793 0.3642 0.038 Uiso 1 1 calc R U
C33 C 0.6957(3) 0.0363(2) 0.4808(2) 0.0308(7) Uani 1 1 d . .
H33 H 0.7430 0.0414 0.4389 0.037 Uiso 1 1 calc R U
C34 C 0.3256(3) -0.12346(19) 0.1504(2) 0.0240(6) Uani 1 1 d . .
H34A H 0.3321 -0.1077 0.0828 0.029 Uiso 1 1 calc R U
H34B H 0.3721 -0.1772 0.1755 0.029 Uiso 1 1 calc R U
C35 C 0.4309(3) 0.4633(2) 0.0977(3) 0.0373(8) Uani 1 1 d . .
H35 H 0.4655 0.4973 0.0581 0.045 Uiso 1 1 calc R U
C36 C 0.4028(3) 0.1419(2) 0.3404(2) 0.0284(6) Uani 1 1 d . .
H36 H 0.4808 0.1299 0.3461 0.034 Uiso 1 1 calc R U
C37 C 0.8130(3) 0.2317(2) 0.1826(2) 0.0280(6) Uani 1 1 d . .
H37A H 0.7382 0.2180 0.1279 0.034 Uiso 1 1 calc R U
H37B H 0.8723 0.2388 0.1492 0.034 Uiso 1 1 calc R U
C38 C 0.4433(3) 0.3522(2) 0.2245(2) 0.0310(7) Uani 1 1 d . .
H38 H 0.4867 0.3095 0.2725 0.037 Uiso 1 1 calc R U
C39 C 0.9153(3) 0.53502(19) 0.2390(2) 0.0261(6) Uani 1 1 d . .
C40 C 0.6400(3) 0.0877(2) 0.6242(2) 0.0339(7) Uani 1 1 d . .
C41 C 0.5354(3) 0.0286(2) 0.2080(2) 0.0258(6) Uani 1 1 d . .
C42 C 0.7809(3) 0.4348(3) 0.5675(3) 0.0392(8) Uani 1 1 d . .
H42 H 0.8053 0.4580 0.6357 0.047 Uiso 1 1 calc R U
C43 C 0.3804(3) 0.1963(2) 0.4131(3) 0.0344(7) Uani 1 1 d . .
H43 H 0.4429 0.2205 0.4683 0.041 Uiso 1 1 calc R U
C44 C 0.7321(3) 0.4561(2) 0.3849(2) 0.0324(7) Uani 1 1 d . .
H44 H 0.7217 0.4946 0.3280 0.039 Uiso 1 1 calc R U
C45 C 0.2679(3) 0.2147(2) 0.4047(3) 0.0390(8) Uani 1 1 d . .
H45 H 0.2524 0.2524 0.4535 0.047 Uiso 1 1 calc R U
C46 C 0.8524(3) 0.6765(2) 0.2719(2) 0.0355(8) Uani 1 1 d . .
H46 H 0.8042 0.7265 0.2486 0.043 Uiso 1 1 calc R U
C47 C 0.1998(3) 0.1236(2) 0.2531(3) 0.0320(7) Uani 1 1 d . .
H47 H 0.1371 0.0986 0.1987 0.038 Uiso 1 1 calc R U
C48 C 0.3280(3) 0.3666(2) 0.2126(3) 0.0381(8) Uani 1 1 d . .
H48 H 0.2929 0.3332 0.2523 0.046 Uiso 1 1 calc R U
C49 C 0.7267(3) 0.3116(2) 0.4523(2) 0.0342(7) Uani 1 1 d . .
H49 H 0.7124 0.2504 0.4418 0.041 Uiso 1 1 calc R U
C50 C 0.7658(3) 0.4895(3) 0.4847(3) 0.0402(8) Uani 1 1 d . .
H50 H 0.7785 0.5508 0.4957 0.048 Uiso 1 1 calc R U
C51 C 0.3159(3) 0.4762(3) 0.0876(3) 0.0455(9) Uani 1 1 d . .
H51 H 0.2719 0.5191 0.0403 0.055 Uiso 1 1 calc R U
C52 C 0.3314(3) 0.1948(2) 0.0516(2) 0.0297(7) Uani 1 1 d . .
H52 H 0.2717 0.1869 0.0803 0.036 Uiso 1 1 calc R U
C53 C 0.6562(4) 0.1506(3) 0.7121(3) 0.0495(10) Uani 1 1 d . .
H53A H 0.7198 0.1911 0.7162 0.059 Uiso 1 1 calc R U
H53B H 0.6750 0.1177 0.7770 0.059 Uiso 1 1 calc R U
H53C H 0.5845 0.1839 0.7004 0.059 Uiso 1 1 calc R U
C54 C 0.7135(3) 0.3664(2) 0.3678(2) 0.0250(6) Uani 1 1 d . .
C55 C 0.3215(3) 0.2603(2) -0.0219(2) 0.0383(8) Uani 1 1 d . .
H55 H 0.2546 0.2967 -0.0430 0.046 Uiso 1 1 calc R U
C56 C 0.4068(4) 0.2729(2) -0.0639(3) 0.0450(9) Uani 1 1 d . .
H56 H 0.3995 0.3176 -0.1140 0.054 Uiso 1 1 calc R U
C57 C 0.2637(3) 0.4282(2) 0.1446(3) 0.0424(9) Uani 1 1 d . .
H57 H 0.1846 0.4377 0.1368 0.051 Uiso 1 1 calc R U
C58 C 0.7100(3) 0.0930(2) 0.5627(2) 0.0332(7) Uani 1 1 d . .
H58 H 0.7688 0.1366 0.5776 0.040 Uiso 1 1 calc R U
C59 C 0.5036(4) 0.2195(3) -0.0325(3) 0.0450(9) Uani 1 1 d . .
H59 H 0.5630 0.2280 -0.0613 0.054 Uiso 1 1 calc R U
C60 C 0.9963(3) 0.5992(2) 0.4066(2) 0.0319(7) Uani 1 1 d . .
H60 H 1.0475 0.5957 0.4761 0.038 Uiso 1 1 calc R U
C61 C 0.5407(3) -0.0354(2) 0.5211(2) 0.0336(7) Uani 1 1 d . .
H61 H 0.4830 -0.0798 0.5070 0.040 Uiso 1 1 calc R U
C62 C 0.9015(3) 0.0061(2) 0.2736(3) 0.0363(8) Uani 1 1 d . .
H62A H 0.8509 -0.0003 0.3160 0.044 Uiso 1 1 calc R U
H62B H 0.9832 0.0086 0.3205 0.044 Uiso 1 1 calc R U
C63 C 0.9392(3) 0.7509(2) 0.4449(3) 0.0377(8) Uani 1 1 d . .
H63A H 0.9964 0.7377 0.5130 0.045 Uiso 1 1 calc R U
H63B H 0.8636 0.7624 0.4521 0.045 Uiso 1 1 calc R U
H63C H 0.9641 0.8029 0.4160 0.045 Uiso 1 1 calc R U
C64 C 0.8845(4) -0.0691(2) 0.2013(3) 0.0506(10) Uani 1 1 d . .
H64A H 0.9039 -0.1238 0.2409 0.061 Uiso 1 1 calc R U
H64B H 0.9350 -0.0621 0.1599 0.061 Uiso 1 1 calc R U
H64C H 0.8033 -0.0710 0.1555 0.061 Uiso 1 1 calc R U
C65 C 0.1769(3) 0.1783(2) 0.3250(3) 0.0395(8) Uani 1 1 d . .
H65 H 0.0990 0.1906 0.3193 0.047 Uiso 1 1 calc R U
C66 C 0.7608(3) 0.3462(3) 0.5517(3) 0.0415(9) Uani 1 1 d . .
H66 H 0.7702 0.3084 0.6090 0.050 Uiso 1 1 calc R U
C67 C 0.0426(3) -0.2377(3) 0.0583(4) 0.0577(11) Uani 1 1 d . .
H67A H -0.0116 -0.2023 0.0021 0.069 Uiso 1 1 calc R U
H67B H 0.0236 -0.2286 0.1220 0.069 Uiso 1 1 calc R U
C68 C 0.0316(4) -0.3321(3) 0.0295(4) 0.0712(14) Uani 1 1 d . .
H68A H -0.0482 -0.3516 0.0173 0.085 Uiso 1 1 calc R U
H68B H 0.0852 -0.3666 0.0859 0.085 Uiso 1 1 calc R U
H68C H 0.0506 -0.3404 -0.0336 0.085 Uiso 1 1 calc R U
loop_
_atom_site_aniso_label
_atom_site_aniso_U_11
_atom_site_aniso_U_22
_atom_site_aniso_U_33
_atom_site_aniso_U_23
_atom_site_aniso_U_13
_atom_site_aniso_U_12
S1 0.0294(4) 0.0284(4) 0.0280(4) -0.0014(3) 0.0139(3) -0.0056(3)
S2 0.0268(4) 0.0245(4) 0.0271(4) 0.0031(3) 0.0021(3) 0.0020(3)
O3 0.0283(11) 0.0390(13) 0.0407(13) -0.0002(11) 0.0057(10) 0.0084(10)
O4 0.0322(12) 0.0559(15) 0.0422(13) -0.0154(13) 0.0194(11) -0.0107(12)
O6 0.0325(12) 0.0239(11) 0.0374(12) 0.0007(9) 0.0151(10) 0.0036(9)
O11 0.0520(15) 0.0292(11) 0.0222(11) 0.0004(9) 0.0065(10) 0.0019(10)
O12 0.0364(12) 0.0351(12) 0.0306(11) 0.0128(10) 0.0145(10) 0.0046(10)
O13 0.0314(12) 0.0357(13) 0.0467(14) -0.0123(11) 0.0103(10) -0.0137(10)
O14 0.0289(11) 0.0379(13) 0.0468(13) -0.0025(11) 0.0183(10) -0.0001(10)
O17 0.0479(14) 0.0409(13) 0.0276(11) -0.0013(10) 0.0201(10) -0.0129(11)
O18 0.0238(12) 0.0458(14) 0.0476(14) 0.0118(12) 0.0100(10) -0.0052(10)
O28 0.0425(14) 0.0251(11) 0.0353(12) 0.0069(10) 0.0018(10) -0.0040(10)
N5 0.0277(13) 0.0212(12) 0.0265(12) 0.0015(10) 0.0106(10) -0.0019(10)
N7 0.0233(12) 0.0238(12) 0.0197(11) 0.0021(10) 0.0052(9) -0.0008(10)
N9 0.0237(12) 0.0222(12) 0.0207(12) 0.0008(9) 0.0084(10) -0.0037(10)
N23 0.0222(12) 0.0257(13) 0.0245(12) 0.0046(10) 0.0037(10) -0.0011(10)
C8 0.0243(14) 0.0291(15) 0.0219(14) 0.0030(12) 0.0018(11) 0.0016(12)
C10 0.0271(14) 0.0243(14) 0.0265(14) -0.0064(13) 0.0082(12) -0.0047(13)
C15 0.0214(14) 0.0250(15) 0.0265(15) -0.0022(12) 0.0048(12) -0.0004(12)
C16 0.0284(16) 0.0280(15) 0.0235(14) 0.0025(13) 0.0060(12) -0.0038(13)
C19 0.0265(15) 0.0230(14) 0.0196(13) 0.0015(11) 0.0084(12) -0.0017(12)
C20 0.0274(15) 0.0203(13) 0.0203(13) 0.0012(11) 0.0089(12) -0.0032(12)
C21 0.0216(13) 0.0234(13) 0.0178(12) -0.0004(11) 0.0048(10) -0.0027(12)
C22 0.0265(14) 0.0199(14) 0.0209(13) -0.0031(11) 0.0084(11) -0.0031(11)
C24 0.0349(16) 0.0202(13) 0.0165(13) -0.0024(11) 0.0059(12) -0.0067(13)
C25 0.0247(15) 0.0337(17) 0.0273(15) 0.0006(13) 0.0080(12) -0.0042(13)
C26 0.0282(15) 0.0220(14) 0.0222(14) 0.0036(12) 0.0098(12) -0.0015(12)
C27 0.0196(13) 0.0240(14) 0.0188(13) 0.0002(11) 0.0052(11) -0.0022(11)
C29 0.0403(18) 0.0288(16) 0.0261(16) 0.0033(13) 0.0003(14) -0.0029(14)
C30 0.0439(19) 0.0300(16) 0.0306(16) -0.0007(14) 0.0152(15) -0.0096(15)
C31 0.0411(19) 0.045(2) 0.0285(17) 0.0071(15) 0.0131(15) -0.0018(16)
C32 0.0258(15) 0.0349(17) 0.0303(16) 0.0018(14) 0.0048(13) 0.0045(13)
C33 0.0299(16) 0.0320(16) 0.0297(16) 0.0013(14) 0.0090(13) -0.0033(14)
C34 0.0268(15) 0.0234(14) 0.0214(13) -0.0018(11) 0.0080(11) -0.0031(12)
C35 0.0319(17) 0.0362(18) 0.0445(19) 0.0086(15) 0.0139(15) 0.0010(14)
C36 0.0275(16) 0.0288(15) 0.0267(15) 0.0003(13) 0.0065(13) 0.0027(13)
C37 0.0356(17) 0.0265(15) 0.0236(15) -0.0017(13) 0.0125(13) 0.0007(13)
C38 0.0308(16) 0.0340(17) 0.0282(15) -0.0033(14) 0.0100(13) -0.0056(14)
C39 0.0274(15) 0.0234(14) 0.0270(15) -0.0003(12) 0.0088(12) -0.0062(12)
C40 0.0388(18) 0.0322(17) 0.0266(15) 0.0067(14) 0.0059(14) 0.0083(15)
C41 0.0266(16) 0.0256(14) 0.0245(14) -0.0017(12) 0.0078(12) -0.0035(12)
C42 0.0316(17) 0.061(2) 0.0273(16) -0.0139(17) 0.0136(14) -0.0066(16)
C43 0.0414(19) 0.0321(17) 0.0281(16) -0.0044(14) 0.0098(14) 0.0013(15)
C44 0.0413(18) 0.0310(16) 0.0290(15) -0.0048(13) 0.0174(14) -0.0064(14)
C45 0.052(2) 0.0344(18) 0.0367(19) -0.0048(15) 0.0229(17) 0.0049(16)
C46 0.0402(19) 0.0271(16) 0.0314(17) 0.0033(14) 0.0023(15) 0.0016(14)
C47 0.0289(16) 0.0322(17) 0.0331(17) -0.0006(14) 0.0082(13) -0.0007(13)
C48 0.0339(18) 0.0431(19) 0.0423(19) -0.0066(16) 0.0196(15) -0.0115(15)
C49 0.0425(19) 0.0373(19) 0.0247(15) 0.0019(14) 0.0139(14) 0.0025(15)
C50 0.046(2) 0.042(2) 0.0407(19) -0.0184(16) 0.0255(16) -0.0144(16)
C51 0.0331(18) 0.042(2) 0.056(2) 0.0070(18) 0.0087(17) 0.0072(16)
C52 0.0383(17) 0.0240(15) 0.0223(15) -0.0009(12) 0.0043(13) -0.0029(13)
C53 0.066(3) 0.042(2) 0.0379(19) -0.0024(18) 0.0149(19) 0.007(2)
C54 0.0256(15) 0.0305(15) 0.0205(14) -0.0016(12) 0.0097(12) -0.0024(12)
C55 0.051(2) 0.0271(16) 0.0253(15) 0.0028(13) -0.0016(15) -0.0032(15)
C56 0.070(3) 0.0305(17) 0.0285(17) 0.0062(15) 0.0083(17) -0.0175(18)
C57 0.0273(17) 0.047(2) 0.053(2) -0.0058(18) 0.0136(16) -0.0021(15)
C58 0.0314(17) 0.0304(16) 0.0337(17) 0.0015(14) 0.0059(14) -0.0010(14)
C59 0.063(3) 0.043(2) 0.0344(18) 0.0009(16) 0.0228(18) -0.0230(19)
C60 0.0254(15) 0.0417(18) 0.0237(15) -0.0008(14) 0.0020(12) 0.0018(14)
C61 0.0306(16) 0.0370(18) 0.0318(16) 0.0088(14) 0.0090(13) -0.0055(14)
C62 0.0299(17) 0.0240(15) 0.051(2) 0.0042(15) 0.0085(15) 0.0044(13)
C63 0.0365(18) 0.0409(19) 0.0329(17) -0.0028(15) 0.0081(14) 0.0064(15)
C64 0.060(3) 0.0295(18) 0.070(3) -0.0077(18) 0.033(2) 0.0026(17)
C65 0.0337(18) 0.0406(19) 0.051(2) -0.0037(17) 0.0230(16) 0.0011(15)
C66 0.042(2) 0.059(2) 0.0239(16) 0.0059(16) 0.0130(15) 0.0051(18)
C67 0.033(2) 0.058(3) 0.077(3) -0.012(2) 0.0119(19) -0.0223(19)
C68 0.069(3) 0.068(3) 0.074(3) -0.008(3) 0.022(3) -0.042(3)
loop_
_atom_type_symbol
_atom_type_description
_atom_type_scat_dispersion_real
_atom_type_scat_dispersion_imag
_atom_type_scat_source
C C 0.0033 0.0016
;
International Tables for Crystallography
(Vol. C, Tables 4.2.6.8 and 6.1.1.4)
;
H H 0.0000 0.0000
;
International Tables for Crystallography
(Vol. C, Table 6.1.1.4)
;
N N 0.0061 0.0033
;
International Tables for Crystallography
(Vol. C, Tables 4.2.6.8 and 6.1.1.4)
;
O O 0.0106 0.0060
;
International Tables for Crystallography
(Vol. C, Tables 4.2.6.8 and 6.1.1.4)
;
S S 0.1246 0.1234
;
International Tables for Crystallography
(Vol. C, Tables 4.2.6.8 and 6.1.1.4)
;
loop_
_geom_angle_atom_site_label_1
_geom_angle_atom_site_label_2
_geom_angle_atom_site_label_3
_geom_angle
O17 S1 O14 120.53(14)
O17 S1 N5 107.74(13)
O14 S1 N5 104.02(13)
O17 S1 C39 109.11(14)
O14 S1 C39 109.47(14)
N5 S1 C39 104.74(13)
O3 S2 O28 120.62(15)
O3 S2 N23 107.62(13)
O28 S2 N23 104.10(13)
O3 S2 C8 109.40(14)
O28 S2 C8 108.92(15)
N23 S2 C8 104.99(14)
C15 O6 C62 116.8(2)
C16 O13 C67 116.2(3)
C22 N5 C19 112.2(2)
C22 N5 S1 122.4(2)
C19 N5 S1 121.47(19)
C22 N7 C10 125.0(2)
C22 N7 C20 112.9(2)
C10 N7 C20 121.7(2)
C41 N9 C24 124.6(2)
C41 N9 C27 112.3(2)
C24 N9 C27 123.0(2)
C41 N23 C21 111.7(2)
C41 N23 S2 124.3(2)
C21 N23 S2 120.97(19)
C33 C8 C61 121.2(3)
C33 C8 S2 119.4(2)
C61 C8 S2 119.4(2)
C38 C10 C35 119.0(3)
C38 C10 N7 119.5(3)
C35 C10 N7 121.5(3)
O11 C15 O6 124.8(3)
O11 C15 C37 124.4(3)
O6 C15 C37 110.8(2)
O4 C16 O13 124.5(3)
O4 C16 C34 124.7(3)
O13 C16 C34 110.7(3)
N5 C19 C37 108.9(2)
N5 C19 C20 102.2(2)
C37 C19 C20 115.1(2)
N5 C19 H19 110.1
C37 C19 H19 110.1
C20 C19 H19 110.1
N7 C20 C54 112.8(2)
N7 C20 C19 103.0(2)
C54 C20 C19 111.3(2)
N7 C20 H20 109.9
C54 C20 H20 109.9
C19 C20 H20 109.9
N23 C21 C34 109.7(2)
N23 C21 C27 102.1(2)
C34 C21 C27 114.1(2)
N23 C21 H21 110.2
C34 C21 H21 110.2
C27 C21 H21 110.2
O12 C22 N7 129.0(3)
O12 C22 N5 124.1(3)
N7 C22 N5 106.9(2)
C52 C24 C30 119.4(3)
C52 C24 N9 119.2(3)
C30 C24 N9 121.3(3)
C60 C25 C46 117.9(3)
C60 C25 C63 121.5(3)
C46 C25 C63 120.6(3)
C47 C26 C36 118.6(3)
C47 C26 C27 120.4(3)
C36 C26 C27 121.0(3)
N9 C27 C26 112.5(2)
N9 C27 C21 102.3(2)
C26 C27 C21 112.5(2)
N9 C27 H27 109.8
C26 C27 H27 109.8
C21 C27 H27 109.8
C46 C29 C39 119.1(3)
C46 C29 H29 120.5
C39 C29 H29 120.5
C59 C30 C24 119.3(3)
C59 C30 H30 120.3
C24 C30 H30 120.3
C40 C31 C61 121.7(3)
C40 C31 H31 119.2
C61 C31 H31 119.2
C60 C32 C39 119.0(3)
C60 C32 H32 120.5
C39 C32 H32 120.5
C58 C33 C8 118.7(3)
C58 C33 H33 120.7
C8 C33 H33 120.7
C16 C34 C21 111.6(2)
C16 C34 H34A 109.3
C21 C34 H34A 109.3
C16 C34 H34B 109.3
C21 C34 H34B 109.3
H34A C34 H34B 108.0
C51 C35 C10 119.5(3)
C51 C35 H35 120.2
C10 C35 H35 120.2
C26 C36 C43 120.9(3)
C26 C36 H36 119.6
C43 C36 H36 119.6
C15 C37 C19 113.2(2)
C15 C37 H37A 108.9
C19 C37 H37A 108.9
C15 C37 H37B 108.9
C19 C37 H37B 108.9
H37A C37 H37B 107.8
C48 C38 C10 120.1(3)
C48 C38 H38 119.9
C10 C38 H38 119.9
C29 C39 C32 120.8(3)
C29 C39 S1 119.3(2)
C32 C39 S1 119.9(2)
C31 C40 C58 118.0(3)
C31 C40 C53 121.3(3)
C58 C40 C53 120.7(3)
O18 C41 N9 128.4(3)
O18 C41 N23 125.1(3)
N9 C41 N23 106.5(2)
C50 C42 C66 119.9(3)
C50 C42 H42 120.1
C66 C42 H42 120.1
C45 C43 C36 119.9(3)
C45 C43 H43 120.1
C36 C43 H43 120.1
C50 C44 C54 120.1(3)
C50 C44 H44 119.9
C54 C44 H44 119.9
C43 C45 C65 119.9(3)
C43 C45 H45 120.0
C65 C45 H45 120.0
C29 C46 C25 121.5(3)
C29 C46 H46 119.3
C25 C46 H46 119.3
C26 C47 C65 120.8(3)
C26 C47 H47 119.6
C65 C47 H47 119.6
C57 C48 C38 121.1(3)
C57 C48 H48 119.5
C38 C48 H48 119.5
C66 C49 C54 120.2(3)
C66 C49 H49 119.9
C54 C49 H49 119.9
C42 C50 C44 120.6(3)
C42 C50 H50 119.7
C44 C50 H50 119.7
C57 C51 C35 121.4(3)
C57 C51 H51 119.3
C35 C51 H51 119.3
C24 C52 C55 119.8(3)
C24 C52 H52 120.1
C55 C52 H52 120.1
C40 C53 H53A 109.5
C40 C53 H53B 109.5
H53A C53 H53B 109.5
C40 C53 H53C 109.5
H53A C53 H53C 109.5
H53B C53 H53C 109.5
C44 C54 C49 118.8(3)
C44 C54 C20 121.3(3)
C49 C54 C20 119.7(3)
C56 C55 C52 121.0(3)
C56 C55 H55 119.5
C52 C55 H55 119.5
C55 C56 C59 118.9(3)
C55 C56 H56 120.6
C59 C56 H56 120.6
C48 C57 C51 118.8(3)
C48 C57 H57 120.6
C51 C57 H57 120.6
C33 C58 C40 121.6(3)
C33 C58 H58 119.2
C40 C58 H58 119.2
C56 C59 C30 121.6(3)
C56 C59 H59 119.2
C30 C59 H59 119.2
C32 C60 C25 121.8(3)
C32 C60 H60 119.1
C25 C60 H60 119.1
C31 C61 C8 118.8(3)
C31 C61 H61 120.6
C8 C61 H61 120.6
O6 C62 C64 107.5(3)
O6 C62 H62A 110.2
C64 C62 H62A 110.2
O6 C62 H62B 110.2
C64 C62 H62B 110.2
H62A C62 H62B 108.5
C25 C63 H63A 109.5
C25 C63 H63B 109.5
H63A C63 H63B 109.5
C25 C63 H63C 109.5
H63A C63 H63C 109.5
H63B C63 H63C 109.5
C62 C64 H64A 109.5
C62 C64 H64B 109.5
H64A C64 H64B 109.5
C62 C64 H64C 109.5
H64A C64 H64C 109.5
H64B C64 H64C 109.5
C45 C65 C47 119.9(3)
C45 C65 H65 120.0
C47 C65 H65 120.0
C42 C66 C49 120.3(3)
C42 C66 H66 119.9
C49 C66 H66 119.9
O13 C67 C68 107.7(4)
O13 C67 H67A 110.2
C68 C67 H67A 110.2
O13 C67 H67B 110.2
C68 C67 H67B 110.2
H67A C67 H67B 108.5
C67 C68 H68A 109.5
C67 C68 H68B 109.5
H68A C68 H68B 109.5
C67 C68 H68C 109.5
H68A C68 H68C 109.5
H68B C68 H68C 109.5
loop_
_geom_bond_atom_site_label_1
_geom_bond_atom_site_label_2
_geom_bond_distance
S1 O17 1.427(2)
S1 O14 1.429(2)
S1 N5 1.664(2)
S1 C39 1.758(3)
S2 O3 1.420(2)
S2 O28 1.428(2)
S2 N23 1.666(2)
S2 C8 1.756(3)
O4 C16 1.202(4)
O6 C15 1.331(4)
O6 C62 1.456(4)
O11 C15 1.210(3)
O12 C22 1.204(3)
O13 C16 1.337(4)
O13 C67 1.458(4)
O18 C41 1.206(4)
N5 C22 1.412(4)
N5 C19 1.469(4)
N7 C22 1.369(4)
N7 C10 1.432(4)
N7 C20 1.466(4)
N9 C41 1.367(4)
N9 C24 1.417(3)
N9 C27 1.461(3)
N23 C41 1.412(4)
N23 C21 1.470(4)
C8 C33 1.383(4)
C8 C61 1.387(4)
C10 C38 1.390(4)
C10 C35 1.393(4)
C15 C37 1.497(4)
C16 C34 1.502(4)
C19 C37 1.520(4)
C19 C20 1.559(4)
C19 H19 1.0000
C20 C54 1.514(4)
C20 H20 1.0000
C21 C34 1.532(4)
C21 C27 1.549(4)
C21 H21 1.0000
C24 C52 1.391(4)
C24 C30 1.395(4)
C25 C60 1.387(5)
C25 C46 1.399(4)
C25 C63 1.502(4)
C26 C47 1.382(4)
C26 C36 1.387(4)
C26 C27 1.519(4)
C27 H27 1.0000
C29 C46 1.378(5)
C29 C39 1.387(5)
C29 H29 0.9500
C30 C59 1.385(5)
C30 H30 0.9500
C31 C40 1.382(5)
C31 C61 1.383(5)
C31 H31 0.9500
C32 C60 1.379(5)
C32 C39 1.390(4)
C32 H32 0.9500
C33 C58 1.382(5)
C33 H33 0.9500
C34 H34A 0.9900
C34 H34B 0.9900
C35 C51 1.382(5)
C35 H35 0.9500
C36 C43 1.395(4)
C36 H36 0.9500
C37 H37A 0.9900
C37 H37B 0.9900
C38 C48 1.383(5)
C38 H38 0.9500
C40 C58 1.397(5)
C40 C53 1.501(5)
C42 C50 1.372(5)
C42 C66 1.376(6)
C42 H42 0.9500
C43 C45 1.374(5)
C43 H43 0.9500
C44 C50 1.388(4)
C44 C54 1.391(4)
C44 H44 0.9500
C45 C65 1.386(5)
C45 H45 0.9500
C46 H46 0.9500
C47 C65 1.392(5)
C47 H47 0.9500
C48 C57 1.369(5)
C48 H48 0.9500
C49 C66 1.390(5)
C49 C54 1.394(4)
C49 H49 0.9500
C50 H50 0.9500
C51 C57 1.379(5)
C51 H51 0.9500
C52 C55 1.396(4)
C52 H52 0.9500
C53 H53A 0.9800
C53 H53B 0.9800
C53 H53C 0.9800
C55 C56 1.370(5)
C55 H55 0.9500
C56 C59 1.380(6)
C56 H56 0.9500
C57 H57 0.9500
C58 H58 0.9500
C59 H59 0.9500
C60 H60 0.9500
C61 H61 0.9500
C62 C64 1.483(5)
C62 H62A 0.9900
C62 H62B 0.9900
C63 H63A 0.9800
C63 H63B 0.9800
C63 H63C 0.9800
C64 H64A 0.9800
C64 H64B 0.9800
C64 H64C 0.9800
C65 H65 0.9500
C66 H66 0.9500
C67 C68 1.485(6)
C67 H67A 0.9900
C67 H67B 0.9900
C68 H68A 0.9800
C68 H68B 0.9800
C68 H68C 0.9800
loop_
_geom_torsion_atom_site_label_1
_geom_torsion_atom_site_label_2
_geom_torsion_atom_site_label_3
_geom_torsion_atom_site_label_4
_geom_torsion
O17 S1 N5 C22 -51.4(3)
O14 S1 N5 C22 179.5(2)
C39 S1 N5 C22 64.6(2)
O17 S1 N5 C19 152.7(2)
O14 S1 N5 C19 23.6(2)
C39 S1 N5 C19 -91.3(2)
O3 S2 N23 C41 -44.5(3)
O28 S2 N23 C41 -173.6(2)
C8 S2 N23 C41 72.0(3)
O3 S2 N23 C21 157.1(2)
O28 S2 N23 C21 28.0(3)
C8 S2 N23 C21 -86.4(2)
O3 S2 C8 C33 31.1(3)
O28 S2 C8 C33 164.9(2)
N23 S2 C8 C33 -84.1(3)
O3 S2 C8 C61 -150.8(2)
O28 S2 C8 C61 -17.1(3)
N23 S2 C8 C61 93.9(3)
C22 N7 C10 C38 178.7(3)
C20 N7 C10 C38 -9.3(4)
C22 N7 C10 C35 -1.4(4)
C20 N7 C10 C35 170.6(3)
C62 O6 C15 O11 4.0(4)
C62 O6 C15 C37 -177.5(2)
C67 O13 C16 O4 0.5(5)
C67 O13 C16 C34 178.2(3)
C22 N5 C19 C37 109.1(3)
S1 N5 C19 C37 -92.8(3)
C22 N5 C19 C20 -13.1(3)
S1 N5 C19 C20 145.1(2)
C22 N7 C20 C54 105.0(3)
C10 N7 C20 C54 -67.9(3)
C22 N7 C20 C19 -15.1(3)
C10 N7 C20 C19 172.1(2)
N5 C19 C20 N7 16.0(3)
C37 C19 C20 N7 -101.9(3)
N5 C19 C20 C54 -105.2(2)
C37 C19 C20 C54 136.9(3)
C41 N23 C21 C34 107.2(3)
S2 N23 C21 C34 -91.9(3)
C41 N23 C21 C27 -14.0(3)
S2 N23 C21 C27 146.8(2)
C10 N7 C22 O12 -0.7(5)
C20 N7 C22 O12 -173.2(3)
C10 N7 C22 N5 179.9(2)
C20 N7 C22 N5 7.4(3)
C19 N5 C22 O12 -175.0(3)
S1 N5 C22 O12 27.1(4)
C19 N5 C22 N7 4.4(3)
S1 N5 C22 N7 -153.51(19)
C41 N9 C24 C52 -164.5(3)
C27 N9 C24 C52 12.0(4)
C41 N9 C24 C30 17.9(4)
C27 N9 C24 C30 -165.7(3)
C41 N9 C27 C26 98.4(3)
C24 N9 C27 C26 -78.4(3)
C41 N9 C27 C21 -22.6(3)
C24 N9 C27 C21 160.6(2)
C47 C26 C27 N9 142.4(3)
C36 C26 C27 N9 -39.4(4)
C47 C26 C27 C21 -102.7(3)
C36 C26 C27 C21 75.5(3)
N23 C21 C27 N9 20.7(3)
C34 C21 C27 N9 -97.5(3)
N23 C21 C27 C26 -100.2(3)
C34 C21 C27 C26 141.5(2)
C52 C24 C30 C59 -0.2(4)
N9 C24 C30 C59 177.4(3)
C61 C8 C33 C58 0.6(5)
S2 C8 C33 C58 178.6(2)
O4 C16 C34 C21 2.3(4)
O13 C16 C34 C21 -175.4(2)
N23 C21 C34 C16 168.9(2)
C27 C21 C34 C16 -77.3(3)
C38 C10 C35 C51 -1.0(5)
N7 C10 C35 C51 179.1(3)
C47 C26 C36 C43 -0.1(4)
C27 C26 C36 C43 -178.3(3)
O11 C15 C37 C19 7.1(4)
O6 C15 C37 C19 -171.3(3)
N5 C19 C37 C15 170.0(2)
C20 C19 C37 C15 -75.9(3)
C35 C10 C38 C48 1.0(5)
N7 C10 C38 C48 -179.1(3)
C46 C29 C39 C32 1.1(5)
C46 C29 C39 S1 177.9(3)
C60 C32 C39 C29 -1.1(5)
C60 C32 C39 S1 -177.8(2)
O17 S1 C39 C29 34.1(3)
O14 S1 C39 C29 167.9(2)
N5 S1 C39 C29 -81.0(3)
O17 S1 C39 C32 -149.1(2)
O14 S1 C39 C32 -15.3(3)
N5 S1 C39 C32 95.8(3)
C61 C31 C40 C58 -0.2(5)
C61 C31 C40 C53 -179.9(3)
C24 N9 C41 O18 11.9(5)
C27 N9 C41 O18 -164.9(3)
C24 N9 C41 N23 -168.9(2)
C27 N9 C41 N23 14.4(3)
C21 N23 C41 O18 -179.9(3)
S2 N23 C41 O18 20.0(4)
C21 N23 C41 N9 0.8(3)
S2 N23 C41 N9 -159.3(2)
C26 C36 C43 C45 -0.6(5)
C36 C43 C45 C65 0.9(5)
C39 C29 C46 C25 0.2(5)
C60 C25 C46 C29 -1.6(5)
C63 C25 C46 C29 177.5(3)
C36 C26 C47 C65 0.5(5)
C27 C26 C47 C65 178.7(3)
C10 C38 C48 C57 -0.5(5)
C66 C42 C50 C44 -1.1(5)
C54 C44 C50 C42 -0.1(5)
C10 C35 C51 C57 0.4(6)
C30 C24 C52 C55 0.3(4)
N9 C24 C52 C55 -177.4(3)
C50 C44 C54 C49 1.4(5)
C50 C44 C54 C20 -174.0(3)
C66 C49 C54 C44 -1.6(5)
C66 C49 C54 C20 173.9(3)
N7 C20 C54 C44 -37.4(4)
C19 C20 C54 C44 77.8(4)
N7 C20 C54 C49 147.1(3)
C19 C20 C54 C49 -97.7(3)
C24 C52 C55 C56 -0.2(5)
C52 C55 C56 C59 0.0(5)
C38 C48 C57 C51 0.0(5)
C35 C51 C57 C48 0.1(6)
C8 C33 C58 C40 -1.1(5)
C31 C40 C58 C33 0.9(5)
C53 C40 C58 C33 -179.3(3)
C55 C56 C59 C30 0.1(5)
C24 C30 C59 C56 0.0(5)
C39 C32 C60 C25 -0.4(5)
C46 C25 C60 C32 1.7(5)
C63 C25 C60 C32 -177.5(3)
C40 C31 C61 C8 -0.3(5)
C33 C8 C61 C31 0.1(5)
S2 C8 C61 C31 -177.9(2)
C15 O6 C62 C64 160.0(3)
C43 C45 C65 C47 -0.4(5)
C26 C47 C65 C45 -0.3(5)
C50 C42 C66 C49 0.9(6)
C54 C49 C66 C42 0.4(5)
C16 O13 C67 C68 -156.1(3)
