#------------------------------------------------------------------------------
#$Date: 2017-03-11 09:13:58 +0200 (Sat, 11 Mar 2017) $
#$Revision: 194187 $
#$URL: file:///home/coder/svn-repositories/cod/cif/1/54/55/1545555.cif $
#------------------------------------------------------------------------------
#
# This file is available in the Crystallography Open Database (COD),
# http://www.crystallography.net/. The original data for this entry
# were provided by IUCr Journals, http://journals.iucr.org/.
#
# The file may be used within the scientific community so long as
# proper attribution is given to the journal article from which the
# data were obtained.
#
data_1545555
loop_
_publ_author_name
'Shakuntala, K.'
'Lokanath, N. K.'
'Naveen, S.'
'Suchetan, P. A.'
_publ_section_title
;
 3,5-Dichloro-<i>N</i>-(2,4-dichlorophenyl)benzenesulfonamide
;
_journal_coeditor_code           SJ4094
_journal_issue                   3
_journal_name_full               IUCrData
_journal_page_first              x170372
_journal_paper_doi               10.1107/S2414314617003728
_journal_volume                  2
_journal_year                    2017
_chemical_formula_iupac          'C12 H7 Cl4 N O2 S'
_chemical_formula_moiety         'C12 H7 Cl4 N O2 S'
_chemical_formula_sum            'C12 H7 Cl4 N O2 S'
_chemical_formula_weight         371.05
_chemical_name_systematic
;
3,5-Dichloro-<i>N</i>-(2,4-dichlorophenyl)benzenesulfonamide
;
_space_group_crystal_system      triclinic
_space_group_IT_number           2
_space_group_name_Hall           '-P 1'
_space_group_name_H-M_alt        'P -1'
_symmetry_space_group_name_Hall  '-P 1'
_symmetry_space_group_name_H-M   'P -1'
_atom_sites_solution_hydrogens   mixed
_audit_creation_method           SHELXL-2016/4
_cell_angle_alpha                86.791(2)
_cell_angle_beta                 70.625(2)
_cell_angle_gamma                85.783(2)
_cell_formula_units_Z            2
_cell_length_a                   8.1107(4)
_cell_length_b                   8.2615(4)
_cell_length_c                   11.2048(5)
_cell_measurement_reflns_used    154
_cell_measurement_temperature    100(2)
_cell_measurement_theta_max      64.2
_cell_measurement_theta_min      5.4
_cell_volume                     705.96(6)
_computing_cell_refinement
;
APEX2 and SAINT-Plus (Bruker, 2009)
;
_computing_data_collection
;
APEX2 (Bruker, 2009)
;
_computing_data_reduction
;
SAINT-Plus and XPREP (Bruker, 2009)
;
_computing_molecular_graphics
;
Mercury (Macrae <i>et al.</i>,  2008)
;
_computing_publication_material
;
SHELXL2016 (Sheldrick, 2015b)
;
_computing_structure_refinement
;
SHELXL2016 (Sheldrick, 2015b)
;
_computing_structure_solution
;
SHELXT2016 (Sheldrick, 2015a)
;
_diffrn_ambient_temperature      100(2)
_diffrn_measured_fraction_theta_full 0.971
_diffrn_measured_fraction_theta_max 0.971
_diffrn_measurement_device_type  'Bruker APEXII CCD area detector'
_diffrn_measurement_method       '\f and \w scans'
_diffrn_radiation_monochromator  graphite
_diffrn_radiation_type           CuK\a
_diffrn_radiation_wavelength     1.54178
_diffrn_reflns_av_R_equivalents  0.0488
_diffrn_reflns_limit_h_max       9
_diffrn_reflns_limit_h_min       -9
_diffrn_reflns_limit_k_max       9
_diffrn_reflns_limit_k_min       -9
_diffrn_reflns_limit_l_max       13
_diffrn_reflns_limit_l_min       -12
_diffrn_reflns_number            6182
_diffrn_reflns_theta_full        64.243
_diffrn_reflns_theta_max         64.243
_diffrn_reflns_theta_min         5.372
_exptl_absorpt_coefficient_mu    9.007
_exptl_absorpt_correction_T_max  0.165
_exptl_absorpt_correction_T_min  0.144
_exptl_absorpt_correction_type   multi-scan
_exptl_absorpt_process_details
;
(SADABS; Bruker, 2009)
;
_exptl_crystal_colour            colourless
_exptl_crystal_density_diffrn    1.746
_exptl_crystal_description       prism
_exptl_crystal_F_000             372
_exptl_crystal_size_max          0.260
_exptl_crystal_size_mid          0.230
_exptl_crystal_size_min          0.200
_refine_diff_density_max         1.146
_refine_diff_density_min         -1.036
_refine_ls_extinction_method     none
_refine_ls_goodness_of_fit_ref   1.075
_refine_ls_hydrogen_treatment    mixed
_refine_ls_matrix_type           full
_refine_ls_number_parameters     185
_refine_ls_number_reflns         2295
_refine_ls_number_restraints     1
_refine_ls_restrained_S_all      1.075
_refine_ls_R_factor_all          0.0655
_refine_ls_R_factor_gt           0.0633
_refine_ls_shift/su_max          0.001
_refine_ls_shift/su_mean         0.000
_refine_ls_structure_factor_coef Fsqd
_refine_ls_weighting_details
'w=1/[\s^2^(Fo^2^)+(0.1530P)^2^+0.3492P] where P=(Fo^2^+2Fc^2^)/3'
_refine_ls_weighting_scheme      calc
_refine_ls_wR_factor_gt          0.1818
_refine_ls_wR_factor_ref         0.1902
_reflns_number_gt                2152
_reflns_number_total             2295
_reflns_threshold_expression     'I > 2\s(I)'
_cod_data_source_file            sj4094sup1.cif
_cod_data_source_block           I
_cod_database_code               1545555
_shelx_space_group_comment
;
The symmetry employed for this shelxl refinement is uniquely defined
by the following loop, which should always be used as a source of
symmetry information in preference to the above space-group names.
They are only intended as comments.
;
_shelx_estimated_absorpt_t_min   0.203
_shelx_estimated_absorpt_t_max   0.266
_shelx_hkl_file
;
  -2   0   0   63.10    4.33
   2   0   0   60.75    4.33
   2   0   0   57.72    4.32
  -3   0   0   12.38    0.91
  -3   0   0   11.86    0.91
   3   0   0   11.55    0.90
  -4   0   0   26.84    1.99
   5   0   0   28.42    1.99
   5   0   0   23.58    1.96
   5   0   0   28.72    1.97
   5   0   0   28.07    1.99
   5   0   0   28.41    1.98
   5   0   0   26.70    1.98
   6   0   0    1.88    0.19
   6   0   0    1.96    0.17
   6   0   0    1.74    0.19
   6   0   0    2.01    0.20
   7   0   0   34.61    2.50
   7   0   0   36.32    2.48
   7   0   0   32.36    2.50
   8   0   0    0.43    0.10
   8   0   0    0.43    0.09
   8   0   0    0.56    0.08
   8  -1   0   50.58    3.53
   8  -1   0   48.32    3.56
   7  -1   0    1.22    0.13
   7  -1   0    1.41    0.16
   7  -1   0    1.29    0.16
   7  -1   0    1.01    0.14
   6  -1   0    0.20    0.06
   6  -1   0    0.19    0.07
   6  -1   0    0.11    0.05
   6  -1   0    0.27    0.05
   6  -1   0    0.18    0.06
   6  -1   0    0.18    0.07
   5  -1   0    0.07    0.04
   5  -1   0    0.06    0.04
   5  -1   0    0.08    0.04
   5  -1   0    0.13    0.08
   5  -1   0    0.12    0.06
   5  -1   0    0.09    0.03
   4  -1   0    4.17    0.33
   4  -1   0    3.84    0.32
   4  -1   0    3.83    0.32
  -4   1   0    4.20    0.35
   3  -1   0  109.97    7.99
  -3   1   0  114.56    7.99
   2  -1   0    6.32    0.47
   2  -1   0    6.17    0.48
  -2   1   0    6.88    0.49
  -1   1   0    5.58    0.36
  -1   1   0    4.44    0.36
   0  -1   0    0.86    0.08
   0   1   0    0.95    0.08
  -1  -1   0   55.35    3.84
   1   1   0   51.99    3.84
  -2  -1   0    9.38    0.73
  -2  -1   0    9.07    0.72
   2   1   0    8.70    0.72
   2   1   0    9.94    0.73
  -3  -1   0    7.91    0.62
  -3  -1   0    7.01    0.61
   3   1   0    7.82    0.62
  -4  -1   0   71.35    5.15
   5   1   0    1.48    0.15
   5   1   0    1.57    0.16
   5   1   0    1.58    0.14
   6   1   0    7.91    0.65
   6   1   0    8.83    0.65
   6   1   0    8.23    0.64
   7   1   0   43.13    3.37
   7   1   0   48.57    3.37
   7   1   0   48.61    3.38
  -8  -1   0    2.26    0.23
   8   1   0    2.18    0.19
   8   1   0    1.70    0.20
   8  -2   0    1.22    0.14
   7  -2   0   10.39    0.78
   7  -2   0   10.36    0.81
   7  -2   0   10.87    0.82
   6  -2   0    0.89    0.14
   6  -2   0    0.64    0.11
   6  -2   0    0.81    0.11
   6  -2   0    1.08    0.15
   6  -2   0    0.74    0.09
   5  -2   0    3.32    0.30
   5  -2   0    3.28    0.30
   5  -2   0    3.03    0.26
   5  -2   0    3.41    0.28
   5  -2   0    3.04    0.28
   5  -2   0    3.91    0.30
   4  -2   0    9.97    0.71
   4  -2   0    9.65    0.72
   4  -2   0   10.28    0.71
   4  -2   0    8.65    0.69
   4  -2   0    9.84    0.71
   4  -2   0    9.44    0.72
  -4   2   0    8.25    0.75
  -3   2   0    3.74    0.28
  -3   2   0    3.32    0.29
  -2   2   0    0.55    0.05
  -1   2   0 1000.00   71.10
   0  -2   0    1.45    0.13
   0  -2   0    1.34    0.12
   0   2   0    1.45    0.13
  -1  -2   0    4.84    0.38
  -1  -2   0    4.39    0.37
   1   2   0    4.92    0.38
  -2  -2   0   28.84    2.00
  -2  -2   0   26.74    1.99
   2   2   0   25.88    1.99
   2   2   0   27.11    1.99
  -3  -2   0    7.31    0.60
  -3  -2   0    6.16    0.60
   3   2   0    7.70    0.61
  -4  -2   0  167.14   11.30
   4   2   0  148.49   11.19
   5   2   0    0.68    0.10
   5   2   0    0.97    0.09
   5   2   0    0.65    0.09
   5   2   0    0.88    0.10
   6   2   0   22.38    1.61
   6   2   0   21.41    1.61
  -7  -2   0    0.97    0.14
   7   2   0    0.65    0.11
   7   2   0    0.50    0.09
   7   2   0    0.83    0.13
  -8  -2   0    0.08    0.05
   8   2   0    0.04    0.03
   8   2   0    0.06    0.05
   8  -3   0    0.05    0.04
   8  -3   0    0.07    0.05
   7  -3   0    0.47    0.10
   7  -3   0    0.45    0.09
   6  -3   0   23.11    1.78
   6  -3   0   25.27    1.78
   5  -3   0    2.56    0.26
   5  -3   0    2.81    0.25
   5  -3   0    2.76    0.26
   5  -3   0    2.96    0.25
   5  -3   0    2.18    0.24
   4  -3   0  105.08    6.76
   4  -3   0   91.86    6.75
   4  -3   0  103.01    6.76
   4  -3   0   90.11    6.77
   4  -3   0   83.87    6.75
   3  -3   0    6.30    0.47
   3  -3   0    6.11    0.48
  -2   3   0   55.02    4.33
  -1   3   0   10.08    0.75
  -1   3   0   10.12    0.75
   0  -3   0    1.21    0.12
   0   3   0    1.32    0.13
   0   3   0    1.19    0.12
   1   3   0   39.33    3.04
   1   3   0   44.70    3.05
  -2  -3   0   10.79    0.85
   2   3   0   10.04    0.86
   2   3   0   11.58    0.86
   3   3   0   22.57    1.73
  -4  -3   0   15.61    1.21
   4   3   0   18.01    1.22
   4   3   0   16.09    1.20
  -5  -3   0    6.77    0.54
   5   3   0    7.04    0.52
   5   3   0    6.70    0.53
  -6  -3   0    4.14    0.35
   6   3   0    3.77    0.33
  -7  -3   0    8.63    0.69
   7   3   0    8.97    0.70
  -8  -3   0    1.07    0.15
   8   3   0    1.39    0.13
   8   3   0    1.32    0.15
   7  -4   0    0.06    0.05
   7  -4   0    0.05    0.04
   6  -4   0    0.62    0.10
   6  -4   0    0.57    0.11
   5  -4   0    0.74    0.11
   5  -4   0    0.67    0.11
   4  -4   0    6.22    0.49
   4  -4   0    5.72    0.50
   4  -4   0    6.26    0.48
   3  -4   0   11.16    0.81
   3  -4   0   10.83    0.82
   3  -4   0   11.68    0.80
   3  -4   0   10.47    0.83
   3  -4   0    9.40    0.81
   2  -4   0   29.38    2.00
   2  -4   0   26.69    2.02
   2  -4   0   27.29    2.00
  -1   4   0    1.22    0.13
  -1   4   0    1.39    0.13
   0   4   0   12.92    0.97
   0   4   0   12.30    0.95
   1   4   0   29.06    2.15
   2   4   0    0.09    0.07
   3   4   0   56.10    3.93
   3   4   0   53.41    3.90
  -4  -4   0    1.32    0.16
   4   4   0    1.60    0.16
   4   4   0    1.46    0.13
  -5  -4   0   14.93    1.15
   5   4   0   15.33    1.13
   5   4   0   16.03    1.15
  -6  -4   0    4.01    0.36
   6   4   0    4.25    0.34
   6   4   0    4.31    0.36
   7   4   0    2.82    0.23
   7   4   0    2.31    0.23
   7   4   0    2.71    0.26
   8   4   0    4.58    0.38
   8   4   0    4.87    0.37
   7  -5   0    0.01    0.03
   7  -5   0   -0.01    0.04
   6  -5   0    6.01    0.46
   6  -5   0    5.88    0.46
   6  -5   0    5.21    0.45
   5  -5   0   41.93    2.94
   5  -5   0   39.17    2.94
   4  -5   0    0.14    0.05
   4  -5   0    0.04    0.09
   4  -5   0    0.23    0.07
   4  -5   0    0.23    0.08
   3  -5   0    0.02    0.08
   3  -5   0    0.02    0.06
   3  -5   0    0.02    0.03
   3  -5   0    0.00    0.03
   2  -5   0    8.80    0.67
   2  -5   0    7.84    0.64
   2  -5   0    8.29    0.62
   2  -5   0    7.45    0.61
   1  -5   0    1.27    0.15
   1  -5   0    1.09    0.13
   1  -5   0    1.47    0.18
   0  -5   0    1.06    0.15
   0  -5   0    0.90    0.13
  -1  -5   0   50.22    3.62
  -1  -5   0   50.29    3.64
  -2  -5   0    0.18    0.10
  -2  -5   0    0.31    0.09
   2   5   0    0.32    0.07
  -3  -5   0   11.48    0.89
   3   5   0   12.03    0.87
   3   5   0   10.79    0.84
   4   5   0    1.17    0.15
   4   5   0    1.31    0.12
   5   5   0   14.38    1.08
   5   5   0   15.13    1.11
  -6  -5   0    4.86    0.46
   6   5   0    5.04    0.41
   6   5   0    5.00    0.39
  -7  -5   0    0.48    0.12
   7   5   0    0.58    0.10
   7   5   0    0.57    0.08
   7   5   0    0.78    0.11
   6  -6   0    0.08    0.05
   6  -6   0    0.09    0.05
   6  -6   0    0.03    0.05
   5  -6   0    0.64    0.11
   5  -6   0    0.65    0.11
   5  -6   0    0.43    0.09
   4  -6   0    3.74    0.32
   4  -6   0    3.88    0.33
   4  -6   0    3.55    0.34
   3  -6   0    5.35    0.46
   3  -6   0    5.43    0.43
   3  -6   0    5.34    0.50
   3  -6   0    5.37    0.44
   2  -6   0   78.78    5.79
   2  -6   0   79.48    5.80
   2  -6   0   80.71    5.83
   2  -6   0   85.91    5.86
   1  -6   0    2.39    0.28
   1  -6   0    2.29    0.24
   0  -6   0    2.78    0.27
   0  -6   0    2.70    0.30
  -1  -6   0    1.38    0.18
  -1  -6   0    1.54    0.19
  -1  -6   0    1.63    0.22
  -2  -6   0   12.94    1.12
  -2  -6   0   15.20    1.11
   2   6   0   15.38    1.10
  -3  -6   0    6.41    0.51
   3   6   0    5.34    0.48
  -4  -6   0   14.62    1.11
   4   6   0   13.77    1.04
  -5  -6   0   14.85    1.09
   5   6   0   13.09    1.01
   5   6   0   13.71    1.05
  -6  -6   0    0.02    0.07
   6   6   0    0.04    0.05
   6   6   0    0.09    0.04
   7   6   0    1.93    0.18
   7   6   0    1.83    0.17
   7   6   0    2.06    0.20
   5  -7   0   11.89    0.87
   5  -7   0   11.82    0.87
   5  -7   0   11.14    0.86
   4  -7   0    3.49    0.30
   4  -7   0    2.77    0.35
   4  -7   0    3.53    0.30
   4  -7   0    3.44    0.30
   3  -7   0    2.08    0.21
   3  -7   0    2.11    0.23
   3  -7   0    2.08    0.27
   2  -7   0    2.63    0.33
   2  -7   0    3.96    0.33
   1  -7   0   23.52    1.81
   1  -7   0   25.30    1.86
   0  -7   0    3.32    0.36
  -1  -7   0    7.02    0.61
   1   7   0    6.50    0.55
  -2  -7   0    4.03    0.41
   2   7   0    3.59    0.34
  -3  -7   0    0.19    0.09
   3   7   0    0.14    0.06
  -4  -7   0    0.37    0.11
   4   7   0    0.54    0.31
   4   7   0    0.18    0.07
  -5  -7   0   24.75    1.91
   5   7   0   26.90    1.89
  -6  -7   0   -0.03    0.06
   6   7   0    0.02    0.04
   4  -8   0    0.81    0.10
   4  -8   0    0.55    0.15
   3  -8   0   13.29    1.08
   3  -8   0   14.12    1.03
   2  -8   0    0.84    0.13
   2  -8   0    0.56    0.14
   1  -8   0   -0.02    0.07
   1  -8   0    0.06    0.05
   0  -8   0    0.04    0.05
   0  -8   0    0.09    0.10
   0   8   0    0.16    0.07
  -1  -8   0    7.40    0.65
   1   8   0    7.02    0.58
  -2  -8   0   29.91    2.18
   2   8   0   29.21    2.16
  -3  -8   0    1.38    0.18
   3   8   0    1.65    0.17
  -4  -8   0   10.01    0.81
   4   8   0   10.76    0.79
  -5  -8   0    5.87    0.53
   5   8   0    7.67    0.53
   2  -9   0   18.23    1.41
   2  -9   0   20.38    1.47
   1  -9   0    4.26    0.42
   1  -9   0    4.04    0.35
   0  -9   0    9.84    0.81
   0  -9   0    9.58    0.75
  -1  -9   0    7.88    0.58
  -1  -9   0    6.93    0.62
   1   9   0    6.51    0.55
  -2  -9   0    0.02    0.05
   2   9   0    0.10    0.05
   2   9   0    0.18    0.22
  -3  -9   0    1.84    0.19
   3   9   0    1.98    0.40
   3   9   0    1.69    0.17
   3   9  -1    0.65    0.10
  -3  -9   1    0.60    0.11
   2   9  -1    1.70    0.18
  -2  -9   1    2.03    0.20
   1   9  -1    0.53    0.10
  -1  -9   1    0.69    0.11
  -1  -9   1    0.55    0.14
   0  -9   1   16.69    1.26
   0  -9   1   17.02    1.31
   1  -9   1    0.00    0.08
   1  -9   1    0.01    0.04
   2  -9   1    0.71    0.10
   2  -9   1    0.86    0.16
   5   8  -1    0.23    0.06
   4   8  -1    1.18    0.14
  -4  -8   1    0.90    0.15
   3   8  -1   18.83    1.36
  -3  -8   1   17.67    1.38
   2   8  -1    0.26    0.09
  -2  -8   1    0.28    0.08
   1   8  -1    0.92    0.15
  -1  -8   1    1.05    0.15
  -1  -8   1    1.18    0.21
   0   8  -1    3.02    0.32
   0  -8   1    4.06    0.39
   0  -8   1    3.59    0.33
  -1   8  -1    0.04    0.06
   1  -8   1    0.00    0.07
   1  -8   1    0.01    0.05
   1  -8   1    0.07    0.06
   2  -8   1    1.23    0.16
   2  -8   1    1.11    0.20
   3  -8   1    1.65    0.18
   3  -8   1    1.51    0.23
   4  -8   1    0.81    0.11
   4  -8   1    0.83    0.17
   6   7  -1    0.16    0.08
  -6  -7   1    0.11    0.07
   5   7  -1    0.62    0.10
  -5  -7   1    0.61    0.13
   4   7  -1    3.09    0.31
  -4  -7   1    3.70    0.35
   3   7  -1    0.04    0.05
  -3  -7   1    0.07    0.07
   2   7  -1    1.88    0.23
  -2  -7   1    2.67    0.26
   1   7  -1   20.43    1.63
  -1  -7   1   23.22    1.68
   0  -7   1    8.45    0.66
   0  -7   1    7.81    0.69
   1  -7   1   17.18    1.30
   2  -7   1    3.71    0.35
   2  -7   1    4.29    0.37
   3  -7   1    5.82    0.54
   3  -7   1    5.99    0.49
   3  -7   1    5.90    0.50
   3  -7   1    6.39    0.50
   4  -7   1   10.53    0.79
   4  -7   1    9.10    0.83
   4  -7   1   11.14    0.80
   4  -7   1   10.49    0.80
   5  -7   1    0.35    0.08
   5  -7   1    0.36    0.08
   6   6  -1    0.16    0.06
   6   6  -1    0.17    0.05
  -6  -6   1    0.24    0.09
   5   6  -1    3.67    0.31
   5   6  -1    3.23    0.28
  -5  -6   1    3.55    0.36
   4   6  -1   48.83    3.16
   4   6  -1   44.09    3.19
  -4  -6   1   39.06    3.22
   3   6  -1    2.94    0.28
  -3  -6   1    2.59    0.29
   2   6  -1    6.20    0.53
  -2  -6   1    6.64    0.55
  -1  -6   1    3.96    0.34
  -1  -6   1    3.37    0.33
  -1  -6   1    3.57    0.36
   0  -6   1    0.98    0.16
   0  -6   1    0.89    0.15
   1  -6   1    5.59    0.46
   1  -6   1    5.17    0.44
   1  -6   1    5.43    0.48
   1  -6   1    5.11    0.44
   2  -6   1    0.04    0.06
   2  -6   1    0.03    0.04
   2  -6   1    0.06    0.04
   2  -6   1   -0.07    0.06
   2  -6   1    0.03    0.07
   3  -6   1    0.36    0.10
   3  -6   1    0.43    0.09
   3  -6   1    0.32    0.08
   3  -6   1    0.19    0.07
   3  -6   1    0.34    0.11
   4  -6   1   13.08    0.94
   4  -6   1   10.42    0.97
   4  -6   1   13.01    0.96
   4  -6   1   13.03    0.94
   5  -6   1    6.65    0.52
   5  -6   1    6.50    0.52
   5  -6   1    6.16    0.51
   6  -6   1    2.28    0.21
   6  -6   1    2.23    0.21
   7   5  -1   32.35    2.25
   7   5  -1   32.99    2.27
  -7  -5   1   28.35    2.29
   6   5  -1    0.37    0.08
   6   5  -1    0.58    0.08
   5   5  -1   25.46    1.89
   5   5  -1   26.33    1.88
   4   5  -1    2.89    0.24
   4   5  -1    2.95    0.27
   3   5  -1    9.76    0.74
   3   5  -1   10.01    0.77
   2   5  -1    7.29    0.56
  -2  -5   1    7.54    0.60
  -2  -5   1    7.45    0.61
  -1  -5   1   10.38    0.87
  -1  -5   1   11.13    0.86
  -1  -5   1   12.34    0.88
  -1  -5   1   11.48    0.87
   0  -5   1   23.75    1.72
   0  -5   1   23.02    1.73
   0  -5   1   23.16    1.71
   1  -5   1    2.11    0.21
   1  -5   1    2.41    0.22
   1  -5   1    2.34    0.24
   1  -5   1    1.96    0.19
   1  -5   1    1.98    0.19
   2  -5   1   65.20    4.29
   2  -5   1   58.97    4.24
   2  -5   1   60.20    4.24
   2  -5   1   53.43    4.25
   2  -5   1   58.78    4.26
   3  -5   1   77.94    5.41
   3  -5   1   76.00    5.45
   3  -5   1   72.43    5.43
   3  -5   1   76.73    5.42
   4  -5   1   40.26    2.92
   4  -5   1   42.76    2.91
   4  -5   1   37.80    2.92
   5  -5   1   32.64    2.30
   5  -5   1   30.31    2.29
   6  -5   1   25.58    1.90
   6  -5   1   26.38    1.90
   7  -5   1    0.63    0.10
   7  -5   1    0.60    0.09
   8   4  -1   12.34    0.90
   7   4  -1    1.14    0.15
   7   4  -1    1.27    0.13
   6   4  -1    5.25    0.48
   6   4  -1    7.32    0.50
   5   4  -1  167.72   12.12
   5   4  -1  173.41   12.13
   4   4  -1   27.00    1.99
   4   4  -1   27.52    1.97
   3   4  -1    0.65    0.08
   3   4  -1    0.68    0.10
   2   4  -1    0.49    0.13
   1   4  -1    7.75    0.64
   0   4  -1   36.14    2.63
  -1   4  -1    6.80    0.53
  -1   4  -1    6.86    0.52
   2  -4   1   58.26    4.27
   2  -4   1   58.56    4.29
   2  -4   1   62.47    4.27
   3  -4   1    0.52    0.11
   3  -4   1    0.53    0.08
   3  -4   1    0.77    0.13
   3  -4   1    0.50    0.08
   4  -4   1    1.82    0.18
   4  -4   1    1.75    0.22
   4  -4   1    1.94    0.18
   4  -4   1    1.63    0.20
   5  -4   1    0.22    0.06
   5  -4   1    0.17    0.06
   5  -4   1    0.24    0.10
   5  -4   1    0.12    0.07
   6  -4   1    1.28    0.16
   6  -4   1    1.90    0.19
   6  -4   1    1.42    0.16
   7  -4   1    8.45    0.66
   7  -4   1    8.46    0.66
   8  -4   1    2.31    0.20
   8   3  -1   29.86    2.02
   8   3  -1   26.19    2.02
   7   3  -1    0.04    0.03
   7   3  -1   -0.01    0.05
  -7  -3   1    0.00    0.05
   6   3  -1    0.32    0.07
  -6  -3   1    0.45    0.10
   5   3  -1   20.64    1.36
   5   3  -1   18.92    1.37
   5   3  -1   16.59    1.38
  -5  -3   1   18.38    1.38
   4   3  -1   28.49    1.89
   4   3  -1   26.74    1.90
  -4  -3   1   23.42    1.90
   3   3  -1   19.69    1.42
   2   3  -1    0.04    0.04
  -2  -3   1   -0.01    0.08
   1   3  -1  183.37   12.85
   1   3  -1  177.37   12.84
   0   3  -1    2.45    0.23
   0   3  -1    2.80    0.23
   0  -3   1    2.29    0.22
  -1   3  -1   37.89    2.68
  -1   3  -1   37.27    2.69
  -2   3  -1  196.89   14.43
   3  -3   1    0.37    0.07
   3  -3   1    0.31    0.06
   4  -3   1    0.54    0.08
   4  -3   1    0.58    0.08
   4  -3   1    0.58    0.11
   4  -3   1    0.47    0.07
   5  -3   1   17.53    1.32
   5  -3   1   16.64    1.29
   5  -3   1   19.04    1.31
   5  -3   1   17.58    1.31
   6  -3   1   41.33    3.37
   6  -3   1   49.41    3.39
   6  -3   1   49.84    3.38
   7  -3   1   14.79    1.16
   7  -3   1   15.71    1.16
   7  -3   1   16.07    1.17
   8  -3   1   14.62    1.14
   8  -3   1   16.27    1.15
   8   2  -1    7.91    0.55
   8   2  -1    6.55    0.55
  -8  -2   1    7.26    0.57
   7   2  -1    3.67    0.31
   7   2  -1    3.06    0.29
   7   2  -1    3.14    0.31
   7   2  -1    3.49    0.31
  -7  -2   1    4.27    0.34
   6   2  -1    9.49    0.76
   6   2  -1   10.13    0.76
   5   2  -1    6.61    0.55
   5   2  -1    6.43    0.53
   5   2  -1    7.60    0.53
   4   2  -1   18.78    1.55
   4   2  -1   21.42    1.56
   4   2  -1   23.38    1.55
  -4  -2   1   22.90    1.78
   3   2  -1    1.52    0.20
  -3  -2   1    1.55    0.20
   2   2  -1   63.42    4.66
  -2  -2   1   61.01    4.66
  -2  -2   1   69.55    4.66
   1   2  -1  134.22    9.79
   1   2  -1  138.27    9.80
  -1  -2   1  128.85    9.79
  -1  -2   1  148.96    9.80
   0   2  -1   72.54    4.79
   0  -2   1   64.46    4.78
   0  -2   1   64.17    4.78
  -1   2  -1    2.96    0.23
  -2   2  -1    7.16    0.78
  -3   2  -1   56.84    4.00
  -3   2  -1   55.53    4.00
  -4   2  -1    1.39    0.15
  -4   2  -1    1.56    0.15
   4  -2   1    1.80    0.15
   4  -2   1    1.45    0.13
   4  -2   1    1.64    0.17
   4  -2   1    1.62    0.15
   4  -2   1    1.51    0.15
   5  -2   1    7.32    0.55
   5  -2   1    7.06    0.54
   5  -2   1    6.44    0.52
   5  -2   1    7.16    0.55
   5  -2   1    6.37    0.54
   5  -2   1    7.06    0.53
   6  -2   1   39.38    2.86
   6  -2   1   39.78    2.89
   6  -2   1   38.93    2.88
   6  -2   1   41.14    2.88
   7  -2   1    5.30    0.50
   7  -2   1    6.66    0.48
   7  -2   1    6.43    0.50
   7  -2   1    6.31    0.51
   8  -2   1    0.60    0.09
   8  -2   1    0.35    0.09
   8   1  -1    0.23    0.08
   8   1  -1    0.35    0.06
  -8  -1   1    0.24    0.08
   7   1  -1    0.89    0.13
   7   1  -1    0.96    0.13
   7   1  -1    0.86    0.13
   7   1  -1    1.00    0.11
   6   1  -1    6.17    0.48
   6   1  -1    5.90    0.49
   6   1  -1    5.81    0.48
   5   1  -1    4.07    0.36
   5   1  -1    4.20    0.33
   5   1  -1    4.46    0.36
   4   1  -1   15.11    1.17
   4   1  -1   15.63    1.16
   4   1  -1   16.19    1.15
  -4  -1   1   16.51    1.24
   3   1  -1    1.21    0.16
  -3  -1   1    1.35    0.17
   2   1  -1   36.23    2.76
   2   1  -1   37.05    2.76
  -2  -1   1   40.82    2.76
  -2  -1   1   38.07    2.77
   1   1  -1  178.78   12.80
   1   1  -1  168.52   12.79
  -1  -1   1  193.43   12.79
  -1  -1   1  179.78   12.80
   1  -1   1    3.66    0.27
   1  -1   1    3.88    0.27
  -2   1  -1    5.86    0.40
   2  -1   1    5.47    0.39
   2  -1   1    4.78    0.39
  -3   1  -1   47.55    3.34
  -3   1  -1   48.35    3.34
   3  -1   1   44.01    3.33
  -4   1  -1   10.15    0.78
   5  -1   1   23.57    1.71
   5  -1   1   24.09    1.71
   5  -1   1   23.64    1.71
   5  -1   1   23.20    1.69
   5  -1   1   23.64    1.70
   5  -1   1   22.67    1.71
   6  -1   1    7.82    0.62
   6  -1   1    7.90    0.62
   6  -1   1    8.06    0.60
   6  -1   1    7.69    0.60
   7  -1   1    5.37    0.42
   7  -1   1    5.45    0.45
   7  -1   1    5.19    0.45
   8  -1   1   11.09    0.88
   8  -1   1   12.80    0.87
   8  -1   1   11.04    0.88
  -9   1  -1    6.51    0.51
   8   0  -1    0.89    0.12
   8   0  -1    1.01    0.10
   7   0  -1    0.58    0.12
   7   0  -1    1.15    0.11
   7   0  -1    1.01    0.13
   7   0  -1    0.78    0.13
   6   0  -1   10.87    0.78
   6   0  -1   10.70    0.81
   6   0  -1    9.69    0.78
   5   0  -1   10.12    0.73
   5   0  -1    8.99    0.71
   5   0  -1    8.70    0.70
   5   0  -1    9.22    0.69
   5   0  -1    9.82    0.72
   4   0  -1    9.54    0.71
   4   0  -1    9.34    0.71
   4   0  -1    8.78    0.68
   4   0  -1    9.14    0.72
  -4   0   1   10.09    0.77
   3   0  -1   10.39    0.83
  -3   0   1   11.61    0.84
  -3   0   1   10.42    0.85
   2   0  -1    7.20    0.56
  -2   0   1    7.91    0.58
  -2   0   1    6.18    0.56
   1   0  -1    2.69    0.24
  -2   0  -1  141.39    9.68
   2   0   1  134.72    9.68
   2   0   1  132.77    9.68
  -3   0  -1    5.28    0.43
  -3   0  -1    5.61    0.43
   3   0   1    5.07    0.42
  -4   0  -1   29.85    2.20
   5   0   1    1.55    0.17
   5   0   1    1.95    0.18
   5   0   1    1.88    0.18
   5   0   1    2.06    0.18
   5   0   1    2.24    0.17
   6   0   1    0.56    0.08
   6   0   1    0.58    0.10
   6   0   1    0.45    0.09
   6   0   1    0.50    0.08
   7   0   1   27.73    2.04
   7   0   1   31.31    2.05
   7   0   1   24.79    2.02
  -8   0  -1    0.08    0.06
   8   0   1    0.02    0.05
   8   0   1    0.03    0.05
   8   0   1    0.08    0.04
  -9   0  -1    4.01    0.32
   9   0   1    3.61    0.30
   8  -1  -1    0.11    0.06
   7  -1  -1    0.73    0.12
   7  -1  -1    0.92    0.13
   7  -1  -1    0.98    0.13
   7  -1  -1    0.97    0.10
   6  -1  -1   10.40    0.81
   6  -1  -1   10.81    0.81
   6  -1  -1   10.64    0.79
   5  -1  -1    0.01    0.03
   5  -1  -1    0.02    0.05
   5  -1  -1    0.04    0.04
   5  -1  -1    0.03    0.04
   5  -1  -1    0.14    0.08
   5  -1  -1    0.14    0.04
   4  -1  -1    5.02    0.38
   4  -1  -1    4.05    0.36
   4  -1  -1    4.74    0.38
   4  -1  -1    4.74    0.38
   4  -1  -1    5.07    0.39
  -4   1   1    4.96    0.43
   3  -1  -1    0.99    0.18
  -3   1   1    1.28    0.16
  -3   1   1    1.44    0.16
   2  -1  -1    4.04    0.33
  -2   1   1    4.13    0.34
  -2   1   1    3.81    0.33
   1  -1  -1    2.04    0.16
   1  -1  -1    1.96    0.17
  -1   1   1    1.84    0.17
   0   1   1   -0.31    0.03
  -1  -1  -1    6.62    0.50
   1   1   1    5.94    0.50
  -2  -1  -1    0.68    0.10
  -2  -1  -1    0.95    0.11
   2   1   1    1.03    0.11
   2   1   1    0.90    0.11
  -3  -1  -1  172.76   11.57
  -3  -1  -1  156.52   11.56
   3   1   1  157.79   11.56
  -4  -1  -1    4.90    0.44
   5   1   1    0.97    0.11
   5   1   1    1.29    0.11
   5   1   1    1.00    0.12
   5   1   1    0.99    0.11
   6   1   1    6.13    0.45
   6   1   1    6.27    0.48
   6   1   1    5.93    0.47
   6   1   1    5.27    0.46
   6   1   1    5.63    0.46
   7   1   1    8.71    0.70
   7   1   1    9.50    0.71
   7   1   1    8.85    0.71
  -8  -1  -1    7.77    0.64
   8   1   1    7.79    0.62
   8   1   1    7.99    0.60
  -9  -1  -1    3.96    0.34
   9   1   1    4.17    0.32
   8  -2  -1    0.33    0.07
   7  -2  -1   52.53    3.70
   7  -2  -1   50.05    3.69
   6  -2  -1    3.38    0.29
   6  -2  -1    3.81    0.32
   6  -2  -1    3.95    0.34
   5  -2  -1   11.18    0.86
   5  -2  -1   10.16    0.83
   5  -2  -1   11.16    0.85
   5  -2  -1   12.76    0.87
   5  -2  -1   11.15    0.85
   4  -2  -1   21.66    1.56
   4  -2  -1   20.90    1.57
   4  -2  -1   20.80    1.56
   4  -2  -1   22.36    1.57
  -3   2   1   17.86    1.37
  -3   2   1   18.76    1.36
  -2   2   1   50.24    3.28
  -2   2   1   41.13    3.29
   1  -2  -1   29.23    2.01
  -1   2   1   26.96    2.03
  -1  -2  -1    6.37    0.52
  -1  -2  -1    6.99    0.53
   1   2   1    7.24    0.53
  -2  -2  -1    1.81    0.19
  -2  -2  -1    1.87    0.19
   2   2   1    1.61    0.18
   2   2   1    1.92    0.19
  -3  -2  -1   23.69    1.86
  -3  -2  -1   24.70    1.86
   3   2   1   26.53    1.87
   4   2   1   11.69    0.86
   5   2   1    8.18    0.56
   5   2   1    7.20    0.57
   5   2   1    6.97    0.56
  -6  -2  -1   18.45    1.29
   6   2   1   18.42    1.26
   6   2   1   16.15    1.28
   6   2   1   17.02    1.27
   6   2   1   16.18    1.27
   7   2   1   11.30    0.90
   7   2   1   12.19    0.90
  -8  -2  -1    0.20    0.07
   8   2   1    0.41    0.09
   8   2   1    0.24    0.06
   9   2   1    6.35    0.48
   8  -3  -1    1.47    0.14
   7  -3  -1    1.53    0.17
   7  -3  -1    1.56    0.17
   6  -3  -1   24.66    1.58
   6  -3  -1   18.08    1.57
   5  -3  -1    5.67    0.42
   5  -3  -1    4.55    0.41
   4  -3  -1    7.54    0.57
   4  -3  -1    7.52    0.55
   4  -3  -1    7.05    0.56
   4  -3  -1    6.46    0.55
   3  -3  -1   36.78    2.47
   3  -3  -1   33.80    2.48
   3  -3  -1   32.95    2.47
  -3   3   1   33.77    2.45
  -2   3   1    6.40    0.49
  -2   3   1    6.53    0.49
  -1   3   1   14.74    1.17
  -1   3   1   17.25    1.17
   0  -3  -1    7.51    0.59
   0   3   1    8.26    0.60
   0   3   1    7.54    0.60
   1   3   1    5.90    0.47
   1   3   1    5.41    0.46
  -2  -3  -1    6.19    0.53
   2   3   1    6.08    0.53
   2   3   1    6.71    0.54
   3   3   1    1.58    0.21
  -4  -3  -1   21.91    1.67
   4   3   1   23.97    1.67
   4   3   1   23.08    1.65
  -5  -3  -1    4.95    0.41
   5   3   1    5.11    0.39
   5   3   1    4.98    0.40
  -6  -3  -1   31.55    2.28
   6   3   1   31.34    2.28
   6   3   1   30.95    2.26
  -7  -3  -1   13.39    0.95
   7   3   1   13.28    0.94
   7   3   1   10.37    0.91
  -8  -3  -1    1.18    0.16
   8   3   1    1.34    0.16
   8   3   1    1.37    0.13
   7  -4  -1    3.60    0.30
   7  -4  -1    3.49    0.30
   6  -4  -1    1.13    0.14
   6  -4  -1    1.20    0.15
   6  -4  -1    1.01    0.14
   5  -4  -1    0.03    0.04
   5  -4  -1   -0.01    0.05
   5  -4  -1    0.02    0.04
   4  -4  -1    9.07    0.67
   4  -4  -1    7.14    0.65
   4  -4  -1    8.85    0.66
   4  -4  -1    9.29    0.68
   3  -4  -1   41.68    2.98
   3  -4  -1   43.56    2.96
   3  -4  -1   35.83    2.98
   3  -4  -1   43.36    2.95
   2  -4  -1    1.49    0.14
   2  -4  -1    1.34    0.14
   2  -4  -1    1.40    0.17
   2  -4  -1    1.78    0.20
   2  -4  -1    1.41    0.14
  -1   4   1   17.08    1.41
  -1   4   1   21.47    1.42
   0   4   1   61.44    4.42
   1   4   1   70.35    5.07
   2   4   1    5.83    0.53
  -3  -4  -1   36.79    3.08
   3   4   1   47.23    3.10
   3   4   1   45.50    3.21
  -4  -4  -1   87.74    7.00
   4   4   1   99.65    6.98
   4   4   1  107.36    7.01
  -5  -4  -1   17.55    1.33
   5   4   1   18.98    1.33
   5   4   1   17.27    1.30
  -6  -4  -1    0.16    0.06
   6   4   1    0.18    0.05
   6   4   1    0.11    0.05
  -7  -4  -1    4.40    0.39
   7   4   1    4.53    0.36
   7   4   1    4.54    0.38
  -8  -4  -1    0.36    0.09
   8   4   1    0.48    0.09
   8   4   1    0.41    0.07
   7  -5  -1   13.40    0.98
   7  -5  -1   13.23    0.98
   6  -5  -1   14.03    1.10
   6  -5  -1   15.54    1.11
   6  -5  -1   15.12    1.11
   5  -5  -1   10.66    0.81
   5  -5  -1   10.54    0.82
   4  -5  -1   23.60    1.66
   4  -5  -1   23.36    1.67
   4  -5  -1   20.39    1.65
   3  -5  -1   20.95    1.48
   3  -5  -1   20.07    1.49
   3  -5  -1   18.84    1.52
   3  -5  -1   21.02    1.51
   2  -5  -1    2.97    0.25
   2  -5  -1    3.07    0.29
   2  -5  -1    2.95    0.25
   2  -5  -1    3.34    0.32
   2  -5  -1    2.59    0.25
   1  -5  -1    9.00    0.67
   1  -5  -1    8.06    0.63
   1  -5  -1    7.20    0.60
   0  -5  -1    9.54    0.76
   0  -5  -1    9.55    0.74
  -1  -5  -1   31.03    2.29
  -1  -5  -1   31.16    2.26
  -2  -5  -1    0.45    0.10
  -2  -5  -1    0.31    0.10
   2   5   1    0.35    0.07
  -3  -5  -1   38.27    2.79
   3   5   1   38.53    2.77
  -4  -5  -1    7.36    0.59
  -4  -5  -1    6.77    0.56
   4   5   1    6.86    0.53
   4   5   1    7.22    0.72
   4   5   1    6.94    0.55
  -5  -5  -1    9.79    0.74
  -5  -5  -1    9.49    0.77
   5   5   1    9.17    0.70
  -6  -5  -1   22.53    1.82
  -6  -5  -1   23.29    1.81
   6   5   1   26.63    1.79
   6   5   1   24.33    1.76
   7   5   1    0.14    0.06
   7   5   1    0.15    0.05
   7   5   1    0.21    0.06
   8   5   1   13.96    1.04
   6  -6  -1    0.27    0.06
   6  -6  -1    0.19    0.06
   6  -6  -1    0.33    0.07
   5  -6  -1    3.93    0.34
   5  -6  -1    3.87    0.34
   5  -6  -1    4.34    0.35
   4  -6  -1    0.06    0.05
   4  -6  -1    0.04    0.06
   4  -6  -1    0.04    0.04
   3  -6  -1    0.33    0.12
   3  -6  -1    0.62    0.10
   3  -6  -1    0.40    0.10
   2  -6  -1   12.17    0.92
   2  -6  -1   10.62    0.84
   2  -6  -1   10.93    0.84
   1  -6  -1   16.39    1.31
   1  -6  -1   18.53    1.36
   0  -6  -1   32.33    2.37
   0  -6  -1   32.63    2.41
  -1  -6  -1    4.04    0.34
  -1  -6  -1    3.55    0.36
   1   6   1    3.16    0.31
  -2  -6  -1   22.65    1.79
  -2  -6  -1   24.89    1.76
   2   6   1   23.67    1.74
  -3  -6  -1   10.71    0.83
   3   6   1   10.12    0.80
  -4  -6  -1   27.16    2.07
   4   6   1   28.88    2.24
   5   6   1   25.88    1.90
  -6  -6  -1    6.33    0.60
   6   6   1    8.37    0.59
   7   6   1   16.79    1.26
   7   6   1   17.00    1.25
   5  -7  -1    0.25    0.06
   5  -7  -1    0.29    0.07
   4  -7  -1   26.75    2.04
   4  -7  -1   25.37    1.87
   4  -7  -1   24.73    1.86
   3  -7  -1   21.73    1.59
   3  -7  -1   20.89    1.63
   3  -7  -1   21.47    1.57
   2  -7  -1   12.55    0.97
   1  -7  -1   18.21    1.42
   1  -7  -1   19.57    1.48
   0  -7  -1    1.94    0.29
   0  -7  -1    2.92    0.27
   0   7   1    2.71    0.29
  -1  -7  -1   18.24    1.34
   1   7   1   15.69    1.26
  -2  -7  -1    0.67    0.16
  -2  -7  -1    0.20    0.09
   2   7   1    0.38    0.09
  -3  -7  -1    7.44    0.58
   3   7   1    6.25    0.54
  -4  -7  -1    0.84    0.16
   4   7   1    1.24    0.37
   4   7   1    0.58    0.11
  -5  -7  -1    0.65    0.14
   5   7   1    0.62    0.11
  -6  -7  -1    3.30    0.40
   6   7   1    4.87    0.36
   4  -8  -1    0.12    0.04
   3  -8  -1    5.40    0.51
   3  -8  -1    5.67    0.45
   2  -8  -1   -0.07    0.09
   2  -8  -1    0.01    0.05
   1  -8  -1    2.70    0.33
   1  -8  -1    2.51    0.26
   0  -8  -1    0.36    0.10
   0  -8  -1    0.42    0.14
  -1  -8  -1    3.15    0.33
   1   8   1    4.20    0.33
  -2  -8  -1   10.81    0.93
  -2  -8  -1   11.11    0.88
   2   8   1   11.66    0.85
  -3  -8  -1   12.04    0.92
   3   8   1   11.58    0.89
   3   8   1   11.76    1.11
  -4  -8  -1   10.52    0.84
   4   8   1   10.94    1.02
   4   8   1   11.27    0.83
  -5  -8  -1    0.77    0.13
   5   8   1    1.01    0.12
   2  -9  -1    0.74    0.10
   2  -9  -1    0.66    0.16
   1  -9  -1    0.11    0.05
   1  -9  -1    0.07    0.11
  -1   9   1    0.03    0.13
   0  -9  -1    6.83    0.62
   0  -9  -1    7.54    0.55
   0   9   1    5.60    0.67
  -1  -9  -1    1.60    0.18
  -1  -9  -1    1.60    0.28
   1   9   1    1.80    0.37
  -2  -9  -1    3.82    0.32
   2   9   1    3.29    0.30
   2   9   1    3.93    0.52
  -3  -9  -1    1.71    0.19
   3   9   1    1.84    0.17
   3   9   1    2.66    0.41
   2   9  -2   23.66    1.68
  -2  -9   2   22.34    1.69
   1   9  -2    5.16    0.43
  -1  -9   2    5.42    0.44
   0   9  -2   10.86    0.96
   0  -9   2   14.31    0.98
   0  -9   2   13.52    1.02
   1  -9   2    4.21    0.36
   1  -9   2    4.34    0.41
   2  -9   2    2.29    0.27
   4   8  -2   10.81    0.78
  -4  -8   2    9.55    0.80
   3   8  -2    9.07    0.66
  -3  -8   2    7.54    0.67
   2   8  -2    0.19    0.08
  -2  -8   2    0.14    0.07
   1   8  -2   12.14    0.99
  -1  -8   2   14.12    1.00
  -1  -8   2   11.94    1.02
   0   8  -2    2.86    0.29
   0  -8   2    2.90    0.28
   0  -8   2    2.83    0.33
   1  -8   2   27.57    2.07
   1  -8   2   28.35    2.13
   1  -8   2   28.72    2.08
   2  -8   2   13.12    1.04
   2  -8   2   12.92    0.99
   2  -8   2   12.91    0.98
   3  -8   2    0.06    0.08
   3  -8   2    0.07    0.06
   4  -8   2    1.71    0.22
   5   7  -2    0.07    0.04
   5   7  -2    0.07    0.05
  -5  -7   2    0.25    0.09
   4   7  -2    0.56    0.08
   4   7  -2    0.45    0.10
  -4  -7   2    0.38    0.11
   3   7  -2   10.92    0.70
   3   7  -2    8.97    0.74
  -3  -7   2    8.01    0.75
   2   7  -2    5.97    0.53
  -2  -7   2    6.33    0.54
  -1  -7   2    0.16    0.10
  -1  -7   2    0.18    0.08
   0  -7   2    0.87    0.18
   0  -7   2    0.73    0.13
   1  -7   2   11.09    0.92
   1  -7   2   12.87    0.93
   2  -7   2   29.18    2.16
   2  -7   2   29.59    2.15
   3  -7   2   11.38    0.88
   3  -7   2   11.62    0.89
   3  -7   2   11.69    0.93
   3  -7   2   11.08    0.88
   3  -7   2   11.92    0.90
   4  -7   2   16.92    1.20
   4  -7   2   16.99    1.21
   4  -7   2   15.41    1.24
   4  -7   2   14.87    1.19
   4  -7   2   16.09    1.20
   5  -7   2   -0.04    0.05
   5  -7   2    0.04    0.05
   6   6  -2    6.85    0.58
   6   6  -2    7.33    0.54
  -6  -6   2    7.01    0.59
   5   6  -2   13.30    0.96
   5   6  -2   12.46    0.95
  -5  -6   2   12.59    1.02
   4   6  -2    0.74    0.10
   4   6  -2    1.06    0.14
  -4  -6   2    0.69    0.17
   3   6  -2    0.08    0.04
   3   6  -2    0.04    0.06
  -3  -6   2    0.03    0.06
   2   6  -2   19.14    1.36
  -2  -6   2   16.66    1.35
   1   6  -2    0.64    0.10
  -1  -6   2    0.85    0.16
  -1  -6   2    0.52    0.11
   0  -6   2   17.08    1.26
   0  -6   2   16.67    1.26
   0  -6   2   16.30    1.28
   1  -6   2   27.12    2.05
   1  -6   2   29.44    2.02
   1  -6   2   25.93    2.02
   2  -6   2    4.46    0.36
   2  -6   2    4.00    0.35
   2  -6   2    4.07    0.37
   2  -6   2    3.97    0.37
   3  -6   2   11.28    0.92
   3  -6   2   11.89    0.93
   3  -6   2   12.32    0.91
   3  -6   2   12.46    0.90
   3  -6   2   11.65    0.95
   4  -6   2   -0.04    0.09
   4  -6   2    0.17    0.09
   4  -6   2    0.01    0.04
   4  -6   2    0.00    0.04
   4  -6   2    0.08    0.07
   5  -6   2    6.81    0.52
   5  -6   2    5.64    0.52
   5  -6   2    6.69    0.52
   6  -6   2    1.59    0.17
   6  -6   2    1.49    0.16
   7   5  -2    0.25    0.05
   7   5  -2    0.14    0.06
  -7  -5   2    0.16    0.08
   6   5  -2   14.75    1.09
   5   5  -2    7.94    0.64
   5   5  -2    8.77    0.65
   4   5  -2    5.36    0.42
   4   5  -2    5.36    0.45
   3   5  -2   10.63    0.85
   3   5  -2   11.37    0.82
   2   5  -2    0.85    0.10
  -2  -5   2    0.75    0.12
  -2  -5   2    0.78    0.14
   1   5  -2    0.15    0.05
  -1  -5   2    0.09    0.06
  -1  -5   2    0.16    0.07
  -1  -5   2    0.10    0.06
  -1  -5   2    0.08    0.06
   0  -5   2   -0.01    0.05
   0  -5   2    0.08    0.05
   0  -5   2    0.07    0.05
   0  -5   2    0.05    0.05
   1  -5   2   10.89    0.81
   1  -5   2   11.36    0.83
   1  -5   2    9.39    0.80
   1  -5   2   11.23    0.84
   1  -5   2   11.01    0.83
   1  -5   2   10.48    0.82
   2  -5   2    7.95    0.62
   2  -5   2    7.36    0.58
   2  -5   2    8.10    0.61
   2  -5   2    7.13    0.60
   2  -5   2    7.25    0.58
   3  -5   2   32.31    2.36
   3  -5   2   32.06    2.32
   3  -5   2   31.94    2.35
   3  -5   2   30.92    2.34
   3  -5   2   33.16    2.33
   4  -5   2    0.11    0.05
   4  -5   2   -0.01    0.08
   4  -5   2    0.05    0.04
   4  -5   2   -0.09    0.08
   4  -5   2    0.13    0.07
   5  -5   2    9.26    0.69
   5  -5   2    8.49    0.69
   6  -5   2   13.40    0.96
   6  -5   2   11.85    0.95
   6  -5   2   12.75    0.97
   7  -5   2    7.02    0.55
   7  -5   2    7.17    0.56
   7   4  -2    4.42    0.36
   7   4  -2    4.38    0.35
   6   4  -2    0.32    0.07
   5   4  -2    4.32    0.35
   4   4  -2    1.43    0.16
   4   4  -2    1.65    0.15
   3   4  -2   23.97    1.76
   3   4  -2   24.14    1.74
   2   4  -2    0.56    0.08
   2   4  -2    0.73    0.15
  -2  -4   2    0.63    0.10
   1   4  -2   14.96    1.16
  -1  -4   2   14.86    1.12
   0   4  -2   19.26    1.45
  -1   4  -2    4.04    0.35
   2  -4   2   19.97    1.48
   2  -4   2   19.01    1.47
   2  -4   2   20.99    1.45
   2  -4   2   20.47    1.45
   2  -4   2   19.50    1.48
   3  -4   2    2.11    0.23
   3  -4   2    2.07    0.19
   3  -4   2    2.06    0.22
   3  -4   2    2.17    0.19
   4  -4   2   11.85    0.86
   4  -4   2   12.47    0.85
   4  -4   2    9.50    0.86
   4  -4   2   11.67    0.89
   5  -4   2    2.59    0.24
   5  -4   2    2.58    0.24
   6  -4   2    3.35    0.30
   6  -4   2    3.31    0.30
   7  -4   2    0.08    0.05
   7  -4   2    0.06    0.04
   7  -4   2   -0.03    0.07
   8  -4   2    0.05    0.06
   8  -4   2    0.05    0.04
   8   3  -2    0.01    0.02
   7   3  -2    2.62    0.25
   7   3  -2    2.99    0.24
   6   3  -2    1.63    0.18
   6   3  -2    2.16    0.22
   6   3  -2    2.09    0.20
   5   3  -2   31.80    2.30
   5   3  -2   31.64    2.32
   4   3  -2    8.30    0.69
   4   3  -2   10.23    0.68
   4   3  -2    8.78    0.68
   3   3  -2    8.57    0.69
   3   3  -2    9.74    0.68
   2   3  -2   67.16    4.87
   1   3  -2   21.84    1.63
   0   3  -2   14.23    1.05
   0   3  -2   13.83    1.06
   0  -3   2   13.78    1.05
  -1   3  -2    0.66    0.09
  -1   3  -2    0.62    0.09
  -2   3  -2  286.96   20.91
   3  -3   2    0.03    0.02
   3  -3   2    0.01    0.03
   4  -3   2    0.49    0.08
   4  -3   2    0.36    0.07
   4  -3   2    0.39    0.07
   4  -3   2    0.46    0.09
   5  -3   2    0.99    0.11
   5  -3   2    0.70    0.10
   5  -3   2    0.67    0.09
   5  -3   2    0.88    0.14
   6  -3   2    0.07    0.05
   6  -3   2    0.20    0.09
   6  -3   2    0.03    0.04
   7  -3   2   14.37    1.17
   7  -3   2   16.38    1.17
   7  -3   2   16.45    1.19
   8  -3   2    0.31    0.07
   8  -3   2    0.34    0.08
   8  -3   2    0.25    0.08
   8   2  -2   16.39    1.19
   7   2  -2    0.77    0.10
   7   2  -2    0.72    0.11
   7   2  -2    0.76    0.13
   7   2  -2    0.63    0.11
  -7  -2   2    0.80    0.13
   6   2  -2   16.57    1.30
   6   2  -2   17.14    1.30
   6   2  -2   18.33    1.29
   5   2  -2    7.49    0.56
   5   2  -2    7.19    0.59
   5   2  -2    7.16    0.58
   4   2  -2    0.14    0.04
   4   2  -2    0.14    0.05
   3   2  -2   19.01    1.41
  -3  -2   2   20.15    1.51
   2   2  -2   18.82    1.57
   2   2  -2   23.07    1.58
  -2  -2   2   22.50    1.57
  -2  -2   2   18.72    1.57
   1   2  -2  247.84   18.25
   1   2  -2  265.74   18.24
  -1  -2   2  280.13   18.24
  -1  -2   2  233.04   18.24
   0   2  -2   10.20    0.79
   0   2  -2    8.73    0.79
   0  -2   2   10.87    0.80
   0  -2   2   11.77    0.80
  -1   2  -2    1.59    0.15
   1  -2   2    1.53    0.14
  -2   2  -2    3.58    0.26
  -2   2  -2    2.88    0.26
  -3   2  -2    3.16    0.26
  -4   2  -2    1.02    0.11
   4  -2   2    1.18    0.11
   4  -2   2    0.95    0.10
   4  -2   2    0.93    0.13
   4  -2   2    1.12    0.11
   5  -2   2    8.14    0.62
   5  -2   2    8.94    0.64
   5  -2   2    8.37    0.66
   5  -2   2    7.00    0.63
   5  -2   2    9.37    0.64
   6  -2   2   20.82    1.49
   6  -2   2   20.00    1.46
   6  -2   2   19.87    1.48
   6  -2   2   19.31    1.47
   7  -2   2    6.56    0.51
   7  -2   2    6.36    0.48
   7  -2   2    6.11    0.49
   7  -2   2    5.27    0.48
   8  -2   2    0.10    0.06
   8  -2   2    0.06    0.05
   8   1  -2    2.93    0.29
   8   1  -2    3.98    0.27
   7   1  -2    7.42    0.53
   7   1  -2    6.44    0.55
   7   1  -2    6.57    0.55
   6   1  -2    0.98    0.13
   6   1  -2    0.91    0.11
   6   1  -2    1.04    0.14
   6   1  -2    0.95    0.14
   5   1  -2    5.07    0.40
   5   1  -2    5.33    0.43
   5   1  -2    5.03    0.44
   4   1  -2   17.01    1.19
   4   1  -2   16.77    1.17
   4   1  -2   16.01    1.20
   4   1  -2   14.19    1.18
  -4  -1   2   16.50    1.29
  -3  -1   2    3.30    0.34
   2   1  -2    4.39    0.36
   2   1  -2    3.37    0.35
  -2  -1   2    3.61    0.35
  -2  -1   2    4.18    0.36
   1   1  -2   33.99    2.78
   1   1  -2   40.58    2.79
  -1  -1   2   36.07    2.79
  -1  -1   2   43.43    2.80
   0   1  -2    0.75    0.10
   0   1  -2    0.97    0.11
   0  -1   2    1.07    0.11
   0  -1   2    1.17    0.12
  -1   1  -2   88.70    7.18
   1  -1   2  104.98    7.17
   1  -1   2  108.62    7.17
  -2   1  -2    4.24    0.33
   2  -1   2    4.46    0.32
   2  -1   2    3.84    0.33
  -3   1  -2    9.95    0.76
  -3   1  -2   10.97    0.77
   3  -1   2    9.65    0.75
  -4   1  -2   53.26    3.83
   5  -1   2    0.69    0.11
   5  -1   2    0.83    0.09
   5  -1   2    0.83    0.10
   5  -1   2    0.79    0.10
   5  -1   2    0.83    0.10
   5  -1   2    0.74    0.10
   6  -1   2  119.03    8.00
   6  -1   2  102.28    8.00
   6  -1   2  112.22    8.02
   6  -1   2  116.40    8.03
   7  -1   2    0.68    0.09
   7  -1   2    0.82    0.12
   7  -1   2    0.84    0.14
   8  -1   2    8.97    0.76
   8  -1   2   10.44    0.78
   8  -1   2   10.74    0.76
  -9   1  -2    0.09    0.05
   8   0  -2    0.20    0.06
   8   0  -2    0.21    0.04
  -8   0   2    0.13    0.06
   7   0  -2    6.19    0.48
   7   0  -2    6.42    0.52
   7   0  -2    6.27    0.52
   6   0  -2    0.42    0.10
   6   0  -2    0.34    0.08
   5   0  -2    6.71    0.52
   5   0  -2    6.26    0.49
   5   0  -2    5.68    0.49
   5   0  -2    7.35    0.52
   5   0  -2    6.24    0.51
   4   0  -2  109.25    8.06
   4   0  -2  110.41    8.07
   4   0  -2  118.63    8.08
   4   0  -2  120.34    8.07
   4   0  -2  107.89    8.04
  -3   0   2    1.31    0.18
   2   0  -2  191.00   14.02
  -2   0   2  180.98   14.03
  -2   0   2  219.10   14.03
   1   0  -2  133.04    8.75
   1   0  -2  127.14    8.75
  -1   0   2  107.97    8.74
  -1   0   2  122.90    8.76
   0   0  -2    1.48    0.16
   0   0  -2    1.32    0.15
   0   0   2    1.38    0.16
   0   0   2    1.44    0.16
  -1   0  -2   81.58    6.35
   1   0   2   87.76    6.36
   1   0   2   98.39    6.36
  -2   0  -2   14.75    1.27
   2   0   2   20.02    1.28
  -3   0  -2   58.00    4.28
  -3   0  -2   61.62    4.28
   3   0   2   59.50    4.28
  -4   0  -2    1.39    0.17
   5   0   2   27.18    1.76
   5   0   2   23.55    1.77
   5   0   2   22.82    1.76
   5   0   2   26.26    1.77
   5   0   2   22.03    1.76
   6   0   2    4.68    0.42
   6   0   2    5.59    0.43
   6   0   2    5.40    0.43
   6   0   2    4.97    0.42
   6   0   2    5.73    0.41
   7   0   2    1.23    0.16
   7   0   2    1.05    0.12
  -8   0  -2    4.24    0.40
   8   0   2    4.83    0.41
   8   0   2    4.89    0.38
  -9   0  -2   11.21    0.81
   9   0   2   10.70    0.78
   9   0   2    9.86    0.80
   8  -1  -2    7.29    0.56
   7  -1  -2    8.50    0.73
   7  -1  -2   10.02    0.75
   7  -1  -2   10.38    0.76
   6  -1  -2    7.02    0.53
   6  -1  -2    5.75    0.52
   5  -1  -2   31.85    2.43
   5  -1  -2   34.65    2.43
   5  -1  -2   36.62    2.44
   5  -1  -2   30.26    2.39
   5  -1  -2   33.84    2.43
   4  -1  -2   17.82    1.35
   4  -1  -2   17.05    1.35
   4  -1  -2   19.62    1.36
   4  -1  -2   19.03    1.35
  -3   1   2    2.41    0.26
   2  -1  -2    9.40    0.75
  -2   1   2    8.59    0.76
  -2   1   2   11.21    0.77
   1  -1  -2    3.96    0.34
   1  -1  -2    4.31    0.35
  -1   1   2    3.91    0.36
   0  -1  -2    2.14    0.21
   0  -1  -2    2.18    0.21
   0   1   2    2.67    0.22
  -1  -1  -2  101.75    6.56
  -1  -1  -2   96.45    6.56
   1   1   2   81.86    6.55
   1   1   2   87.61    6.55
  -2  -1  -2   27.56    1.88
  -2  -1  -2   22.95    1.87
   2   1   2   25.94    1.88
   2   1   2   26.09    1.88
  -3  -1  -2   49.41    3.69
  -3  -1  -2   51.44    3.69
   3   1   2   52.44    3.69
  -4  -1  -2    4.05    0.38
   5   1   2   40.46    2.92
   5   1   2   41.69    2.93
   5   1   2   38.12    2.92
   5   1   2   42.56    2.91
   6   1   2    4.55    0.38
   6   1   2    4.62    0.38
   6   1   2    4.82    0.37
   6   1   2    4.69    0.39
  -7  -1  -2    1.71    0.20
   7   1   2    1.83    0.17
   7   1   2    1.88    0.20
  -8  -1  -2    5.24    0.47
   8   1   2    5.94    0.48
   8   1   2    5.83    0.45
  -9  -1  -2    5.85    0.45
   9   1   2    4.93    0.44
   9   1   2    5.85    0.43
   7  -2  -2    1.03    0.13
   7  -2  -2    0.91    0.13
   6  -2  -2    2.02    0.22
   6  -2  -2    2.18    0.21
   6  -2  -2    1.95    0.21
   5  -2  -2   21.38    1.50
   5  -2  -2   20.51    1.50
   5  -2  -2   18.75    1.49
   4  -2  -2   17.03    1.31
   4  -2  -2   18.90    1.31
   4  -2  -2   17.99    1.31
   4  -2  -2   17.10    1.31
   3  -2  -2   30.84    2.29
   3  -2  -2   32.97    2.29
   3  -2  -2   31.06    2.29
  -3   2   2   32.19    2.36
   2  -2  -2    6.29    0.46
  -2   2   2    6.35    0.50
  -2   2   2    4.78    0.47
   1  -2  -2  102.81    7.05
  -1   2   2   95.03    7.07
   0  -2  -2  321.14   22.79
  -1  -2  -2   63.73    4.55
  -1  -2  -2   61.95    4.54
   1   2   2   63.72    4.55
   1   2   2   64.42    4.55
  -2  -2  -2  247.05   16.83
  -2  -2  -2  230.06   16.83
   2   2   2  231.09   16.83
   2   2   2  238.51   16.84
  -3  -2  -2   35.87    2.74
   3   2   2   39.01    2.75
  -4  -2  -2   66.78    4.23
   4   2   2   48.87    4.16
  -5  -2  -2    3.84    0.31
  -5  -2  -2    3.64    0.42
   5   2   2    3.66    0.30
   5   2   2    3.79    0.29
   5   2   2    3.33    0.29
  -6  -2  -2    3.71    0.32
   6   2   2    3.65    0.31
   6   2   2    3.11    0.32
   6   2   2    3.92    0.30
  -7  -2  -2   13.72    1.00
   7   2   2   11.72    0.96
   7   2   2   13.63    1.00
  -8  -2  -2    8.34    0.64
   8   2   2    8.13    0.64
   8   2   2    7.48    0.61
  -9  -2  -2   22.35    1.69
   9   2   2   24.35    1.67
   9   2   2   22.69    1.69
   7  -3  -2    0.61    0.09
   7  -3  -2    0.43    0.09
   6  -3  -2   51.82    3.93
   6  -3  -2   51.59    3.93
   6  -3  -2   60.30    3.94
   5  -3  -2    0.00    0.04
   5  -3  -2    0.01    0.03
   5  -3  -2    0.03    0.05
   5  -3  -2    0.03    0.04
   4  -3  -2   13.04    1.02
   4  -3  -2   12.72    1.01
   4  -3  -2   14.15    1.03
   4  -3  -2   14.74    1.03
   3  -3  -2    8.12    0.67
   3  -3  -2    8.87    0.68
   3  -3  -2    9.13    0.69
   3  -3  -2    9.88    0.69
  -2   3   2    4.51    0.39
  -1   3   2    1.31    0.15
  -1   3   2    1.16    0.14
   0  -3  -2   51.18    3.86
   0   3   2   55.48    3.89
   0   3   2   55.14    3.88
   1   3   2   63.86    4.40
   1   3   2   58.04    4.38
  -2  -3  -2    0.02    0.03
   2   3   2    0.03    0.05
   2   3   2    0.04    0.04
   3   3   2   42.41    3.13
  -4  -3  -2    0.05    0.03
   4   3   2    0.06    0.03
   4   3   2    0.03    0.02
  -5  -3  -2    4.64    0.39
   5   3   2    4.89    0.37
   5   3   2    5.05    0.39
  -6  -3  -2    6.38    0.53
   6   3   2    7.05    0.54
   6   3   2    6.42    0.51
  -7  -3  -2    6.00    0.51
   7   3   2    5.99    0.49
   7   3   2    7.03    0.52
  -8  -3  -2    5.91    0.48
   8   3   2    5.95    0.48
   8   3   2    6.24    0.46
   8   3   2    5.33    0.47
   9   3   2   23.08    1.82
   9   3   2   27.49    1.86
   7  -4  -2    2.48    0.22
   7  -4  -2    2.38    0.22
   6  -4  -2    0.55    0.10
   6  -4  -2    0.67    0.12
   6  -4  -2    0.58    0.10
   5  -4  -2   14.48    1.05
   5  -4  -2   14.90    1.05
   5  -4  -2   12.29    1.03
   4  -4  -2    3.96    0.31
   4  -4  -2    2.98    0.30
   3  -4  -2   29.16    2.10
   3  -4  -2   32.09    2.13
   3  -4  -2   30.37    2.10
   3  -4  -2   24.31    2.13
   2  -4  -2   16.56    1.24
   2  -4  -2   16.57    1.21
   2  -4  -2   16.82    1.26
   2  -4  -2   17.60    1.22
   2  -4  -2   15.47    1.21
   1  -4  -2   37.56    2.80
   1  -4  -2   40.21    2.82
  -1   4   2   39.23    2.83
   0   4   2    1.28    0.16
   1   4   2   25.42    1.90
   2   4   2    7.71    0.67
  -3  -4  -2    0.53    0.10
  -3  -4  -2    0.40    0.07
   3   4   2    0.49    0.15
   3   4   2    0.45    0.07
  -4  -4  -2    3.80    0.31
  -4  -4  -2    3.44    0.32
   4   4   2    3.46    0.28
   4   4   2    3.34    0.42
   4   4   2    3.94    0.30
  -5  -4  -2   39.54    2.86
   5   4   2   41.63    2.86
   5   4   2   37.37    2.82
  -6  -4  -2   25.89    1.89
   6   4   2   25.58    1.86
  -7  -4  -2    4.02    0.38
   7   4   2    4.67    0.38
   7   4   2    4.41    0.35
  -8  -4  -2    6.20    0.49
   8   4   2    5.46    0.48
   8   4   2    6.17    0.46
   8   4   2    6.35    0.49
   6  -5  -2    0.17    0.06
   6  -5  -2    0.13    0.05
   6  -5  -2    0.10    0.05
   5  -5  -2    1.60    0.17
   5  -5  -2    1.52    0.17
   5  -5  -2    1.53    0.17
   4  -5  -2   11.01    0.85
   4  -5  -2   11.38    0.86
   3  -5  -2    2.54    0.23
   3  -5  -2    2.55    0.23
   3  -5  -2    2.07    0.24
   3  -5  -2    2.31    0.30
   2  -5  -2   24.38    1.84
   2  -5  -2   24.55    1.79
   2  -5  -2   24.42    1.78
   2  -5  -2   24.75    1.81
   1  -5  -2   18.69    1.43
   1  -5  -2   20.37    1.49
   1  -5  -2   19.64    1.45
   0  -5  -2    4.36    0.36
   0  -5  -2    4.34    0.39
   0  -5  -2    3.80    0.33
  -1  -5  -2    2.27    0.21
  -1  -5  -2    2.08    0.24
  -1  -5  -2    1.72    0.18
   1   5   2    2.09    0.19
  -2  -5  -2    0.28    0.08
  -2  -5  -2    0.24    0.06
  -2  -5  -2    0.33    0.10
   2   5   2    0.35    0.07
  -3  -5  -2    0.04    0.07
  -3  -5  -2    0.01    0.04
   3   5   2    0.09    0.04
  -4  -5  -2   32.94    2.53
  -4  -5  -2   33.98    2.51
   4   5   2   38.35    2.69
   4   5   2   33.90    2.51
  -5  -5  -2   22.33    1.59
  -5  -5  -2   20.62    1.60
  -6  -5  -2   11.62    0.85
   6   5   2   10.14    0.80
  -7  -5  -2    1.16    0.16
   7   5   2    0.96    0.12
   7   5   2    1.31    0.15
   7   5   2    1.34    0.16
   8   5   2    7.63    0.55
   8   5   2    6.37    0.52
   6  -6  -2    0.26    0.07
   5  -6  -2    0.14    0.06
   5  -6  -2    0.16    0.06
   5  -6  -2    0.11    0.05
   4  -6  -2   22.96    1.64
   4  -6  -2   19.57    1.64
   4  -6  -2   24.61    1.65
   3  -6  -2    1.14    0.16
   3  -6  -2    1.65    0.25
   2  -6  -2    1.07    0.12
   2  -6  -2    1.01    0.20
   2  -6  -2    0.94    0.13
   1  -6  -2    0.26    0.09
   1  -6  -2    0.25    0.06
   1  -6  -2    0.26    0.11
   0  -6  -2   13.56    1.05
   0  -6  -2   13.75    1.01
   0  -6  -2   12.18    0.97
  -1  -6  -2    0.57    0.15
  -1  -6  -2    0.34    0.07
  -1  -6  -2    0.62    0.11
   1   6   2    0.45    0.09
  -2  -6  -2    0.23    0.06
  -2  -6  -2    0.48    0.10
  -2  -6  -2    0.39    0.12
   2   6   2    0.37    0.07
  -3  -6  -2    2.36    0.25
  -3  -6  -2    1.88    0.21
   3   6   2    2.47    0.22
  -4  -6  -2    3.96    0.36
  -4  -6  -2    4.23    0.38
  -5  -6  -2   18.73    1.38
  -5  -6  -2   17.51    1.44
   6   6   2    1.30    0.15
   7   6   2    4.47    0.38
   7   6   2    4.41    0.37
   5  -7  -2    5.22    0.40
   4  -7  -2    0.01    0.05
   4  -7  -2    0.07    0.05
   3  -7  -2    4.56    0.45
   3  -7  -2    3.79    0.36
   2  -7  -2    0.10    0.06
   2  -7  -2    0.20    0.13
   1  -7  -2    0.51    0.15
   1  -7  -2    0.68    0.13
   0  -7  -2    2.17    0.22
   0  -7  -2    1.52    0.25
  -1  -7  -2    1.43    0.18
  -1  -7  -2    1.41    0.25
   1   7   2    1.05    0.14
  -2  -7  -2    1.72    0.22
  -2  -7  -2    1.98    0.30
   2   7   2    1.95    0.19
  -3  -7  -2   35.85    2.45
   3   7   2   31.66    2.62
   3   7   2   32.47    2.42
  -4  -7  -2    0.53    0.12
   4   7   2    0.86    0.33
   4   7   2    0.54    0.10
  -5  -7  -2    7.28    0.62
   5   7   2    7.98    0.60
   6   7   2    0.00    0.04
   3  -8  -2    3.64    0.29
   3  -8  -2    2.85    0.39
   2  -8  -2   13.16    0.96
   2  -8  -2   11.95    1.02
   1  -8  -2    0.52    0.17
   1  -8  -2    0.65    0.13
   0  -8  -2   12.34    1.10
   0  -8  -2   14.60    1.04
  -1  -8  -2    0.05    0.13
  -1  -8  -2    0.26    0.09
  -2  -8  -2    1.05    0.15
  -2  -8  -2    1.16    0.24
   2   8   2    0.92    0.13
   2   8   2    0.89    0.29
  -3  -8  -2   10.38    0.88
   3   8   2   12.96    1.10
   3   8   2   11.59    0.86
  -4  -8  -2   28.79    2.23
   4   8   2   31.91    2.22
   4   8   2   31.30    2.41
   5   8   2   15.34    1.13
   2  -9  -2    1.56    0.16
   1  -9  -2    0.71    0.10
   1  -9  -2    0.65    0.18
   0  -9  -2    0.28    0.16
   0  -9  -2    0.18    0.06
   0   9   2    0.28    0.18
  -1  -9  -2    7.76    0.72
  -1  -9  -2    8.35    0.63
   1   9   2    7.94    0.80
  -2  -9  -2    0.25    0.07
   2   9   2    0.51    0.24
  -3  -9  -2    1.76    0.18
   3   9   2    1.69    0.16
   3   9   2    2.01    0.36
   1   9  -3    0.02    0.05
  -1  -9   3    0.03    0.05
   0   9  -3    0.88    0.13
   0  -9   3    0.74    0.11
   0  -9   3    0.68    0.15
   1  -9   3    4.71    0.42
   1  -9   3    4.90    0.44
   2  -9   3    8.33    0.69
  -4  -8   3    2.12    0.22
   3   8  -3    0.85    0.14
  -3  -8   3    1.15    0.16
   2   8  -3    3.40    0.32
  -2  -8   3    3.18    0.31
   1   8  -3    1.30    0.19
  -1  -8   3    1.05    0.15
   0   8  -3    0.14    0.09
   0  -8   3    0.20    0.11
   0  -8   3    0.25    0.08
   1  -8   3   18.75    1.43
   1  -8   3   20.35    1.44
   1  -8   3   18.58    1.48
   2  -8   3    0.01    0.07
   2  -8   3    0.08    0.06
   2  -8   3    0.07    0.06
   3  -8   3    8.18    0.64
   3  -8   3    8.19    0.69
   4  -8   3    2.07    0.24
   5   7  -3    0.12    0.05
  -5  -7   3    0.19    0.07
   4   7  -3    0.42    0.07
   4   7  -3    0.44    0.09
  -4  -7   3    0.47    0.12
   3   7  -3   22.88    1.75
   3   7  -3   27.00    1.80
  -3  -7   3   22.51    1.81
   2   7  -3    0.99    0.18
   2   7  -3    1.44    0.14
  -2  -7   3    1.04    0.17
   1   7  -3    0.97    0.13
  -1  -7   3    1.16    0.17
  -1  -7   3    0.97    0.20
   0  -7   3    4.25    0.43
   0  -7   3    4.18    0.39
   0  -7   3    4.68    0.41
   1  -7   3   12.34    0.89
   1  -7   3    9.64    0.90
   1  -7   3   11.95    0.89
   2  -7   3   26.91    2.06
   2  -7   3   29.23    2.07
   3  -7   3    2.91    0.33
   3  -7   3    3.13    0.29
   3  -7   3    3.12    0.30
   4  -7   3    3.15    0.33
   4  -7   3    3.01    0.29
   5  -7   3    1.41    0.16
   5  -7   3    1.17    0.20
   6   6  -3   47.72    3.47
  -6  -6   3   49.53    3.52
   5   6  -3    1.19    0.13
   5   6  -3    1.18    0.12
  -5  -6   3    1.08    0.19
   4   6  -3    1.04    0.15
   4   6  -3    1.16    0.12
  -4  -6   3    0.89    0.18
   3   6  -3    1.81    0.22
   3   6  -3    1.88    0.18
   2   6  -3    1.13    0.13
   2   6  -3    0.65    0.15
  -2  -6   3    1.08    0.16
  -2  -6   3    0.92    0.16
   1   6  -3    9.53    0.75
  -1  -6   3    8.49    0.78
  -1  -6   3   10.28    0.79
  -1  -6   3   10.83    0.80
   0   6  -3    5.55    0.52
   0  -6   3    6.80    0.56
   0  -6   3    5.40    0.54
   0  -6   3    7.20    0.58
   0  -6   3    7.78    0.56
   1  -6   3   65.07    4.40
   1  -6   3   56.42    4.36
   1  -6   3   60.14    4.36
   2  -6   3   16.05    1.23
   2  -6   3   16.35    1.23
   3  -6   3    0.35    0.10
   3  -6   3    0.41    0.09
   3  -6   3    0.41    0.10
   3  -6   3    0.21    0.09
   3  -6   3    0.33    0.08
   4  -6   3    8.12    0.63
   4  -6   3    7.10    0.61
   4  -6   3    7.75    0.61
   4  -6   3    7.82    0.65
   5  -6   3   10.24    0.80
   5  -6   3   10.13    0.78
   5  -6   3   10.08    0.78
   6  -6   3    7.93    0.62
   6  -6   3    8.01    0.63
   6   5  -3    3.36    0.28
   5   5  -3    0.27    0.06
   5   5  -3    0.25    0.07
   4   5  -3    0.05    0.05
   4   5  -3    0.08    0.04
   3   5  -3    4.14    0.34
   3   5  -3    4.01    0.36
   2   5  -3   29.81    2.18
  -2  -5   3   30.43    2.22
   1   5  -3    6.54    0.51
  -1  -5   3    6.91    0.54
  -1  -5   3    6.40    0.53
  -1  -5   3    5.67    0.52
   0  -5   3   22.05    1.74
   0  -5   3   23.10    1.76
   0  -5   3   24.67    1.75
   0  -5   3   24.87    1.76
   1  -5   3   79.72    6.05
   1  -5   3   86.16    6.06
   1  -5   3   83.60    6.07
   1  -5   3   88.89    6.06
   2  -5   3   12.14    0.92
   2  -5   3   11.91    0.91
   2  -5   3   11.46    0.90
   2  -5   3   11.66    0.88
   2  -5   3   11.96    0.89
   2  -5   3   11.03    0.89
   3  -5   3    1.45    0.18
   3  -5   3    1.62    0.20
   3  -5   3    1.40    0.20
   3  -5   3    1.45    0.15
   3  -5   3    1.53    0.16
   4  -5   3    2.24    0.22
   4  -5   3    2.64    0.23
   5  -5   3   13.30    1.01
   5  -5   3   13.57    1.02
   6  -5   3    7.33    0.64
   6  -5   3    9.36    0.67
   6  -5   3    7.94    0.64
   7  -5   3    3.83    0.31
   7  -5   3    2.88    0.30
   7  -5   3    3.69    0.30
   7   4  -3   16.20    1.20
   7   4  -3   16.07    1.17
   6   4  -3    5.92    0.46
   5   4  -3    0.77    0.14
   3   4  -3   35.46    2.52
   3   4  -3   34.57    2.54
   2   4  -3   43.51    3.01
  -2  -4   3   40.33    3.04
   1   4  -3    1.90    0.18
   1   4  -3    2.10    0.25
  -1  -4   3    1.89    0.20
  -1  -4   3    2.05    0.21
   0   4  -3   20.90    1.55
   0  -4   3   20.74    1.51
   0  -4   3   18.58    1.50
   0  -4   3   21.65    1.51
   0  -4   3   20.00    1.50
  -1   4  -3    0.22    0.08
   1  -4   3    0.44    0.08
   1  -4   3    0.24    0.07
   1  -4   3    0.18    0.07
   1  -4   3    0.28    0.08
   1  -4   3    0.13    0.05
   2  -4   3    0.18    0.05
   2  -4   3    0.33    0.08
   2  -4   3    0.18    0.06
   2  -4   3    0.19    0.07
   2  -4   3    0.22    0.07
   2  -4   3    0.18    0.05
   3  -4   3    0.94    0.15
   3  -4   3    0.73    0.09
   3  -4   3    0.66    0.09
   3  -4   3    0.64    0.10
   3  -4   3    0.68    0.13
   4  -4   3    5.20    0.46
   4  -4   3    5.63    0.44
   4  -4   3    5.62    0.47
   4  -4   3    5.34    0.43
   5  -4   3   18.53    1.50
   5  -4   3   22.30    1.50
   6  -4   3    3.83    0.33
   6  -4   3    3.72    0.33
   7  -4   3    0.18    0.09
   7  -4   3    0.16    0.06
   7  -4   3    0.15    0.06
   8  -4   3    7.29    0.55
   8  -4   3    5.87    0.51
   8  -4   3    6.60    0.51
   7   3  -3   13.39    0.98
   6   3  -3    1.49    0.18
   6   3  -3    1.63    0.17
   6   3  -3    1.42    0.15
   5   3  -3   29.16    2.13
   5   3  -3   28.73    2.11
   4   3  -3    8.64    0.69
   4   3  -3    9.07    0.67
   3   3  -3   39.44    2.97
   3   3  -3   43.54    2.96
   3   3  -3   40.97    2.98
   2   3  -3    5.16    0.46
   2   3  -3    4.16    0.36
   1   3  -3   21.15    1.60
   0   3  -3    3.78    0.35
  -1   3  -3   10.86    0.82
  -1   3  -3   10.22    0.83
  -2   3  -3   70.42    5.04
   3  -3   3   14.86    1.06
   3  -3   3   15.35    1.05
   3  -3   3   13.52    1.07
   3  -3   3   13.65    1.07
   4  -3   3   79.94    5.85
   4  -3   3   71.01    5.85
   4  -3   3   90.35    5.84
   4  -3   3   79.49    5.86
   4  -3   3   93.32    5.84
   4  -3   3   77.47    5.85
   5  -3   3   40.82    3.26
   5  -3   3   46.02    3.25
   5  -3   3   45.54    3.28
   5  -3   3   48.61    3.26
   6  -3   3   84.18    6.01
   6  -3   3   83.36    5.98
   7  -3   3   14.06    1.02
   7  -3   3   12.94    1.00
   7  -3   3   12.76    0.99
  -8   3  -3    3.22    0.30
   8  -3   3    3.72    0.30
   8  -3   3    3.26    0.29
   8  -3   3    3.49    0.31
   7   2  -3    0.06    0.05
   7   2  -3    0.08    0.05
   7   2  -3    0.08    0.03
   6   2  -3   27.48    2.00
   6   2  -3   28.80    1.98
   6   2  -3   27.14    1.99
   6   2  -3   25.73    2.01
   5   2  -3   49.37    3.52
   5   2  -3   46.27    3.47
   5   2  -3   49.75    3.50
   4   2  -3   45.80    3.16
   4   2  -3   41.71    3.13
   3   2  -3   51.25    3.77
   3   2  -3   53.66    3.75
   2   2  -3   17.84    1.43
  -2  -2   3   19.48    1.45
   1   2  -3   18.06    1.53
   1   2  -3   20.85    1.52
  -1  -2   3   21.52    1.53
   0   2  -3   10.92    0.90
   0   2  -3   12.24    0.90
  -1   2  -3   65.67    4.70
  -1   2  -3   63.89    4.70
   1  -2   3   66.34    4.69
  -2   2  -3   30.54    2.35
  -2   2  -3   33.83    2.33
  -3   2  -3   10.26    0.77
  -4   2  -3   35.23    2.40
   4  -2   3   32.61    2.37
   4  -2   3   31.36    2.40
   4  -2   3   29.90    2.39
   4  -2   3   33.59    2.38
   4  -2   3   36.04    2.38
   5  -2   3    5.09    0.39
   5  -2   3    4.55    0.40
   5  -2   3    4.85    0.38
   5  -2   3    4.80    0.39
   5  -2   3    5.18    0.42
   6  -2   3    3.65    0.29
   6  -2   3    3.49    0.32
   6  -2   3    3.32    0.29
   6  -2   3    3.84    0.30
   6  -2   3    2.99    0.30
   7  -2   3    2.98    0.28
   7  -2   3    3.38    0.28
   7  -2   3    3.39    0.29
   7  -2   3    3.31    0.32
  -8   2  -3    1.12    0.15
   8  -2   3    1.29    0.16
   8  -2   3    1.21    0.14
   7   1  -3    3.22    0.31
   7   1  -3    3.78    0.29
   7   1  -3    3.67    0.31
   6   1  -3    2.23    0.24
   6   1  -3    2.47    0.21
   6   1  -3    2.20    0.23
   5   1  -3   44.74    3.60
   5   1  -3   48.45    3.62
   5   1  -3   53.92    3.58
   5   1  -3   52.96    3.62
   4   1  -3   16.15    1.26
   4   1  -3   16.43    1.27
   4   1  -3   16.84    1.23
   4   1  -3   18.47    1.27
   3   1  -3   38.48    2.82
   3   1  -3   36.93    2.79
  -3  -1   3   42.16    2.93
   2   1  -3   62.01    4.58
  -2  -1   3   64.35    4.59
   1   1  -3   56.96    4.58
   1   1  -3   68.61    4.59
  -1  -1   3   72.53    4.60
  -1  -1   3   56.05    4.58
   0   1  -3   13.58    1.07
   0   1  -3   14.24    1.07
   0  -1   3   15.01    1.07
   0  -1   3   13.21    1.06
  -1   1  -3   55.25    4.49
  -1   1  -3   64.83    4.51
   1  -1   3   67.60    4.50
  -2   1  -3    5.58    0.49
  -2   1  -3    5.84    0.50
   2  -1   3    6.97    0.48
  -3   1  -3   35.43    2.29
  -3   1  -3   30.17    2.29
   3  -1   3   28.81    2.26
  -4   1  -3   10.52    0.76
   4  -1   3    9.07    0.74
   5  -1   3   12.17    0.90
   5  -1   3   12.56    0.92
   5  -1   3   11.47    0.91
   5  -1   3   12.93    0.89
   5  -1   3   11.75    0.90
   6  -1   3   13.90    0.98
   6  -1   3   13.72    0.94
   6  -1   3   12.99    0.95
   6  -1   3   11.34    0.94
   6  -1   3   11.95    0.96
   7  -1   3    0.06    0.05
   7  -1   3    0.10    0.06
   7  -1   3    0.09    0.05
   7  -1   3    0.11    0.04
  -8   1  -3   46.59    3.36
   8  -1   3   46.08    3.33
   8  -1   3   46.36    3.35
  -9   1  -3    0.91    0.11
   9  -1   3    0.74    0.12
   7   0  -3   10.63    0.82
   7   0  -3   10.18    0.79
   7   0  -3   11.46    0.83
   6   0  -3    0.05    0.06
   6   0  -3    0.06    0.03
   6   0  -3    0.02    0.04
   6   0  -3    0.04    0.04
   5   0  -3    5.99    0.50
   5   0  -3    6.45    0.46
   5   0  -3    5.19    0.49
   5   0  -3    6.43    0.50
   4   0  -3    2.89    0.28
   4   0  -3    3.32    0.28
   4   0  -3    3.19    0.29
   4   0  -3    2.99    0.28
   4   0  -3    3.12    0.25
   3   0  -3    0.08    0.05
   3   0  -3    0.05    0.04
   3   0  -3    0.02    0.05
  -3   0   3    0.12    0.08
   2   0  -3   10.25    0.89
  -2   0   3   12.28    0.91
   1   0  -3   47.20    3.88
   1   0  -3   56.41    3.90
  -1   0   3   53.41    3.91
  -1   0   3   58.34    3.90
   0   0  -3  263.77   19.43
   0   0  -3  260.56   19.42
   0   0   3  303.10   19.45
   0   0   3  266.51   19.43
  -1   0  -3    8.00    0.67
  -1   0  -3    8.05    0.68
   1   0   3    9.86    0.69
   1   0   3    8.52    0.68
  -2   0  -3    1.48    0.16
  -2   0  -3    1.50    0.16
   2   0   3    1.41    0.16
  -3   0  -3    3.02    0.29
  -3   0  -3    3.19    0.29
   3   0   3    3.07    0.28
  -4   0  -3    0.04    0.04
   5   0   3   42.82    2.87
   5   0   3   35.93    2.85
   5   0   3   41.82    2.85
   5   0   3   38.95    2.87
   6   0   3    0.52    0.10
   6   0   3    0.38    0.06
   6   0   3    0.31    0.07
   6   0   3    0.41    0.09
   7   0   3    0.45    0.09
   7   0   3    0.31    0.09
   7   0   3    0.25    0.05
  -8   0  -3    0.55    0.11
   8   0   3    0.56    0.09
   8   0   3    0.67    0.12
  -9   0  -3    1.79    0.19
   9   0   3    1.98    0.20
   9   0   3    1.91    0.17
   7  -1  -3    9.09    0.64
   7  -1  -3    6.59    0.61
   7  -1  -3    8.43    0.63
   6  -1  -3    4.24    0.37
   6  -1  -3    4.08    0.37
   5  -1  -3    2.43    0.24
   5  -1  -3    3.02    0.26
   5  -1  -3    2.19    0.24
   4  -1  -3    3.42    0.32
   4  -1  -3    3.83    0.32
   4  -1  -3    3.91    0.32
   4  -1  -3    3.53    0.32
   3  -1  -3    8.33    0.62
   3  -1  -3    7.12    0.61
   3  -1  -3    7.68    0.62
   3  -1  -3    8.20    0.62
  -3   1   3    9.10    0.72
  -2   1   3   -0.06    0.04
  -1   1   3  153.22   11.93
  -1   1   3  181.55   11.95
   0  -1  -3  178.58   12.60
   0  -1  -3  178.43   12.60
   0   1   3  166.23   12.61
   0   1   3  183.92   12.61
  -1  -1  -3   80.97    5.92
  -1  -1  -3   78.07    5.92
   1   1   3   87.49    5.93
   1   1   3   84.36    5.93
  -2  -1  -3    3.50    0.32
  -2  -1  -3    3.59    0.32
   2   1   3    3.72    0.32
   2   1   3    3.40    0.31
  -3  -1  -3    1.40    0.17
  -3  -1  -3    1.32    0.17
   3   1   3    1.48    0.17
  -4  -1  -3   19.91    1.51
   5   1   3    1.10    0.11
   5   1   3    1.03    0.12
   5   1   3    1.18    0.13
  -6  -1  -3   13.58    1.04
   6   1   3   13.42    1.03
   6   1   3   13.81    1.03
   6   1   3   14.28    1.01
  -7  -1  -3   32.42    2.47
   7   1   3   35.29    2.47
  -8  -1  -3    1.12    0.14
   8   1   3    1.13    0.12
   8   1   3    0.85    0.15
   8   1   3    1.09    0.14
  -9  -1  -3    7.30    0.57
   9   1   3    7.19    0.57
   9   1   3    6.99    0.54
   7  -2  -3    3.84    0.31
   7  -2  -3    3.08    0.30
   7  -2  -3    3.60    0.30
   6  -2  -3    4.80    0.39
   6  -2  -3    4.42    0.39
   5  -2  -3    2.66    0.23
   5  -2  -3    2.20    0.22
   5  -2  -3    1.68    0.21
   4  -2  -3   30.78    2.06
   4  -2  -3   27.92    2.06
   4  -2  -3   27.81    2.05
   4  -2  -3   26.20    2.05
   3  -2  -3    3.22    0.27
   3  -2  -3    3.04    0.26
   3  -2  -3    2.96    0.26
   3  -2  -3    2.88    0.26
  -2   2   3    7.93    0.68
   1  -2  -3   40.93    2.99
  -1   2   3   43.08    3.01
  -1   2   3   39.54    3.02
   0   2   3    0.81    0.12
   0   2   3    0.64    0.13
  -1  -2  -3    0.18    0.06
  -1  -2  -3    0.21    0.07
   1   2   3    0.24    0.08
   1   2   3    0.20    0.07
  -2  -2  -3    3.25    0.31
  -2  -2  -3    3.29    0.30
   2   2   3    3.19    0.31
   2   2   3    3.16    0.31
  -3  -2  -3   73.52    5.33
  -3  -2  -3   69.64    5.27
   3   2   3   76.39    5.29
  -4  -2  -3   77.24    5.57
   4   2   3   79.09    5.57
  -5  -2  -3    2.95    0.40
  -5  -2  -3    3.43    0.27
   5   2   3    2.92    0.26
   5   2   3    3.04    0.25
  -6  -2  -3    0.89    0.13
   6   2   3    1.20    0.14
   6   2   3    1.20    0.12
   6   2   3    1.14    0.15
  -7  -2  -3    4.54    0.40
   7   2   3    4.92    0.41
  -8  -2  -3    8.20    0.71
   8   2   3    9.30    0.69
   8   2   3    9.85    0.73
   8   2   3    9.37    0.72
  -9  -2  -3    1.48    0.16
   9   2   3    1.47    0.17
   9   2   3    1.56    0.14
   7  -3  -3    2.70    0.24
   6  -3  -3    1.68    0.18
   6  -3  -3    1.70    0.19
   6  -3  -3    1.73    0.19
   6  -3  -3    2.25    0.20
   5  -3  -3    5.37    0.39
   5  -3  -3    4.20    0.38
   5  -3  -3    4.03    0.38
   4  -3  -3    5.66    0.53
   4  -3  -3    7.15    0.53
   4  -3  -3    7.63    0.54
   3  -3  -3    7.37    0.56
   3  -3  -3    6.20    0.54
   3  -3  -3    7.18    0.56
   3  -3  -3    7.77    0.57
   2  -3  -3   14.49    1.04
   2  -3  -3   13.77    1.03
   2  -3  -3   13.86    1.05
  -1   3   3    0.15    0.07
   0   3   3    0.78    0.13
  -2  -3  -3   21.99    1.75
   2   3   3   21.27    1.63
   3   3   3   37.45    2.78
  -4  -3  -3    4.88    0.36
   4   3   3    3.83    0.44
   4   3   3    4.36    0.35
  -5  -3  -3   20.20    1.47
   5   3   3   19.82    1.44
   5   3   3   19.95    1.46
   6   3   3   12.30    0.94
   6   3   3   12.59    0.91
   6   3   3   12.05    0.94
  -7  -3  -3   12.92    1.00
   7   3   3   13.36    1.01
  -8  -3  -3    8.04    0.66
   8   3   3    8.50    0.66
   8   3   3    8.17    0.63
   8   3   3    8.52    0.66
  -9  -3  -3    4.20    0.34
   9   3   3    3.96    0.34
   9   3   3    3.91    0.32
   6  -4  -3    0.23    0.06
   6  -4  -3    0.19    0.07
   6  -4  -3    0.13    0.05
   5  -4  -3    8.36    0.62
   5  -4  -3    7.42    0.62
   4  -4  -3    3.24    0.31
   4  -4  -3    4.14    0.32
   3  -4  -3    7.99    0.64
   3  -4  -3    8.71    0.66
   3  -4  -3    8.19    0.64
   2  -4  -3   66.98    4.50
   2  -4  -3   62.92    4.55
   2  -4  -3   63.29    4.50
   2  -4  -3   64.06    4.52
   2  -4  -3   57.40    4.49
   1  -4  -3   63.49    4.62
   1  -4  -3   68.82    4.66
   1  -4  -3   62.19    4.60
   1  -4  -3   63.57    4.61
   0  -4  -3  116.15    7.82
   0  -4  -3  104.84    7.77
   0   4   3  107.02    7.85
   1   4   3    3.60    0.36
  -2  -4  -3   38.59    3.06
   2   4   3   46.94    3.17
  -3  -4  -3   24.91    1.78
   3   4   3   26.53    1.90
   3   4   3   25.06    1.77
   3   4   3   21.06    1.94
  -4  -4  -3    1.17    0.13
   4   4   3    1.09    0.26
   4   4   3    1.32    0.13
  -5  -4  -3   24.23    1.66
   5   4   3   22.38    1.65
   5   4   3   21.04    1.62
   5   4   3   22.53    1.79
  -6  -4  -3    0.05    0.05
   6   4   3    0.03    0.04
   6   4   3    0.02    0.03
  -7  -4  -3   10.19    0.80
   7   4   3   10.31    0.80
   7   4   3   11.27    0.80
   7   4   3    9.36    0.76
  -8  -4  -3    0.10    0.05
   8   4   3    0.08    0.05
   8   4   3    0.18    0.06
   8   4   3    0.06    0.04
   6  -5  -3    1.37    0.14
   6  -5  -3    1.21    0.13
   6  -5  -3    1.36    0.14
   5  -5  -3   16.09    1.19
   5  -5  -3   16.27    1.19
   5  -5  -3   15.70    1.19
   4  -5  -3   10.89    0.85
   4  -5  -3   11.45    0.86
   3  -5  -3   12.39    0.92
   3  -5  -3   11.90    1.00
   3  -5  -3   12.16    0.92
   2  -5  -3    7.65    0.63
   2  -5  -3    8.62    0.61
   2  -5  -3    7.69    0.68
   2  -5  -3    7.26    0.60
   1  -5  -3    2.67    0.33
   1  -5  -3    3.25    0.26
   1  -5  -3    3.13    0.29
   0  -5  -3    2.96    0.31
   0  -5  -3    2.90    0.25
  -1  -5  -3    7.52    0.63
  -1  -5  -3    7.24    0.57
  -1  -5  -3    7.77    0.59
  -2  -5  -3    8.86    0.68
  -2  -5  -3    9.57    0.69
  -2  -5  -3    8.99    0.74
   2   5   3    8.21    0.67
  -3  -5  -3   -0.10    0.11
  -3  -5  -3    0.04    0.04
  -3  -5  -3   -0.05    0.07
   3   5   3    0.05    0.10
   3   5   3    0.00    0.03
  -4  -5  -3    0.43    0.09
   4   5   3    0.55    0.08
   4   5   3    0.43    0.22
  -5  -5  -3    9.34    0.72
   5   5   3    8.90    0.88
   6   5   3   15.91    1.20
  -7  -5  -3    5.39    0.47
   7   5   3    5.98    0.47
   7   5   3    5.52    0.47
   8   5   3   10.59    0.78
   8   5   3    9.77    0.77
   5  -6  -3    7.50    0.58
   5  -6  -3    7.47    0.57
   4  -6  -3    0.06    0.05
   4  -6  -3    0.08    0.05
   3  -6  -3    1.99    0.22
   3  -6  -3    2.00    0.36
   2  -6  -3   29.29    2.23
   2  -6  -3   29.60    2.14
   1  -6  -3    6.82    0.53
   1  -6  -3    5.64    0.57
   0  -6  -3    0.71    0.17
   0  -6  -3    0.92    0.11
   0  -6  -3    0.83    0.14
  -1  -6  -3    1.57    0.18
  -1  -6  -3    1.49    0.15
  -1  -6  -3    1.55    0.24
  -2  -6  -3   33.31    2.39
  -2  -6  -3   30.03    2.30
  -2  -6  -3   32.93    2.32
   2   6   3   30.91    2.30
  -3  -6  -3   33.75    2.32
  -3  -6  -3   30.79    2.30
  -3  -6  -3   28.20    2.39
   3   6   3   30.93    2.48
   3   6   3   34.75    2.30
  -4  -6  -3   39.35    3.06
  -4  -6  -3   40.45    3.06
   4   6   3   45.30    3.26
   4   6   3   44.32    3.05
  -5  -6  -3    0.56    0.11
   5   6   3    0.45    0.09
   5   6   3    0.63    0.28
  -6  -6  -3    7.80    0.58
   6   6   3    6.42    0.56
  -7  -6  -3    1.94    0.22
   7   6   3    2.64    0.22
   7   6   3    2.15    0.22
   4  -7  -3    3.25    0.29
   4  -7  -3    3.64    0.29
   3  -7  -3    0.42    0.10
   3  -7  -3    0.22    0.20
   2  -7  -3    5.84    0.49
   1  -7  -3   19.61    1.54
  -1   7   3   19.65    1.59
   0  -7  -3    0.23    0.12
   0  -7  -3    0.34    0.10
   0  -7  -3    0.40    0.07
  -1  -7  -3    9.38    0.73
  -1  -7  -3    8.89    0.69
  -2  -7  -3    3.81    0.46
  -2  -7  -3    3.41    0.30
  -2  -7  -3    3.98    0.34
   2   7   3    3.50    0.31
  -3  -7  -3   -0.09    0.16
   3   7   3    0.24    0.20
  -4  -7  -3    1.16    0.18
   4   7   3    1.64    0.40
   4   7   3    1.36    0.15
   5   7   3   40.68    3.24
   5   7   3   44.71    3.09
   6   7   3    2.89    0.27
   6   7   3    3.35    0.28
   7   7   3    2.28    0.26
   3  -8  -3    6.32    0.49
   2  -8  -3    4.81    0.51
   2  -8  -3    4.76    0.40
   1  -8  -3    9.81    0.77
   1  -8  -3   10.04    0.87
   0  -8  -3    2.48    0.25
   0  -8  -3    2.37    0.37
   0   8   3    2.35    0.37
  -1  -8  -3    2.97    0.28
  -1  -8  -3    2.67    0.40
   1   8   3    2.76    0.44
  -2  -8  -3   30.94    2.25
  -2  -8  -3   31.34    2.35
   2   8   3   29.77    2.43
  -3  -8  -3    5.24    0.47
   3   8   3    5.94    0.46
   3   8   3    6.20    0.69
  -4  -8  -3    0.00    0.09
   4   8   3    0.18    0.22
   5   8   3    0.28    0.18
   5   8   3    0.61    0.09
   1  -9  -3    5.28    0.50
   1  -9  -3    4.63    0.39
   0  -9  -3    0.79    0.11
   0  -9  -3    0.97    0.21
   0   9   3    0.48    0.19
  -1  -9  -3    0.17    0.16
  -1  -9  -3    0.08    0.05
   1   9   3    0.01    0.16
  -2  -9  -3    0.03    0.05
   2   9   3    0.10    0.18
  -3  -9  -3    7.72    0.60
   3   8  -4   18.11    1.28
  -3  -8   4   16.78    1.30
   2   8  -4    1.14    0.16
  -2  -8   4    0.74    0.13
   1   8  -4    6.24    0.55
  -1  -8   4    6.39    0.52
   0   8  -4   12.74    1.06
   0  -8   4   14.99    1.04
   0  -8   4   12.91    1.07
   1  -8   4    0.02    0.07
   1  -8   4    0.09    0.06
   1  -8   4    0.01    0.05
   2  -8   4    2.91    0.28
   2  -8   4    2.78    0.31
   3  -8   4    5.83    0.46
   3  -8   4    5.33    0.50
   4  -8   4    0.06    0.08
   4   7  -4    0.23    0.05
   4   7  -4    0.12    0.05
  -4  -7   4    0.18    0.08
   3   7  -4   19.22    1.50
   3   7  -4   21.98    1.53
  -3  -7   4   20.56    1.56
   2   7  -4    9.96    0.78
   2   7  -4    9.15    0.73
  -2  -7   4    9.52    0.77
   1   7  -4   27.95    2.11
  -1  -7   4   29.92    2.15
   0   7  -4    8.34    0.67
   0  -7   4    9.12    0.73
   0  -7   4    9.39    0.70
   0  -7   4    7.33    0.69
  -1   7  -4   25.73    2.11
   1  -7   4   32.70    2.19
   1  -7   4   28.31    2.14
   2  -7   4   12.72    0.95
   2  -7   4   11.88    0.95
   3  -7   4    0.05    0.07
   3  -7   4    0.09    0.06
   4  -7   4   40.37    2.91
   4  -7   4   38.86    2.87
   5  -7   4    0.88    0.17
   5   6  -4    1.01    0.11
  -5  -6   4    0.96    0.16
   4   6  -4   39.78    2.99
   4   6  -4   39.92    2.98
  -4  -6   4   45.09    3.07
   3   6  -4    2.79    0.27
   3   6  -4    2.53    0.24
   2   6  -4    1.52    0.23
   2   6  -4    1.81    0.19
  -2  -6   4    2.01    0.24
  -2  -6   4    2.08    0.23
   1   6  -4    0.53    0.10
  -1  -6   4    0.47    0.14
  -1  -6   4    0.57    0.15
  -1  -6   4    0.55    0.13
   0   6  -4    8.91    0.71
   0  -6   4   10.21    0.76
   0  -6   4    7.79    0.72
   0  -6   4   10.49    0.74
   0  -6   4    7.77    0.73
   1  -6   4   24.73    2.12
   1  -6   4   33.13    2.17
   2  -6   4    9.61    0.68
   2  -6   4    7.52    0.65
   2  -6   4    7.16    0.67
   3  -6   4    9.24    0.80
   3  -6   4   10.54    0.79
   4  -6   4    0.65    0.14
   4  -6   4    0.49    0.11
   4  -6   4    0.63    0.11
   4  -6   4    0.35    0.09
   5  -6   4    1.42    0.17
   5  -6   4    1.63    0.20
   5  -6   4    1.56    0.17
   6  -6   4    4.17    0.34
   6  -6   4    3.69    0.34
   6   5  -4    0.42    0.06
  -6  -5   4    0.31    0.10
   5   5  -4    0.35    0.07
   4   5  -4    0.31    0.06
   4   5  -4    0.40    0.08
   3   5  -4    0.40    0.08
   3   5  -4    0.57    0.11
   2   5  -4    0.60    0.10
  -2  -5   4    0.59    0.12
   1   5  -4    5.61    0.47
  -1  -5   4    6.44    0.51
  -1  -5   4    6.69    0.50
  -1  -5   4    5.75    0.51
  -1  -5   4    4.99    0.50
   0  -5   4    0.13    0.07
   0  -5   4    0.06    0.05
   0  -5   4    0.06    0.07
   0  -5   4    0.19    0.08
   1  -5   4    0.45    0.11
   1  -5   4    0.41    0.11
   1  -5   4    0.44    0.10
   1  -5   4    0.53    0.10
   2  -5   4    6.69    0.55
   2  -5   4    6.76    0.55
   2  -5   4    6.49    0.57
   3  -5   4   29.96    2.19
   3  -5   4   31.79    2.21
   3  -5   4   27.54    2.19
   4  -5   4    0.84    0.12
   4  -5   4    1.03    0.13
   4  -5   4    1.10    0.17
   5  -5   4    6.48    0.52
   5  -5   4    6.42    0.52
   6  -5   4    5.73    0.49
   6  -5   4    6.24    0.50
   6  -5   4    6.57    0.53
   7  -5   4    3.12    0.30
   7  -5   4    3.71    0.30
   6   4  -4    9.55    0.63
   6   4  -4    6.95    0.64
   6   4  -4    8.60    0.64
   5   4  -4   21.63    1.57
   4   4  -4    0.37    0.07
   3   4  -4    3.10    0.26
   2   4  -4    0.14    0.05
  -2  -4   4    0.21    0.09
   1   4  -4    0.79    0.10
  -1  -4   4    0.85    0.13
  -1  -4   4    0.69    0.11
   0  -4   4   58.96    4.44
   0  -4   4   67.82    4.46
   0  -4   4   64.49    4.43
   0  -4   4   55.85    4.43
   1  -4   4    4.84    0.41
   1  -4   4    5.03    0.42
   1  -4   4    4.85    0.41
   1  -4   4    4.07    0.39
   1  -4   4    4.77    0.40
   2  -4   4    2.72    0.24
   2  -4   4    2.57    0.25
   2  -4   4    2.70    0.27
   2  -4   4    2.44    0.23
   2  -4   4    2.88    0.27
   2  -4   4    2.67    0.26
   3  -4   4    1.65    0.19
   3  -4   4    1.53    0.16
   3  -4   4    1.64    0.19
   3  -4   4    1.67    0.16
   3  -4   4    1.64    0.18
   3  -4   4    1.67    0.19
   4  -4   4    3.61    0.33
   4  -4   4    3.80    0.36
   4  -4   4    4.04    0.37
   4  -4   4    4.22    0.33
   4  -4   4    4.13    0.37
   5  -4   4    1.63    0.17
   5  -4   4    1.59    0.17
   6  -4   4    1.63    0.17
   7  -4   4    4.25    0.36
   7  -4   4    4.36    0.39
   7  -4   4    4.06    0.36
   8  -4   4    6.56    0.51
   8  -4   4    6.56    0.52
   6   3  -4    5.77    0.48
   6   3  -4    5.15    0.47
   6   3  -4    6.52    0.45
   5   3  -4    2.58    0.26
   5   3  -4    2.58    0.25
   5   3  -4    2.26    0.21
   4   3  -4    0.53    0.08
   4   3  -4    0.86    0.12
   3   3  -4   21.06    1.48
   3   3  -4   19.56    1.51
   2   3  -4    6.23    0.52
   2   3  -4    6.98    0.50
  -2  -3   4    6.15    0.53
   1   3  -4    0.34    0.12
   1   3  -4    0.08    0.04
  -1  -3   4    0.09    0.06
  -1  -3   4    0.01    0.04
   0   3  -4   32.34    2.21
   0  -3   4   26.54    2.15
  -1   3  -4    8.67    0.72
   2  -3   4   35.43    2.55
   2  -3   4   36.86    2.56
   2  -3   4   35.28    2.58
   2  -3   4   35.67    2.59
   2  -3   4   34.46    2.57
   3  -3   4    8.53    0.66
   3  -3   4    9.12    0.64
   3  -3   4    8.40    0.65
   3  -3   4    7.44    0.67
   3  -3   4    8.16    0.65
   3  -3   4    8.64    0.64
   3  -3   4    8.55    0.67
   4  -3   4    0.41    0.08
   4  -3   4    0.55    0.08
   4  -3   4    0.72    0.12
   4  -3   4    0.53    0.09
   4  -3   4    0.37    0.10
   5  -3   4   12.73    0.98
   5  -3   4   13.06    1.00
   5  -3   4   13.44    0.98
   6  -3   4    1.25    0.20
   6  -3   4    2.02    0.18
   6  -3   4    1.78    0.18
   7  -3   4    8.65    0.70
   7  -3   4    9.34    0.71
   7  -3   4    9.47    0.74
   8  -3   4    0.03    0.06
   8  -3   4    0.11    0.07
   8  -3   4    0.16    0.05
   7   2  -4    0.38    0.08
   7   2  -4    0.49    0.06
   7   2  -4    0.39    0.08
   6   2  -4    5.85    0.44
   6   2  -4    5.67    0.47
   6   2  -4    5.51    0.47
   5   2  -4    5.13    0.38
   5   2  -4    4.24    0.41
   5   2  -4    4.88    0.41
   4   2  -4    0.20    0.07
   3   2  -4   15.95    1.17
   3   2  -4   16.26    1.21
   2   2  -4   32.51    2.25
   2   2  -4   30.23    2.28
   1   2  -4   75.43    5.47
   0   2  -4    1.26    0.18
  -1   2  -4    0.13    0.08
  -1   2  -4    0.07    0.06
  -2   2  -4    0.06    0.06
  -2   2  -4    0.10    0.05
  -3   2  -4   46.10    3.40
   3  -2   4   47.73    3.36
   4  -2   4    2.03    0.17
   4  -2   4    1.78    0.16
   4  -2   4    1.66    0.18
   4  -2   4    1.62    0.18
   4  -2   4    1.77    0.20
   4  -2   4    1.87    0.18
   5  -2   4   45.39    3.35
   5  -2   4   47.45    3.35
   5  -2   4   45.23    3.33
   5  -2   4   47.17    3.33
   5  -2   4   46.74    3.32
   6  -2   4   11.68    0.89
   6  -2   4   11.77    0.91
   6  -2   4   12.08    0.89
  -7   2  -4    4.32    0.38
   7  -2   4    4.99    0.38
   7  -2   4    3.67    0.39
   7  -2   4    4.83    0.38
   7  -2   4    4.85    0.39
  -8   2  -4    4.42    0.38
   8  -2   4    5.02    0.41
   8  -2   4    4.47    0.37
   9  -2   4    1.07    0.14
   7   1  -4    4.36    0.34
   7   1  -4    4.52    0.36
   7   1  -4    4.35    0.36
   6   1  -4    2.14    0.17
   6   1  -4    1.93    0.20
   6   1  -4    1.68    0.19
   5   1  -4   12.53    0.89
   5   1  -4   10.48    0.89
   4   1  -4    2.88    0.27
   4   1  -4    3.02    0.27
   4   1  -4    2.60    0.27
   4   1  -4    2.78    0.23
   3   1  -4   35.56    2.54
   3   1  -4   34.37    2.50
   2   1  -4    0.86    0.12
  -2  -1   4    0.98    0.18
   1   1  -4   56.73    4.73
   1   1  -4   71.43    4.74
  -1  -1   4   60.53    4.75
  -1  -1   4   71.54    4.74
   0   1  -4    4.59    0.46
   0   1  -4    5.31    0.46
   0  -1   4    5.28    0.46
  -1   1  -4    7.67    0.60
  -1   1  -4    6.50    0.59
   1  -1   4    6.95    0.59
  -2   1  -4  159.37   11.51
   2  -1   4  162.98   11.48
  -3   1  -4    2.66    0.27
  -4   1  -4   87.68    6.05
   4  -1   4   79.83    6.00
   4  -1   4   83.30    6.01
   4  -1   4   85.25    5.99
   4  -1   4   85.23    6.01
   5  -1   4   12.22    0.91
   5  -1   4   12.38    0.93
   5  -1   4   12.76    0.91
   5  -1   4   12.84    0.94
   5  -1   4   11.58    0.91
   6  -1   4    1.34    0.17
   6  -1   4    1.60    0.15
   6  -1   4    1.03    0.13
   6  -1   4    1.59    0.15
   6  -1   4    1.45    0.16
  -7   1  -4    0.56    0.10
   7  -1   4    0.56    0.10
   7  -1   4    0.37    0.10
   7  -1   4    0.42    0.08
   7  -1   4    0.49    0.09
  -8   1  -4    1.32    0.16
   8  -1   4    1.22    0.17
  -9   1  -4   18.58    1.36
   9  -1   4   18.37    1.37
   7   0  -4    6.63    0.54
   7   0  -4    7.25    0.55
   6   0  -4   24.24    1.66
   6   0  -4   20.64    1.66
   6   0  -4   22.76    1.67
   5   0  -4   15.60    0.93
   5   0  -4   11.07    0.96
   5   0  -4   10.90    0.96
   4   0  -4   19.00    1.52
   4   0  -4   20.72    1.57
   4   0  -4   22.38    1.58
   4   0  -4   22.87    1.58
   3   0  -4    0.30    0.07
   3   0  -4    0.27    0.07
   3   0  -4    0.32    0.05
   3   0  -4    0.35    0.08
  -3   0   4    0.22    0.12
  -2   0   4   62.08    4.55
   1   0  -4   18.04    1.40
  -1   0   4   16.86    1.41
  -1   0   4   19.71    1.42
   0   0  -4  114.51    7.73
   0   0  -4   99.67    7.73
   0   0   4  109.17    7.74
   0   0   4  107.80    7.74
  -1   0  -4   62.96    4.16
  -1   0  -4   54.89    4.15
   1   0   4   56.45    4.15
   1   0   4   55.00    4.15
  -2   0  -4   10.88    0.90
  -2   0  -4   11.10    0.91
   2   0   4   12.51    0.90
  -3   0  -4    9.99    0.80
  -4   0  -4   19.95    1.43
   4   0   4   17.27    1.36
  -5   0  -4    3.82    0.32
   5   0   4    3.97    0.31
   5   0   4    3.85    0.33
   5   0   4    4.05    0.33
  -6   0  -4    0.57    0.10
   6   0   4    0.47    0.09
   6   0   4    0.48    0.07
   6   0   4    0.62    0.11
   7   0   4    7.61    0.62
  -8   0  -4    3.85    0.34
   8   0   4    4.18    0.36
   8   0   4    3.36    0.31
   8   0   4    4.03    0.34
  -9   0  -4   19.94    1.47
   7  -1  -4    2.91    0.29
   7  -1  -4    3.56    0.29
   7  -1  -4    3.64    0.29
   6  -1  -4    0.50    0.10
   6  -1  -4    0.43    0.10
   6  -1  -4    0.39    0.09
   5  -1  -4   12.32    0.98
   5  -1  -4   13.53    0.99
   4  -1  -4    0.07    0.04
   4  -1  -4    0.05    0.05
   4  -1  -4    0.07    0.04
   3  -1  -4    5.02    0.41
   3  -1  -4    5.19    0.42
   3  -1  -4    5.23    0.43
   3  -1  -4    5.37    0.43
   2  -1  -4    0.13    0.05
  -2   1   4    0.23    0.10
  -1   1   4    3.63    0.37
   0  -1  -4   45.65    3.33
   0   1   4   45.80    3.36
   0   1   4   45.90    3.35
  -1  -1  -4   56.54    4.50
  -1  -1  -4   64.01    4.52
   1   1   4   61.18    4.52
   1   1   4   68.02    4.55
  -2  -1  -4   21.68    1.67
  -2  -1  -4   23.25    1.69
   2   1   4   22.87    1.68
   2   1   4   21.50    1.68
  -3  -1  -4   59.96    4.42
   3   1   4   61.89    4.42
  -4  -1  -4    3.33    0.33
   4   1   4    2.88    0.25
  -5  -1  -4    5.58    0.43
   5   1   4    4.96    0.42
   5   1   4    5.76    0.44
   5   1   4    5.36    0.41
  -6  -1  -4   72.47    5.15
   6   1   4   68.29    5.14
   6   1   4   77.55    5.15
   6   1   4   68.97    5.12
   7   1   4    5.69    0.47
   7   1   4    6.54    0.51
  -8  -1  -4   42.41    2.97
   8   1   4   41.52    2.97
   8   1   4   39.06    2.94
  -9  -1  -4    0.15    0.06
   9   1   4    0.12    0.04
   9   1   4    0.14    0.07
   7  -2  -4   14.45    1.07
   6  -2  -4    1.34    0.15
   6  -2  -4    1.33    0.15
   6  -2  -4    1.28    0.15
   5  -2  -4    1.15    0.15
   5  -2  -4    1.17    0.15
   4  -2  -4    5.09    0.48
   4  -2  -4    6.38    0.49
   4  -2  -4    6.40    0.49
   3  -2  -4   23.05    1.70
   3  -2  -4   23.45    1.70
   3  -2  -4   23.79    1.70
   3  -2  -4   22.63    1.69
   2  -2  -4  112.00    7.66
   2  -2  -4   97.00    7.65
   2  -2  -4  103.10    7.65
   2  -2  -4  106.98    7.66
   2  -2  -4  111.17    7.67
  -2   2   4  115.54    7.78
  -1   2   4   48.80    3.60
   0  -2  -4   48.43    3.48
   0   2   4   46.28    3.50
  -1  -2  -4    7.90    0.67
   1   2   4    8.03    0.68
   1   2   4    7.93    0.68
  -2  -2  -4    1.43    0.18
   2   2   4    1.33    0.19
   2   2   4    1.56    0.19
  -3  -2  -4    0.22    0.08
   3   2   4    0.15    0.08
  -4  -2  -4   53.83    3.64
  -4  -2  -4   57.94    3.76
   4   2   4   49.28    3.64
   4   2   4   42.88    3.71
  -5  -2  -4   43.91    3.00
   5   2   4   39.19    3.05
   5   2   4   42.20    3.00
   5   2   4   39.95    2.97
   5   2   4   43.18    3.00
  -6  -2  -4    1.08    0.13
   6   2   4    1.13    0.14
   6   2   4    1.13    0.14
   6   2   4    1.23    0.12
  -7  -2  -4    6.31    0.48
   7   2   4    5.36    0.48
  -8  -2  -4    7.45    0.68
   8   2   4    8.61    0.69
   8   2   4    9.46    0.70
   8   2   4    9.36    0.66
  -9  -2  -4    2.00    0.19
   9   2   4    2.06    0.20
   9   2   4    1.40    0.17
   6  -3  -4   26.37    1.88
   6  -3  -4   24.97    1.88
   6  -3  -4   26.17    1.88
   5  -3  -4    5.04    0.43
   5  -3  -4    5.25    0.43
   4  -3  -4   22.21    1.42
   4  -3  -4   16.23    1.40
   3  -3  -4   13.06    0.93
   3  -3  -4   12.00    0.93
   3  -3  -4   11.08    0.91
   3  -3  -4   12.88    0.92
   2  -3  -4    2.05    0.20
   2  -3  -4    2.10    0.19
   2  -3  -4    2.25    0.21
   2  -3  -4    1.99    0.20
   1  -3  -4    1.31    0.13
   1  -3  -4    1.15    0.11
  -1   3   4    0.81    0.20
   0   3   4   48.26    3.56
   1   3   4    0.16    0.08
   2   3   4   -0.01    0.05
  -3  -3  -4    0.80    0.10
   3   3   4    0.87    0.20
  -4  -3  -4    3.81    0.30
   4   3   4    3.40    0.40
   4   3   4    3.51    0.29
  -5  -3  -4   20.49    1.40
   5   3   4   19.48    1.39
   5   3   4   18.57    1.36
   5   3   4   17.02    1.48
  -6  -3  -4    1.39    0.16
   6   3   4    1.34    0.15
   7   3   4   26.40    1.76
   7   3   4   25.57    1.79
   7   3   4   20.81    1.79
  -8  -3  -4    0.07    0.05
   8   3   4    0.09    0.04
   8   3   4    0.10    0.06
   8   3   4    0.06    0.05
  -9  -3  -4    1.25    0.14
   9   3   4    1.11    0.12
   9   3   4    1.45    0.16
   6  -4  -4    1.65    0.17
   6  -4  -4    2.02    0.18
   6  -4  -4    1.80    0.18
   5  -4  -4    1.11    0.14
   5  -4  -4    1.26    0.15
   5  -4  -4    1.50    0.16
   4  -4  -4    2.53    0.24
   4  -4  -4    2.48    0.24
   3  -4  -4   29.36    2.14
   3  -4  -4   28.55    2.14
   3  -4  -4   30.21    2.14
   2  -4  -4    1.46    0.16
   2  -4  -4    1.77    0.31
   2  -4  -4    1.49    0.15
   2  -4  -4    1.35    0.17
   1  -4  -4    0.14    0.04
   1  -4  -4    0.09    0.05
   1  -4  -4    0.16    0.12
   1  -4  -4    0.07    0.07
   0  -4  -4   50.96    3.31
   0  -4  -4   52.01    3.37
   0  -4  -4   42.09    3.31
   0   4   4   39.44    3.38
  -1  -4  -4   71.08    4.98
  -1  -4  -4   71.60    5.03
   1   4   4   69.43    5.08
   1   4   4   66.67    5.09
  -2  -4  -4   28.45    2.03
  -2  -4  -4   26.62    2.09
   2   4   4   27.27    2.13
   2   4   4   29.84    2.15
  -3  -4  -4   21.83    1.56
   3   4   4   21.59    1.67
   3   4   4   20.33    1.54
  -4  -4  -4   93.26    6.72
   4   4   4   95.43    6.86
   4   4   4   93.80    6.71
  -5  -4  -4    2.26    0.22
   5   4   4    2.38    0.22
   5   4   4    2.15    0.35
  -6  -4  -4    0.08    0.05
   6   4   4    0.05    0.04
  -7  -4  -4    3.20    0.28
   7   4   4    3.12    0.28
   7   4   4    2.97    0.24
   7   4   4    2.45    0.27
  -8  -4  -4    1.64    0.18
   8   4   4    1.82    0.19
   8   4   4    1.60    0.17
   8   4   4    1.41    0.15
   5  -5  -4    0.55    0.09
   5  -5  -4    0.37    0.07
   4  -5  -4    1.10    0.15
   4  -5  -4    1.63    0.16
   4  -5  -4    1.77    0.17
   3  -5  -4    2.74    0.26
   2  -5  -4    8.28    0.67
   2  -5  -4    9.43    0.70
   2  -5  -4    8.70    0.80
   2  -5  -4    8.73    0.68
   1  -5  -4    5.87    0.46
   1  -5  -4    6.05    0.57
   1  -5  -4    5.76    0.49
   0  -5  -4    0.02    0.06
   0  -5  -4    0.03    0.02
   0  -5  -4    0.10    0.11
   0   5   4    0.00    0.07
  -1  -5  -4    8.43    0.71
  -1  -5  -4    8.03    0.63
   1   5   4    8.42    0.76
  -2  -5  -4   28.66    2.12
  -2  -5  -4   26.92    2.04
  -2  -5  -4   26.63    2.03
   2   5   4   30.26    2.19
  -3  -5  -4    5.06    0.43
   3   5   4    5.21    0.41
   3   5   4    5.48    0.57
  -4  -5  -4    9.89    0.79
   4   5   4   10.24    0.95
   4   5   4   10.43    0.77
  -5  -5  -4    2.14    0.22
   5   5   4    1.88    0.38
  -6  -5  -4    5.99    0.48
   6   5   4    5.33    0.46
  -7  -5  -4    0.20    0.08
   7   5   4    0.23    0.07
   7   5   4    0.15    0.06
  -8  -5  -4    0.39    0.09
   8   5   4    0.55    0.09
   8   5   4    0.67    0.10
   5  -6  -4    0.60    0.08
   5  -6  -4    0.64    0.09
   4  -6  -4   11.68    0.90
   4  -6  -4   12.23    0.90
   3  -6  -4    0.04    0.29
   3  -6  -4    0.03    0.05
   3  -6  -4    0.05    0.04
  -3   6   4   -0.02    0.13
   2  -6  -4    5.94    0.45
   2  -6  -4    4.74    0.46
   2  -6  -4    6.41    0.63
   1  -6  -4   -0.02    0.15
   1  -6  -4    0.11    0.07
   1  -6  -4    0.05    0.03
   0  -6  -4    0.56    0.12
   0  -6  -4    0.54    0.08
   0  -6  -4    0.27    0.14
   0   6   4    0.40    0.16
  -1  -6  -4    1.17    0.12
  -1  -6  -4    0.79    0.19
   1   6   4    0.81    0.23
  -2  -6  -4    1.18    0.14
  -2  -6  -4    1.63    0.29
   2   6   4    1.34    0.28
  -3  -6  -4   26.14    1.86
  -3  -6  -4   23.81    1.96
   3   6   4   26.35    1.85
  -4  -6  -4    3.58    0.32
   4   6   4    3.27    0.51
   4   6   4    3.65    0.31
  -5  -6  -4   17.81    1.31
   5   6   4   16.72    1.29
   5   6   4   17.62    1.48
  -6  -6  -4    0.29    0.08
   6   6   4    0.29    0.07
   6   6   4    0.20    0.07
  -7  -6  -4    0.04    0.05
   7   6   4    0.04    0.05
   7   6   4    0.04    0.04
   4  -7  -4    2.90    0.24
   3  -7  -4    3.38    0.29
   2  -7  -4    4.53    0.52
   2  -7  -4    3.88    0.35
   1  -7  -4    1.04    0.16
   1  -7  -4    1.70    0.36
   1  -7  -4    1.30    0.14
   0  -7  -4    8.00    0.57
   0  -7  -4    7.64    0.60
   0   7   4    6.03    0.70
  -1  -7  -4   12.38    0.84
  -1  -7  -4   11.20    0.86
   1   7   4    9.07    0.99
  -2  -7  -4    0.07    0.17
  -2  -7  -4    0.05    0.07
  -2  -7  -4    0.00    0.03
   2   7   4    0.01    0.12
  -3  -7  -4    1.44    0.15
  -3  -7  -4    1.16    0.17
   3   7   4    1.31    0.15
   3   7   4    1.05    0.30
  -4  -7  -4    6.26    0.49
   4   7   4    5.95    0.48
   4   7   4    6.08    0.71
  -5  -7  -4    3.25    0.29
   5   7   4    3.18    0.29
   5   7   4    3.55    0.48
  -6  -7  -4   11.04    0.86
   6   7   4   11.93    0.87
   7   7   4    0.41    0.10
   3  -8  -4   11.54    0.88
   1  -8  -4    1.10    0.14
   0  -8  -4    0.67    0.12
   0  -8  -4    0.63    0.09
   0  -8  -4    0.84    0.24
  -1  -8  -4    0.05    0.03
  -1  -8  -4    0.37    0.20
  -1  -8  -4    0.06    0.06
   1   8   4    0.14    0.17
  -2  -8  -4   26.45    1.89
  -2  -8  -4   21.14    1.76
   2   8   4   25.17    1.97
   3   8   4    0.22    0.22
   4   8   4    0.35    0.07
   4   8   4    0.36    0.21
   5   8   4    0.38    0.16
   5   8   4    0.55    0.09
   0  -9  -4    0.04    0.04
  -1  -9  -4    1.88    0.18
   1   9   4    1.71    0.31
  -2  -9  -4    7.62    0.60
   2   9   4    8.24    0.76
   2   8  -5    0.52    0.09
  -2  -8   5    0.51    0.10
   1   8  -5    9.92    0.76
  -1  -8   5    9.43    0.75
   0   8  -5    0.47    0.12
   0  -8   5    0.26    0.11
   0  -8   5    0.23    0.07
   1  -8   5    1.68    0.23
   2  -8   5    1.52    0.17
   2  -8   5    1.22    0.20
   3  -8   5    4.28    0.37
   3  -8   5    4.43    0.41
   3   7  -5    3.93    0.33
   3   7  -5    4.28    0.35
  -3  -7   5    4.31    0.38
   2   7  -5    2.00    0.19
   2   7  -5    2.03    0.23
  -2  -7   5    1.89    0.22
   1   7  -5    0.02    0.05
   1   7  -5    0.03    0.08
  -1  -7   5    0.05    0.07
   0   7  -5   10.00    0.84
   0  -7   5   12.31    0.87
   0  -7   5   10.73    0.90
  -1   7  -5    0.25    0.08
   1  -7   5    0.36    0.12
   1  -7   5    0.19    0.08
   2  -7   5    5.50    0.50
   2  -7   5    5.22    0.46
   3  -7   5    0.56    0.12
   4  -7   5    3.27    0.29
   4  -7   5    3.00    0.32
   5  -7   5    5.94    0.42
   5  -7   5    4.37    0.43
   5   6  -5   10.87    0.78
  -5  -6   5   10.20    0.82
   4   6  -5    1.35    0.14
  -4  -6   5    1.52    0.20
   3   6  -5   20.11    1.59
   3   6  -5   22.73    1.59
  -3  -6   5   22.49    1.66
   2   6  -5   14.74    1.06
   2   6  -5   14.48    1.09
  -2  -6   5   13.87    1.10
  -2  -6   5   13.24    1.10
   1   6  -5    2.26    0.25
  -1  -6   5    2.90    0.30
  -1  -6   5    2.88    0.29
   0   6  -5    9.14    0.68
   0  -6   5    7.88    0.71
   0  -6   5    8.65    0.69
   1  -6   5    1.18    0.19
   1  -6   5    0.81    0.15
   1  -6   5    0.81    0.15
   1  -6   5    1.38    0.24
   2  -6   5    0.31    0.11
   2  -6   5    0.31    0.09
   2  -6   5    0.62    0.14
   3  -6   5    9.66    0.79
   3  -6   5   10.57    0.83
   4  -6   5    0.83    0.17
   4  -6   5    0.74    0.14
   5  -6   5    0.66    0.13
   5  -6   5    0.73    0.15
   6  -6   5    0.71    0.12
   5   5  -5    2.16    0.18
   5   5  -5    1.61    0.20
  -5  -5   5    2.16    0.24
   4   5  -5    6.58    0.51
   3   5  -5   12.68    1.11
   3   5  -5   17.57    1.14
  -2  -5   5    4.69    0.45
  -2  -5   5    4.77    0.44
   1   5  -5   33.52    2.53
  -1  -5   5   36.61    2.59
  -1  -5   5   35.68    2.56
  -1  -5   5   33.92    2.57
   0   5  -5    8.72    0.69
   0  -5   5    8.28    0.73
   0  -5   5    8.23    0.71
   0  -5   5   10.08    0.72
   0  -5   5    9.26    0.74
   1  -5   5   20.36    1.44
   1  -5   5   18.19    1.45
   1  -5   5   19.04    1.46
   2  -5   5    0.88    0.16
   2  -5   5    1.08    0.14
   2  -5   5    0.77    0.14
   3  -5   5   12.44    1.00
   3  -5   5   12.79    0.98
   4  -5   5   24.47    1.83
   4  -5   5   25.42    1.86
   5  -5   5    2.12    0.21
   5  -5   5    2.26    0.25
   5  -5   5    1.97    0.21
   6  -5   5    6.65    0.53
   6  -5   5    5.74    0.50
   7  -5   5    0.98    0.14
   6   4  -5   13.46    1.00
   6   4  -5   12.29    0.93
   5   4  -5   20.72    1.44
   5   4  -5   18.96    1.47
   4   4  -5   22.49    1.63
   3   4  -5    0.42    0.08
   2   4  -5    1.67    0.18
   2   4  -5    2.06    0.22
  -2  -4   5    2.15    0.24
   1   4  -5    4.70    0.38
   1   4  -5    4.01    0.39
  -1  -4   5    5.00    0.43
  -1  -4   5    4.54    0.39
   0   4  -5    9.62    0.82
   0  -4   5   11.40    0.81
   0  -4   5    9.84    0.82
   0  -4   5   10.19    0.83
   0  -4   5   11.72    0.85
   1  -4   5   29.84    2.15
   1  -4   5   28.36    2.15
   1  -4   5   28.19    2.11
   1  -4   5   29.52    2.15
   2  -4   5   19.94    1.46
   2  -4   5   19.77    1.46
   2  -4   5   18.03    1.43
   2  -4   5   18.90    1.43
   3  -4   5   30.73    2.20
   3  -4   5   31.23    2.24
   3  -4   5   31.43    2.25
   3  -4   5   27.58    2.21
   3  -4   5   30.03    2.21
   4  -4   5    3.44    0.30
   4  -4   5    3.69    0.34
   4  -4   5    3.13    0.33
   5  -4   5    0.58    0.09
   5  -4   5    0.68    0.10
   6  -4   5    0.70    0.15
   6  -4   5    0.81    0.12
   6  -4   5    1.10    0.13
   7  -4   5    5.20    0.41
   7  -4   5    4.53    0.40
   7  -4   5    4.95    0.43
   8  -4   5    6.53    0.51
   8  -4   5    6.24    0.50
   6   3  -5    5.42    0.44
   6   3  -5    5.71    0.42
   6   3  -5    5.54    0.45
   5   3  -5   20.29    1.41
   5   3  -5   18.11    1.44
   5   3  -5   19.67    1.45
   4   3  -5    0.57    0.08
   4   3  -5    0.54    0.11
   3   3  -5    4.74    0.37
   3   3  -5    4.48    0.40
   2   3  -5    0.20    0.05
   2   3  -5    0.06    0.05
  -2  -3   5    0.11    0.08
   1   3  -5    0.05    0.04
   1   3  -5    0.02    0.03
  -1  -3   5   -0.03    0.04
  -1  -3   5    0.03    0.06
   0   3  -5   44.81    3.24
   0   3  -5   44.21    3.32
   0  -3   5   44.11    3.25
   0  -3   5   49.66    3.27
   0  -3   5   42.22    3.21
   0  -3   5   43.62    3.25
  -1   3  -5   27.61    2.25
   1  -3   5   30.45    2.20
   1  -3   5   30.43    2.17
   1  -3   5   29.96    2.20
   1  -3   5   30.80    2.20
   2  -3   5  104.31    7.74
   2  -3   5  104.70    7.76
   2  -3   5  112.33    7.78
   2  -3   5  113.03    7.77
   3  -3   5   28.65    2.01
   3  -3   5   28.81    2.05
   3  -3   5   27.81    2.02
   3  -3   5   28.56    2.04
   3  -3   5   28.30    2.00
   3  -3   5   23.69    2.01
   4  -3   5    0.41    0.10
   4  -3   5    0.42    0.09
   4  -3   5    0.62    0.10
   4  -3   5    0.53    0.10
   4  -3   5    0.47    0.08
   4  -3   5    0.68    0.12
   5  -3   5    0.22    0.07
   5  -3   5    0.26    0.06
   5  -3   5    0.24    0.08
   5  -3   5    0.21    0.08
   5  -3   5    0.28    0.08
   6  -3   5    0.03    0.05
   6  -3   5    0.04    0.06
   6  -3   5    0.13    0.05
   7  -3   5   36.15    2.88
   7  -3   5   42.19    2.86
   7  -3   5   40.10    2.86
   8  -3   5   15.05    1.22
   8  -3   5   18.42    1.26
   6   2  -5    7.49    0.58
   6   2  -5    7.16    0.57
   6   2  -5    7.19    0.54
   5   2  -5   22.03    1.58
   5   2  -5   21.47    1.61
   4   2  -5    9.76    0.73
   4   2  -5    8.18    0.71
   4   2  -5    9.51    0.68
   3   2  -5   10.56    0.77
   3   2  -5   10.27    0.81
   2   2  -5    4.10    0.35
   2   2  -5    4.50    0.32
  -2  -2   5    3.46    0.36
   1   2  -5   59.81    4.29
   1   2  -5   60.78    4.32
  -1  -2   5   59.85    4.34
   0   2  -5   76.32    5.28
   0  -2   5   68.62    5.20
  -1   2  -5    7.23    0.64
  -2   2  -5   20.33    1.61
   2  -2   5   22.09    1.59
  -3   2  -5    0.07    0.06
   3  -2   5    0.22    0.07
   3  -2   5    0.07    0.04
   3  -2   5    0.11    0.06
   3  -2   5    0.16    0.06
   3  -2   5    0.12    0.05
   3  -2   5    0.09    0.04
   4  -2   5    0.56    0.10
   4  -2   5    0.61    0.08
   4  -2   5    0.65    0.11
   4  -2   5    0.63    0.09
   4  -2   5    0.83    0.14
   4  -2   5    0.56    0.10
   5  -2   5    0.10    0.06
   5  -2   5    0.11    0.04
   5  -2   5    0.08    0.10
   5  -2   5    0.06    0.05
   5  -2   5    0.14    0.05
   5  -2   5    0.06    0.05
   6  -2   5    0.21    0.06
   6  -2   5    0.26    0.08
   6  -2   5    0.15    0.07
   6  -2   5    0.18    0.07
   7  -2   5    1.75    0.19
   7  -2   5    2.08    0.20
   7  -2   5    1.95    0.18
   7  -2   5    1.35    0.20
   8  -2   5    0.43    0.09
   8  -2   5    0.26    0.07
   9  -2   5   14.65    1.09
   6   1  -5    0.82    0.11
   6   1  -5    0.87    0.11
   6   1  -5    0.70    0.09
   5   1  -5    1.72    0.20
   5   1  -5    2.29    0.21
   5   1  -5    1.84    0.20
   4   1  -5    0.30    0.09
   4   1  -5    0.08    0.05
   4   1  -5    0.10    0.04
   4   1  -5    0.19    0.07
   3   1  -5   17.76    1.26
   3   1  -5   15.77    1.21
   2   1  -5    6.95    0.51
   2   1  -5    7.35    0.55
  -2  -1   5    6.31    0.57
   1   1  -5   34.12    2.47
   0   1  -5    4.92    0.47
  -1   1  -5    4.55    0.44
  -2   1  -5    8.50    0.72
  -3   1  -5    1.76    0.22
   4  -1   5   45.16    3.38
   4  -1   5   48.22    3.39
   4  -1   5   46.73    3.40
   4  -1   5   46.80    3.43
   4  -1   5   51.41    3.41
   4  -1   5   45.70    3.41
  -5   1  -5    8.44    0.68
   5  -1   5    8.97    0.68
   5  -1   5    9.52    0.69
   5  -1   5    9.35    0.70
   5  -1   5    9.78    0.68
   5  -1   5    9.32    0.70
   5  -1   5    7.88    0.70
  -6   1  -5  195.76   13.87
   6  -1   5  198.09   13.86
   6  -1   5  203.53   13.89
   6  -1   5  169.58   13.86
   6  -1   5  215.05   13.90
   6  -1   5  189.52   13.87
  -7   1  -5   12.91    0.97
   7  -1   5   12.97    0.99
  -8   1  -5    2.94    0.27
   8  -1   5    3.35    0.30
   8  -1   5    2.94    0.28
  -9   1  -5    1.67    0.17
   9  -1   5    1.88    0.19
   7   0  -5    0.07    0.04
   7   0  -5    0.09    0.04
   6   0  -5    0.37    0.08
   6   0  -5    0.51    0.09
   6   0  -5    0.42    0.09
   5   0  -5    4.17    0.37
   5   0  -5    4.31    0.37
   4   0  -5   46.12    3.27
   4   0  -5   44.01    3.26
   3   0  -5    9.00    0.72
   3   0  -5    9.61    0.73
   2   0  -5   35.39    2.49
  -2   0   5   31.64    2.52
  -2   0   5   35.70    2.62
  -1   0   5   52.99    3.91
   0   0  -5    0.61    0.13
   0   0   5    0.63    0.14
  -1   0  -5    2.16    0.25
   1   0   5    1.97    0.25
  -2   0  -5    2.92    0.32
  -3   0  -5   37.97    2.82
  -4   0  -5   16.40    1.21
   4   0   5   13.97    1.15
   4   0   5   14.28    1.12
   4   0   5   15.61    1.12
   4   0   5   15.82    1.10
  -5   0  -5   20.25    1.44
   5   0   5   19.58    1.45
   5   0   5   20.52    1.43
   5   0   5   16.93    1.47
   5   0   5   21.60    1.46
  -6   0  -5    0.28    0.07
   6   0   5    0.23    0.05
   6   0   5    0.30    0.08
   6   0   5    0.27    0.08
   7   0   5    3.67    0.32
   7   0   5    3.08    0.28
  -8   0  -5    2.02    0.19
   8   0   5    1.74    0.19
   8   0   5    1.68    0.17
   8   0   5    1.72    0.20
  -9   0  -5    0.91    0.12
   9   0   5    0.88    0.13
   6  -1  -5    0.25    0.06
   6  -1  -5    0.27    0.07
   6  -1  -5    0.20    0.07
   5  -1  -5    2.49    0.25
   5  -1  -5    3.04    0.27
   4  -1  -5    6.30    0.52
   4  -1  -5    6.56    0.53
   4  -1  -5    5.57    0.51
   4  -1  -5    7.56    0.54
   3  -1  -5   83.58    5.79
   3  -1  -5   80.98    5.78
   3  -1  -5   82.23    5.78
   3  -1  -5   76.50    5.77
   2  -1  -5   10.02    0.78
   2  -1  -5    9.91    0.78
   2  -1  -5   10.34    0.78
   2  -1  -5   10.59    0.79
  -2   1   5   11.40    0.93
  -1   1   5    4.22    0.43
   0   1   5    1.27    0.20
  -1  -1  -5    3.51    0.35
   1   1   5    3.40    0.37
   1   1   5    2.93    0.35
  -2  -1  -5    9.38    0.81
   2   1   5    9.58    0.80
  -3  -1  -5    4.27    0.43
  -4  -1  -5    6.43    0.51
  -4  -1  -5    6.71    0.61
   4   1   5    6.60    0.56
   4   1   5    6.94    0.51
   4   1   5    6.73    0.52
  -5  -1  -5   35.94    2.47
   5   1   5   32.59    2.46
   5   1   5   34.39    2.45
   5   1   5   30.30    2.50
   5   1   5   37.74    2.48
  -6  -1  -5    5.75    0.45
   6   1   5    5.37    0.43
   6   1   5    5.72    0.46
   6   1   5    5.48    0.46
  -7  -1  -5    0.13    0.05
   7   1   5    0.10    0.04
   7   1   5    0.40    0.09
   7   1   5    0.19    0.07
  -8  -1  -5   10.13    0.73
   8   1   5    9.15    0.70
   8   1   5    7.78    0.73
   8   1   5   10.47    0.74
  -9  -1  -5    1.18    0.14
   9   1   5    1.30    0.15
   9   1   5    0.99    0.14
   6  -2  -5    2.62    0.24
   6  -2  -5    2.82    0.24
   6  -2  -5    2.89    0.24
   5  -2  -5    2.81    0.27
   5  -2  -5    3.23    0.28
   5  -2  -5    2.96    0.28
   4  -2  -5    1.30    0.16
   4  -2  -5    1.69    0.17
   3  -2  -5   17.49    1.38
   3  -2  -5   18.42    1.37
   3  -2  -5   18.49    1.37
   3  -2  -5   19.87    1.38
   2  -2  -5   21.65    1.56
   2  -2  -5   21.02    1.56
   2  -2  -5   21.21    1.55
   2  -2  -5   21.72    1.55
   2  -2  -5   20.85    1.56
   1  -2  -5    7.48    0.61
   1  -2  -5    7.79    0.60
  -1   2   5    8.95    0.74
   0   2   5   77.31    5.66
   1   2   5   16.83    1.36
   2   2   5   19.44    1.53
  -3  -2  -5    2.53    0.25
  -3  -2  -5    3.55    0.44
   3   2   5    2.44    0.30
  -4  -2  -5    0.06    0.03
   4   2   5    0.07    0.04
   4   2   5    0.08    0.08
   4   2   5    0.08    0.03
  -5  -2  -5    2.50    0.22
   5   2   5    2.27    0.19
   5   2   5    2.59    0.22
   5   2   5    1.92    0.20
  -6  -2  -5    0.03    0.04
   6   2   5    0.01    0.04
   6   2   5    0.00    0.03
   6   2   5    0.04    0.03
  -7  -2  -5    2.63    0.26
   7   2   5    3.01    0.28
  -8  -2  -5   14.41    1.09
   8   2   5   14.15    1.09
   8   2   5   15.67    1.10
   8   2   5   13.46    1.06
  -9  -2  -5    2.19    0.21
   9   2   5    2.15    0.21
   9   2   5    2.25    0.22
   6  -3  -5    3.75    0.29
   6  -3  -5    3.32    0.29
   6  -3  -5    3.45    0.29
   5  -3  -5   12.18    0.91
   5  -3  -5   11.43    0.90
   5  -3  -5   12.71    0.92
   5  -3  -5   11.95    0.91
   4  -3  -5    4.28    0.36
   4  -3  -5    3.99    0.35
   3  -3  -5    0.46    0.09
   3  -3  -5    0.31    0.08
   3  -3  -5    0.54    0.09
   3  -3  -5    0.35    0.08
   2  -3  -5    0.04    0.03
   2  -3  -5    0.03    0.05
   2  -3  -5    0.03    0.04
   2  -3  -5    0.05    0.04
  -2   3   5   -0.05    0.10
   1  -3  -5    9.57    0.68
   1  -3  -5    9.79    0.70
   1  -3  -5    7.96    0.69
   0  -3  -5    3.67    0.27
   0  -3  -5    3.36    0.28
   0  -3  -5    3.01    0.38
   0   3   5    2.82    0.38
  -1  -3  -5   26.38    1.68
   1   3   5   22.17    1.82
   1   3   5   20.74    1.75
  -2  -3  -5    0.55    0.08
   2   3   5    0.62    0.18
   2   3   5    0.49    0.15
  -3  -3  -5    9.11    0.63
   3   3   5    8.33    0.73
   3   3   5    7.25    0.61
  -4  -3  -5   16.03    1.14
   4   3   5   15.36    1.13
   4   3   5   14.81    1.25
  -5  -3  -5   14.90    1.06
   5   3   5   12.87    1.04
   5   3   5   13.84    1.05
   5   3   5   14.99    1.17
  -6  -3  -5    6.23    0.61
   6   3   5    8.42    0.61
   6   3   5    8.72    0.59
  -7  -3  -5    3.61    0.38
   7   3   5    5.43    0.39
   7   3   5    3.84    0.38
   7   3   5    5.11    0.36
  -8  -3  -5    8.88    0.67
   8   3   5    7.88    0.66
   8   3   5    7.97    0.63
   8   3   5    9.37    0.68
  -9  -3  -5   26.18    1.83
   9   3   5   24.70    1.83
   9   3   5   24.43    1.83
   5  -4  -5    0.05    0.05
   5  -4  -5    0.12    0.05
   5  -4  -5    0.06    0.04
   4  -4  -5    5.92    0.49
   4  -4  -5    6.36    0.49
   3  -4  -5   12.24    0.93
   2  -4  -5    8.29    0.60
   2  -4  -5    6.84    0.58
   2  -4  -5    7.56    0.60
   1  -4  -5    2.39    0.24
   1  -4  -5    2.76    0.24
   1  -4  -5    2.24    0.36
   1  -4  -5    2.63    0.22
   0  -4  -5   14.10    0.98
   0  -4  -5   12.08    1.06
  -1  -4  -5   57.71    3.88
  -1  -4  -5   56.53    3.96
   1   4   5   47.96    3.97
  -2  -4  -5   11.64    0.97
  -2  -4  -5   12.30    0.89
   2   4   5   11.39    0.99
  -3  -4  -5    2.41    0.22
   3   4   5    2.94    0.35
   3   4   5    2.07    0.20
  -4  -4  -5    0.04    0.04
   4   4   5    0.10    0.04
   4   4   5    0.27    0.15
   5   4   5    6.98    0.71
   5   4   5    7.77    0.59
  -6  -4  -5    0.14    0.06
   6   4   5    0.16    0.06
   6   4   5    0.42    0.17
   6   4   5    0.31    0.07
  -7  -4  -5   14.48    1.08
   7   4   5   13.79    1.07
  -8  -4  -5    2.91    0.28
   8   4   5    2.94    0.27
   8   4   5    3.28    0.29
   5  -5  -5    0.97    0.12
   5  -5  -5    0.88    0.11
   4  -5  -5    0.62    0.10
   4  -5  -5    0.55    0.10
   3  -5  -5   20.48    1.44
   3  -5  -5   18.69    1.44
   2  -5  -5    1.25    0.16
   2  -5  -5    0.87    0.12
   2  -5  -5    1.18    0.14
   1  -5  -5    1.94    0.22
   1  -5  -5    2.33    0.41
   0  -5  -5    6.29    0.45
   0  -5  -5    5.97    0.59
   0   5   5    4.45    0.54
  -1  -5  -5    0.38    0.17
  -1  -5  -5    0.35    0.07
   1   5   5    0.28    0.13
  -2  -5  -5    0.23    0.15
  -2  -5  -5    0.28    0.07
   2   5   5    0.34    0.15
  -3  -5  -5   14.62    1.02
   3   5   5   13.09    1.00
   3   5   5   12.93    1.16
   4   5   5   68.49    5.15
   4   5   5   70.62    4.98
   5   5   5    0.28    0.07
   5   5   5    0.20    0.17
  -6  -5  -5    0.29    0.08
   6   5   5    0.31    0.08
   6   5   5    0.34    0.16
  -7  -5  -5    0.58    0.11
   7   5   5    0.54    0.09
   7   5   5    0.66    0.11
  -8  -5  -5   11.22    0.86
   8   5   5   12.87    0.87
   8   5   5   10.23    0.85
   4  -6  -5    3.74    0.28
   4  -6  -5    2.86    0.27
   3  -6  -5    2.27    0.21
   3  -6  -5    2.12    0.21
   1  -6  -5    3.57    0.32
   1  -6  -5    4.06    0.35
   0  -6  -5   54.96    3.98
   0   6   5   56.02    4.14
  -1  -6  -5   40.77    2.77
  -1  -6  -5   37.78    2.78
   1   6   5   36.22    2.93
  -2  -6  -5   28.53    2.01
  -2  -6  -5   26.58    2.12
  -3  -6  -5    0.08    0.04
   3   6   5    0.14    0.16
  -4  -6  -5    7.11    0.54
   4   6   5    6.63    0.52
   4   6   5    5.91    0.70
  -5  -6  -5   33.93    2.41
   5   6   5   31.26    2.56
   5   6   5   33.70    2.40
  -6  -6  -5    4.26    0.37
   6   6   5    4.24    0.47
   6   6   5    4.14    0.36
  -7  -6  -5    5.17    0.45
   7   6   5    5.86    0.45
   3  -7  -5   10.53    0.79
   0  -7  -5    1.56    0.19
   0  -7  -5    1.90    0.16
   0  -7  -5    1.21    0.27
   0   7   5    1.28    0.29
  -1  -7  -5    1.91    0.17
  -1  -7  -5    1.59    0.19
   1   7   5    1.18    0.31
  -2  -7  -5    0.03    0.03
   2   7   5    0.00    0.13
  -3  -7  -5   10.90    0.83
  -4  -7  -5    0.34    0.08
   4   7   5    0.40    0.08
   4   7   5    0.72    0.26
  -5  -7  -5    1.08    0.13
   5   7   5    0.87    0.25
   5   7   5    1.06    0.13
  -6  -7  -5    1.38    0.15
   6   7   5    1.41    0.14
   6   7   5    1.20    0.23
   0  -8  -5    7.02    0.50
   0  -8  -5    6.12    0.51
  -1  -8  -5    0.40    0.09
  -1  -8  -5    0.46    0.07
   1   8   5    0.33    0.18
  -2  -8  -5    1.38    0.13
   2   8   5    0.74    0.26
  -3  -8  -5    1.69    0.17
   3   8   5    1.90    0.37
   1   9   5    0.10    0.21
   2   9   5    0.32    0.15
   0   8  -6    2.27    0.23
   1  -8   6    0.09    0.07
   2  -8   6    1.43    0.20
   2  -8   6    1.45    0.16
   3  -8   6    5.61    0.53
   3  -8   6    6.02    0.48
   3   7  -6   26.87    1.93
   2   7  -6    3.65    0.29
   2   7  -6    3.55    0.30
  -2  -7   6    3.14    0.31
   1   7  -6    0.00    0.04
   1   7  -6   -0.01    0.07
  -1  -7   6    0.02    0.06
   0   7  -6    0.68    0.11
   0  -7   6    0.71    0.15
  -1   7  -6    0.08    0.06
   1  -7   6    0.06    0.06
   1  -7   6    0.03    0.07
   2  -7   6   55.69    3.95
   2  -7   6   53.71    3.99
   3  -7   6   12.28    0.92
   3  -7   6   11.88    0.96
   4  -7   6    1.47    0.17
   4  -7   6    1.74    0.21
   5  -7   6    2.20    0.21
   4   6  -6    0.08    0.03
  -4  -6   6    0.01    0.06
   3   6  -6    0.88    0.10
  -3  -6   6    0.84    0.15
   2   6  -6    3.46    0.28
   2   6  -6    3.36    0.30
  -2  -6   6    2.87    0.32
  -2  -6   6    3.22    0.33
   1   6  -6   34.38    2.67
  -1  -6   6   36.57    2.70
  -1  -6   6   39.69    2.74
   0   6  -6    0.60    0.11
   0  -6   6    0.51    0.15
   0  -6   6    0.58    0.14
   0  -6   6    0.54    0.12
  -1   6  -6   13.17    1.03
   1  -6   6   14.01    1.09
   2  -6   6    0.10    0.08
   2  -6   6    0.04    0.05
   2  -6   6    0.14    0.08
   3  -6   6    0.16    0.06
   3  -6   6    0.15    0.09
   3  -6   6    0.26    0.09
   4  -6   6    0.89    0.13
   4  -6   6    0.83    0.17
   5  -6   6    8.09    0.61
   5  -6   6    7.30    0.63
   6  -6   6    6.55    0.52
   5   5  -6    1.25    0.12
  -5  -5   6    1.30    0.17
   4   5  -6    0.71    0.09
  -4  -5   6    0.90    0.15
   3   5  -6    1.38    0.15
  -3  -5   6    1.70    0.22
   2   5  -6    4.48    0.41
  -2  -5   6    5.08    0.45
  -1  -5   6   11.92    0.96
  -1  -5   6   11.78    0.94
   0   5  -6    0.53    0.10
   0  -5   6    0.79    0.16
   0  -5   6    0.38    0.13
   1  -5   6  168.16   10.81
   1  -5   6  154.66   10.75
   1  -5   6  129.64   10.78
   2  -5   6    5.00    0.52
   2  -5   6    6.94    0.50
  -3   5  -6    0.06    0.09
   3  -5   6    0.03    0.05
   3  -5   6    0.16    0.08
   3  -5   6    0.07    0.07
   4  -5   6    0.02    0.05
   4  -5   6    0.00    0.07
   5  -5   6    0.32    0.11
   5  -5   6    0.21    0.08
   6  -5   6   31.39    2.30
   7  -5   6    0.05    0.05
   5   4  -6    1.94    0.16
   5   4  -6    1.73    0.19
   4   4  -6    6.08    0.47
   3   4  -6    0.39    0.10
   3   4  -6    0.21    0.05
   2   4  -6   39.72    2.89
  -2  -4   6   39.46    2.92
   1   4  -6    0.04    0.06
   1   4  -6    0.01    0.03
  -1  -4   6    0.11    0.08
   0   4  -6    5.13    0.44
   0   4  -6    4.40    0.40
   0  -4   6    4.54    0.45
   0  -4   6    5.48    0.42
   0  -4   6    5.11    0.46
  -1   4  -6   28.17    2.20
   1  -4   6   29.57    2.17
   1  -4   6   29.69    2.22
   1  -4   6   31.50    2.23
   1  -4   6   29.89    2.22
   2  -4   6   22.97    1.72
   2  -4   6   23.33    1.72
   2  -4   6   21.87    1.67
   2  -4   6   22.23    1.70
   3  -4   6   14.50    1.04
   3  -4   6   13.97    1.05
   3  -4   6   11.28    1.05
   3  -4   6   14.45    1.08
   4  -4   6    5.82    0.52
   4  -4   6    6.59    0.56
   4  -4   6    6.86    0.57
   5  -4   6   30.06    2.08
   5  -4   6   28.09    2.08
   5  -4   6   25.89    2.04
   6  -4   6    0.00    0.06
   6  -4   6    0.13    0.05
   7  -4   6    0.21    0.08
   7  -4   6    0.16    0.06
   8  -4   6    4.40    0.37
   5   3  -6    2.22    0.22
   5   3  -6    2.20    0.19
   5   3  -6    2.15    0.21
   4   3  -6    2.06    0.22
   4   3  -6    2.12    0.18
   3   3  -6    0.44    0.07
   3   3  -6    0.53    0.11
   2   3  -6    8.91    0.66
   2   3  -6    8.77    0.70
  -2  -3   6    8.26    0.72
   1   3  -6    4.51    0.36
   1   3  -6    4.27    0.38
  -1  -3   6    4.44    0.42
   0   3  -6    9.73    0.72
   0  -3   6    7.97    0.68
   0  -3   6    9.79    0.74
   0  -3   6    8.32    0.72
   0  -3   6    8.86    0.72
  -1   3  -6   22.83    1.79
   1  -3   6   24.17    1.79
   1  -3   6   26.65    1.81
   1  -3   6   24.17    1.80
   1  -3   6   21.98    1.75
   2  -3   6    3.51    0.31
   2  -3   6    3.64    0.35
   2  -3   6    3.56    0.35
   2  -3   6    3.40    0.33
   3  -3   6    0.35    0.09
   3  -3   6    0.53    0.12
   3  -3   6    0.39    0.11
   3  -3   6    0.35    0.10
   4  -3   6    0.20    0.08
   4  -3   6    0.03    0.05
   4  -3   6    0.07    0.06
   4  -3   6    0.11    0.05
   5  -3   6   23.94    1.77
   5  -3   6   24.56    1.74
   5  -3   6   22.51    1.77
   6  -3   6    1.00    0.12
   6  -3   6    0.80    0.15
   7  -3   6    0.05    0.05
   7  -3   6    0.02    0.05
   8  -3   6    0.27    0.08
   6   2  -6    7.85    0.58
   6   2  -6    7.28    0.58
   5   2  -6    9.89    0.76
   5   2  -6   10.92    0.80
   5   2  -6   10.15    0.79
   4   2  -6    6.78    0.50
   4   2  -6    6.30    0.54
   4   2  -6    6.79    0.55
   3   2  -6   28.45    2.19
   3   2  -6   31.29    2.15
   2   2  -6    0.05    0.03
   2   2  -6    0.00    0.04
  -2  -2   6    0.05    0.08
   1   2  -6   10.32    0.78
   1   2  -6   10.83    0.81
  -1  -2   6   10.37    0.84
   0   2  -6    4.00    0.33
   0   2  -6    3.35    0.41
   0  -2   6    3.85    0.35
   0  -2   6    3.35    0.33
   0  -2   6    3.10    0.32
  -1   2  -6    6.60    0.58
  -1   2  -6    5.56    0.49
   1  -2   6    5.33    0.49
   1  -2   6    5.53    0.48
   1  -2   6    5.83    0.49
   2  -2   6   33.78    2.41
   2  -2   6   31.31    2.40
   2  -2   6   31.83    2.37
   2  -2   6   34.16    2.41
   3  -2   6   35.39    2.64
   3  -2   6   34.88    2.62
   3  -2   6   36.77    2.62
   3  -2   6   37.70    2.66
   4  -2   6    0.17    0.08
   4  -2   6    0.27    0.06
   4  -2   6    0.29    0.08
   4  -2   6    0.21    0.06
   4  -2   6    0.30    0.09
   5  -2   6   19.15    1.38
   5  -2   6   19.67    1.40
   5  -2   6   18.10    1.41
   5  -2   6   17.79    1.41
   5  -2   6   18.78    1.39
   6  -2   6    0.89    0.14
   6  -2   6    1.04    0.12
   7  -2   6    0.98    0.14
   7  -2   6    0.69    0.11
   8  -2   6   19.55    1.46
   6   1  -6    1.95    0.19
   6   1  -6    1.97    0.18
   5   1  -6    8.79    0.67
   5   1  -6    7.85    0.66
   5   1  -6    8.76    0.67
   4   1  -6    0.22    0.05
   4   1  -6    0.29    0.09
   4   1  -6    0.30    0.07
   4   1  -6    0.15    0.06
   3   1  -6    4.95    0.43
   3   1  -6    5.08    0.39
   3   1  -6    5.27    0.43
   2   1  -6    0.04    0.03
   2   1  -6    0.01    0.04
  -2  -1   6    0.02    0.07
   1   1  -6    3.56    0.30
   1   1  -6    3.38    0.27
  -1  -1   6    3.28    0.34
   0   1  -6   70.21    5.19
   0  -1   6   74.51    5.23
  -1   1  -6    0.09    0.08
  -1   1  -6    0.20    0.08
   1  -1   6    0.07    0.06
   1  -1   6    0.07    0.06
  -2   1  -6    3.98    0.41
   2  -1   6    3.79    0.35
   2  -1   6    3.58    0.34
   3  -1   6    5.70    0.46
   3  -1   6    6.05    0.46
   3  -1   6    5.03    0.47
   3  -1   6    6.67    0.51
   3  -1   6    5.79    0.49
   4  -1   6   16.67    1.30
   4  -1   6   15.75    1.26
   4  -1   6   18.38    1.28
   4  -1   6   17.66    1.28
   4  -1   6   18.16    1.32
   5  -1   6   21.43    1.68
   5  -1   6   23.06    1.67
   5  -1   6   22.11    1.69
   5  -1   6   24.15    1.68
   6  -1   6    0.28    0.08
   6  -1   6    0.23    0.08
   6  -1   6    0.17    0.06
  -7   1  -6    3.28    0.33
   7  -1   6    4.27    0.35
   8  -1   6    0.07    0.05
   8  -1   6    0.13    0.07
   9  -1   6    0.07    0.05
   6   0  -6   -0.04    0.05
   6   0  -6    0.07    0.04
   6   0  -6    0.14    0.05
   5   0  -6    5.23    0.42
   5   0  -6    4.98    0.42
   5   0  -6    4.91    0.42
   4   0  -6   21.06    1.83
   4   0  -6   29.08    1.85
   3   0  -6   30.13    1.91
   3   0  -6   22.13    1.90
   3   0  -6   25.53    1.90
   2   0  -6    5.71    0.46
  -2   0   6    5.38    0.51
   1   0  -6    2.23    0.21
  -1   0   6    2.04    0.27
   0   0  -6    3.12    0.26
   0   0   6    2.54    0.31
  -1   0  -6    4.89    0.44
   1   0   6    3.63    0.40
  -2   0  -6   29.52    2.14
   2   0   6   26.10    2.04
  -3   0  -6    0.04    0.08
   3   0   6    0.09    0.05
   3   0   6    0.03    0.03
   4   0   6    0.26    0.09
   4   0   6    0.32    0.07
   4   0   6    0.23    0.06
  -5   0  -6    0.48    0.08
   5   0   6    0.38    0.10
   5   0   6    0.59    0.09
   5   0   6    0.36    0.08
  -6   0  -6    4.20    0.35
   6   0   6    3.74    0.37
   6   0   6    4.30    0.37
   6   0   6    4.38    0.34
  -7   0  -6   28.58    1.94
   7   0   6   23.69    1.94
   7   0   6   27.10    1.95
  -8   0  -6    0.05    0.04
   8   0   6    0.06    0.05
   8   0   6    0.02    0.05
  -9   0  -6   15.49    1.20
   9   0   6   17.20    1.22
   9   0   6   16.51    1.21
   6  -1  -6    0.53    0.08
   6  -1  -6    0.49    0.08
   6  -1  -6    0.48    0.07
   5  -1  -6   13.32    1.01
   5  -1  -6   13.66    1.01
   5  -1  -6   13.04    1.00
   4  -1  -6    0.05    0.05
   4  -1  -6    0.03    0.05
   4  -1  -6    0.28    0.07
   3  -1  -6    1.08    0.15
   3  -1  -6    1.73    0.17
   3  -1  -6    1.26    0.16
   2  -1  -6    0.06    0.04
   2  -1  -6    0.07    0.05
   2  -1  -6    0.01    0.03
   2  -1  -6    0.02    0.04
  -2   1   6   -0.05    0.10
   1  -1  -6  205.46   14.15
   1  -1  -6  176.35   14.12
  -1   1   6  216.22   14.36
   0  -1  -6   25.92    1.93
   0   1   6   27.25    2.06
   1   1   6   -0.09    0.09
  -2  -1  -6   27.70    2.06
   2   1   6   25.18    1.95
  -3  -1  -6   19.58    1.59
   3   1   6   17.44    1.44
   3   1   6   22.61    1.51
  -4  -1  -6   89.24    6.58
   4   1   6   95.61    6.59
  -5  -1  -6   12.83    0.91
   5   1   6   11.67    0.89
   5   1   6   11.93    0.96
   5   1   6   13.15    0.92
   5   1   6   11.30    0.91
  -6  -1  -6   92.67    5.93
   6   1   6   79.78    5.90
   6   1   6   74.89    5.96
   6   1   6   84.19    5.93
  -7  -1  -6    0.02    0.04
   7   1   6    0.03    0.05
   7   1   6    0.02    0.04
   7   1   6    0.05    0.03
  -8  -1  -6    2.67    0.25
   8   1   6    2.88    0.27
   8   1   6    2.39    0.26
  -9  -1  -6    4.94    0.40
   9   1   6    5.02    0.41
   9   1   6    4.94    0.41
   6  -2  -6    3.33    0.27
   6  -2  -6    3.05    0.27
   6  -2  -6    3.55    0.27
   5  -2  -6   26.13    1.93
   5  -2  -6   26.85    1.93
   5  -2  -6   26.33    1.92
   4  -2  -6   53.97    3.76
   4  -2  -6   48.48    3.75
   4  -2  -6   54.27    3.76
   3  -2  -6    3.98    0.36
   3  -2  -6    4.59    0.37
   3  -2  -6    4.13    0.36
   1  -2  -6    0.56    0.09
   1  -2  -6    0.62    0.09
   1  -2  -6    0.56    0.07
   0  -2  -6   92.98    7.39
   0  -2  -6  106.16    7.38
   0   2   6  112.66    7.57
  -1  -2  -6    3.64    0.28
   1   2   6    2.95    0.33
   1   2   6    3.54    0.42
  -2  -2  -6    9.57    0.72
   2   2   6    9.75    0.80
  -3  -2  -6   72.04    5.01
   3   2   6   76.26    5.11
   3   2   6   62.57    5.00
  -4  -2  -6    1.86    0.18
   4   2   6    1.76    0.17
   4   2   6    2.00    0.25
  -5  -2  -6    2.92    0.26
   5   2   6    3.23    0.27
   5   2   6    2.41    0.25
   5   2   6    3.18    0.33
  -6  -2  -6    8.99    0.68
   6   2   6    9.01    0.65
   6   2   6    8.35    0.67
   6   2   6    8.39    0.72
  -7  -2  -6    2.52    0.23
   7   2   6    1.68    0.22
   7   2   6    2.23    0.20
   7   2   6    2.51    0.23
  -8  -2  -6    2.13    0.22
   8   2   6    2.22    0.22
   8   2   6    1.98    0.22
  -9  -2  -6    1.07    0.13
   9   2   6    1.01    0.13
   9   2   6    1.10    0.13
   5  -3  -6    0.39    0.07
   5  -3  -6    0.47    0.08
   5  -3  -6    0.55    0.09
   4  -3  -6    0.53    0.09
   4  -3  -6    0.59    0.09
   4  -3  -6    0.30    0.08
   3  -3  -6   13.36    0.95
   3  -3  -6   11.54    0.94
   3  -3  -6   12.97    0.95
   2  -3  -6    5.16    0.45
   2  -3  -6    6.14    0.47
   2  -3  -6    5.88    0.45
   1  -3  -6   11.59    0.83
   1  -3  -6   10.06    0.80
   0  -3  -6    1.13    0.14
   0  -3  -6    1.20    0.12
   1   3   6    2.52    0.31
   1   3   6    2.97    0.41
  -2  -3  -6    0.19    0.05
   2   3   6   -0.06    0.12
   2   3   6    0.10    0.09
  -3  -3  -6   59.36    3.89
   3   3   6   51.10    3.86
   3   3   6   51.85    3.98
  -4  -3  -6    6.23    0.47
   4   3   6    5.68    0.57
   4   3   6    5.68    0.46
  -5  -3  -6   12.34    1.01
   5   3   6   14.51    1.12
   5   3   6   13.79    1.02
  -6  -3  -6    9.25    0.71
   6   3   6    8.85    0.71
  -7  -3  -6   14.15    1.09
   7   3   6   14.63    1.10
  -8  -3  -6   20.03    1.45
   8   3   6   20.28    1.45
   8   3   6   17.99    1.43
  -9  -3  -6    4.53    0.38
   9   3   6    4.78    0.39
   5  -4  -6   10.34    0.77
   4  -4  -6    7.65    0.57
   4  -4  -6    7.05    0.57
   3  -4  -6    0.63    0.11
   3  -4  -6    0.55    0.10
   2  -4  -6    6.59    0.52
   1  -4  -6   26.69    1.98
   1  -4  -6   29.46    1.99
   1  -4  -6   25.47    1.97
   0  -4  -6   46.43    2.90
   0   4   6   33.44    3.03
  -1  -4  -6    0.93    0.11
   1   4   6    0.75    0.19
  -2  -4  -6   18.70    1.27
   2   4   6   15.41    1.37
  -3  -4  -6    8.30    0.62
   3   4   6    7.41    0.73
  -4  -4  -6   10.41    0.80
   4   4   6   10.64    0.78
   4   4   6    9.77    0.91
   5   4   6    4.99    0.42
   5   4   6    5.24    0.54
  -6  -4  -6    0.79    0.12
   6   4   6    0.98    0.13
  -7  -4  -6   13.22    1.02
   7   4   6   14.24    1.01
   7   4   6   12.34    0.99
  -8  -4  -6    0.05    0.05
   8   4   6    0.11    0.05
   8   4   6    0.11    0.06
   4  -5  -6   16.89    1.19
   4  -5  -6   15.39    1.18
   3  -5  -6    0.30    0.08
   3  -5  -6    0.18    0.06
   2  -5  -6    0.76    0.10
   1  -5  -6    1.15    0.15
   1  -5  -6    0.78    0.11
   0  -5  -6    2.94    0.26
   0   5   6    2.96    0.37
  -1  -5  -6    1.39    0.15
  -2  -5  -6    8.15    0.66
   2   5   6    9.07    0.82
  -3  -5  -6    0.12    0.05
   3   5   6    0.03    0.11
  -4  -5  -6    4.24    0.40
   4   5   6    5.86    0.57
   5   5   6    8.26    0.62
   5   5   6    7.51    0.76
   6   5   6    4.51    0.40
   6   5   6    5.09    0.51
  -7  -5  -6   10.97    0.88
   7   5   6   11.94    0.88
  -8  -5  -6    0.65    0.10
   8   5   6    0.75    0.10
   4  -6  -6    3.00    0.25
   3  -6  -6    0.71    0.10
   1  -6  -6    0.55    0.09
   1  -6  -6    0.81    0.12
   0  -6  -6    9.09    0.71
   0   6   6    9.81    0.91
  -1  -6  -6    0.28    0.07
   1   6   6    0.36    0.18
  -2  -6  -6    3.25    0.29
   2   6   6    3.55    0.46
  -3  -6  -6   13.26    0.98
   3   6   6   12.57    1.15
  -4  -6  -6   20.45    1.51
  -5  -6  -6    0.00    0.04
   5   6   6    0.14    0.16
   5   6   6    0.02    0.04
  -6  -6  -6    2.54    0.24
   6   6   6    2.46    0.23
   6   6   6    2.47    0.33
  -7  -6  -6    8.08    0.65
   7   6   6    8.69    0.65
   1  -7  -6    0.35    0.08
   1  -7  -6    0.37    0.07
  -1   7   6   -0.01    0.21
   0  -7  -6    0.58    0.12
   0  -7  -6    0.65    0.09
  -1  -7  -6    1.01    0.12
  -2  -7  -6    2.59    0.22
   2   7   6    2.01    0.37
  -3  -7  -6    9.73    0.66
   3   7   6    7.06    0.81
  -4  -7  -6    2.75    0.24
   4   7   6    2.42    0.40
  -5  -7  -6    0.08    0.05
   5   7   6    0.15    0.14
   5   7   6    0.03    0.05
  -6  -7  -6    4.78    0.44
   6   7   6    6.07    0.45
   6   7   6    6.04    0.52
  -1   8   6    0.13    0.18
   0  -8  -6   15.78    1.02
   0  -8  -6   11.93    1.04
  -1  -8  -6    1.89    0.16
   1   8   6    1.48    0.27
  -2  -8  -6    3.66    0.29
   2   8   6    3.33    0.44
  -3  -8  -6    3.65    0.29
   3   8   6    3.31    0.44
  -4  -8  -6    0.69    0.09
   2   7  -7    3.28    0.28
   1   7  -7    0.20    0.05
   1   7  -7    0.19    0.07
   0   7  -7    3.11    0.27
  -1   7  -7    5.42    0.41
   1  -7   7    4.75    0.45
  -2   7  -7    0.05    0.05
   2  -7   7    0.15    0.08
   2  -7   7    0.08    0.05
   3  -7   7    3.72    0.35
   3  -7   7    3.09    0.30
   4  -7   7    9.10    0.70
   4  -7   7    9.31    0.74
   3   6  -7    1.51    0.12
  -3  -6   7    0.95    0.17
   2   6  -7    0.05    0.03
  -2  -6   7    0.01    0.06
  -2  -6   7    0.04    0.08
   1   6  -7    0.07    0.04
   1   6  -7    0.06    0.07
  -1  -6   7    0.13    0.09
   0   6  -7    8.58    0.66
   0  -6   7    8.40    0.72
  -1   6  -7    0.86    0.13
   1  -6   7    0.91    0.14
   1  -6   7    0.86    0.19
   1  -6   7    0.78    0.17
   2  -6   7    2.17    0.26
   2  -6   7    1.87    0.22
   2  -6   7    2.18    0.25
   3  -6   7    4.94    0.39
   3  -6   7    4.38    0.43
   3  -6   7    4.03    0.39
   4  -6   7    0.05    0.05
   4  -6   7    0.11    0.07
   5  -6   7    7.90    0.60
   5  -6   7    7.35    0.62
   6  -6   7    1.79    0.18
   4   5  -7   -0.01    0.05
   4   5  -7    0.09    0.03
  -4  -5   7    0.08    0.06
   3   5  -7    6.45    0.49
  -3  -5   7    6.31    0.54
   2   5  -7    0.86    0.11
  -2  -5   7    0.98    0.20
  -2  -5   7    0.92    0.17
   1   5  -7    4.88    0.40
   0   5  -7   11.06    0.99
   0  -5   7   13.02    1.07
   0  -5   7   15.47    1.06
  -1   5  -7    2.18    0.22
   1  -5   7    2.51    0.28
  -2   5  -7    6.13    0.55
   2  -5   7    6.40    0.56
   2  -5   7    6.33    0.52
  -3   5  -7    2.63    0.30
   3  -5   7    2.51    0.25
   3  -5   7    2.98    0.28
   3  -5   7    2.05    0.28
  -4   5  -7    0.89    0.19
   4  -5   7    1.14    0.15
   4  -5   7    1.02    0.15
   4  -5   7    0.90    0.17
   5  -5   7    1.01    0.15
   5  -5   7    1.04    0.18
   6  -5   7    3.47    0.29
   6  -5   7    2.68    0.30
   7  -5   7    2.69    0.24
   4   4  -7    3.06    0.28
   4   4  -7    2.95    0.24
   3   4  -7    9.72    0.67
   3   4  -7    8.10    0.70
   2   4  -7    0.71    0.10
   2   4  -7    0.90    0.14
  -2  -4   7    0.82    0.16
   1   4  -7   27.05    1.99
  -1  -4   7   26.66    2.03
   0   4  -7    0.51    0.10
   0  -4   7    0.67    0.12
   0  -4   7    0.72    0.18
   0  -4   7    0.93    0.17
  -1   4  -7   10.05    0.80
   1  -4   7    9.70    0.82
   1  -4   7   10.39    0.82
   1  -4   7    9.27    0.76
  -2   4  -7    4.82    0.42
   2  -4   7    3.69    0.41
   2  -4   7    4.54    0.37
   2  -4   7    4.63    0.41
   2  -4   7    3.38    0.39
  -3   4  -7    2.14    0.27
   3  -4   7    1.60    0.24
   3  -4   7    2.55    0.23
   3  -4   7    2.47    0.25
   3  -4   7    1.86    0.26
   4  -4   7    4.84    0.48
   4  -4   7    6.21    0.47
   4  -4   7    5.18    0.49
   4  -4   7    5.09    0.46
   5  -4   7    1.52    0.20
   5  -4   7    1.17    0.18
   5  -4   7    1.65    0.21
   6  -4   7   12.92    0.94
   6  -4   7   11.31    0.94
   7  -4   7    3.74    0.33
   5   3  -7    2.69    0.25
   5   3  -7    2.79    0.22
   5   3  -7    3.06    0.25
   4   3  -7    2.07    0.21
   4   3  -7    2.18    0.18
   4   3  -7    1.94    0.21
   3   3  -7    5.06    0.37
   3   3  -7    4.86    0.41
   3   3  -7    4.14    0.39
   2   3  -7   21.87    1.62
   2   3  -7   22.45    1.58
  -2  -3   7   20.66    1.66
   1   3  -7   39.50    2.91
   1   3  -7   42.58    2.88
  -1  -3   7   37.65    2.95
   0   3  -7   10.00    0.73
   0   3  -7    9.36    0.69
   0  -3   7    8.46    0.73
   0  -3   7    9.24    0.76
   0  -3   7    7.97    0.73
  -1   3  -7   54.37    3.63
   1  -3   7   49.66    3.62
   1  -3   7   44.69    3.56
   1  -3   7   52.30    3.64
   1  -3   7   47.53    3.63
  -2   3  -7    1.72    0.24
   2  -3   7    2.20    0.25
   2  -3   7    1.93    0.20
   2  -3   7    2.14    0.24
   2  -3   7    2.12    0.26
   3  -3   7   21.84    1.69
   3  -3   7   22.94    1.65
   3  -3   7   21.87    1.67
   4  -3   7   22.06    1.57
   4  -3   7   18.66    1.60
   4  -3   7   22.61    1.61
   5  -3   7   29.31    2.21
   5  -3   7   29.80    2.20
   5  -3   7   29.93    2.19
   6  -3   7   36.10    2.63
   6  -3   7   34.84    2.61
   6  -3   7   33.47    2.63
   6  -3   7   39.49    2.66
   7  -3   7    0.92    0.15
   8  -3   7    3.37    0.30
   5   2  -7   33.42    2.40
   5   2  -7   32.88    2.40
   4   2  -7   22.47    1.69
   4   2  -7   22.70    1.71
   4   2  -7   24.31    1.71
   4   2  -7   22.75    1.66
   3   2  -7    1.49    0.14
   3   2  -7    1.59    0.18
   3   2  -7    1.35    0.17
   2   2  -7   48.84    3.37
  -2  -2   7   45.33    3.45
   1   2  -7   11.65    0.88
   1   2  -7   11.12    0.84
  -1  -2   7   11.08    0.91
   0   2  -7    1.75    0.15
   0   2  -7    1.77    0.19
   0  -2   7    1.27    0.19
   0  -2   7    1.46    0.20
   0  -2   7    1.31    0.18
  -1   2  -7    6.73    0.54
   1  -2   7    5.94    0.54
   1  -2   7    5.86    0.53
   1  -2   7    6.50    0.55
  -2   2  -7   20.14    1.60
   2  -2   7   21.10    1.59
   2  -2   7   20.13    1.55
   2  -2   7   21.95    1.60
   2  -2   7   22.22    1.60
   3  -2   7    5.24    0.50
   3  -2   7    6.67    0.54
   3  -2   7    6.43    0.49
   3  -2   7    5.61    0.48
   3  -2   7    6.01    0.52
   4  -2   7    4.46    0.40
   4  -2   7    4.86    0.44
   4  -2   7    4.50    0.43
   4  -2   7    4.76    0.40
   5  -2   7   31.30    2.39
   5  -2   7   33.03    2.38
   5  -2   7   33.42    2.36
   5  -2   7   31.09    2.34
   6  -2   7    0.60    0.12
   6  -2   7    0.36    0.09
   6  -2   7    0.63    0.15
   6  -2   7    0.79    0.13
   7  -2   7    5.04    0.43
   7  -2   7    5.03    0.44
   8  -2   7    3.42    0.31
   5   1  -7    4.66    0.39
   5   1  -7    4.65    0.38
   4   1  -7    6.62    0.50
   4   1  -7    5.51    0.49
   3   1  -7    1.08    0.14
   2   1  -7    2.96    0.24
  -2  -1   7    2.97    0.32
   1   1  -7    2.53    0.22
   1   1  -7    2.58    0.25
  -1  -1   7    2.61    0.29
   0   1  -7    1.35    0.16
   0   1  -7    1.09    0.12
   0  -1   7    1.41    0.19
  -1   1  -7   12.13    0.91
   1  -1   7   10.37    0.89
   1  -1   7   12.20    0.93
  -2   1  -7   83.37    6.64
   2  -1   7   94.04    6.65
   2  -1   7  100.40    6.65
   2  -1   7   92.07    6.60
   3  -1   7    2.68    0.25
   3  -1   7    3.14    0.30
   3  -1   7    2.56    0.27
   3  -1   7    2.67    0.29
   4  -1   7   31.32    2.49
   4  -1   7   38.13    2.56
   4  -1   7   32.23    2.52
   4  -1   7   36.16    2.50
   5  -1   7   69.99    4.86
   5  -1   7   65.13    4.87
   5  -1   7   65.30    4.85
   5  -1   7   70.09    4.90
   6  -1   7   13.37    0.98
   6  -1   7   12.24    1.00
   7  -1   7   10.49    0.95
   7  -1   7   14.66    0.97
   8  -1   7    4.67    0.40
   8  -1   7    4.60    0.40
   9  -1   7    7.09    0.56
   5   0  -7   17.53    1.22
   5   0  -7   17.21    1.22
   5   0  -7   14.54    1.21
   4   0  -7    0.55    0.11
   4   0  -7    0.62    0.11
   3   0  -7    4.24    0.37
   2   0  -7   24.41    1.99
  -2   0   7   29.99    2.06
   1   0  -7   12.95    0.99
  -1   0   7   13.21    1.06
   0   0  -7   25.35    1.86
   0   0   7   25.25    1.93
  -1   0  -7    3.06    0.29
   1   0   7    2.80    0.28
   1   0   7    3.20    0.33
  -2   0  -7   37.12    3.02
   2   0   7   42.89    3.03
   2   0   7   44.46    3.06
   3   0   7    3.62    0.35
   3   0   7    3.24    0.30
   3   0   7    3.99    0.35
   4   0   7    4.24    0.37
   4   0   7    4.74    0.42
   5   0   7    2.83    0.27
   5   0   7    2.88    0.30
   5   0   7    3.24    0.28
   5   0   7    3.16    0.32
   6   0   7    0.39    0.09
   6   0   7    0.23    0.07
   6   0   7    0.38    0.10
  -7   0  -7   13.31    1.04
   7   0   7   14.45    1.06
  -8   0  -7    1.14    0.15
   8   0   7    1.62    0.18
   8   0   7    1.43    0.17
   9   0   7   28.03    2.00
   9   0   7   26.95    2.00
   5  -1  -7    5.37    0.44
   5  -1  -7    5.60    0.44
   5  -1  -7    5.46    0.44
   4  -1  -7    0.25    0.07
   4  -1  -7    0.08    0.04
   4  -1  -7    0.10    0.06
   3  -1  -7    3.30    0.31
   3  -1  -7    3.76    0.32
   2  -1  -7    0.13    0.06
   2  -1  -7    0.10    0.05
   2  -1  -7    0.16    0.06
  -2   1   7    0.13    0.13
   1  -1  -7    7.69    0.57
  -1   1   7    6.24    0.64
   0  -1  -7    0.08    0.05
   0   1   7    0.03    0.12
  -1  -1  -7   13.05    0.95
   1   1   7   11.80    0.96
  -2  -1  -7   13.49    1.11
   2   1   7   15.79    1.14
  -3  -1  -7    1.25    0.15
   3   1   7    1.17    0.21
   3   1   7    1.22    0.14
   3   1   7    1.50    0.18
  -4  -1  -7    1.20    0.14
   4   1   7    1.47    0.19
   4   1   7    1.34    0.15
  -5  -1  -7    9.40    0.73
   5   1   7   10.03    0.80
   5   1   7    9.31    0.74
  -6  -1  -7   86.97    5.87
   6   1   7   82.13    5.92
   6   1   7   76.93    5.86
  -7  -1  -7    7.41    0.58
   7   1   7    7.13    0.58
  -8  -1  -7   25.46    1.89
   8   1   7   24.78    1.89
   8   1   7   27.21    1.90
  -9  -1  -7    6.28    0.53
   9   1   7    7.81    0.54
   9   1   7    6.10    0.52
   5  -2  -7    3.35    0.28
   5  -2  -7    3.53    0.29
   5  -2  -7    3.46    0.29
   4  -2  -7    0.13    0.06
   4  -2  -7    0.16    0.06
   4  -2  -7    0.13    0.05
   3  -2  -7    1.53    0.16
   3  -2  -7    1.54    0.16
   3  -2  -7    1.25    0.16
   2  -2  -7   20.41    1.34
   2  -2  -7   15.80    1.33
   2  -2  -7   17.74    1.32
   1  -2  -7   19.65    1.37
   1  -2  -7   18.04    1.35
   1  -2  -7   17.71    1.36
   0  -2  -7   13.76    1.01
   0  -2  -7   13.21    0.99
  -1  -2  -7    3.14    0.28
  -1  -2  -7    3.36    0.27
   1   2   7    3.35    0.33
  -2  -2  -7   22.60    1.74
   2   2   7   25.41    1.82
  -3  -2  -7    0.08    0.04
   3   2   7    0.08    0.06
   3   2   7   -0.02    0.14
  -4  -2  -7    6.42    0.54
   4   2   7    8.27    0.64
   4   2   7    6.38    0.54
  -5  -2  -7    1.24    0.15
   5   2   7    1.31    0.15
  -6  -2  -7    2.52    0.25
   6   2   7    2.74    0.30
  -7  -2  -7    3.93    0.34
   7   2   7    3.65    0.33
  -8  -2  -7    2.68    0.24
   8   2   7    2.19    0.23
   8   2   7    2.67    0.25
  -9  -2  -7    4.91    0.42
   9   2   7    5.55    0.43
   5  -3  -7    3.09    0.26
   4  -3  -7    0.05    0.04
   4  -3  -7    0.05    0.04
   4  -3  -7    0.02    0.04
   3  -3  -7    7.67    0.64
   3  -3  -7    8.83    0.66
   3  -3  -7    8.69    0.65
   2  -3  -7    7.59    0.61
   2  -3  -7    8.21    0.62
   1  -3  -7   33.61    2.38
   1  -3  -7   29.76    2.37
   1  -3  -7   35.55    2.40
   0  -3  -7    1.47    0.15
   0  -3  -7    1.47    0.16
  -1  -3  -7    1.67    0.15
   1   3   7    1.41    0.21
  -2  -3  -7   12.56    0.92
   2   3   7   12.06    1.01
  -3  -3  -7   25.59    1.97
   3   3   7   28.66    2.08
  -4  -3  -7    1.80    0.18
   4   3   7    2.18    0.28
   4   3   7    1.61    0.17
  -5  -3  -7   18.00    1.44
   5   3   7   18.64    1.44
   5   3   7   22.11    1.55
  -6  -3  -7    4.97    0.45
   6   3   7    5.73    0.52
  -7  -3  -7    3.50    0.32
   7   3   7    3.38    0.31
  -8  -3  -7    1.37    0.16
   8   3   7    1.40    0.16
   8   3   7    1.02    0.15
   4  -4  -7    4.60    0.36
   4  -4  -7    4.40    0.36
   3  -4  -7   14.14    1.02
   3  -4  -7   12.97    1.01
   2  -4  -7    2.46    0.23
   2  -4  -7    1.99    0.22
   2  -4  -7    2.74    0.23
   1  -4  -7    5.01    0.42
   1  -4  -7    5.25    0.42
   1  -4  -7    5.62    0.44
  -1  -4  -7    0.16    0.05
   1   4   7    0.06    0.20
   1   4   7    0.12    0.10
  -2  -4  -7    2.98    0.24
   2   4   7    2.06    0.32
  -3  -4  -7    0.19    0.06
   3   4   7    0.05    0.10
   3   4   7    0.09    0.24
  -4  -4  -7    0.80    0.11
   4   4   7    0.69    0.19
   5   4   7    2.03    0.30
   5   4   7    2.11    0.21
   6   4   7    1.46    0.23
   6   4   7    1.37    0.16
  -7  -4  -7    3.31    0.31
   7   4   7    3.34    0.30
  -8  -4  -7    2.31    0.23
   8   4   7    2.40    0.23
   4  -5  -7    0.44    0.07
   3  -5  -7    1.61    0.15
   3  -5  -7    1.36    0.15
   2  -5  -7    1.21    0.14
   2  -5  -7    1.20    0.14
   1  -5  -7   11.64    0.79
   1  -5  -7    8.98    0.78
  -1  -5  -7    0.31    0.07
   1   5   7    0.33    0.16
   1   5   7   -0.08    0.19
  -2  -5  -7   10.50    0.80
   3   5   7    8.91    0.83
  -5  -5  -7    0.48    0.10
   5   5   7    0.82    0.12
   5   5   7    1.08    0.22
  -6  -5  -7   13.38    1.13
   6   5   7   15.34    1.13
   6   5   7   16.46    1.23
  -7  -5  -7    4.87    0.42
   7   5   7    5.06    0.41
  -8  -5  -7    3.86    0.33
   8   5   7    4.00    0.33
   3  -6  -7    6.03    0.46
   1  -6  -7   11.69    0.82
   1  -6  -7   10.01    0.81
  -1  -6  -7    8.40    0.67
   1   6   7    9.28    0.82
  -2  -6  -7    0.12    0.04
   2   6   7    0.28    0.17
   2   6   7    0.15    0.31
  -3  -6  -7    8.33    0.64
   3   6   7    8.06    0.79
  -4  -6  -7    7.75    0.59
   4   6   7    7.23    0.73
  -5  -6  -7    0.44    0.09
   5   6   7    0.38    0.16
  -6  -6  -7    6.44    0.50
   6   6   7    5.88    0.49
   6   6   7    6.42    0.57
  -7  -6  -7   11.46    0.80
   7   6   7    9.85    0.80
  -1   7   7    0.06    0.20
   0  -7  -7    0.60    0.08
   0   7   7    0.26    0.27
  -1  -7  -7    7.64    0.52
   1   7   7    5.48    0.61
  -2  -7  -7    2.04    0.19
   2   7   7    1.84    0.31
  -3  -7  -7   12.67    0.86
   3   7   7    9.93    0.99
  -4  -7  -7   10.70    0.76
   4   7   7    9.17    0.88
  -5  -7  -7    0.79    0.10
   5   7   7    0.61    0.16
  -6  -7  -7   12.16    0.90
  -2  -8  -7   23.94    1.63
   2   8   7   21.18    1.73
  -3  -8  -7    6.39    0.48
   3   8   7    6.22    0.59
  -4  -8  -7    2.44    0.21
   4   8   7    2.49    0.29
   0   7  -8   40.14    2.87
  -1   7  -8   13.80    1.01
  -2   7  -8    0.00    0.04
   2  -7   8   -0.01    0.06
  -3   7  -8    0.28    0.07
   3  -7   8    0.29    0.07
   3  -7   8    0.53    0.11
   2   6  -8    0.51    0.06
   1   6  -8    1.16    0.11
  -1  -6   8    0.93    0.15
   0   6  -8    0.29    0.06
   0  -6   8    0.36    0.12
  -1   6  -8    0.24    0.06
   1  -6   8    0.22    0.09
   1  -6   8    0.48    0.14
  -2   6  -8    3.02    0.27
   2  -6   8    3.11    0.31
   2  -6   8    3.11    0.28
   2  -6   8    2.93    0.32
   3  -6   8    0.86    0.12
   3  -6   8    0.74    0.13
   3  -6   8    0.85    0.16
   4  -6   8    7.87    0.64
   4  -6   8    7.59    0.60
   5  -6   8   19.11    1.38
   5  -6   8   18.39    1.40
   3   5  -8   26.81    1.92
   2   5  -8    0.37    0.07
  -2  -5   8    0.53    0.13
   1   5  -8   17.10    1.21
  -1  -5   8   15.78    1.27
   0   5  -8   16.18    1.33
   0  -5   8   20.15    1.42
  -1   5  -8    1.72    0.19
  -1   5  -8    2.47    0.23
   1  -5   8    1.63    0.24
   1  -5   8    2.21    0.26
  -2   5  -8   29.83    2.23
   2  -5   8   29.54    2.26
   2  -5   8   31.73    2.26
   2  -5   8   29.57    2.20
  -3   5  -8    6.00    0.52
   3  -5   8    5.46    0.50
   3  -5   8    5.91    0.48
  -4   5  -8   26.55    1.96
   4  -5   8   26.80    1.91
   4  -5   8   27.26    1.96
   4  -5   8   23.65    1.92
  -5   5  -8    1.31    0.20
   5  -5   8    1.32    0.15
   5  -5   8    1.19    0.19
  -6   5  -8    0.37    0.11
   6  -5   8    0.66    0.10
   6  -5   8    0.52    0.11
   3   4  -8    0.14    0.04
   3   4  -8    0.05    0.06
  -3  -4   8    0.18    0.10
   2   4  -8    1.00    0.15
   2   4  -8    1.36    0.12
  -2  -4   8    0.91    0.17
   1   4  -8    8.50    0.64
   1   4  -8    8.12    0.67
  -1  -4   8    8.15    0.71
   0   4  -8    3.29    0.28
   0  -4   8    2.66    0.33
   0  -4   8    3.51    0.34
  -1   4  -8   33.53    2.27
   1  -4   8   30.12    2.28
   1  -4   8   28.56    2.22
   1  -4   8   29.98    2.28
  -2   4  -8   22.94    1.61
   2  -4   8   19.27    1.61
   2  -4   8   21.01    1.56
   2  -4   8   21.22    1.62
   2  -4   8   20.96    1.61
  -3   4  -8    0.16    0.09
   3  -4   8    0.14    0.08
   3  -4   8    0.24    0.07
   3  -4   8    0.35    0.12
   3  -4   8    0.25    0.10
  -4   4  -8    3.45    0.35
   4  -4   8    2.37    0.30
   4  -4   8    2.29    0.30
   4  -4   8    3.09    0.28
   5  -4   8    0.01    0.05
   5  -4   8    0.02    0.05
   5  -4   8    0.13    0.09
   6  -4   8    0.12    0.06
   6  -4   8    0.04    0.08
   7  -4   8    3.17    0.28
   4   3  -8    0.33    0.07
   4   3  -8    0.28    0.05
   4   3  -8    0.19    0.06
   3   3  -8   11.89    0.86
   3   3  -8   10.88    0.89
   3   3  -8   12.47    0.90
   2   3  -8    0.03    0.05
   2   3  -8    0.09    0.04
  -2  -3   8    0.03    0.08
   1   3  -8    1.36    0.15
   1   3  -8    1.31    0.18
  -1  -3   8    1.41    0.21
   0   3  -8    7.19    0.53
   0   3  -8    7.14    0.57
   0  -3   8    5.84    0.57
  -1   3  -8   64.14    4.40
   1  -3   8   60.02    4.40
   1  -3   8   57.55    4.41
  -2   3  -8    7.90    0.69
   2  -3   8    8.49    0.70
   2  -3   8    9.26    0.71
   2  -3   8    7.10    0.69
   2  -3   8    8.02    0.64
  -3   3  -8   29.76    2.16
   3  -3   8   31.29    2.09
   3  -3   8   24.51    2.13
   4  -3   8    1.27    0.21
   4  -3   8    1.80    0.21
   4  -3   8    1.89    0.24
   5  -3   8    0.02    0.05
   5  -3   8    0.05    0.05
   5  -3   8    0.10    0.08
   6  -3   8    1.39    0.19
   6  -3   8    1.40    0.21
   6  -3   8    1.54    0.18
   7  -3   8    1.80    0.20
   8  -3   8   14.12    1.05
   4   2  -8    0.04    0.04
   4   2  -8    0.08    0.06
   4   2  -8    0.02    0.03
   3   2  -8    0.53    0.07
   3   2  -8    0.70    0.12
   3   2  -8    0.61    0.11
   2   2  -8    3.00    0.24
  -2  -2   8    2.74    0.31
   1   2  -8    0.49    0.11
   1   2  -8    0.52    0.08
  -1  -2   8    0.77    0.17
   0   2  -8    1.08    0.13
   0   2  -8    0.91    0.15
   0  -2   8    1.11    0.17
   0  -2   8    1.40    0.20
  -1   2  -8   61.25    4.20
   1  -2   8   56.01    4.20
   1  -2   8   56.34    4.20
  -2   2  -8    0.34    0.11
   2  -2   8    0.14    0.07
   2  -2   8    0.22    0.08
   2  -2   8    0.46    0.13
  -3   2  -8    8.02    0.79
   3  -2   8    9.95    0.79
   3  -2   8    9.12    0.79
   3  -2   8   11.45    0.82
   4  -2   8    8.03    0.68
   4  -2   8    6.67    0.62
   4  -2   8    6.95    0.62
   5  -2   8    3.96    0.39
   5  -2   8    4.12    0.40
   5  -2   8    3.93    0.36
   6  -2   8   13.82    1.12
   6  -2   8   15.26    1.11
   6  -2   8   14.56    1.14
   7  -2   8    1.57    0.19
   8  -2   8    0.24    0.07
   5   1  -8    0.32    0.06
   5   1  -8    0.27    0.06
   4   1  -8    0.00    0.05
   4   1  -8    0.03    0.04
   4   1  -8    0.00    0.04
   3   1  -8    0.83    0.12
   3   1  -8    0.83    0.13
   1   1  -8    0.05    0.05
  -1  -1   8    0.06    0.08
   0   1  -8    4.46    0.43
   0  -1   8    5.10    0.46
   0  -1   8    5.98    0.50
  -1   1  -8    0.03    0.05
   1  -1   8    0.03    0.05
   1  -1   8    0.10    0.07
   1  -1   8    0.05    0.07
  -2   1  -8    4.07    0.39
   2  -1   8    4.07    0.39
   2  -1   8    3.95    0.39
   2  -1   8    4.09    0.40
   3  -1   8   10.34    0.88
   3  -1   8   10.07    0.87
   3  -1   8   11.38    0.84
   3  -1   8   12.09    0.90
   4  -1   8    2.47    0.22
   4  -1   8    2.21    0.26
   4  -1   8    1.95    0.25
   5  -1   8    7.81    0.70
   5  -1   8    8.91    0.70
   5  -1   8    8.85    0.66
   5  -1   8    7.86    0.66
   6  -1   8   12.15    0.95
   6  -1   8   11.07    0.94
   6  -1   8   12.58    0.92
   7  -1   8    3.30    0.31
   7  -1   8    3.36    0.31
   8  -1   8    3.35    0.29
   8  -1   8    2.79    0.28
   5   0  -8    7.17    0.56
   5   0  -8    7.71    0.57
   4   0  -8    4.10    0.36
   4   0  -8    4.44    0.36
   4   0  -8    4.14    0.35
   3   0  -8    6.30    0.54
   3   0  -8    6.86    0.54
   2   0  -8    0.00    0.04
   2   0  -8    0.08    0.05
   2   0  -8    0.04    0.04
  -2   0   8    0.04    0.09
   1   0  -8   19.05    1.64
  -1   0   8   25.66    1.73
   0   0  -8    4.33    0.38
   0   0   8    4.57    0.45
  -1   0  -8    5.09    0.44
   1   0   8    4.77    0.44
   1   0   8    5.39    0.49
  -2   0  -8    0.91    0.16
   2   0   8    1.13    0.16
   2   0   8    1.24    0.19
  -3   0  -8    6.28    0.62
   3   0   8    7.88    0.65
   3   0   8    8.43    0.65
   3   0   8    7.55    0.59
   4   0   8    2.41    0.27
   4   0   8    2.32    0.23
   5   0   8   58.08    4.15
   5   0   8   58.41    4.21
   5   0   8   56.70    4.19
   6   0   8    5.54    0.48
   6   0   8    4.75    0.42
   7   0   8    7.03    0.65
   7   0   8    8.44    0.68
   7   0   8    9.10    0.65
   8   0   8    1.01    0.14
   8   0   8    1.04    0.14
   5  -1  -8    4.31    0.35
   4  -1  -8    9.40    0.72
   4  -1  -8    9.78    0.72
   4  -1  -8    9.13    0.72
   3  -1  -8   26.49    1.97
   3  -1  -8   27.62    1.98
   2  -1  -8    2.16    0.23
   2  -1  -8    2.34    0.23
  -2   1   8    2.46    0.30
   1  -1  -8    5.79    0.47
   1  -1  -8    5.35    0.45
  -1   1   8    5.81    0.56
   0  -1  -8   22.75    1.60
   0   1   8   20.45    1.69
  -1  -1  -8    9.56    0.71
   1   1   8    8.66    0.79
   1   1   8    8.66    0.72
  -2  -1  -8   49.59    3.41
   2   1   8   46.12    3.43
   2   1   8   45.40    3.48
  -3  -1  -8    0.44    0.12
   3   1   8    0.47    0.11
   3   1   8    0.67    0.19
   4   1   8    1.04    0.16
   4   1   8    0.81    0.12
   5   1   8    1.35    0.20
   5   1   8    1.81    0.18
  -6  -1  -8   14.86    1.12
   6   1   8   15.76    1.19
   6   1   8   14.29    1.13
  -7  -1  -8   10.89    0.81
   7   1   8   10.80    0.86
   7   1   8   10.69    0.82
   7   1   8   10.09    0.82
  -8  -1  -8    3.06    0.28
   8   1   8    3.05    0.29
   8   1   8    3.83    0.31
   4  -2  -8    8.91    0.70
   4  -2  -8    9.04    0.70
   4  -2  -8   10.09    0.72
   3  -2  -8    3.76    0.35
   3  -2  -8    4.16    0.34
   3  -2  -8    4.25    0.34
   2  -2  -8   25.34    1.91
  -2   2   8   27.14    2.02
   1  -2  -8   31.90    2.12
   1  -2  -8   28.90    2.12
   1  -2  -8   26.37    2.09
   0  -2  -8    0.79    0.11
   0  -2  -8    0.67    0.09
   0   2   8    0.59    0.23
  -1  -2  -8    5.90    0.47
  -1  -2  -8    5.74    0.45
   1   2   8    5.80    0.51
  -2  -2  -8    6.83    0.53
   2   2   8    7.02    0.60
  -3  -2  -8    0.32    0.07
   3   2   8    0.30    0.10
   3   2   8    0.29    0.18
  -4  -2  -8    7.88    0.56
   4   2   8    5.81    0.60
   4   2   8    7.42    0.55
  -5  -2  -8    0.98    0.13
   5   2   8    0.83    0.16
   5   2   8    0.99    0.13
  -6  -2  -8    0.68    0.12
   6   2   8    0.76    0.12
   6   2   8    0.73    0.16
  -7  -2  -8    0.18    0.06
   7   2   8    0.19    0.07
   7   2   8    0.12    0.08
  -8  -2  -8    1.08    0.14
   8   2   8    1.15    0.14
   4  -3  -8    4.04    0.33
   3  -3  -8    2.22    0.21
   2  -3  -8    3.72    0.33
  -2   3   8    4.63    0.48
   1  -3  -8   34.29    2.37
   1  -3  -8   30.70    2.35
   0  -3  -8    5.68    0.49
   0  -3  -8    7.05    0.52
  -1  -3  -8   27.86    1.96
   1   3   8   26.20    2.02
  -2  -3  -8    6.31    0.50
   2   3   8    6.47    0.58
  -3  -3  -8    1.75    0.18
   3   3   8    1.88    0.25
  -4  -3  -8   35.87    2.27
   4   3   8   26.32    2.33
  -5  -3  -8   41.13    2.83
   5   3   8   37.27    2.90
   5   3   8   38.49    2.82
  -6  -3  -8   77.43    5.65
   6   3   8   85.70    5.72
   6   3   8   73.19    5.64
  -7  -3  -8    0.24    0.08
   7   3   8    0.15    0.06
   7   3   8    0.17    0.09
  -8  -3  -8   22.87    1.68
   8   3   8   22.80    1.67
   3  -4  -8   16.28    1.20
   2  -4  -8    4.29    0.39
  -2   4   8    4.26    0.49
   1  -4  -8    0.60    0.09
   1  -4  -8    0.52    0.10
  -1   4   8    0.18    0.23
   0  -4  -8    0.17    0.05
   0   4   8   -0.11    0.13
  -1  -4  -8    9.08    0.67
   1   4   8    8.24    0.74
  -2  -4  -8   38.32    2.87
   2   4   8   41.34    2.98
   3   4   8    7.07    0.66
  -4  -4  -8    1.13    0.13
   4   4   8    1.09    0.21
  -5  -4  -8    1.31    0.15
   5   4   8    0.91    0.19
   5   4   8    1.42    0.16
  -6  -4  -8    0.10    0.06
   6   4   8    0.12    0.06
   6   4   8    0.17    0.10
  -7  -4  -8    0.07    0.05
   7   4   8    0.10    0.05
   7   4   8    0.08    0.08
  -8  -4  -8    9.33    0.71
   8   4   8    9.36    0.71
  -2   5   8    0.06    0.16
  -1  -5  -8    4.18    0.38
   1   5   8    5.38    0.49
  -2  -5  -8    0.97    0.11
   2   5   8    0.24    0.30
  -3  -5  -8    0.35    0.07
   3   5   8    0.24    0.12
   3   5   8    0.16    0.27
  -4  -5  -8    8.84    0.68
   4   5   8    8.62    0.79
  -5  -5  -8   12.50    0.99
   5   5   8   13.79    1.09
  -6  -5  -8    6.25    0.48
   6   5   8    6.01    0.54
   6   5   8    5.44    0.47
  -7  -5  -8    0.15    0.05
   7   5   8    0.23    0.09
   7   5   8    0.11    0.05
  -2   6   8    2.89    0.33
  -1   6   8    0.21    0.20
  -2  -6  -8    7.32    0.60
   2   6   8    8.52    0.73
  -3  -6  -8    1.06    0.12
   3   6   8    1.04    0.24
  -4  -6  -8    6.44    0.52
   4   6   8    6.70    0.63
  -5  -6  -8   20.44    1.52
   5   6   8   21.07    1.62
  -6  -6  -8    0.40    0.07
   6   6   8    0.41    0.11
   0  -7  -8    0.19    0.04
   0   7   8    0.18    0.21
  -1  -7  -8    0.21    0.05
   1   7   8    0.20    0.26
  -2  -7  -8    0.07    0.03
   2   7   8    0.01    0.09
   2   7   8    0.01    0.26
  -3  -7  -8    1.15    0.13
   3   7   8    1.46    0.23
   4   7   8   13.74    1.11
  -5  -7  -8    2.37    0.20
   5   7   8    2.25    0.26
   0   6  -9    0.24    0.05
   0  -6   9    0.27    0.09
  -1   6  -9    8.36    0.62
   1  -6   9    8.05    0.67
  -2   6  -9    0.00    0.04
   2  -6   9    0.04    0.05
   2  -6   9    0.05    0.06
  -3   6  -9    2.07    0.19
   3  -6   9    2.40    0.23
   3  -6   9    1.79    0.19
   3  -6   9    1.77    0.20
  -4   6  -9    1.58    0.15
   4  -6   9    1.44    0.16
   4  -6   9    1.36    0.18
   2   5  -9   14.00    1.02
   1   5  -9    0.31    0.06
  -1  -5   9    0.25    0.10
   0   5  -9   33.61    2.39
   0  -5   9   32.73    2.45
  -1   5  -9   22.37    1.75
  -1   5  -9   25.70    1.74
   1  -5   9   26.69    1.81
   1  -5   9   20.55    1.77
  -2   5  -9    1.83    0.21
  -2   5  -9    2.18    0.19
   2  -5   9    2.02    0.23
   2  -5   9    1.55    0.22
   2  -5   9    1.78    0.19
  -3   5  -9    0.34    0.11
   3  -5   9    0.38    0.08
   3  -5   9    0.52    0.13
   3  -5   9    0.58    0.13
  -4   5  -9    0.09    0.07
   4  -5   9    0.05    0.07
   4  -5   9    0.01    0.04
  -5   5  -9    8.06    0.65
   5  -5   9    8.26    0.65
   5  -5   9    7.40    0.60
   3   4  -9    4.89    0.40
   2   4  -9    1.97    0.16
   2   4  -9    1.82    0.19
  -2  -4   9    1.78    0.21
   1   4  -9    0.04    0.03
   1   4  -9    0.05    0.05
  -1  -4   9   -0.01    0.07
   0   4  -9   15.08    1.00
   0   4  -9   13.73    1.03
   0  -4   9   11.49    1.06
  -1   4  -9    4.73    0.39
  -1   4  -9    5.45    0.43
   1  -4   9    4.13    0.44
  -2   4  -9    0.15    0.07
   2  -4   9    0.05    0.06
   2  -4   9    0.12    0.08
   2  -4   9    0.11    0.09
  -3   4  -9    1.16    0.18
   3  -4   9    1.02    0.16
   3  -4   9    0.96    0.13
   3  -4   9    0.67    0.15
  -4   4  -9   18.24    1.32
   4  -4   9   16.96    1.30
   4  -4   9   16.93    1.31
   4  -4   9   15.93    1.24
   4  -4   9   15.70    1.26
  -5   4  -9   12.09    0.98
   5  -4   9   11.54    0.91
   5  -4   9   12.74    0.96
  -6   4  -9    1.95    0.25
   6  -4   9    2.23    0.25
   6  -4   9    2.17    0.20
   3   3  -9   21.61    1.52
   3   3  -9   19.56    1.50
   2   3  -9    0.10    0.05
   2   3  -9    0.02    0.03
  -2  -3   9   -0.01    0.08
   1   3  -9    1.25    0.13
   1   3  -9    1.22    0.16
  -1  -3   9    1.20    0.19
   0   3  -9    8.05    0.61
   0  -3   9    6.46    0.63
  -1   3  -9   12.77    0.89
  -1   3  -9   10.36    0.92
   1  -3   9   11.66    0.95
   1  -3   9   12.08    0.94
  -2   3  -9   16.81    1.37
   2  -3   9   18.68    1.39
   2  -3   9   18.17    1.40
   2  -3   9   17.88    1.40
  -3   3  -9    3.74    0.38
   3  -3   9    3.51    0.37
   3  -3   9    3.60    0.38
  -4   3  -9   23.43    1.81
   4  -3   9   22.73    1.79
   4  -3   9   24.71    1.81
   5  -3   9   14.35    1.19
   5  -3   9   16.89    1.25
   5  -3   9   16.80    1.26
   6  -3   9    0.59    0.11
   6  -3   9    0.58    0.12
   6  -3   9    0.74    0.14
   7  -3   9    0.05    0.05
   4   2  -9    2.66    0.24
   4   2  -9    2.42    0.23
   3   2  -9   18.31    1.38
   3   2  -9   18.83    1.38
   3   2  -9   18.84    1.38
   2   2  -9    0.86    0.13
  -2  -2   9    0.83    0.18
   1   2  -9    7.02    0.55
  -1  -2   9    7.73    0.65
   0   2  -9    1.22    0.16
   0  -2   9    1.05    0.18
  -1   2  -9   31.56    2.33
   1  -2   9   32.80    2.39
   1  -2   9   32.53    2.40
  -2   2  -9    1.82    0.22
   2  -2   9    1.28    0.20
  -3   2  -9    4.71    0.45
   3  -2   9    5.35    0.46
   3  -2   9    3.91    0.43
  -4   2  -9    2.48    0.32
   4  -2   9    3.04    0.32
   4  -2   9    2.88    0.32
   5  -2   9    4.31    0.42
   5  -2   9    4.02    0.37
   5  -2   9    4.85    0.44
   6  -2   9   -0.02    0.05
   6  -2   9    0.19    0.09
   6  -2   9    0.09    0.07
   7  -2   9    1.17    0.15
   7  -2   9    1.17    0.16
   4   1  -9    0.82    0.10
   4   1  -9    0.81    0.10
   4   1  -9    0.72    0.11
   3   1  -9    5.19    0.42
   3   1  -9    4.81    0.42
   3   1  -9    5.12    0.42
   2   1  -9    1.57    0.20
   2   1  -9    2.33    0.21
  -2  -1   9    2.25    0.25
   1   1  -9   15.71    1.20
   0   1  -9   27.45    2.02
   0  -1   9   27.26    2.07
   1  -1   9   51.16    3.43
   1  -1   9   39.38    3.42
   1  -1   9   49.46    3.41
  -2   1  -9    0.03    0.06
   2  -1   9    0.10    0.08
   2  -1   9    0.09    0.06
   2  -1   9    0.10    0.07
  -3   1  -9    9.34    0.78
   4  -1   9   14.49    1.09
   4  -1   9   12.66    1.07
   5  -1   9   25.69    1.84
   5  -1   9   24.31    1.88
   6  -1   9   35.81    2.86
   6  -1   9   41.39    2.88
   6  -1   9   39.62    2.83
   7  -1   9    2.45    0.24
   7  -1   9    2.41    0.26
   8  -1   9    9.42    0.72
   4   0  -9   19.06    1.39
   4   0  -9   19.50    1.39
   4   0  -9   18.38    1.38
   3   0  -9   15.28    1.14
   3   0  -9   15.53    1.14
   3   0  -9   15.00    1.14
   2   0  -9   24.05    1.75
   2   0  -9   23.82    1.76
  -2   0   9   23.50    1.80
   1   0  -9    0.49    0.11
  -1   0   9    0.62    0.17
   0   0  -9    2.94    0.27
   0   0   9    2.36    0.30
  -1   0  -9   35.88    2.44
   1   0   9   30.58    2.44
  -2   0  -9    1.18    0.16
   2   0   9    1.04    0.18
   2   0   9    1.02    0.16
  -3   0  -9    1.28    0.19
   3   0   9    1.21    0.18
  -4   0  -9    1.92    0.24
   4   0   9    1.87    0.18
   4   0   9    1.90    0.22
   4   0   9    1.33    0.22
   4   0   9    1.25    0.20
   5   0   9   12.48    0.99
   5   0   9   12.04    0.94
   6   0   9    3.08    0.35
   6   0   9    3.42    0.35
   6   0   9    3.37    0.31
   7   0   9   22.95    1.56
   7   0   9   19.15    1.58
   8   0   9    0.39    0.08
   4  -1  -9    0.24    0.05
   4  -1  -9    0.43    0.07
   3  -1  -9    0.03    0.04
   3  -1  -9    0.08    0.05
   3  -1  -9    0.02    0.05
   2  -1  -9   13.01    1.04
   2  -1  -9   14.25    1.04
  -2   1   9   13.85    1.09
   1  -1  -9   15.44    1.18
  -1   1   9   15.91    1.26
   0  -1  -9    0.10    0.06
   0   1   9    0.03    0.09
  -1  -1  -9    3.31    0.30
   1   1   9    3.05    0.31
  -2  -1  -9    2.33    0.25
   2   1   9    2.39    0.27
   2   1   9    2.86    0.33
  -3  -1  -9    6.54    0.59
   3   1   9    7.66    0.65
   3   1   9    7.22    0.62
  -4  -1  -9   40.21    3.10
   4   1   9   45.92    3.13
   4   1   9   41.00    3.06
  -5  -1  -9   12.18    1.00
   5   1   9   10.80    1.00
   5   1   9   14.70    0.96
   6   1   9    1.40    0.20
   6   1   9    1.01    0.21
   6   1   9    1.19    0.15
   7   1   9    1.53    0.22
   7   1   9    2.04    0.20
   8   1   9    9.04    0.70
   3  -2  -9    4.39    0.34
   3  -2  -9    3.82    0.33
   2  -2  -9    5.81    0.48
   2  -2  -9    6.24    0.50
  -2   2   9    6.16    0.56
   1  -2  -9   22.89    1.64
   1  -2  -9   20.83    1.63
  -1   2   9   22.84    1.74
   0  -2  -9   58.79    4.15
   0  -2  -9   56.62    4.15
  -1  -2  -9    2.24    0.22
   2   2   9    5.29    0.58
   2   2   9    6.25    0.52
   3   2   9    0.25    0.17
   3   2   9    0.14    0.07
  -4  -2  -9    0.97    0.12
   4   2   9    0.63    0.14
  -5  -2  -9   15.80    1.19
   5   2   9   16.27    1.20
  -6  -2  -9   25.10    2.01
   6   2   9   31.41    2.10
   6   2   9   26.18    2.01
  -7  -2  -9    0.05    0.05
   7   2   9    0.05    0.07
   7   2   9    0.20    0.06
   8   2   9    0.64    0.10
   3  -3  -9    6.74    0.52
   2  -3  -9    4.15    0.35
  -2   3   9    4.17    0.42
   1  -3  -9    3.90    0.33
  -1   3   9    3.68    0.44
   0  -3  -9    0.06    0.04
   0  -3  -9    0.07    0.06
   0   3   9    0.06    0.15
  -2  -3  -9   20.91    1.60
   2   3   9   22.99    1.68
  -3  -3  -9   31.14    2.29
   3   3   9   32.27    2.38
  -4  -3  -9    0.31    0.07
   4   3   9    0.23    0.20
   4   3   9    0.16    0.09
  -5  -3  -9    0.18    0.06
   5   3   9    0.10    0.07
  -6  -3  -9    5.33    0.45
   6   3   9    6.14    0.52
   6   3   9    4.94    0.44
  -7  -3  -9    9.72    0.77
   7   3   9   10.76    0.82
   7   3   9    9.77    0.77
  -8  -3  -9    1.71    0.18
   8   3   9    2.19    0.19
   2  -4  -9    0.08    0.05
  -2   4   9    0.13    0.12
   1  -4  -9    5.80    0.42
  -1   4   9    4.24    0.52
   1   4   9    0.35    0.22
  -2  -4  -9    0.10    0.04
   2   4   9    0.17    0.23
   2   4   9    0.11    0.08
  -3  -4  -9    0.20    0.06
   3   4   9    0.29    0.12
   3   4   9    0.18    0.23
   4   4   9   12.60    1.03
   5   4   9    5.41    0.51
  -6  -4  -9    3.33    0.29
   6   4   9    2.89    0.28
   6   4   9    3.50    0.34
  -7  -4  -9    0.16    0.06
   7   4   9    0.12    0.08
   7   4   9    0.13    0.05
  -2   5   9    8.63    0.76
  -1   5   9    7.60    0.69
   0   5   9    0.15    0.22
  -2  -5  -9   20.05    1.54
   2   5   9   22.25    1.63
  -3  -5  -9    4.05    0.34
  -4  -5  -9   18.09    1.41
   4   5   9   20.57    1.52
  -5  -5  -9    1.44    0.16
   5   5   9    1.52    0.21
  -6  -5  -9    7.07    0.56
   6   5   9    7.34    0.62
  -7  -5  -9    2.50    0.22
  -1   6   9    4.36    0.43
  -2  -6  -9    4.17    0.34
   2   6   9    4.20    0.41
  -3  -6  -9    0.04    0.03
   3   6   9    0.10    0.08
   3   6   9    0.16    0.23
  -4  -6  -9    1.17    0.13
   4   6   9    1.29    0.20
  -5  -6  -9    0.08    0.04
   5   6   9    0.03    0.06
  -6  -6  -9    0.48    0.07
   6   6   9    0.38    0.10
  -3  -7  -9    8.94    0.63
   3   7   9    7.75    0.68
  -4  -7  -9    0.27    0.05
   4   7   9    0.23    0.09
   0   5 -10   27.18    2.01
   0  -5  10   28.79    2.06
  -1   5 -10   25.97    1.82
   1  -5  10   24.28    1.86
  -2   5 -10   17.20    1.22
  -2   5 -10   15.56    1.23
   2  -5  10   16.14    1.26
   2  -5  10   17.50    1.27
  -3   5 -10    0.13    0.07
  -3   5 -10    0.21    0.06
   3  -5  10    0.09    0.06
   3  -5  10    0.18    0.08
  -4   5 -10    1.27    0.16
  -4   5 -10    1.31    0.14
   4  -5  10    1.29    0.18
   1   4 -10    3.87    0.30
   1   4 -10    3.73    0.32
  -1  -4  10    3.69    0.34
   0   4 -10    0.03    0.05
   0   4 -10    0.05    0.03
   0  -4  10    0.08    0.07
  -1   4 -10    1.56    0.14
  -1   4 -10    1.23    0.16
   1  -4  10    1.28    0.18
   1  -4  10    1.00    0.17
  -2   4 -10    0.16    0.06
  -2   4 -10    0.02    0.06
   2  -4  10    0.15    0.09
   2  -4  10    0.07    0.07
  -3   4 -10    3.86    0.35
   3  -4  10    3.41    0.35
   3  -4  10    3.57    0.36
  -4   4 -10    0.03    0.06
   4  -4  10    0.02    0.08
   4  -4  10    0.03    0.05
   4  -4  10    0.07    0.06
  -5   4 -10    0.86    0.15
   5  -4  10    0.80    0.15
  -6   4 -10    7.10    0.58
   2   3 -10    0.06    0.06
   2   3 -10    0.02    0.04
   1   3 -10   30.70    2.05
   1   3 -10   26.17    2.00
  -1  -3  10   27.13    2.07
   0   3 -10    1.05    0.11
   0   3 -10    1.12    0.15
   0  -3  10    0.95    0.17
  -1   3 -10    8.57    0.65
  -1   3 -10    9.87    0.70
   1  -3  10    8.09    0.70
   1  -3  10    7.54    0.71
  -2   3 -10    1.27    0.18
  -2   3 -10    1.19    0.15
   2  -3  10    1.44    0.21
   2  -3  10    1.40    0.19
   2  -3  10    1.48    0.21
  -3   3 -10    5.85    0.54
   3  -3  10    6.40    0.56
   3  -3  10    6.14    0.55
   3  -3  10    6.14    0.55
  -4   3 -10    9.14    0.74
   4  -3  10    7.95    0.71
   4  -3  10    9.34    0.75
   4  -3  10    9.12    0.75
  -5   3 -10    4.75    0.46
   5  -3  10    4.93    0.46
   5  -3  10    5.24    0.46
  -6   3 -10   18.51    1.49
   6  -3  10   19.36    1.47
   6  -3  10   20.97    1.49
  -7   3 -10    2.00    0.23
   3   2 -10    0.03    0.04
   2   2 -10    3.41    0.30
   2   2 -10    3.46    0.30
   2   2 -10    3.93    0.31
  -2  -2  10    2.99    0.32
   1   2 -10    7.71    0.61
  -1  -2  10    7.20    0.63
   0   2 -10    9.82    0.88
   0  -2  10   13.04    0.94
  -1   2 -10    0.90    0.14
   1  -2  10    0.97    0.17
   1  -2  10    1.43    0.20
  -2   2 -10    0.20    0.08
  -2   2 -10    0.24    0.07
   2  -2  10    0.42    0.12
   2  -2  10    0.50    0.14
   2  -2  10    0.41    0.12
  -3   2 -10    1.38    0.20
   3  -2  10    1.52    0.22
  -4   2 -10    3.74    0.41
   4  -2  10    4.61    0.43
  -5   2 -10    0.46    0.14
   5  -2  10    0.78    0.17
   5  -2  10    0.68    0.15
  -6   2 -10    0.42    0.12
   6  -2  10    0.62    0.12
   6  -2  10    0.61    0.14
  -7   2 -10    0.36    0.11
   7  -2  10    0.38    0.10
   3   1 -10   16.96    1.26
   3   1 -10   17.19    1.26
   3   1 -10   17.44    1.27
   2   1 -10    7.81    0.57
   2   1 -10    7.21    0.57
   2   1 -10    6.69    0.55
  -2  -1  10    6.81    0.59
   1   1 -10    0.02    0.04
  -1  -1  10    0.04    0.07
   0   1 -10    0.39    0.10
   0  -1  10    0.58    0.16
  -1   1 -10    2.76    0.27
   1  -1  10    3.15    0.31
   1  -1  10    2.27    0.29
   2  -1  10   20.94    1.49
   2  -1  10   18.57    1.49
   2  -1  10   18.91    1.50
  -3   1 -10    2.34    0.30
   3  -1  10    2.67    0.32
   3  -1  10    3.66    0.34
   3  -1  10    3.85    0.35
  -4   1 -10    0.34    0.12
   4  -1  10    0.27    0.10
   4  -1  10    0.35    0.12
   4  -1  10    0.17    0.07
  -5   1 -10   37.23    3.08
   5  -1  10   46.16    3.09
  -6   1 -10    0.18    0.10
   6  -1  10    0.29    0.11
   6  -1  10    0.37    0.11
  -7   1 -10    1.92    0.24
   7  -1  10    2.14    0.23
   3   0 -10   11.20    0.81
   3   0 -10   10.49    0.81
   2   0 -10    0.17    0.06
   2   0 -10    0.18    0.06
   2   0 -10    0.19    0.06
  -2   0  10    0.17    0.10
   1   0 -10    0.29    0.08
   1   0 -10    0.33    0.08
  -1   0  10    0.31    0.12
   0   0  10    2.10    0.23
   0   0  10    1.41    0.22
  -1   0 -10   29.15    2.14
   1   0  10   29.04    2.17
  -2   0 -10    1.81    0.21
   2   0  10    1.55    0.23
   2   0  10    1.92    0.22
   2   0  10    1.66    0.22
  -3   0 -10   38.55    2.83
   3   0  10   38.74    2.86
   3   0  10   38.67    2.86
   4   0  10    3.68    0.38
   4   0  10    4.01    0.39
  -5   0 -10    1.22    0.20
   5   0  10    1.57    0.22
   5   0  10    1.34    0.15
   5   0  10    0.88    0.17
  -6   0 -10    0.68    0.16
   6   0  10    0.82    0.12
   6   0  10    0.97    0.16
  -7   0 -10    1.81    0.25
   7   0  10    2.30    0.25
   7   0  10    2.48    0.22
   3  -1 -10    6.46    0.50
   3  -1 -10    6.48    0.50
   2  -1 -10    6.81    0.57
   2  -1 -10    8.42    0.59
  -2   1  10    6.92    0.61
   1  -1 -10   14.90    1.14
   1  -1 -10   16.05    1.15
  -1   1  10   14.81    1.20
   0   1  10    2.82    0.32
  -1  -1 -10    1.08    0.14
   1   1  10    0.78    0.20
  -2  -1 -10    2.02    0.22
   2   1  10    2.01    0.27
   2   1  10    2.03    0.24
  -3  -1 -10    4.06    0.38
   3   1  10    4.43    0.43
   3   1  10    4.16    0.40
  -4  -1 -10   35.25    2.62
   4   1  10   36.15    2.65
  -5  -1 -10    8.32    0.71
   5   1  10    8.80    0.67
  -6  -1 -10    2.08    0.28
   6   1  10    2.97    0.30
   6   1  10    2.48    0.24
   6   1  10    2.71    0.30
   7   1  10    6.70    0.56
   7   1  10    6.46    0.52
   8   1  10    1.20    0.13
   2  -2 -10    0.03    0.04
   2  -2 -10   -0.01    0.04
  -2   2  10   -0.04    0.08
   1  -2 -10    0.06    0.05
   1  -2 -10    0.03    0.04
  -1   2  10    0.08    0.10
   0  -2 -10    0.81    0.12
   0  -2 -10    0.91    0.12
   0   2  10    0.99    0.22
   2   2  10    2.19    0.30
   2   2  10    2.28    0.26
   3   2  10    2.07    0.25
   3   2  10    2.42    0.30
   4   2  10    1.73    0.23
   5   2  10   14.12    1.13
   6   2  10    0.38    0.09
   6   2  10    0.45    0.12
   6   2  10    0.37    0.11
   7   2  10   16.04    1.23
   7   2  10   17.13    1.27
   2  -3 -10    0.36    0.07
  -2   3  10    0.32    0.12
   1  -3 -10    0.51    0.10
  -1   3  10    0.83    0.20
   0  -3 -10    5.13    0.41
   0   3  10    4.84    0.51
   1   3  10    1.70    0.27
   2   3  10    7.10    0.72
   2   3  10    8.32    0.66
  -3  -3 -10   31.81    2.62
   3   3  10   39.40    2.71
   3   3  10   38.52    2.76
  -4  -3 -10   10.67    0.82
   4   3  10   11.39    0.91
   4   3  10   10.87    0.90
  -5  -3 -10    1.20    0.14
   5   3  10    1.33    0.19
  -6  -3 -10    0.61    0.10
   6   3  10    0.60    0.14
  -7  -3 -10    5.55    0.48
   7   3  10    6.93    0.54
   7   3  10    6.34    0.49
  -1   4  10    2.69    0.30
   0  -4 -10   21.69    1.56
   0   4  10   21.38    1.69
  -1  -4 -10    5.96    0.42
   1   4  10    4.45    0.54
  -2  -4 -10    3.10    0.25
   2   4  10    3.12    0.31
   2   4  10    2.48    0.39
  -3  -4 -10    3.16    0.27
   3   4  10    3.57    0.34
   3   4  10    2.70    0.39
  -4  -4 -10    0.69    0.09
   4   4  10    0.56    0.25
   4   4  10    0.67    0.14
  -5  -4 -10    1.43    0.15
   5   4  10    1.48    0.20
  -6  -4 -10    8.39    0.70
   6   4  10   10.28    0.77
   7   4  10    0.17    0.07
  -1   5  10    1.78    0.28
   0  -5 -10    2.61    0.22
   0   5  10    2.46    0.32
  -1  -5 -10    0.73    0.09
   1   5  10    0.41    0.21
  -2  -5 -10    0.03    0.03
   2   5  10    0.14    0.19
   2   5  10    0.01    0.07
  -3  -5 -10    5.78    0.46
   3   5  10    6.22    0.53
  -4  -5 -10   11.11    0.83
   4   5  10   11.28    0.90
  -5  -5 -10    9.48    0.76
   5   5  10   10.88    0.83
  -6  -5 -10   24.83    1.88
   6   5  10   27.25    1.93
  -1  -6 -10    9.14    0.68
  -2  -6 -10    2.41    0.19
   2   6  10    1.64    0.29
  -3  -6 -10    1.10    0.11
   3   6  10    1.14    0.16
  -4  -6 -10   14.34    1.08
   4   6  10   15.27    1.14
  -5  -6 -10    0.26    0.05
   5   6  10    0.42    0.10
   0  -4  11    1.64    0.21
  -1   4 -11    0.45    0.09
  -1   4 -11    0.54    0.07
   1  -4  11    0.67    0.14
  -2   4 -11    2.43    0.21
  -2   4 -11    2.62    0.23
   2  -4  11    2.43    0.25
   2  -4  11    2.15    0.24
  -3   4 -11   16.15    1.13
  -3   4 -11   14.92    1.10
   3  -4  11   14.13    1.14
   3  -4  11   15.01    1.14
  -4   4 -11    1.64    0.17
  -4   4 -11    1.43    0.15
   4  -4  11    1.54    0.19
   1   3 -11   20.10    1.47
   0   3 -11   26.64    1.94
   0  -3  11   26.39    1.97
  -1   3 -11    7.57    0.59
   1  -3  11    7.11    0.61
  -2   3 -11   14.90    1.04
  -2   3 -11   12.26    0.99
   2  -3  11   12.49    1.03
   2  -3  11   14.41    1.06
   2  -3  11   13.59    1.05
  -3   3 -11    4.74    0.40
   3  -3  11    4.66    0.42
   3  -3  11    4.41    0.41
   3  -3  11    4.29    0.41
  -4   3 -11    9.08    0.69
   4  -3  11    8.39    0.70
   4  -3  11    7.55    0.68
   4  -3  11    9.31    0.71
  -5   3 -11    3.48    0.34
   5  -3  11    4.02    0.36
   5  -3  11    3.83    0.35
  -6   3 -11    0.57    0.11
   1   2 -11    3.37    0.29
   1   2 -11    3.87    0.30
   1   2 -11    3.07    0.28
  -1  -2  11    3.29    0.32
   0   2 -11    0.15    0.06
   0  -2  11    0.22    0.10
  -1   2 -11    0.96    0.13
   1  -2  11    0.91    0.16
   1  -2  11    0.90    0.16
  -2   2 -11    0.22    0.08
   2  -2  11    0.30    0.09
   2  -2  11    0.23    0.10
   2  -2  11    0.23    0.08
  -3   2 -11    1.21    0.17
   3  -2  11    1.13    0.17
   3  -2  11    1.16    0.18
   3  -2  11    1.24    0.19
  -4   2 -11    1.95    0.23
   4  -2  11    2.23    0.26
   4  -2  11    1.80    0.23
   4  -2  11    2.10    0.24
  -5   2 -11    3.33    0.33
   5  -2  11    3.46    0.34
   5  -2  11    3.53    0.34
  -6   2 -11   28.02    2.24
   6  -2  11   30.43    2.25
   6  -2  11   33.22    2.26
   2   1 -11   13.33    0.99
   1   1 -11    9.71    0.70
   1   1 -11    8.50    0.69
  -1  -1  11    8.86    0.73
   0   1 -11    6.23    0.52
   0  -1  11    6.67    0.56
  -1   1 -11    0.45    0.10
   1  -1  11    0.51    0.14
   1  -1  11    0.40    0.11
  -2   1 -11   32.58    2.30
   2  -1  11   29.22    2.31
   2  -1  11   32.79    2.34
   2  -1  11   30.87    2.32
  -3   1 -11   26.37    1.89
   3  -1  11   25.04    1.91
   3  -1  11   25.16    1.90
   3  -1  11   24.97    1.90
  -4   1 -11   17.88    1.32
   4  -1  11   17.22    1.33
   4  -1  11   16.16    1.32
   4  -1  11   17.70    1.34
  -5   1 -11    2.31    0.26
   5  -1  11    2.27    0.27
   5  -1  11    2.09    0.25
  -6   1 -11    3.37    0.36
   6  -1  11    4.11    0.37
   6  -1  11    4.16    0.37
  -7   1 -11    3.58    0.34
   2   0 -11    2.86    0.24
   2   0 -11    2.92    0.25
   1   0 -11   16.92    1.22
   1   0 -11   16.21    1.21
  -1   0  11   16.01    1.25
   0   0 -11    6.16    0.48
   0   0  11    5.54    0.51
  -1   0 -11    3.74    0.33
   1   0  11    3.93    0.38
   1   0  11    3.62    0.36
  -2   0 -11    0.56    0.11
   2   0  11    0.50    0.12
   2   0  11    0.59    0.15
   2   0  11    0.49    0.12
  -3   0 -11    5.05    0.43
   3   0  11    5.26    0.47
   3   0  11    5.09    0.45
   3   0  11    4.52    0.45
  -4   0 -11    0.06    0.07
   4   0  11    0.08    0.07
   4   0  11    0.10    0.06
   4   0  11    0.04    0.09
  -5   0 -11   38.47    2.94
   5   0  11   40.09    2.96
   5   0  11   42.12    2.96
  -6   0 -11    2.62    0.29
   6   0  11    3.08    0.30
   6   0  11    3.18    0.32
  -7   0 -11    0.47    0.13
   7   0  11    0.55    0.11
   2  -1 -11    0.01    0.04
   1  -1 -11    8.77    0.64
   1  -1 -11    7.69    0.63
  -1   1  11    8.59    0.68
   0  -1 -11    7.40    0.58
   0  -1 -11    7.35    0.58
   0   1  11    7.61    0.64
  -1  -1 -11   24.81    1.81
   1   1  11   24.98    1.87
   1   1  11   24.32    1.85
  -2  -1 -11   33.06    2.38
   2   1  11   29.32    2.40
   2   1  11   35.87    2.45
  -3  -1 -11   13.60    1.10
   3   1  11   15.54    1.16
   3   1  11   14.73    1.14
  -4  -1 -11    5.53    0.47
   4   1  11    6.05    0.51
   4   1  11    5.82    0.51
   4   1  11    5.24    0.51
  -5  -1 -11    0.09    0.07
   5   1  11    0.04    0.07
   5   1  11    0.04    0.05
   6   1  11   35.25    2.49
   6   1  11   31.99    2.46
   7   1  11    2.04    0.22
   1  -2 -11    4.59    0.37
  -1   2  11    4.73    0.42
   0  -2 -11    0.92    0.12
   0   2  11    0.83    0.16
  -1  -2 -11    8.83    0.69
   1   2  11    9.33    0.77
   2   2  11    0.10    0.10
   3   2  11   15.19    1.19
   3   2  11   14.91    1.17
   4   2  11    0.61    0.13
   4   2  11    0.92    0.16
   5   2  11    0.04    0.05
   5   2  11    0.05    0.07
   6   2  11   -0.01    0.06
   6   2  11    0.05    0.06
   7   2  11    3.87    0.35
  -1   3  11    4.74    0.42
   0   3  11    4.61    0.43
   1   3  11    3.35    0.36
   2   3  11    0.77    0.20
   3   3  11    0.07    0.10
   3   3  11    0.03    0.05
   4   3  11    2.05    0.26
   4   3  11    2.54    0.26
   5   3  11    8.70    0.72
   6   3  11   15.38    1.18
   0   4  11    7.01    0.60
   1   4  11    1.85    0.25
   2   4  11    8.82    0.76
   3   4  11    0.02    0.06
   3   4  11   -0.01    0.10
   4   4  11    0.56    0.12
   5   4  11    2.87    0.29
   6   4  11    4.44    0.39
   1   5  11    5.14    0.47
  -2  -5 -11    4.25    0.36
   2   5  11    5.27    0.46
  -3  -5 -11    0.01    0.03
   3   5  11   -0.01    0.06
   3   5  11    0.08    0.11
  -4  -5 -11    0.01    0.03
   4   5  11    0.06    0.05
   5   5  11    2.97    0.28
  -2   3 -12   13.32    0.97
   2  -3  12   12.67    0.99
  -3   3 -12    0.03    0.04
   3  -3  12    0.03    0.07
   3  -3  12    0.00    0.05
  -4   3 -12   16.64    1.30
   4  -3  12   18.62    1.33
  -1   2 -12    0.04    0.04
   1  -2  12    0.06    0.06
  -2   2 -12    1.36    0.15
   2  -2  12    1.30    0.17
   2  -2  12    1.11    0.16
  -3   2 -12    4.35    0.35
   3  -2  12    4.17    0.37
   3  -2  12    3.62    0.35
   3  -2  12    3.89    0.36
  -4   2 -12    2.59    0.25
   4  -2  12    2.48    0.26
   4  -2  12    2.76    0.27
  -5   2 -12    3.42    0.32
   5  -2  12    4.05    0.35
   5  -2  12    3.66    0.33
   0   1 -12    0.42    0.08
   0   1 -12    0.29    0.06
   0  -1  12    0.47    0.12
  -1   1 -12   26.66    1.96
   1  -1  12   27.01    1.99
  -2   1 -12    4.05    0.35
   2  -1  12    3.92    0.37
   2  -1  12    4.08    0.38
  -3   1 -12    3.03    0.28
   3  -1  12    3.31    0.32
   3  -1  12    3.19    0.31
   3  -1  12    2.94    0.29
  -4   1 -12    2.59    0.25
   4  -1  12    2.63    0.26
   4  -1  12    2.37    0.26
   4  -1  12    2.79    0.28
  -5   1 -12    1.17    0.15
   5  -1  12    1.23    0.16
   5  -1  12    1.42    0.18
   6  -1  12    9.53    0.75
   0   0 -12    0.03    0.04
   0   0 -12    0.06    0.04
   0   0  12    0.09    0.07
  -1   0 -12    0.30    0.07
  -1   0 -12    0.36    0.08
   1   0  12    0.23    0.08
   1   0  12    0.38    0.11
  -2   0 -12    2.36    0.22
   2   0  12    2.29    0.24
   2   0  12    2.24    0.25
  -3   0 -12    4.27    0.37
   3   0  12    4.33    0.40
   3   0  12    4.73    0.41
   3   0  12    4.25    0.39
  -4   0 -12    4.86    0.40
   4   0  12    5.35    0.44
   4   0  12    4.55    0.42
   4   0  12    4.29    0.41
  -5   0 -12    2.50    0.25
   5   0  12    2.72    0.28
   5   0  12    2.52    0.26
   6   0  12    2.85    0.27
   0  -1 -12    4.28    0.35
   0   1  12    4.41    0.39
  -1  -1 -12    2.98    0.25
  -1  -1 -12    2.96    0.25
   1   1  12    3.23    0.30
   1   1  12    2.43    0.27
  -2  -1 -12    2.23    0.21
   2   1  12    2.39    0.25
   2   1  12    2.47    0.26
  -3  -1 -12    1.22    0.15
   3   1  12    1.32    0.18
   3   1  12    1.36    0.18
   3   1  12    1.19    0.16
   4   1  12    2.72    0.27
   4   1  12    2.22    0.24
   4   1  12    2.11    0.24
   5   1  12   19.34    1.50
   5   1  12   20.63    1.50
   6   1  12    2.41    0.24
   0   2  12    1.31    0.16
   1   2  12    3.83    0.34
   1   2  12    3.34    0.32
   2   2  12    0.40    0.10
   2   2  12    0.44    0.12
   3   2  12   12.89    1.05
   3   2  12   13.93    1.07
   3   2  12   14.50    1.07
   4   2  12    2.28    0.25
   4   2  12    2.18    0.24
   5   2  12   15.26    1.16
   5   2  12   15.32    1.17
   6   2  12    0.70    0.11
   1   3  12    9.35    0.75
   2   3  12   10.02    0.80
   3   3  12    4.06    0.37
   3   3  12    3.79    0.35
   4   3  12   19.27    1.44
   5   3  12    1.60    0.19
   5   3  12    1.76    0.19
   2   4  12    1.36    0.19
   3   0  13    2.33    0.25
   4   0  13    4.21    0.39
   3   1  13    3.90    0.35
   4   1  13   18.27    1.38
   0   0   0    0.00    0.00
;
_shelx_hkl_checksum              10348
_shelx_res_file
;
TITL csa23-final in P-1
 shelx.res created by SHELXL-2016/4 at 21:48:16 on 22-Feb-2017
CELL  1.54178   8.1107   8.2615  11.2048   86.791   70.625   85.783
ZERR     2.00   0.0004   0.0004   0.0005    0.002    0.002    0.002
LATT   1
SFAC  C    H    N    O    S    CL
UNIT  24 14 2 4 2 8
MERG   2
DFIX N1 H1 0.88 0.02
FMAP   2
PLAN   20
ACTA
SIZE 0.20 0.23 0.26
BOND
BOND   $H
CONF
L.S.  60
TEMP  -173.00
WGHT    0.153000    0.349200
FVAR       0.15308
C1    1   -0.014661    0.927075    0.795457    11.00000    0.01414    0.01635 =
         0.01203    0.00046   -0.00243   -0.00247
C2    1    0.065027    0.853442    0.878913    11.00000    0.01234    0.01400 =
         0.01420   -0.00376   -0.00319   -0.00043
AFIX  43
H2    2    0.185287    0.865134    0.866524    11.00000   -1.20000
AFIX   0
C3    1   -0.037296    0.762631    0.980538    11.00000    0.02111    0.01911 =
         0.01141    0.00079   -0.00684   -0.00029
C4    1   -0.211857    0.746411    1.001083    11.00000    0.02062    0.02309 =
         0.01229    0.00055    0.00218   -0.00864
AFIX  43
H4    2   -0.279938    0.684198    1.071779    11.00000   -1.20000
AFIX   0
C5    1   -0.286670    0.822519    0.916730    11.00000    0.01252    0.02940 =
         0.01946   -0.00177   -0.00292   -0.00468
C6    1   -0.191127    0.913086    0.812155    11.00000    0.01793    0.02344 =
         0.01430   -0.00226   -0.00622   -0.00048
AFIX  43
H6    2   -0.243662    0.963513    0.754287    11.00000   -1.20000
AFIX   0
C7    1    0.323286    0.760242    0.595369    11.00000    0.01493    0.01740 =
         0.00549   -0.00057   -0.00140    0.00019
C8    1    0.265796    0.604020    0.628587    11.00000    0.00940    0.01912 =
         0.00771   -0.00081   -0.00125   -0.00416
C9    1    0.368545    0.480783    0.663745    11.00000    0.01755    0.01314 =
         0.00982    0.00058   -0.00246   -0.00184
AFIX  43
H9    2    0.329198    0.373986    0.683842    11.00000   -1.20000
AFIX   0
C10   1    0.528735    0.517865    0.668603    11.00000    0.01696    0.01921 =
         0.00954    0.00303   -0.00355    0.00172
C11   1    0.591406    0.672121    0.636228    11.00000    0.01227    0.02187 =
         0.01331    0.00052   -0.00302   -0.00428
AFIX  43
H11   2    0.703132    0.694572    0.639253    11.00000   -1.20000
AFIX   0
C12   1    0.488331    0.792250    0.599564    11.00000    0.01345    0.01726 =
         0.01283    0.00364   -0.00075   -0.00456
AFIX  43
H12   2    0.530101    0.897891    0.576927    11.00000   -1.20000
AFIX   0
N1    3    0.219105    0.886029    0.557844    11.00000    0.01500    0.01588 =
         0.01328    0.00243   -0.00681   -0.00341
O1    4    0.254259    1.098497    0.694142    11.00000    0.01721    0.01576 =
         0.01719    0.00273   -0.00519   -0.00517
O2    4    0.014517    1.126960    0.600203    11.00000    0.02148    0.01803 =
         0.02010    0.00317   -0.00840    0.00223
S1    5    0.121576    1.029246    0.658868    11.00000    0.01317    0.01265 =
         0.01243    0.00303   -0.00383   -0.00279
CL1   6    0.059778    0.666336    1.084473    11.00000    0.02414    0.02708 =
         0.01553    0.00723   -0.00759   -0.00329
CL2   6   -0.508068    0.801400    0.943565    11.00000    0.01286    0.05711 =
         0.02325    0.00266   -0.00369   -0.01120
CL3   6    0.063553    0.557852    0.622204    11.00000    0.01419    0.02014 =
         0.02252    0.00446   -0.00936   -0.00702
CL4   6    0.658520    0.365678    0.713964    11.00000    0.01886    0.02268 =
         0.02467    0.00568   -0.01101    0.00139
H1    2    0.148519    0.852759    0.523241    11.00000    0.01226
HKLF 4  1.0  1.00  0.00  0.00  0.00  1.00  0.00  0.00  0.00  1.00
REM  csa23-final in P-1
REM R1 =  0.0633 for    2152 Fo > 4sig(Fo)  and  0.0655 for all    2295 data
REM    185 parameters refined using      1 restraints
END
WGHT      0.1548      0.2876
REM Highest difference peak  1.146,  deepest hole -1.036,  1-sigma level  0.261
Q1    1   0.0844  0.5585  0.5295  11.00000  0.05    1.15
Q2    1   0.1884  0.5934  0.4556  11.00000  0.05    0.96
Q3    1   0.5798  0.3255  0.6880  11.00000  0.05    0.91
Q4    1   0.2816  1.0180  0.5148  11.00000  0.05    0.90
Q5    1   0.6590  0.3557  0.6062  11.00000  0.05    0.83
Q6    1  -0.0618  0.4858  0.5428  11.00000  0.05    0.81
Q7    1  -0.0653  0.8823  0.6070  11.00000  0.05    0.79
Q8    1   0.7322  0.3530  0.6236  11.00000  0.05    0.78
Q9    1   0.4889  0.2427  0.7960  11.00000  0.05    0.74
Q10   1   0.5828  0.8906  0.5193  11.00000  0.05    0.74
Q11   1   0.1046  1.0083  0.9420  11.00000  0.05    0.73
Q12   1   0.2488  0.6676  0.9278  11.00000  0.05    0.73
Q13   1   0.1677  0.6274  0.8608  11.00000  0.05    0.72
Q14   1  -0.6036  0.6973  0.8234  11.00000  0.05    0.72
Q15   1   0.1338  1.0240  0.5582  11.00000  0.05    0.70
Q16   1   0.0231  0.5864  0.9106  11.00000  0.05    0.70
Q17   1  -0.4780  0.8113  1.0457  11.00000  0.05    0.70
Q18   1  -0.4723  0.8534  1.1117  11.00000  0.05    0.70
Q19   1  -0.4934  0.7974  0.8362  11.00000  0.05    0.69
Q20   1  -0.2134  0.8790  0.6972  11.00000  0.05    0.68
;
_shelx_res_checksum              97903
loop_
_space_group_symop_operation_xyz
'x, y, z'
'-x, -y, -z'
loop_
_atom_site_type_symbol
_atom_site_label
_atom_site_fract_x
_atom_site_fract_y
_atom_site_fract_z
_atom_site_U_iso_or_equiv
_atom_site_adp_type
_atom_site_calc_flag
_atom_site_occupancy
C C1 -0.0147(4) 0.9271(4) 0.7955(3) 0.0146(7) Uani d 1
C C2 0.0650(4) 0.8534(4) 0.8789(3) 0.0137(7) Uani d 1
H H2 0.185287 0.865134 0.866524 0.016 Uiso calc 1
C C3 -0.0373(5) 0.7626(4) 0.9805(3) 0.0169(8) Uani d 1
C C4 -0.2119(5) 0.7464(4) 1.0011(3) 0.0202(8) Uani d 1
H H4 -0.279938 0.684198 1.071779 0.024 Uiso calc 1
C C5 -0.2867(5) 0.8225(5) 0.9167(4) 0.0208(8) Uani d 1
C C6 -0.1911(5) 0.9131(4) 0.8122(3) 0.0183(8) Uani d 1
H H6 -0.243662 0.963513 0.754287 0.022 Uiso calc 1
C C7 0.3233(4) 0.7602(4) 0.5954(3) 0.0132(7) Uani d 1
C C8 0.2658(4) 0.6040(4) 0.6286(3) 0.0123(7) Uani d 1
C C9 0.3685(4) 0.4808(4) 0.6637(3) 0.0140(7) Uani d 1
H H9 0.329198 0.373986 0.683842 0.017 Uiso calc 1
C C10 0.5287(5) 0.5179(4) 0.6686(3) 0.0157(8) Uani d 1
C C11 0.5914(5) 0.6721(4) 0.6362(3) 0.0160(8) Uani d 1
H H11 0.703132 0.694572 0.639253 0.019 Uiso calc 1
C C12 0.4883(4) 0.7922(4) 0.5996(3) 0.0154(8) Uani d 1
H H12 0.530101 0.897891 0.576927 0.018 Uiso calc 1
N N1 0.2191(4) 0.8860(3) 0.5578(3) 0.0142(6) Uani d 1
O O1 0.2543(3) 1.0985(3) 0.6941(2) 0.0167(6) Uani d 1
O O2 0.0145(3) 1.1270(3) 0.6002(2) 0.0198(6) Uani d 1
S S1 0.12158(10) 1.02925(9) 0.65887(8) 0.0129(3) Uani d 1
Cl CL1 0.05978(11) 0.66634(11) 1.08447(8) 0.0222(3) Uani d 1
Cl CL2 -0.50807(12) 0.80140(14) 0.94357(9) 0.0313(4) Uani d 1
Cl CL3 0.06355(10) 0.55785(10) 0.62220(8) 0.0180(3) Uani d 1
Cl CL4 0.65852(11) 0.36568(10) 0.71396(8) 0.0215(3) Uani d 1
H H1 0.149(4) 0.853(5) 0.523(4) 0.012(10) Uiso d 1
loop_
_atom_site_aniso_label
_atom_site_aniso_U_11
_atom_site_aniso_U_22
_atom_site_aniso_U_33
_atom_site_aniso_U_12
_atom_site_aniso_U_13
_atom_site_aniso_U_23
C1 0.0141(17) 0.0164(17) 0.0120(17) -0.0025(13) -0.0024(13) 0.0005(13)
C2 0.0123(15) 0.0140(17) 0.0142(18) -0.0004(13) -0.0032(13) -0.0038(14)
C3 0.0211(19) 0.0191(19) 0.0114(19) -0.0003(15) -0.0068(15) 0.0008(15)
C4 0.0206(19) 0.0231(19) 0.0123(18) -0.0086(15) 0.0022(15) 0.0005(15)
C5 0.0125(17) 0.029(2) 0.0195(19) -0.0047(15) -0.0029(14) -0.0018(16)
C6 0.0179(18) 0.023(2) 0.0143(18) -0.0005(14) -0.0062(15) -0.0023(14)
C7 0.0149(17) 0.0174(18) 0.0055(16) 0.0002(13) -0.0014(13) -0.0006(13)
C8 0.0094(15) 0.0191(18) 0.0077(15) -0.0042(13) -0.0012(13) -0.0008(13)
C9 0.0176(17) 0.0131(17) 0.0098(17) -0.0018(13) -0.0025(13) 0.0006(13)
C10 0.0170(17) 0.0192(18) 0.0095(17) 0.0017(14) -0.0036(14) 0.0030(14)
C11 0.0123(16) 0.0219(19) 0.0133(18) -0.0043(14) -0.0030(13) 0.0005(14)
C12 0.0135(17) 0.0173(18) 0.0128(17) -0.0046(13) -0.0008(13) 0.0036(13)
N1 0.0150(14) 0.0159(15) 0.0133(15) -0.0034(11) -0.0068(12) 0.0024(12)
O1 0.0172(12) 0.0158(12) 0.0172(13) -0.0052(10) -0.0052(10) 0.0027(10)
O2 0.0215(13) 0.0180(13) 0.0201(14) 0.0022(10) -0.0084(11) 0.0032(10)
S1 0.0132(5) 0.0127(5) 0.0124(5) -0.0028(4) -0.0038(4) 0.0030(4)
CL1 0.0241(5) 0.0271(6) 0.0155(5) -0.0033(4) -0.0076(4) 0.0072(4)
CL2 0.0129(5) 0.0571(8) 0.0232(6) -0.0112(4) -0.0037(4) 0.0027(5)
CL3 0.0142(5) 0.0201(5) 0.0225(6) -0.0070(4) -0.0094(4) 0.0045(4)
CL4 0.0189(5) 0.0227(6) 0.0247(6) 0.0014(4) -0.0110(4) 0.0057(4)
loop_
_atom_type_symbol
_atom_type_description
_atom_type_scat_dispersion_real
_atom_type_scat_dispersion_imag
_atom_type_scat_source
C C 0.0181 0.0091 'International Tables Vol C Tables 4.2.6.8 and 6.1.1.4'
H H 0.0000 0.0000 'International Tables Vol C Tables 4.2.6.8 and 6.1.1.4'
N N 0.0311 0.0180 'International Tables Vol C Tables 4.2.6.8 and 6.1.1.4'
O O 0.0492 0.0322 'International Tables Vol C Tables 4.2.6.8 and 6.1.1.4'
S S 0.3331 0.5567 'International Tables Vol C Tables 4.2.6.8 and 6.1.1.4'
Cl Cl 0.3639 0.7018 'International Tables Vol C Tables 4.2.6.8 and 6.1.1.4'
loop_
_geom_angle_atom_site_label_1
_geom_angle_atom_site_label_2
_geom_angle_atom_site_label_3
_geom_angle
C6 C1 C2 122.3(3)
C6 C1 S1 120.4(3)
C2 C1 S1 117.2(3)
C3 C2 C1 117.6(3)
C3 C2 H2 121.2
C1 C2 H2 121.2
C4 C3 C2 122.0(3)
C4 C3 CL1 119.4(3)
C2 C3 CL1 118.6(3)
C3 C4 C5 118.7(3)
C3 C4 H4 120.7
C5 C4 H4 120.7
C4 C5 C6 122.2(3)
C4 C5 CL2 118.3(3)
C6 C5 CL2 119.4(3)
C5 C6 C1 117.1(3)
C5 C6 H6 121.4
C1 C6 H6 121.4
C8 C7 C12 118.3(3)
C8 C7 N1 121.8(3)
C12 C7 N1 119.9(3)
C9 C8 C7 121.8(3)
C9 C8 CL3 118.3(3)
C7 C8 CL3 119.9(3)
C10 C9 C8 118.1(3)
C10 C9 H9 120.9
C8 C9 H9 120.9
C9 C10 C11 122.0(3)
C9 C10 CL4 118.9(3)
C11 C10 CL4 119.1(3)
C12 C11 C10 118.9(3)
C12 C11 H11 120.6
C10 C11 H11 120.6
C11 C12 C7 120.9(3)
C11 C12 H12 119.6
C7 C12 H12 119.6
C7 N1 S1 118.4(2)
C7 N1 H1 115(3)
S1 N1 H1 111(3)
O1 S1 O2 121.08(15)
O1 S1 N1 107.18(15)
O2 S1 N1 105.43(15)
O1 S1 C1 107.19(15)
O2 S1 C1 109.28(16)
N1 S1 C1 105.69(15)
loop_
_geom_bond_atom_site_label_1
_geom_bond_atom_site_label_2
_geom_bond_distance
C1 C6 1.393(5)
C1 C2 1.393(5)
C1 S1 1.774(4)
C2 C3 1.385(5)
C2 H2 0.9500
C3 C4 1.372(5)
C3 CL1 1.738(3)
C4 C5 1.384(6)
C4 H4 0.9500
C5 C6 1.385(5)
C5 CL2 1.740(4)
C6 H6 0.9500
C7 C8 1.393(5)
C7 C12 1.400(5)
C7 N1 1.424(4)
C8 C9 1.391(5)
C8 CL3 1.736(3)
C9 C10 1.376(5)
C9 H9 0.9500
C10 C11 1.391(5)
C10 CL4 1.742(3)
C11 C12 1.383(5)
C11 H11 0.9500
C12 H12 0.9500
N1 S1 1.651(3)
N1 H1 0.858(19)
O1 S1 1.428(3)
O2 S1 1.433(3)
loop_
_geom_hbond_atom_site_label_D
_geom_hbond_atom_site_label_H
_geom_hbond_atom_site_label_A
_geom_hbond_site_symmetry_A
_geom_hbond_distance_DH
_geom_hbond_distance_HA
_geom_hbond_distance_DA
_geom_hbond_angle_DHA
_geom_hbond_publ_flag
N1 H1 O2 2_576 0.86 2.20 3.0026 155 yes
C9 H9 O1 1_545 0.95 2.39 3.324(4) 170 yes
loop_
_geom_torsion_atom_site_label_1
_geom_torsion_atom_site_label_2
_geom_torsion_atom_site_label_3
_geom_torsion_atom_site_label_4
_geom_torsion
C6 C1 C2 C3 0.6(5)
S1 C1 C2 C3 -175.0(3)
C1 C2 C3 C4 -1.0(5)
C1 C2 C3 CL1 178.8(3)
C2 C3 C4 C5 0.5(6)
CL1 C3 C4 C5 -179.4(3)
C3 C4 C5 C6 0.5(6)
C3 C4 C5 CL2 -180.0(3)
C4 C5 C6 C1 -0.9(6)
CL2 C5 C6 C1 179.6(3)
C2 C1 C6 C5 0.3(6)
S1 C1 C6 C5 175.8(3)
C12 C7 C8 C9 -0.8(5)
N1 C7 C8 C9 179.2(3)
C12 C7 C8 CL3 -178.9(3)
N1 C7 C8 CL3 1.1(5)
C7 C8 C9 C10 1.8(5)
CL3 C8 C9 C10 180.0(3)
C8 C9 C10 C11 -1.8(5)
C8 C9 C10 CL4 179.4(3)
C9 C10 C11 C12 0.8(5)
CL4 C10 C11 C12 179.6(3)
C10 C11 C12 C7 0.3(5)
C8 C7 C12 C11 -0.3(5)
N1 C7 C12 C11 179.7(3)
C8 C7 N1 S1 105.4(3)
C12 C7 N1 S1 -74.6(4)
C7 N1 S1 O1 55.4(3)
C7 N1 S1 O2 -174.4(2)
C7 N1 S1 C1 -58.7(3)
C6 C1 S1 O1 150.1(3)
C2 C1 S1 O1 -34.1(3)
C6 C1 S1 O2 17.2(4)
C2 C1 S1 O2 -167.0(3)
C6 C1 S1 N1 -95.8(3)
C2 C1 S1 N1 79.9(3)

_cod_database_fobs_code 1545555
