#------------------------------------------------------------------------------
#$Date: 2019-03-18 09:35:25 +0200 (Mon, 18 Mar 2019) $
#$Revision: 214153 $
#$URL: file:///home/coder/svn-repositories/cod/cif/1/54/55/1545507.cif $
#------------------------------------------------------------------------------
#
# This file is available in the Crystallography Open Database (COD),
# http://www.crystallography.net/. The original data for this entry
# were provided by IUCr Journals, http://journals.iucr.org/.
#
# The file may be used within the scientific community so long as
# proper attribution is given to the journal article from which the
# data were obtained.
#
data_1545507
loop_
_publ_author_name
'Suchetan, P. A.'
'Sudha, A. G.'
'Suresha, E.'
'Lokanath, N. K.'
'Naveen, S.'
'Warad, Ismail'
_publ_section_title
;
 4-Iodo-<i>N</i>-(phenylsulfonyl)benzamide hemihydrate
;
_journal_coeditor_code           HB4117
_journal_issue                   2
_journal_name_full               IUCrData
_journal_page_first              x170149
_journal_paper_doi               10.1107/S2414314617001493
_journal_volume                  2
_journal_year                    2017
_chemical_formula_iupac          'C13 H10 I N O3 S, 0.5(H2 O)'
_chemical_formula_moiety         'C13 H10 I N O3 S, 0.5(H2 O)'
_chemical_formula_sum            'C13 H11 I N O3.5 S'
_chemical_formula_weight         396.18
_chemical_melting_point          460
_chemical_name_systematic
'4-Iodo-<i>N</i>-(phenylsulfonyl)benzamide hemihydrate'
_space_group_crystal_system      triclinic
_space_group_IT_number           2
_space_group_name_Hall           '-P 1'
_space_group_name_H-M_alt        'P -1'
_symmetry_space_group_name_Hall  '-P 1'
_symmetry_space_group_name_H-M   'P -1'
_atom_sites_solution_hydrogens   mixed
_atom_sites_solution_primary     direct
_audit_creation_method           SHELXL-2016/4
_cell_angle_alpha                97.594(2)
_cell_angle_beta                 92.173(2)
_cell_angle_gamma                99.4230(10)
_cell_formula_units_Z            4
_cell_length_a                   10.6311(5)
_cell_length_b                   11.0403(5)
_cell_length_c                   12.0340(6)
_cell_measurement_reflns_used    175
_cell_measurement_temperature    173(2)
_cell_measurement_theta_max      64.5
_cell_measurement_theta_min      3.7
_cell_volume                     1378.59(11)
_computing_cell_refinement
;
SAINT-Plus (Bruker, 2009)
;
_computing_data_collection
;
APEX2 (Bruker, 2009)
;
_computing_data_reduction
;
SAINT-Plus (Bruker, 2009)
;
_computing_molecular_graphics
;
Mercury (Macrae <i>et al.</i>,  2008)
;
_computing_publication_material
;
<i>SHELXL2016/4</i> (Sheldrick, 2015<i>b</i>)
;
_computing_structure_refinement
;
<i>SHELXL2016/4</i> (Sheldrick, 2015<i>b</i>)
;
_computing_structure_solution
;
<i>SHELXT2016/4</i> (Sheldrick, 2015<i>a</i>)
;
_diffrn_ambient_temperature      173(2)
_diffrn_measured_fraction_theta_full 0.983
_diffrn_measured_fraction_theta_max 0.983
_diffrn_measurement_device_type  'Bruker APEXII'
_diffrn_measurement_method       'phi and \f scans'
_diffrn_radiation_monochromator  graphite
_diffrn_radiation_type           CuK\a
_diffrn_radiation_wavelength     1.54178
_diffrn_reflns_av_R_equivalents  0.0524
_diffrn_reflns_limit_h_max       12
_diffrn_reflns_limit_h_min       -12
_diffrn_reflns_limit_k_max       12
_diffrn_reflns_limit_k_min       -12
_diffrn_reflns_limit_l_max       12
_diffrn_reflns_limit_l_min       -13
_diffrn_reflns_number            14470
_diffrn_reflns_theta_full        64.486
_diffrn_reflns_theta_max         64.486
_diffrn_reflns_theta_min         3.712
_diffrn_standards_decay_%        0.1
_diffrn_standards_interval_count 2
_diffrn_standards_number         1
_exptl_absorpt_coefficient_mu    19.754
_exptl_absorpt_correction_T_max  0.206
_exptl_absorpt_correction_T_min  0.111
_exptl_absorpt_correction_type   multi-scan
_exptl_absorpt_process_details
;
(SADABS; Bruker, 2009)
;
_exptl_crystal_colour            Colourless
_exptl_crystal_density_diffrn    1.909
_exptl_crystal_description       Prism
_exptl_crystal_F_000             772
_exptl_crystal_size_max          0.220
_exptl_crystal_size_mid          0.110
_exptl_crystal_size_min          0.080
_refine_diff_density_max         1.228
_refine_diff_density_min         -1.175
_refine_ls_extinction_method     none
_refine_ls_goodness_of_fit_ref   1.069
_refine_ls_hydrogen_treatment    mixed
_refine_ls_matrix_type           full
_refine_ls_number_parameters     368
_refine_ls_number_reflns         4556
_refine_ls_number_restraints     4
_refine_ls_restrained_S_all      1.069
_refine_ls_R_factor_all          0.0421
_refine_ls_R_factor_gt           0.0409
_refine_ls_shift/su_max          0.001
_refine_ls_shift/su_mean         0.000
_refine_ls_structure_factor_coef Fsqd
_refine_ls_weighting_details
'w=1/[\s^2^(Fo^2^)+(0.0797P)^2^+0.2627P] where P=(Fo^2^+2Fc^2^)/3'
_refine_ls_weighting_scheme      calc
_refine_ls_wR_factor_gt          0.1123
_refine_ls_wR_factor_ref         0.1140
_reflns_number_gt                4351
_reflns_number_total             4556
_reflns_threshold_expression     'I > 2\s(I)'
_cod_depositor_comments
;

2019-01-19
Z value and formula fixed to values more according to usual
chemical conventions.                 miguel
;
_cod_original_formula_sum            'C26 H22 I2 N2 O7 S2'
_cod_original_formula_weight         792.37
_cod_original_formula_moiety         '2(C13 H10 I N O3 S), H2 O'
_cod_original_formula_iupac          '2C13 H10 I N O3 S, H2 O'
_cod_original_formula_units_Z            2
_cod_data_source_file            hb4117sup1.cif
_cod_data_source_block           I
_cod_database_code               1545507
_shelx_space_group_comment
;
The symmetry employed for this shelxl refinement is uniquely defined
by the following loop, which should always be used as a source of
symmetry information in preference to the above space-group names.
They are only intended as comments.
;
_shelx_estimated_absorpt_t_min   0.098
_shelx_estimated_absorpt_t_max   0.301
_shelx_hkl_file
;
  -2   0   0  169.48   16.60
   2   0   0  210.18   17.90
  -3   0   0    6.80    3.60
  -3   0   0    2.50    2.30
   3   0   0    5.80    2.60
   3   0   0    7.40    3.40
  -4   0   0   20.80    4.90
  -5   0   0   38.40    7.20
   5   0   0   37.60    8.00
  -6   0   0 2189.58  163.88
   6   0   0 1885.91  158.48
   6   0   0 1853.21  158.88
   6   0   0 2042.50  164.28
  -7   0   0 1075.59   88.69
   7   0   0 1106.99   88.79
   7   0   0 1115.49   88.29
  -8   0   0 1138.19   96.39
   8   0   0 1210.58   95.99
   8   0   0 1234.58   96.69
  -9   0   0  683.13   57.39
   9   0   0  731.83   57.69
   9   0   0  692.63   56.89
  10   0   0    5.90    1.70
  10   0   0    5.50    2.20
  11   0   0   26.90    3.30
  11   0   0   22.90    3.40
  11   0   0   27.10    4.10
  12   0   0   50.99    5.50
  12  -1   0  344.37   27.80
  12  -1   0  332.97   28.00
  12  -1   0  337.67   27.60
  11  -1   0  413.96   34.10
  11  -1   0  403.56   33.50
  10  -1   0  279.67   23.50
  10  -1   0  281.97   24.10
   9  -1   0  314.77   27.00
   9  -1   0  321.67   26.50
   8  -1   0  290.17   23.80
   8  -1   0  288.47   23.30
  -8   1   0  271.07   23.60
  -8   1   0  264.57   23.70
   7  -1   0    6.80    1.60
   7  -1   0    6.50    1.90
  -7   1   0    6.40    2.10
  -7   1   0    4.90    2.20
   6  -1   0  724.53   59.49
   6  -1   0  661.23   59.69
   6  -1   0  798.32   66.29
  -6   1   0  804.52   64.39
   5  -1   0 1140.99  101.49
  -5   1   0 1258.57   99.99
   4  -1   0  109.89   14.00
  -4   1   0  117.59   12.50
   3  -1   0  190.08   20.70
   3  -1   0  265.47   20.30
  -3   1   0  201.38   19.50
   2  -1   0  558.44   46.70
   1  -1   0  156.88   12.80
   1  -1   0  151.48   12.40
  -1   1   0  129.39   12.50
  -1  -1   0  715.23   52.09
  -1  -1   0  652.63   51.99
   1   1   0  561.14   51.79
  -2  -1   0   74.89    7.80
   2   1   0   65.39    7.10
   2   1   0   63.39    7.00
  -3  -1   0  570.74   52.39
   3   1   0  684.43   52.89
   3   1   0  611.64   51.99
  -4  -1   0 1911.01  164.38
   4   1   0 2117.49  164.68
  -5  -1   0  456.95   41.50
   5   1   0  445.46   41.30
  -6  -1   0   26.30    7.60
  -6  -1   0   32.80    4.40
   6   1   0   27.60    3.70
   6   1   0   25.50    7.30
   6   1   0   28.50    3.50
  -7  -1   0    7.60    2.20
   7   1   0    3.80    1.70
   7   1   0    4.60    1.50
  -8  -1   0   20.70    3.60
   8   1   0   24.10    3.30
   8   1   0   23.20    3.80
  -9  -1   0  914.91   71.19
   9   1   0  929.11   70.59
   9   1   0  780.32   71.19
 -10  -1   0   77.09    8.00
  10   1   0   81.19    8.20
  10   1   0   73.49    7.20
  11   1   0    2.20    1.60
  12  -2   0   23.10    2.90
  12  -2   0   27.70    3.30
 -12   2   0   22.20    2.90
  11  -2   0   89.19    9.00
  11  -2   0   96.99    8.50
  10  -2   0  103.89    9.00
  10  -2   0   90.49    9.40
   9  -2   0  212.78   18.10
  -9   2   0  197.78   18.00
   8  -2   0 2282.47  182.58
   8  -2   0 2346.07  182.18
  -8   2   0 2205.58  182.68
   7  -2   0   21.40    3.10
   7  -2   0   22.30    3.50
  -7   2   0   23.80    3.90
   6  -2   0  151.58   13.10
   6  -2   0  149.59   20.00
  -6   2   0  167.98   17.70
  -6   2   0  142.99   13.70
   5  -2   0   -0.20    3.60
  -5   2   0    4.00    2.90
   4  -2   0  109.99   14.50
  -4   2   0  135.09   13.30
   3  -2   0 1449.76  113.89
   3  -2   0 1311.37  111.99
  -3   2   0 1421.76  112.39
  -3   2   0 1365.16  112.89
   2  -2   0 1795.82  157.48
   2  -2   0 2212.18  157.08
  -2   2   0 2168.88  157.58
  -2   2   0 1662.33  156.88
   1  -2   0 2078.49  162.88
  -1   2   0 1857.81  162.78
  -1   2   0 2173.28  163.28
   0  -2   0 6780.62  539.65
   1   2   0 1594.04  127.79
  -2  -2   0  602.74   45.50
  -2  -2   0  536.25   45.10
   2   2   0  458.85   44.60
   2   2   0  573.94   45.10
  -3  -2   0  493.35   44.20
   3   2   0  543.55   44.00
  -4  -2   0  786.52   72.69
   4   2   0  930.71   72.69
  -5  -2   0  104.49   15.40
   5   2   0  120.99   15.50
   5   2   0  151.38   12.10
  -6  -2   0  692.73   53.89
   6   2   0  685.93   53.59
   6   2   0  612.74   52.79
   6   2   0  632.14   52.99
  -7  -2   0 2216.88  167.58
   7   2   0 1945.21  166.38
   7   2   0 1990.20  166.68
   7   2   0 2191.98  167.38
  -8  -2   0    3.10    1.80
   8   2   0    2.90    1.50
   8   2   0    2.30    1.60
  -9  -2   0  117.09   10.40
   9   2   0   95.79   10.20
 -10  -2   0  156.38   14.80
  10   2   0  175.58   15.20
  11   2   0   13.20    2.70
  12  -3   0   23.40    3.30
  12  -3   0   23.70    3.00
 -12   3   0   30.90    3.20
  11  -3   0  296.87   24.60
  10  -3   0   29.50    4.20
 -10   3   0   46.30    5.00
   9  -3   0   53.79    6.10
   9  -3   0   40.90    5.10
  -9   3   0   60.09    6.20
   8  -3   0    9.90    2.60
   8  -3   0    5.10    1.60
  -8   3   0    9.00    2.50
   7  -3   0  835.22   62.99
   7  -3   0  725.93   63.29
   7  -3   0  755.32   63.09
  -7   3   0  804.12   63.69
   6  -3   0   76.29   15.40
   6  -3   0   86.39    8.60
   6  -3   0   95.29    8.50
  -6   3   0  108.79    9.40
  -6   3   0   90.29   12.80
   5  -3   0 1547.65  139.39
  -5   3   0 1770.62  137.19
   4  -3   0 1381.66  119.09
  -4   3   0 1479.65  117.29
   3  -3   0    5.00    2.40
  -3   3   0    4.20    1.60
   2  -3   0  106.29    9.90
   2  -3   0  103.79   10.40
  -2   3   0  104.19    9.80
  -2   3   0  100.19   10.30
   1  -3   0   49.99    6.20
  -1   3   0   60.09    6.00
  -1   3   0   75.39    6.80
   0  -3   0    2.30    1.10
   0  -3   0    3.50    1.10
   0   3   0    2.00    1.00
   0   3   0    5.30    1.80
  -1  -3   0 3978.80  345.47
  -1  -3   0 4619.14  345.67
   1   3   0 4426.56  345.67
   1   3   0 4271.77  345.07
  -2  -3   0 1227.38   96.79
   2   3   0 1142.19   95.99
  -3  -3   0  506.85   45.10
   3   3   0  542.65   44.60
  -4  -3   0  173.38   18.90
   4   3   0  183.48   18.20
  -5  -3   0  248.18   22.10
   5   3   0  255.87   21.70
   5   3   0  253.37   21.50
  -6  -3   0   16.10    3.70
   6   3   0   21.80    3.60
   6   3   0   22.00    3.30
  -7  -3   0  223.38   20.00
   7   3   0  221.68   19.60
   7   3   0  223.48   19.10
  -8  -3   0  676.33   54.39
   8   3   0  640.44   53.59
  -9  -3   0  186.78   16.30
   9   3   0  174.38   16.30
 -10  -3   0  115.59   11.60
  10   3   0  135.49   11.90
 -11  -3   0  131.99   12.90
  11   3   0  162.78   13.20
  12  -4   0    1.50    1.00
  12  -4   0    1.60    1.10
 -12   4   0   -0.50    1.10
  11  -4   0  367.26   28.40
 -11   4   0  321.87   28.80
  10  -4   0  261.97   25.40
 -10   4   0  359.06   26.20
   9  -4   0  286.07   27.80
  -9   4   0  397.86   28.80
   8  -4   0  987.50   79.39
   8  -4   0  945.91   79.39
  -8   4   0 1018.20   79.99
   7  -4   0  420.06   32.60
   7  -4   0  378.36   32.60
  -7   4   0  382.36   33.10
   6  -4   0   78.39    7.80
   6  -4   0   79.89    7.70
  -6   4   0   84.09    8.40
   5  -4   0  331.07   28.10
   5  -4   0  384.26   35.40
   5  -4   0  319.27   28.40
  -5   4   0  355.16   31.90
  -5   4   0  335.77   28.80
   4  -4   0  703.93   63.19
  -4   4   0  754.42   61.69
   3  -4   0   88.19   10.50
  -3   4   0   91.79    9.50
  -2   4   0 2033.70  163.58
   1  -4   0 1652.83  131.39
  -1   4   0 1593.94  130.69
   0  -4   0   77.19    8.30
   0   4   0   80.99    8.00
  -1  -4   0   68.39    8.00
   1   4   0   73.29    7.40
  -2  -4   0  319.67   29.40
   2   4   0  336.97   28.60
  -3  -4   0  190.18   18.70
   3   4   0  175.48   17.30
  -4  -4   0  710.13   56.29
  -4  -4   0  624.54   59.49
   4   4   0  676.13   55.69
   4   4   0  636.64   58.19
   4   4   0  751.32   56.09
  -5  -4   0 1400.16  118.49
  -5  -4   0 1286.57  117.79
   5   4   0 1499.45  117.99
   5   4   0 1667.13  118.29
  -6  -4   0    3.30    2.30
   6   4   0    3.60    1.80
   6   4   0    2.20    1.60
  -7  -4   0  504.85   40.80
   7   4   0  462.55   40.10
   7   4   0  479.45   39.80
  -8  -4   0  308.17   25.10
   8   4   0  241.58   24.30
   8   4   0  313.07   24.30
  -9  -4   0    2.10    1.70
   9   4   0    0.20    1.50
 -10  -4   0  450.35   38.30
  10   4   0  475.05   38.40
  12  -5   0  119.19   10.30
 -12   5   0  121.99   10.40
  11  -5   0    7.00    1.90
  11  -5   0   11.70    1.90
 -11   5   0    8.20    1.70
 -11   5   0    6.40    1.90
  10  -5   0   41.50    4.30
 -10   5   0   35.10    4.90
   9  -5   0  465.95   38.40
   9  -5   0  434.76   38.30
  -9   5   0  505.65   39.10
   8  -5   0    4.90    1.60
   8  -5   0    4.40    1.70
  -8   5   0    1.70    1.80
   7  -5   0 1296.67  105.89
   7  -5   0 1304.27  105.79
  -7   5   0 1341.07  106.49
   6  -5   0  412.96   34.00
   6  -5   0  397.66   33.70
  -6   5   0  410.46   34.40
   5  -5   0   12.60    2.60
   5  -5   0   12.60    2.50
  -5   5   0   14.60    3.00
  -5   5   0   16.20    5.20
   4  -5   0  865.41   70.59
   4  -5   0  751.52   65.59
  -4   5   0  761.12   65.69
  -4   5   0  880.61   68.49
   3  -5   0  130.99   14.50
  -3   5   0  132.19   13.30
   2  -5   0   18.30    4.30
  -2   5   0   14.80    3.20
   1  -5   0 1572.24  133.39
  -1   5   0 1709.93  132.79
   0  -5   0 1408.36  111.49
   0   5   0 1320.67  110.59
  -1  -5   0  490.05   43.40
   1   5   0  512.45   42.70
  -2  -5   0 1222.28   98.89
   2   5   0 1159.28   97.39
  -3  -5   0   88.29   11.70
  -3  -5   0   91.89    8.80
  -3  -5   0   85.39    8.20
   3   5   0   76.79    8.20
   3   5   0   83.19   10.20
  -4  -5   0    6.60    2.20
  -4  -5   0    3.90    2.30
   4   5   0    7.80    2.30
   4   5   0    5.50    2.40
  -5  -5   0  319.67   28.20
  -5  -5   0  305.77   28.70
   5   5   0  348.17   28.10
   5   5   0  310.17   27.60
   5   5   0  357.06   28.20
  -6  -5   0   74.29    9.70
   6   5   0   93.79    9.30
   6   5   0  100.89    9.30
  -7  -5   0    5.20    2.70
   7   5   0   11.20    2.70
   7   5   0   10.00    2.60
  -8  -5   0  535.65   45.10
  -8  -5   0  494.55   44.00
   8   5   0  584.84   45.00
   8   5   0  544.35   44.50
  -9  -5   0  202.18   17.00
   9   5   0  190.18   16.80
   9   5   0  179.28   16.40
 -10  -5   0    1.10    1.60
  10   5   0    0.60    1.40
  11  -6   0    0.70    1.30
  11  -6   0    0.20    1.00
 -11   6   0    2.20    1.20
 -11   6   0    1.10    1.30
  10  -6   0  204.58   19.40
  10  -6   0  243.58   19.50
 -10   6   0  238.08   19.60
 -10   6   0  244.88   20.00
   9  -6   0  544.75   44.20
   9  -6   0  512.05   44.20
  -9   6   0  569.84   45.00
   8  -6   0   31.00    4.30
   8  -6   0   37.70    4.60
  -8   6   0   32.60    5.00
   7  -6   0   31.40    4.50
   7  -6   0   38.90    5.10
  -7   6   0   37.50    5.50
   6  -6   0  487.35   41.70
   6  -6   0  516.85   41.30
  -6   6   0  504.85   42.20
   5  -6   0   29.80    4.40
   5  -6   0   19.60    4.40
   5  -6   0   28.80    3.50
  -5   6   0   32.90    4.80
   4  -6   0  900.31   78.09
   4  -6   0 1076.89   78.99
   4  -6   0  882.01   79.09
  -4   6   0 1013.80   79.09
  -4   6   0 1012.30   81.99
   3  -6   0  462.95   38.40
   3  -6   0  365.26   34.20
   3  -6   0  421.06   33.80
  -3   6   0  426.36   36.40
  -3   6   0  399.76   33.90
   2  -6   0   88.89   10.20
   2  -6   0   66.59    6.50
   2  -6   0   60.29    6.90
  -2   6   0   81.49    8.80
   1  -6   0   92.99    9.10
   1  -6   0  102.99   11.60
  -1   6   0  102.49   10.60
   0  -6   0   13.40    2.40
   0  -6   0   17.20    4.90
   0   6   0    9.60    3.00
  -1  -6   0    5.30    1.60
  -1  -6   0    3.90    2.00
  -1  -6   0   -0.30    2.50
   1   6   0    0.80    2.40
   1   6   0    2.30    1.80
  -2  -6   0  877.41   70.79
  -2  -6   0  901.01   70.39
   2   6   0  790.42   70.59
   2   6   0  900.71   73.09
  -3  -6   0  488.25   40.50
  -3  -6   0  514.85   40.00
   3   6   0  436.86   40.10
  -4  -6   0    3.40    1.90
  -4  -6   0    5.60    2.40
   4   6   0    2.40    1.80
   4   6   0    1.60    2.10
  -5  -6   0  212.68   19.00
  -5  -6   0  157.08   18.70
   5   6   0  226.88   18.70
   5   6   0  209.88   18.20
   5   6   0  224.38   18.70
  -6  -6   0   27.50    5.80
   6   6   0   53.09    5.80
   6   6   0   48.80    5.70
  -7  -6   0    9.80    3.20
   7   6   0   18.40    3.50
   7   6   0   16.70    3.20
  -8  -6   0   14.30    2.70
  -8  -6   0   17.80    3.60
   8   6   0   17.20    3.10
   8   6   0   17.90    3.40
  -9  -6   0  182.18   16.50
   9   6   0  189.48   16.40
   9   6   0  190.88   16.20
  11  -7   0   44.80    5.70
  11  -7   0   54.49    5.30
 -11   7   0   60.19    5.70
 -11   7   0   61.09    5.40
  10  -7   0   61.39    6.20
  10  -7   0   56.09    6.30
  10  -7   0   66.19    6.10
 -10   7   0   63.29    6.30
 -10   7   0   69.29    6.60
   9  -7   0  579.34   48.60
   9  -7   0  586.34   48.70
  -9   7   0  633.44   48.90
  -9   7   0  591.14   49.20
   8  -7   0  162.68   14.60
   8  -7   0  169.08   14.70
  -8   7   0  146.09   15.00
  -8   7   0  183.28   14.80
   7  -7   0  260.77   20.80
   7  -7   0  252.07   21.00
  -7   7   0  261.37   20.90
  -7   7   0  191.98   21.00
   6  -7   0  662.13   51.89
   6  -7   0  638.94   52.59
  -6   7   0  593.74   51.99
  -6   7   0  652.43   52.99
   5  -7   0    7.90    2.90
   5  -7   0    9.10    2.00
   5  -7   0   10.10    2.60
  -5   7   0    7.80    2.30
  -5   7   0    7.90    2.10
   4  -7   0    0.90    1.30
   4  -7   0   -1.50    1.90
  -4   7   0    1.90    1.60
   3  -7   0  671.63   54.69
   3  -7   0  682.43   55.59
  -3   7   0  667.73   54.79
   2  -7   0  201.88   17.20
   2  -7   0  203.08   18.00
  -2   7   0  205.88   17.30
   1  -7   0  183.48   16.00
   1  -7   0  183.48   15.30
  -1   7   0  182.68   16.50
  -1   7   0  173.48   15.30
   0  -7   0 1620.24  122.59
   0  -7   0 1520.85  121.69
   0  -7   0 1458.05  122.49
   0   7   0 1481.65  122.89
  -1  -7   0  101.79    9.80
  -1  -7   0   96.69    9.20
   1   7   0   85.19    9.60
  -2  -7   0   94.89    8.60
  -2  -7   0   80.49    9.00
   2   7   0   73.59    8.70
  -3  -7   0   23.10    4.60
  -3  -7   0   22.80    4.00
   3   7   0   17.90    4.00
  -4  -7   0   40.60    5.70
  -4  -7   0   24.80    5.20
   4   7   0   33.10    5.30
  -5  -7   0  201.38   19.10
  -5  -7   0  190.98   19.20
   5   7   0  219.48   18.50
   5   7   0  206.28   18.30
   6   7   0  888.61   71.79
   6   7   0  870.51   71.89
  -7  -7   0   79.69    9.30
   7   7   0   86.89    8.80
   7   7   0   96.69    8.80
  -8  -7   0   84.29    8.20
  -8  -7   0   74.19    7.40
   8   7   0   76.09    7.80
   8   7   0   84.79    7.80
  -9  -7   0  239.68   20.30
  10  -8   0   -0.40    1.20
  10  -8   0   -0.30    1.10
 -10   8   0   -0.70    1.10
 -10   8   0    0.60    1.30
   9  -8   0  134.39   11.90
   9  -8   0  120.69   11.70
  -9   8   0  135.39   11.90
  -9   8   0  142.79   12.30
   8  -8   0   12.10    2.50
   8  -8   0    8.30    2.40
  -8   8   0    9.90    2.40
  -8   8   0    7.20    2.30
   7  -8   0   -1.40    1.80
   7  -8   0    1.50    1.80
  -7   8   0   -0.10    1.70
  -7   8   0    1.40    1.80
   6  -8   0  104.69   10.90
  -6   8   0  131.79   10.60
  -6   8   0   95.79   10.90
   5  -8   0  868.91   72.89
   5  -8   0  854.61   72.29
  -5   8   0  933.21   72.49
   4  -8   0    7.60    2.10
   4  -8   0    9.20    3.20
  -4   8   0    7.10    2.20
   3  -8   0  499.55   40.20
   3  -8   0  500.05   41.30
  -3   8   0  466.35   40.10
   2  -8   0  394.86   32.60
   2  -8   0  404.66   33.60
  -2   8   0  386.96   32.60
   1  -8   0  108.29    9.40
   1  -8   0  106.69   10.30
  -1   8   0   98.99    9.40
  -1   8   0  102.59   11.10
   0  -8   0   11.80    3.60
   0  -8   0    8.50    1.90
   0   8   0   11.20    3.40
  -1  -8   0  214.68   18.30
  -1  -8   0  197.48   18.90
   1   8   0  196.58   18.80
  -2  -8   0   19.80    3.80
  -2  -8   0   20.10    4.50
   2   8   0   18.20    4.30
  -3  -8   0  671.83   61.09
  -3  -8   0  786.52   60.79
  -4  -8   0   87.49    9.70
  -4  -8   0   84.49    9.10
   4   8   0   66.19    8.40
  -5  -8   0   64.79    7.90
  -5  -8   0   61.29    8.00
   5   8   0   49.10    6.60
   5   8   0   70.29    7.10
  -6  -8   0   67.19    8.00
   6   8   0   68.89    7.30
  -7  -8   0   28.90    4.30
  -7  -8   0   25.50    3.50
   7   8   0   24.50    3.70
  -8  -8   0    7.80    1.90
   8   8   0    5.80    1.80
 -10   9   0    5.90    1.60
   9  -9   0  240.78   20.20
  -9   9   0  217.38   20.00
  -9   9   0  260.97   20.60
   8  -9   0  105.69    9.70
  -8   9   0  105.09   10.10
  -8   9   0   95.89    9.50
   7  -9   0   10.60    2.80
  -7   9   0   16.30    3.40
   6  -9   0   22.60    4.30
  -6   9   0   38.70    5.30
   5  -9   0  106.39   10.70
   5  -9   0   70.79    9.20
  -5   9   0  118.39   10.10
   4  -9   0    5.90    3.00
   4  -9   0    7.90    2.20
  -4   9   0    6.40    2.30
   3  -9   0 1252.67   97.39
   3  -9   0 1165.28   95.89
  -3   9   0 1152.68   95.89
   2  -9   0  857.31   69.99
   2  -9   0  857.01   68.69
  -2   9   0  831.02   68.69
   1  -9   0    3.60    1.70
   1  -9   0    1.50    1.80
  -1   9   0    4.60    3.50
   0  -9   0   24.40    4.40
   0   9   0   39.60    6.60
  -1  -9   0   39.30    6.20
  -1  -9   0   52.19    7.60
   1   9   0   51.09    7.30
  -2  -9   0   15.80    3.60
  -2  -9   0   14.10    4.20
   2   9   0   18.00    4.30
  -3  -9   0  418.36   38.50
  -3  -9   0  473.75   38.30
   3   9   0  441.66   38.00
  -4  -9   0  414.66   34.00
  -4  -9   0  414.36   33.70
   4   9   0  320.57   32.70
   4   9   0  416.26   33.00
  -5  -9   0   16.90    4.20
  -5  -9   0   17.50    4.10
   5   9   0   20.70    3.60
   5   9   0   15.80    3.30
  -6  -9   0  141.49   13.80
   6   9   0  153.68   13.30
  -7  -9   0  191.98   17.40
  -7  -9   0  213.98   18.00
   7   9   0  219.98   17.70
   9 -10   0   18.20    3.50
   9 -10   0   15.60    2.40
  -9  10   0   18.90    2.80
   8 -10   0   38.80    6.20
   8 -10   0   46.50    5.10
  -8  10   0   51.79    5.50
   7 -10   0  273.57   22.40
  -7  10   0  240.18   22.40
   6 -10   0   21.10    4.00
  -6  10   0   20.80    4.00
   5 -10   0  766.02   64.49
   5 -10   0  787.22   63.99
  -5  10   0  782.52   63.89
   4 -10   0   87.69   10.10
   4 -10   0   98.39    9.00
  -4  10   0   77.29    8.70
   3 -10   0   26.70    3.90
   3 -10   0   21.80    4.90
  -3  10   0   24.70    3.90
   2 -10   0   34.80    5.80
   2 -10   0   35.50    4.70
   1 -10   0   24.40    4.90
   1 -10   0   40.20    4.50
   0 -10   0    5.60    2.50
   0  10   0    7.20    3.60
  -1 -10   0  166.88   15.90
  -2 -10   0  822.32   75.19
  -2 -10   0  927.51   75.09
   2  10   0  976.20   75.09
  -3 -10   0   64.29    8.00
  -3 -10   0   57.99    8.30
   3  10   0   70.49    7.60
   3  10   0   62.59    7.40
  -4 -10   0   18.50    4.30
  -4 -10   0   17.80    4.50
   4  10   0   16.90    3.30
   4  10   0   20.50    3.60
  -5 -10   0    7.80    3.60
  -5 -10   0    6.90    2.80
   5  10   0    8.90    2.20
   5  10   0   10.60    2.60
   6  10   0   53.89    6.80
   8 -11   0    3.30    1.50
   7 -11   0   12.60    2.60
  -7  11   0   11.40    2.70
   6 -11   0    1.30    1.80
  -6  11   0    3.70    2.00
   5 -11   0  201.48   18.40
   5 -11   0  215.18   17.80
  -5  11   0  183.48   17.60
   4 -11   0   74.99    8.60
   4 -11   0   61.79    6.90
  -4  11   0   62.19    6.90
   3 -11   0    1.30    1.60
   3 -11   0    0.90    2.60
   2 -11   0  377.96   30.10
   2 -11   0  306.27   28.00
   1 -11   0    6.60    2.80
   0 -11   0   50.89    6.70
  -1 -11   0  114.39   11.50
   1  11   0  106.89   11.30
  -2 -11   0   20.80    4.40
   2  11   0   18.50    3.90
   2  11   0   21.30    4.00
  -3 -11   0    0.60    2.30
   3  11   0    0.20    1.60
   3  11   0    5.40    2.20
  -4 -11   0  266.37   29.60
   4  11   0  332.67   27.10
   4  11   0  353.36   27.20
   6 -12   0  191.98   17.10
   5 -12   0  141.29   12.80
   4 -12   0    0.10    1.80
   4 -12   0   -0.50    2.50
   3 -12   0   15.40    4.00
   3 -12   0    9.00    3.70
   2 -12   0   26.00    5.20
  -2  12   0   20.90    4.30
   1 -12   0  148.69   15.20
  -1  12   0  171.38   15.30
   0 -12   0  135.69   13.60
   0  12   0  148.09   13.80
  -1 -12   0   11.20    3.50
   1  12   0   14.80    3.00
  -2 -12   0  234.98   21.70
   2  12   0  258.27   21.10
   2  12  -1   69.89    7.10
  -2 -12   1   61.59    7.50
   1  12  -1    7.30    2.70
  -1 -12   1    5.30    2.50
   0  12  -1  110.09   10.50
   0 -12   1   89.59   10.10
  -1  12  -1  262.27   23.30
   1 -12   1  265.67   23.60
  -2  12  -1   19.10    4.00
   2 -12   1   21.50    4.40
   3 -12   1  195.28   18.50
   4 -12   1    0.00    1.70
   4 -12   1   -0.50    2.50
  -5  12  -1   29.00    4.40
   5 -12   1   36.20    4.70
   5 -12   1   40.00    5.60
   6 -12   1   50.79    5.70
   4  11  -1    7.30    2.10
   4  11  -1   11.40    2.30
  -4 -11   1    6.80    2.80
  -4 -11   1    7.40    5.50
   3  11  -1  148.69   13.20
   3  11  -1  147.59   13.10
  -3 -11   1  146.09   13.90
  -3 -11   1  123.29   13.80
   2  11  -1  207.98   17.40
   2  11  -1  187.58   17.10
  -2 -11   1  195.38   17.80
  -2 -11   1  169.78   17.80
   1  11  -1  104.79   11.40
   1  11  -1  128.19   12.10
  -1 -11   1  116.49   11.80
   0  11  -1   74.79    9.00
   0 -11   1   52.29    7.10
   1 -11   1   54.39    7.00
   2 -11   1   24.10    4.70
  -3  11  -1  321.37   28.50
   3 -11   1  396.96   30.50
   3 -11   1  320.87   28.50
  -4  11  -1  222.98   20.00
   4 -11   1  218.88   19.90
   4 -11   1  259.37   21.70
  -5  11  -1   66.39    7.30
   5 -11   1   66.39    8.10
   5 -11   1   67.89    7.20
  -6  11  -1    2.00    2.20
   6 -11   1    6.00    2.10
  -7  11  -1  103.59   10.60
   7 -11   1  120.19   10.50
  -8  11  -1   66.69    6.70
   8 -11   1   64.99    6.40
   6  10  -1    3.90    1.60
  -6 -10   1    1.70    2.00
   5  10  -1  283.17   24.30
   5  10  -1  296.07   24.40
  -5 -10   1  284.97   25.10
   4  10  -1   17.80    3.30
   4  10  -1   16.10    3.30
  -4 -10   1   18.60    4.40
  -4 -10   1   14.20    4.00
   3  10  -1   36.40    5.10
   3  10  -1   31.10    4.80
  -3 -10   1   25.70    5.60
  -3 -10   1   30.80    5.50
   2  10  -1   67.89    9.00
   2  10  -1   96.69    9.50
  -2 -10   1   81.49   10.20
  -2 -10   1   88.99    9.50
   1  10  -1  267.47   22.80
  -1 -10   1  237.88   22.20
  -1 -10   1  241.98   23.10
   0  10  -1  263.07   21.60
   0 -10   1  248.98   21.90
   0 -10   1  196.98   20.50
   1 -10   1  475.95   40.40
  -2  10  -1  669.13   52.19
   2 -10   1  674.23   52.09
   2 -10   1  562.74   53.19
  -3  10  -1   30.50    4.40
   3 -10   1   26.40    4.00
   3 -10   1   38.10    6.10
  -4  10  -1  101.09   10.50
   4 -10   1  123.49   12.30
   4 -10   1  111.19   10.60
  -5  10  -1   55.99    6.60
   5 -10   1   54.39    7.70
   5 -10   1   56.49    6.60
  -6  10  -1   11.40    2.90
   6 -10   1   10.80    3.30
   6 -10   1    8.80    2.60
  -7  10  -1  180.18   16.90
   7 -10   1  194.68   16.80
  -8  10  -1  358.76   29.90
   8 -10   1  352.36   29.60
  -9  10  -1   10.50    2.00
   9 -10   1    6.50    1.70
   7   9  -1   34.70    3.90
  -7  -9   1   29.50    3.70
  -7  -9   1   27.30    4.20
   6   9  -1   16.70    3.00
   6   9  -1   12.40    2.90
  -6  -9   1   13.70    3.50
   5   9  -1  255.67   22.40
   5   9  -1  263.97   22.40
  -5  -9   1  257.67   23.50
   4   9  -1  206.98   20.00
   4   9  -1  245.98   20.20
  -4  -9   1  213.58   21.20
  -4  -9   1  241.28   20.90
   3   9  -1    4.20    2.20
   3   9  -1    2.70    2.20
  -3  -9   1    4.70    3.10
  -3  -9   1    4.80    2.50
   2   9  -1    3.10    2.50
  -2  -9   1    2.50    2.00
  -2  -9   1    5.10    3.10
   1   9  -1   58.29    7.90
  -1  -9   1   52.89    7.80
  -1  -9   1   49.90    6.30
   0   9  -1    4.30    3.50
   0  -9   1    1.70    1.70
   0  -9   1    2.40    2.80
  -1   9  -1   71.89    7.20
   1  -9   1   76.29    7.20
   1  -9   1   66.69    7.90
   1  -9   1   76.09    8.60
  -2   9  -1  689.63   53.29
   2  -9   1  589.04   54.09
   2  -9   1  673.93   53.19
  -3   9  -1  196.68   17.20
   3  -9   1  186.08   17.00
   3  -9   1  211.08   18.60
  -4   9  -1   39.90    5.40
   4  -9   1   49.30    7.20
   4  -9   1   37.30    5.30
  -5   9  -1   40.80    5.70
   5  -9   1   56.39    7.50
   5  -9   1   34.00    5.40
  -6   9  -1   60.29    7.60
  -6   9  -1   72.99    7.10
   6  -9   1   56.09    7.30
   6  -9   1   84.09    8.40
  -7   9  -1   17.50    3.20
  -7   9  -1   16.60    3.50
   7  -9   1   19.80    3.60
  -8   9  -1  447.56   35.40
  -8   9  -1  388.36   34.70
   8  -9   1  427.26   35.00
  -9   9  -1   18.90    2.80
  -9   9  -1   18.80    3.00
   9  -9   1   17.10    2.80
 -10   9  -1  238.08   19.40
  10  -9   1  223.48   19.50
   8   8  -1    1.40    1.30
  -8  -8   1    2.30    1.70
   7   8  -1  640.94   50.79
  -7  -8   1  596.94   51.39
   6   8  -1  114.99   10.60
   6   8  -1  116.59   10.70
  -6  -8   1   98.69   11.40
   5   8  -1  109.79   11.60
   5   8  -1  138.99   11.90
  -5  -8   1  123.49   12.70
   4   8  -1  289.37   22.40
   4   8  -1  205.58   21.80
  -4  -8   1  288.57   22.80
  -4  -8   1  229.48   22.90
   3   8  -1  325.77   31.10
  -3  -8   1  392.26   31.30
  -3  -8   1  371.36   31.90
   2   8  -1   57.49    7.00
  -2  -8   1   52.79    6.20
  -2  -8   1   46.30    7.00
   1   8  -1  896.91   76.59
  -1  -8   1  930.21   75.89
  -1  -8   1  963.20   76.29
   0   8  -1  704.63   62.59
   0   8  -1  778.42   61.09
   0  -8   1  744.63   61.79
   0  -8   1  783.42   62.09
  -1   8  -1   40.70    4.60
   1  -8   1   42.90    5.10
   1  -8   1   38.90    4.40
  -2   8  -1  482.95   39.30
   2  -8   1  473.65   40.20
   2  -8   1  479.35   39.20
  -3   8  -1  215.98   18.50
   3  -8   1  218.58   19.50
   3  -8   1  209.48   18.40
  -4   8  -1   17.80    3.20
   4  -8   1   12.60    3.60
   4  -8   1   14.50    2.90
  -5   8  -1  982.60   76.59
  -5   8  -1  881.21   75.49
   5  -8   1  916.61   76.99
   5  -8   1  968.30   76.49
  -6   8  -1  146.89   14.10
   6  -8   1  148.49   13.90
  -7   8  -1    3.70    1.90
  -7   8  -1    2.90    1.80
   7  -8   1    3.70    2.00
  -8   8  -1  766.62   58.19
   8  -8   1  642.44   57.79
   8  -8   1  733.23   58.19
  -9   8  -1    2.50    1.60
  -9   8  -1    0.00    1.40
   9  -8   1    1.20    1.30
   9  -8   1    4.40    1.80
 -10   8  -1   50.49    5.20
 -10   8  -1   52.29    5.40
  10  -8   1   48.80    5.10
  10  -8   1   52.49    5.20
  -9  -7   1    1.50    1.50
   8   7  -1   21.80    3.70
   8   7  -1   25.90    3.60
  -8  -7   1   17.20    3.10
  -8  -7   1   24.80    4.00
   7   7  -1   31.60    4.60
   7   7  -1   29.40    4.30
  -7  -7   1   24.80    4.70
   6   7  -1  405.76   35.80
  -6  -7   1  454.95   37.20
   5   7  -1   70.69    8.00
   5   7  -1   83.79    8.30
  -5  -7   1   92.79    9.10
  -5  -7   1   55.99    9.10
   4   7  -1  131.89   11.70
   4   7  -1  106.29   11.50
  -4  -7   1  134.39   12.10
  -4  -7   1  109.09   12.30
  -3  -7   1  155.18   14.40
  -3  -7   1  160.18   15.10
   2   7  -1   67.39    7.90
  -2  -7   1   71.19    7.90
  -2  -7   1   72.49    7.30
   1   7  -1   71.69    8.60
  -1  -7   1   79.69    7.80
  -1  -7   1   88.59    8.50
   0   7  -1  114.89   12.30
   0   7  -1  127.39   10.90
   0   7  -1  119.59   13.50
   0  -7   1  132.79   11.60
  -1   7  -1  127.09   14.20
  -1   7  -1  143.69   12.00
   1  -7   1  136.29   11.80
   1  -7   1  141.59   12.60
  -2   7  -1  395.06   37.20
  -2   7  -1  352.66   34.80
  -2   7  -1  458.75   34.80
   2  -7   1  446.86   35.50
   2  -7   1  459.75   34.80
  -3   7  -1  982.40   76.59
  -3   7  -1  819.42   75.89
   3  -7   1 1005.60   76.59
   3  -7   1  993.00   77.39
  -4   7  -1   10.40    2.00
  -4   7  -1   13.00    2.60
   4  -7   1   10.40    2.50
   4  -7   1   10.00    3.20
  -5   7  -1   98.59    9.60
  -5   7  -1  112.39   10.50
   5  -7   1  117.19   10.60
   5  -7   1   95.49   10.80
  -6   7  -1   18.30    4.00
  -6   7  -1   25.40    3.90
   6  -7   1   24.70    4.60
   6  -7   1   33.30    4.10
   6  -7   1   27.70    4.50
  -7   7  -1   55.99    6.80
  -7   7  -1   61.59    6.50
   7  -7   1   63.39    6.40
   7  -7   1   52.79    6.40
  -8   7  -1  222.78   18.70
  -8   7  -1  192.38   18.90
   8  -7   1  224.38   18.50
   8  -7   1  216.78   18.60
  -9   7  -1  317.67   26.50
  -9   7  -1  316.27   26.90
   9  -7   1  313.37   26.50
   9  -7   1  320.47   26.40
 -10   7  -1   13.70    2.40
 -10   7  -1   16.20    2.80
  10  -7   1   12.40    2.30
  10  -7   1   11.60    2.20
 -11   7  -1   24.90    3.10
 -11   7  -1   24.50    3.30
  11  -7   1   24.50    3.60
  11  -7   1   31.10    3.20
   9   6  -1  495.05   41.10
   9   6  -1  503.95   40.90
  -9  -6   1  500.65   41.40
   8   6  -1  143.69   13.30
   8   6  -1  148.29   13.10
  -8  -6   1  140.69   13.80
   7   6  -1  155.88   14.60
   7   6  -1  163.78   14.50
   6   6  -1    0.40    2.00
   6   6  -1    0.50    1.80
   6   6  -1    1.20    1.50
  -6  -6   1    3.10    2.50
   5   6  -1  187.08   16.80
   5   6  -1  191.68   16.70
   5   6  -1  186.48   16.90
   4   6  -1  246.58   23.40
   4   6  -1  284.47   23.30
  -4  -6   1  259.17   23.70
  -4  -6   1  277.27   23.20
   3   6  -1 1037.10   87.69
  -3  -6   1 1103.69   87.29
  -3  -6   1 1095.39   87.89
   2   6  -1  294.17   26.30
   2   6  -1  244.38   24.10
  -2  -6   1  294.87   23.90
  -2  -6   1  296.67   24.30
   1   6  -1  525.75   42.30
   1   6  -1  409.36   40.40
  -1  -6   1  531.95   43.40
  -1  -6   1  496.05   40.10
   0   6  -1  115.89   11.30
   0  -6   1   91.69    9.50
   0  -6   1  114.29   12.10
  -1   6  -1    2.00    1.70
   1  -6   1   -0.20    1.00
   1  -6   1    1.60    1.80
  -2   6  -1   20.50    4.30
  -2   6  -1   24.50    2.80
   2  -6   1   20.40    3.30
   2  -6   1   21.30    4.90
  -3   6  -1  877.31   72.19
  -3   6  -1  799.62   69.79
   3  -6   1  870.21   69.89
   3  -6   1  924.01   74.09
  -4   6  -1  738.73   58.09
  -4   6  -1  671.43   60.59
  -4   6  -1  668.43   57.39
   4  -6   1  771.12   58.19
  -5   6  -1  524.95   41.60
   5  -6   1  507.25   41.40
   5  -6   1  467.05   40.60
  -6   6  -1  514.55   44.60
   6  -6   1  581.54   44.40
   6  -6   1  506.75   43.70
  -7   6  -1  331.07   28.50
   7  -6   1  327.77   28.00
   7  -6   1  331.67   27.70
  -8   6  -1   17.80    3.50
   8  -6   1   27.10    3.80
   8  -6   1   23.10    3.50
  -9   6  -1   71.19    7.40
   9  -6   1   72.69    6.90
   9  -6   1   64.89    6.90
 -10   6  -1  304.27   24.10
 -10   6  -1  281.77   24.30
  10  -6   1  296.17   24.00
  10  -6   1  270.87   23.90
 -11   6  -1  118.29   11.30
 -11   6  -1  139.89   11.20
  11  -6   1  128.39   11.10
  10   5  -1    2.80    1.60
 -10  -5   1    2.20    1.70
   9   5  -1   17.70    3.10
   9   5  -1   16.90    3.30
  -9  -5   1   20.40    3.70
   8   5  -1  518.55   43.50
   8   5  -1  533.15   43.30
  -8  -5   1  520.15   44.10
   7   5  -1  410.56   32.40
   7   5  -1  422.96   32.30
  -7  -5   1  303.57   32.70
   6   5  -1 1017.90   79.19
   6   5  -1  993.40   79.19
  -6  -5   1  900.61   80.09
   5   5  -1  697.13   54.39
   5   5  -1  649.64   53.99
   5   5  -1  694.43   54.39
  -5  -5   1  596.34   54.99
   4   5  -1   14.00    2.90
   4   5  -1   17.70    3.30
   4   5  -1   20.30    6.90
  -4  -5   1   15.80    3.50
  -4  -5   1   15.30    3.00
   3   5  -1  207.88   20.60
   3   5  -1  196.88   18.80
  -3  -5   1  237.48   22.70
  -3  -5   1  212.38   18.50
  -3  -5   1  244.38   19.20
   2   5  -1  165.08   16.00
  -2  -5   1  171.58   17.30
   1   5  -1  245.18   21.70
  -1  -5   1  238.28   22.40
   0   5  -1 2635.54  203.68
   0  -5   1 2431.26  204.18
  -1   5  -1 1517.25  118.49
   1  -5   1 1408.26  119.09
  -2   5  -1  330.27   27.80
   2  -5   1  308.37   28.60
  -3   5  -1  572.24   47.70
   3  -5   1  556.04   49.00
  -4   5  -1    4.40    2.60
  -4   5  -1    4.40    1.60
   4  -5   1    2.20    3.20
   4  -5   1    0.30    1.60
  -5   5  -1   88.79    8.80
  -5   5  -1   93.09   11.80
   5  -5   1   84.59    8.60
   5  -5   1   83.99    8.10
  -6   5  -1 1140.59   90.39
   6  -5   1 1054.09   89.49
   6  -5   1 1142.29   89.99
  -7   5  -1  303.77   25.70
   7  -5   1  303.97   25.00
   7  -5   1  285.37   25.10
  -8   5  -1    1.30    1.70
   8  -5   1    2.60    1.50
   8  -5   1    1.80    1.50
  -9   5  -1   73.19    7.90
   9  -5   1   78.39    7.40
   9  -5   1   75.69    7.50
 -10   5  -1   21.70    3.50
  10  -5   1   19.10    3.20
  10  -5   1   25.60    3.20
 -11   5  -1   10.80    2.10
  11  -5   1    9.70    1.80
 -12   5  -1  112.09    9.90
  12  -5   1  116.19    9.80
  11   4  -1  528.95   43.90
  10   4  -1   97.09    9.20
 -10  -4   1   90.99    9.10
   9   4  -1   69.09    7.10
   9   4  -1   72.19    7.50
  -9  -4   1   66.29    7.70
   8   4  -1    5.00    1.90
   8   4  -1    6.10    2.20
  -8  -4   1    6.10    2.60
   7   4  -1  238.48   20.70
   7   4  -1  240.78   21.00
  -7  -4   1  243.18   21.90
   6   4  -1  248.98   20.70
   6   4  -1  244.08   20.90
  -6  -4   1  224.78   21.50
   5   4  -1  737.33   62.49
   5   4  -1  824.62   62.99
   5   4  -1  793.52   62.99
  -5  -4   1  730.43   63.59
   4   4  -1  302.27   25.60
   4   4  -1  319.07   25.80
   4   4  -1  269.97   27.90
  -4  -4   1  265.77   29.20
  -4  -4   1  359.86   26.40
   3   4  -1  313.27   28.00
  -3  -4   1  319.27   29.20
   2   4  -1 1126.19   91.39
  -2  -4   1 1117.09   92.39
   1   4  -1  205.38   17.70
  -1  -4   1  195.58   18.30
   0   4  -1   63.09    6.60
   0  -4   1   62.39    6.90
   0  -4   1   66.29    7.10
  -1   4  -1  284.47   24.90
   1  -4   1  321.17   25.80
   1  -4   1  280.37   25.00
  -2   4  -1  365.16   29.60
   2  -4   1  367.26   30.40
   2  -4   1  314.97   29.50
  -3   4  -1 1178.48   96.39
   3  -4   1 1188.98   97.69
  -4   4  -1 2899.31  228.38
   4  -4   1 2756.32  230.18
  -5   4  -1   73.99    7.60
  -5   4  -1   85.59   10.70
   5  -4   1   59.79    7.00
   5  -4   1   79.29   14.30
   5  -4   1   89.19    7.80
  -6   4  -1  105.29   15.80
  -6   4  -1  139.89   12.40
   6  -4   1  140.59   12.10
   6  -4   1  135.89   11.70
  -7   4  -1    7.70    2.50
   7  -4   1    8.00    2.10
   7  -4   1    8.20    1.90
  -8   4  -1   14.60    3.00
   8  -4   1   13.60    2.70
   8  -4   1   11.40    2.20
  -9   4  -1  163.48   13.90
   9  -4   1  144.59   13.50
 -10   4  -1  822.82   58.49
  10  -4   1  614.94   57.89
 -11   4  -1   71.49    6.90
  11  -4   1   73.79    6.90
 -12   4  -1  410.56   33.70
  12  -4   1  423.06   33.90
  12  -4   1  409.86   33.70
  11   3  -1   23.60    3.50
  10   3  -1   89.09    8.80
 -10  -3   1   86.29    8.70
   9   3  -1   28.90    4.50
  -9  -3   1   35.00    4.90
   8   3  -1  785.02   74.29
   8   3  -1  969.50   74.19
  -8  -3   1 1000.50   74.99
   7   3  -1 1128.39   91.29
   7   3  -1 1119.99   90.79
  -7  -3   1 1129.19   91.79
   6   3  -1    4.30    1.70
   6   3  -1    4.00    1.60
  -6  -3   1    4.30    2.20
   5   3  -1  607.24   48.80
   5   3  -1  619.04   48.50
  -5  -3   1  551.74   49.10
   4   3  -1   79.19    9.70
  -4  -3   1   64.79    9.90
   3   3  -1  194.38   17.50
  -3  -3   1  175.28   17.90
   2   3  -1 2540.95  197.28
  -2  -3   1 2467.45  197.78
  -2  -3   1 2362.56  197.78
   1   3  -1 2380.76  188.78
  -1  -3   1 2337.47  189.18
   0   3  -1    4.30    1.40
   0   3  -1    5.30    1.90
   0  -3   1    4.30    1.50
   0  -3   1    2.00    1.20
  -1   3  -1 2327.67  197.38
  -1   3  -1 2599.84  196.98
  -2   3  -1  639.84   51.29
   2  -3   1  628.84   51.29
   2  -3   1  612.44   51.89
  -3   3  -1  162.18   14.30
   3  -3   1  125.39   13.60
   3  -3   1  170.88   15.60
  -4   3  -1  725.33   59.09
   4  -3   1  668.93   60.79
  -5   3  -1  661.23   54.59
   5  -3   1  585.54   56.79
  -6   3  -1   28.20    7.60
  -6   3  -1   22.30    3.90
   6  -3   1   29.80    3.60
  -7   3  -1 1294.57  103.99
   7  -3   1 1345.17  103.49
   7  -3   1 1226.58  103.59
  -8   3  -1  474.05   36.60
   8  -3   1  450.35   36.20
   8  -3   1  395.76   35.90
  -9   3  -1   57.09    5.70
   9  -3   1   37.20    4.70
  10  -3   1    3.00    1.30
  11  -3   1   53.09    5.40
 -12   3  -1   22.70    2.80
  12  -3   1   23.00    3.10
  11   2  -1  298.57   25.30
  10   2  -1  167.68   14.70
 -10  -2   1  151.08   14.20
   9   2  -1   78.29    8.10
   8   2  -1  319.67   26.70
   8   2  -1  336.27   27.30
  -8  -2   1  299.07   27.10
   7   2  -1  171.58   14.80
   7   2  -1  174.98   15.30
  -7  -2   1  165.88   15.60
   6   2  -1  153.18   12.90
   6   2  -1  122.49   17.70
   6   2  -1  135.19   12.30
  -6  -2   1  149.19   13.30
   5   2  -1  971.10   71.69
   5   2  -1  859.01   75.69
  -5  -2   1  796.82   76.29
   4   2  -1 1279.27   99.19
  -4  -2   1 1101.69   99.49
   3   2  -1   60.89    7.30
  -3  -2   1   58.89    7.60
  -3  -2   1   65.69    8.70
   2   2  -1   20.00    3.20
   2   2  -1   22.00    3.10
  -2  -2   1   24.90    3.70
  -2  -2   1   14.00    3.10
   1   2  -1  155.08   13.90
   1   2  -1  162.18   14.20
  -1  -2   1  165.08   14.20
   0   2  -1 1110.79   90.19
   0   2  -1 1112.69   89.89
   0  -2   1 1142.19   89.99
  -1   2  -1 1935.41  154.38
  -1   2  -1 1843.72  153.98
   1  -2   1 2008.90  154.18
  -2   2  -1 5242.48  417.26
  -2   2  -1 5468.35  417.06
   2  -2   1 4981.70  416.76
  -3   2  -1   38.60    4.90
   3  -2   1   34.50    6.50
   3  -2   1   30.40    4.50
  -4   2  -1  712.53   56.69
   4  -2   1  619.44   58.19
  -5   2  -1    6.60    3.60
   5  -2   1    5.00    4.40
  -6   2  -1   48.70    9.00
   6  -2   1   48.90   11.50
   6  -2   1   41.00    4.40
  -7   2  -1  506.75   42.90
  -7   2  -1  527.95   42.90
   7  -2   1  566.74   42.50
   7  -2   1  486.85   42.70
  -8   2  -1 1059.89   92.29
  -8   2  -1 1181.78   92.49
   8  -2   1 1115.79   92.29
   8  -2   1 1220.68   92.09
   9  -2   1    2.80    1.90
   9  -2   1    1.60    1.20
  10  -2   1  340.67   29.50
  10  -2   1  371.66   30.10
  11  -2   1  280.97   23.40
  12  -2   1   32.50    3.80
  12  -2   1   32.80    3.50
  12   1  -1  123.49   11.20
  11   1  -1   78.59    7.90
  10   1  -1 1139.99   92.59
  10   1  -1 1143.29   91.99
   9   1  -1  821.82   66.69
  -9  -1   1  833.12   67.39
   8   1  -1  302.27   25.90
   8   1  -1  341.67   26.90
  -8  -1   1  298.87   26.60
   7   1  -1  253.87   20.70
   7   1  -1  239.08   19.90
   7   1  -1  227.48   20.00
  -7  -1   1  234.78   20.60
   6   1  -1   63.69   11.60
   6   1  -1   65.79    6.60
   6   1  -1   71.59    6.70
   6   1  -1   79.09    7.20
  -6  -1   1   71.39    7.30
   5   1  -1    7.30    4.50
  -5  -1   1    5.00    3.80
   4   1  -1  708.63   59.09
  -4  -1   1  660.93   58.79
   3   1  -1 3022.50  242.48
  -3  -1   1 2999.30  243.38
   2   1  -1  586.14   51.99
   2   1  -1  631.94   52.19
  -2  -1   1  686.13   53.09
   1   1  -1 2193.48  185.38
   1   1  -1 2288.47  185.48
  -1  -1   1 2483.15  185.68
   0   1  -1  371.96   30.90
   0   1  -1  383.76   31.00
   0  -1   1  395.66   30.90
  -1   1  -1   -6.90    1.10
  -1   1  -1   -4.00    1.50
   1  -1   1   -9.30    0.80
  -2   1  -1    2.50    1.80
  -2   1  -1    1.10    1.00
   2  -1   1    0.30    1.30
   2  -1   1    1.40    1.20
  -3   1  -1 1184.98   90.09
  -3   1  -1 1028.20   88.09
   3  -1   1 1035.90   88.39
  -4   1  -1  771.42   62.19
   4  -1   1  699.93   63.49
  -5   1  -1 4946.51  392.16
   5  -1   1 4810.12  393.86
  -6   1  -1  690.03   51.99
  -6   1  -1  527.55   47.00
   6  -1   1  532.45   47.00
   6  -1   1  553.84   46.80
   6  -1   1  643.04   53.39
  -7   1  -1   18.00    3.20
   7  -1   1   21.60    3.00
   7  -1   1   25.80    3.60
  -8   1  -1  330.57   28.20
   8  -1   1  324.57   28.10
   8  -1   1  350.46   27.80
  -9   1  -1   41.50    5.30
   9  -1   1   43.30    4.70
   9  -1   1   42.70    5.20
  10  -1   1   41.50    5.30
  10  -1   1   45.10    4.80
  11  -1   1  873.21   69.69
  11  -1   1  854.91   70.19
  12  -1   1  184.48   15.40
  12   0  -1  430.86   35.40
  11   0  -1   76.49    7.20
  11   0  -1   67.09    6.80
  11   0  -1   78.69    7.70
  10   0  -1   59.19    6.40
  10   0  -1   51.59    5.60
   9   0  -1   72.39    7.50
   9   0  -1   68.99    6.80
   8   0  -1    1.90    1.40
   8   0  -1    1.00    1.10
  -8   0   1    2.20    2.30
   7   0  -1   37.00    4.10
   7   0  -1   42.60    4.70
  -7   0   1   33.50    4.70
   6   0  -1 1705.43  142.69
   6   0  -1 1609.74  136.99
   6   0  -1 1632.74  137.49
  -6   0   1 1934.51  142.49
   5   0  -1  314.77   31.70
  -5   0   1  342.27   30.80
   4   0  -1 1257.77  103.99
  -4   0   1 1232.28  102.59
   3   0  -1  142.99   14.00
   3   0  -1  124.49   14.90
  -3   0   1  148.09   15.70
   2   0  -1    2.30    1.50
   2   0  -1    2.60    2.20
  -2   0   1    0.10    1.10
  -2   0   1    3.70    2.50
   1   0  -1  323.87   31.00
  -1   0   1  419.46   30.70
   0   0  -1  186.78   16.40
   0   0   1  219.48   16.40
  -1   0  -1   -5.50    1.50
  -1   0  -1   -0.30    2.20
   1   0   1   -1.70    1.80
   1   0   1    1.40    2.00
  -2   0  -1 1104.19   92.69
   2   0   1 1182.08   92.79
  -3   0  -1 2228.48  171.78
  -3   0  -1 1992.50  172.68
   3   0   1 2285.47  171.68
   3   0   1 1979.70  172.38
  -4   0  -1   42.50    6.80
   4   0   1   37.60    7.80
  -5   0  -1  427.86   38.30
   5   0   1  416.46   39.00
  -6   0  -1  497.65   42.40
  -6   0  -1  588.74   47.60
   6   0   1  499.25   42.10
   6   0   1  533.95   47.50
   6   0   1  498.15   42.50
  -7   0  -1    0.50    1.30
   7   0   1    1.20    1.30
   7   0   1    1.00    1.20
  -8   0  -1  617.24   51.19
   8   0   1  623.44   50.69
   8   0   1  630.94   51.29
  -9   0  -1  396.86   33.90
   9   0   1  402.06   33.40
   9   0   1  417.26   34.10
 -10   0  -1   10.40    2.60
  10   0   1    8.90    2.00
  10   0   1   10.30    2.50
  11   0   1   13.50    2.40
  11   0   1   16.30    3.00
  12  -1  -1  347.37   28.70
  12  -1  -1  371.06   28.50
  12  -1  -1  323.77   28.20
  11  -1  -1  310.87   26.60
  11  -1  -1  307.47   25.90
  11  -1  -1  326.27   26.30
  10  -1  -1  632.34   50.59
  10  -1  -1  611.44   51.19
   9  -1  -1  715.63   58.89
   9  -1  -1  757.72   59.69
  -9   1   1  707.13   59.59
   8  -1  -1    4.80    1.50
   8  -1  -1    5.10    2.00
  -8   1   1    6.50    2.50
   7  -1  -1  191.88   16.50
   7  -1  -1  196.58   16.00
  -7   1   1  174.18   16.70
   6  -1  -1  349.67   29.70
   6  -1  -1  337.27   30.10
   6  -1  -1  402.06   36.70
  -6   1   1  384.06   34.30
   5  -1  -1  340.57   34.70
  -5   1   1  381.16   33.30
   4  -1  -1 1209.28  107.09
  -4   1   1 1353.36  105.59
   3  -1  -1 2802.72  223.28
   3  -1  -1 2623.94  224.78
  -3   1   1 2905.11  224.78
   2  -1  -1   74.29    8.70
   2  -1  -1   93.99    8.10
  -2   1   1   88.49    8.60
   1  -1  -1  340.27   28.50
  -1   1   1  353.96   28.30
   0  -1  -1   13.30    1.90
   0   1   1   12.90    2.10
  -1  -1  -1  258.17   21.60
   1   1   1  257.97   21.50
  -2  -1  -1  939.31   74.09
  -2  -1  -1 1037.30   74.89
   2   1   1  771.32   73.69
   2   1   1  899.11   73.89
  -3  -1  -1 2977.80  244.28
   3   1   1 2967.00  244.28
   3   1   1 3160.88  244.08
  -4  -1  -1  163.78   17.70
   4   1   1  177.48   18.00
  -5  -1  -1 2009.10  161.38
   5   1   1 1902.11  160.98
  -6  -1  -1  733.73   63.19
  -6  -1  -1  695.13   57.49
   6   1   1  684.33   56.99
   6   1   1  714.53   57.59
  -7  -1  -1   16.50    3.10
   7   1   1   16.60    2.60
   7   1   1   16.90    3.20
  -8  -1  -1  161.88   15.40
   8   1   1  170.98   14.90
   8   1   1  185.28   15.70
  -9  -1  -1  349.96   29.80
   9   1   1  366.86   30.00
   9   1   1  340.47   29.10
 -10  -1  -1  347.87   29.40
  10   1   1  330.47   28.70
  10   1   1  368.46   29.70
 -11  -1  -1  574.74   50.79
  11   1   1  676.93   51.29
  12  -2  -1  159.38   13.10
  12  -2  -1  143.99   12.70
  11  -2  -1   24.00    3.60
  11  -2  -1   21.40    3.20
  11  -2  -1   19.50    2.80
  10  -2  -1   70.79    7.60
  10  -2  -1   77.59    7.10
 -10   2   1   69.69    7.60
   9  -2  -1  459.15   37.10
   9  -2  -1  436.96   36.40
  -9   2   1  432.46   37.10
   8  -2  -1 1004.80   79.79
   8  -2  -1 1010.80   79.19
  -8   2   1  927.21   79.79
   7  -2  -1  121.89   10.40
   7  -2  -1  116.69   10.90
  -7   2   1  109.29   11.10
   6  -2  -1  973.00   79.59
   6  -2  -1  988.20   87.09
   6  -2  -1  895.11   79.99
  -6   2   1 1127.19   85.09
  -6   2   1  989.20   80.29
   5  -2  -1  564.54   53.69
  -5   2   1  611.64   51.49
   4  -2  -1   40.80    8.70
  -4   2   1   49.10    6.70
   3  -2  -1   42.30    6.40
  -3   2   1   38.50    5.70
  -3   2   1   43.40    5.30
   2  -2  -1 1928.01  159.28
   2  -2  -1 1959.00  158.58
  -2   2   1 2054.39  159.18
   1  -2  -1   55.69    5.80
   1  -2  -1   56.89    6.10
  -1   2   1   55.49    6.10
   0  -2  -1 3735.33  355.36
   0  -2  -1 4753.82  355.36
   0   2   1 4886.61  355.76
  -1  -2  -1 1423.06  128.49
  -1  -2  -1 1640.04  128.49
   1   2   1 1736.93  128.69
  -2  -2  -1  645.44   53.99
  -2  -2  -1  731.23   56.19
   2   2   1  683.73   54.09
   2   2   1  574.24   53.49
  -3  -2  -1  446.16   38.10
   3   2   1  433.76   37.70
  -4  -2  -1   29.60    6.70
   4   2   1   27.80    5.80
  -5  -2  -1    4.20    3.90
  -5  -2  -1    5.60    2.20
   5   2   1    3.50    3.70
   5   2   1    2.50    1.60
  -6  -2  -1 1303.37   99.39
   6   2   1 1098.99   98.49
   6   2   1 1393.76   99.49
   6   2   1 1123.69   98.29
  -7  -2  -1  562.74   49.99
  -7  -2  -1  664.23   51.09
   7   2   1  668.73   51.09
   7   2   1  586.34   50.09
  -8  -2  -1    3.50    1.90
   8   2   1    4.30    1.70
   8   2   1    2.20    1.60
  -9  -2  -1  105.79    9.20
   9   2   1   97.99    8.30
   9   2   1   68.69    8.70
 -10  -2  -1  364.96   30.70
  10   2   1  365.56   30.90
 -11  -2  -1    6.00    2.10
  11   2   1    9.00    2.10
  12  -3  -1   99.09    8.60
  12  -3  -1   90.79    8.30
  11  -3  -1  884.11   68.99
  11  -3  -1  941.71   69.39
 -11   3   1  748.23   69.09
  10  -3  -1  187.38   15.40
  10  -3  -1  139.49   14.60
 -10   3   1  191.08   15.50
   9  -3  -1    4.20    1.50
   9  -3  -1    7.00    2.50
  -9   3   1    6.80    2.30
   8  -3  -1   62.29    6.20
   8  -3  -1   58.19    6.70
  -8   3   1   61.29    6.90
   7  -3  -1   19.00    3.70
   7  -3  -1   21.90    3.40
   7  -3  -1   19.40    3.00
  -7   3   1   25.70    3.90
   6  -3  -1  356.26   33.90
   6  -3  -1  368.36   41.10
   6  -3  -1  421.46   33.60
   6  -3  -1  404.36   33.60
  -6   3   1  448.16   40.60
  -6   3   1  459.45   34.40
   5  -3  -1 1655.23  140.59
  -5   3   1 1689.83  137.69
   4  -3  -1  481.35   42.50
  -4   3   1  456.15   40.40
   3  -3  -1 2033.30  164.98
   2  -3  -1  723.53   56.69
  -2   3   1  678.83   56.49
  -2   3   1  648.34   55.79
   1  -3  -1    7.70    1.90
   1  -3  -1    3.50    1.70
  -1   3   1    4.00    1.60
  -1   3   1    3.50    1.50
   0  -3  -1  909.31   70.59
   0  -3  -1  868.11   70.79
   0   3   1  922.41   71.09
   0   3   1  777.22   70.29
  -1  -3  -1 1892.21  155.98
   1   3   1 2052.69  156.18
   1   3   1 1867.21  155.38
  -2  -3  -1  511.15   42.60
   2   3   1  493.95   42.00
  -3  -3  -1 2203.38  188.68
   3   3   1 2459.25  188.28
  -4  -3  -1  584.24   50.59
   4   3   1  562.04   49.60
  -5  -3  -1  113.69   11.20
  -5  -3  -1  125.99   11.40
  -5  -3  -1   84.59   14.80
   5   3   1  113.49   10.80
   5   3   1  135.49   11.50
  -6  -3  -1   25.30    4.40
   6   3   1   24.70    4.20
   6   3   1   21.60    3.70
  -7  -3  -1  718.83   54.49
  -7  -3  -1  631.74   53.29
   7   3   1  642.84   54.19
   7   3   1  640.94   53.59
  -8  -3  -1  166.18   13.30
   8   3   1  116.89   12.60
  -9  -3  -1  835.22   59.79
   9   3   1  628.74   59.39
 -10  -3  -1  606.84   50.49
  10   3   1  622.94   50.59
 -11  -3  -1    4.30    1.80
  11   3   1    7.10    1.90
  12  -4  -1   43.10    4.20
  12  -4  -1   39.40    4.50
 -12   4   1   43.40    4.30
  11  -4  -1  171.38   14.30
  11  -4  -1  174.08   14.70
 -11   4   1  157.28   14.70
  10  -4  -1  485.65   45.00
 -10   4   1  631.14   45.90
   9  -4  -1   91.29    9.70
  -9   4   1  132.89   10.90
   8  -4  -1 1009.60   85.49
   8  -4  -1 1045.60   85.69
  -8   4   1 1136.89   86.49
   7  -4  -1  455.15   39.80
   7  -4  -1  519.15   40.00
  -7   4   1  484.95   40.50
   6  -4  -1   11.20    2.50
   6  -4  -1   10.20    2.20
  -6   4   1   10.00    2.80
   5  -4  -1  122.39   16.70
   5  -4  -1  103.89   10.40
   5  -4  -1  119.49   10.20
  -5   4   1  129.99   14.00
  -5   4   1  105.49   10.90
   4  -4  -1  528.95   49.00
  -4   4   1  570.24   47.40
   3  -4  -1   16.90    4.50
  -3   4   1   10.20    2.60
   2  -4  -1 2148.78  175.58
  -2   4   1 2196.08  174.78
   1  -4  -1 1453.45  112.89
  -1   4   1 1323.07  111.99
   0  -4  -1   70.79    7.70
   0   4   1   63.49    7.10
  -1  -4  -1  628.04   55.99
   1   4   1  713.63   55.49
  -2  -4  -1   10.80    3.30
   2   4   1    9.20    2.70
  -3  -4  -1    2.70    2.80
   3   4   1    1.70    1.90
  -4  -4  -1  697.73   65.29
  -4  -4  -1  796.32   62.09
  -4  -4  -1  853.11   61.69
   4   4   1  752.72   64.19
   4   4   1  751.02   61.49
   4   4   1  665.83   61.69
  -5  -4  -1  485.05   40.50
  -5  -4  -1  464.35   40.20
   5   4   1  464.35   39.90
   5   4   1  509.45   40.50
  -6  -4  -1   11.30    3.10
  -6  -4  -1    6.20    2.80
   6   4   1    8.40    2.40
   6   4   1    6.40    2.40
  -7  -4  -1  534.25   53.49
  -7  -4  -1  728.83   52.99
   7   4   1  593.14   53.49
   7   4   1  736.03   53.39
  -8  -4  -1   45.70    4.50
  -8  -4  -1   36.50    5.40
   8   4   1   43.40    4.90
   8   4   1   26.80    4.70
  -9  -4  -1   84.49    9.10
   9   4   1   97.59    9.20
 -10  -4  -1   46.20    5.20
  10   4   1   42.10    5.10
  12  -5  -1   97.99    8.50
 -12   5   1   97.19    8.60
  11  -5  -1  155.68   12.90
  11  -5  -1  138.39   12.50
 -11   5   1  145.49   12.90
  10  -5  -1   87.49    8.50
 -10   5   1   98.79    9.20
   9  -5  -1    6.20    1.80
   9  -5  -1    8.80    2.10
  -9   5   1   10.50    2.50
   8  -5  -1  120.69    9.50
   8  -5  -1   79.09    9.00
  -8   5   1   96.89    9.80
   7  -5  -1  737.83   60.89
   7  -5  -1  750.12   60.79
  -7   5   1  755.12   61.49
   6  -5  -1   61.49    6.70
   6  -5  -1   70.79    6.50
  -6   5   1   57.59    7.10
   5  -5  -1  594.34   45.40
   5  -5  -1  560.24   45.90
  -5   5   1  517.15   46.20
   4  -5  -1 1240.78   94.29
   4  -5  -1 1049.00   88.79
  -4   5   1  991.20   88.99
  -4   5   1 1160.38   91.69
   3  -5  -1    3.00    2.70
  -3   5   1    2.80    2.00
   2  -5  -1  111.89   12.10
  -2   5   1  106.29   11.10
   1  -5  -1 1050.49   89.89
  -1   5   1 1130.09   89.19
   0  -5  -1  142.19   14.40
   0   5   1  141.59   13.70
  -1  -5  -1 2370.96  201.28
   1   5   1 2604.84  200.78
  -2  -5  -1 1221.48   97.89
  -2  -5  -1 1153.78   94.69
   2   5   1 1067.69   94.59
   2   5   1 1259.47   96.49
  -3  -5  -1    9.30    3.10
  -3  -5  -1   14.60    2.80
  -3  -5  -1   19.60    5.80
   3   5   1   11.50    3.30
   3   5   1   13.10    2.70
   3   5   1   13.60    6.40
  -4  -5  -1   52.19    6.20
  -4  -5  -1   49.99    5.90
   4   5   1   41.60    5.60
   4   5   1   46.90    6.20
  -5  -5  -1    4.00    2.40
  -5  -5  -1    3.30    2.30
   5   5   1    3.70    2.30
   5   5   1    7.10    2.50
  -6  -5  -1    3.80    2.20
  -6  -5  -1    7.10    3.20
   6   5   1    7.70    2.50
   6   5   1    3.80    2.10
  -7  -5  -1  548.85   47.80
   7   5   1  597.94   48.30
   7   5   1  609.34   48.70
  -8  -5  -1  865.81   77.39
  -8  -5  -1  892.41   76.59
   8   5   1  984.30   76.99
   8   5   1 1053.19   77.59
  -9  -5  -1   69.29    7.10
   9   5   1   65.99    7.10
 -10  -5  -1   93.09    8.70
  10   5   1   90.09    8.60
  11  -6  -1   15.30    2.40
  11  -6  -1   10.30    1.90
 -11   6   1   16.00    2.20
 -11   6   1   12.40    2.30
  10  -6  -1 1167.18   93.69
  10  -6  -1 1135.99   93.89
 -10   6   1 1196.28   94.29
   9  -6  -1  219.48   19.00
   9  -6  -1  224.58   19.00
   8  -6  -1  492.25   39.30
   8  -6  -1  460.05   39.20
   7  -6  -1  118.59   11.50
   7  -6  -1  130.69   11.70
   6  -6  -1  128.39   11.50
   6  -6  -1  122.89   11.90
  -6   6   1  133.49   12.50
   5  -6  -1  373.76   30.10
   5  -6  -1  371.76   30.80
  -5   6   1  351.06   31.10
   4  -6  -1  547.85   43.90
   4  -6  -1  469.75   44.90
   4  -6  -1  618.24   44.70
  -4   6   1  542.35   44.80
   3  -6  -1 1625.24  125.99
   3  -6  -1 1524.05  121.19
   3  -6  -1 1353.86  121.69
  -3   6   1 1442.96  121.29
  -3   6   1 1637.84  124.29
   2  -6  -1  359.56   32.20
   2  -6  -1  376.16   31.60
   2  -6  -1  384.46   35.20
  -2   6   1  433.76   34.40
   1  -6  -1 1189.48  105.69
   1  -6  -1 1231.28  105.19
   1  -6  -1 1421.46  108.99
  -1   6   1 1438.26  107.79
   0  -6  -1   24.20    3.00
   0  -6  -1   28.70    3.70
   0  -6  -1   34.00    6.70
   0   6   1   24.80    4.90
   0   6   1   30.80    4.10
  -1  -6  -1   46.90    6.60
  -1  -6  -1   52.69    5.30
  -1  -6  -1   53.79    5.70
  -1  -6  -1   63.69    9.30
   1   6   1   55.09    6.00
   1   6   1   61.29    8.00
  -2  -6  -1  132.69   11.90
  -2  -6  -1  121.59   12.40
   2   6   1  129.89   12.00
  -3  -6  -1  674.13   47.30
  -3  -6  -1  562.64   47.50
   3   6   1  470.65   47.10
   3   6   1  564.64   47.10
  -4  -6  -1   98.99    9.90
  -4  -6  -1   81.09   10.10
   4   6   1   88.59    9.80
   4   6   1  112.39   10.30
  -5  -6  -1 1596.64  127.39
  -5  -6  -1 1450.65  127.19
   5   6   1 1619.44  126.99
   5   6   1 1601.34  126.89
  -6  -6  -1  467.25   45.40
  -6  -6  -1  523.75   45.90
   6   6   1  587.74   45.30
   6   6   1  581.54   45.30
  -7  -6  -1   28.90    4.10
  -7  -6  -1   31.30    5.20
   7   6   1   37.50    5.00
   7   6   1   34.60    4.60
  -8  -6  -1   -0.30    1.60
  -8  -6  -1    2.00    1.40
   8   6   1   -0.10    1.50
   8   6   1    0.60    1.60
  -9  -6  -1    1.10    1.50
   9   6   1    0.30    1.50
  11  -7  -1   52.79    5.30
 -11   7   1   58.29    5.70
 -11   7   1   60.19    5.50
  10  -7  -1   26.30    3.70
  10  -7  -1   25.60    3.50
  10  -7  -1   31.50    3.70
 -10   7   1   29.80    3.80
 -10   7   1   30.60    4.10
   9  -7  -1  240.08   19.90
   9  -7  -1  219.88   20.00
   9  -7  -1  243.78   19.90
  -9   7   1  242.78   20.00
  -9   7   1  222.58   20.40
   8  -7  -1   17.70    3.00
   8  -7  -1   14.10    2.80
   8  -7  -1    6.10    2.60
  -8   7   1   10.40    2.90
   7  -7  -1  388.96   34.50
   7  -7  -1  443.46   35.00
   6  -7  -1  520.95   44.40
   6  -7  -1  558.24   43.90
  -6   7   1  522.65   44.90
   5  -7  -1   43.70    4.90
   5  -7  -1   49.10    5.70
  -5   7   1   56.29    7.00
   4  -7  -1   54.19    6.20
   4  -7  -1   61.09    6.40
   4  -7  -1   63.19    7.20
  -4   7   1   61.89    6.50
   3  -7  -1   80.29    8.40
   3  -7  -1   78.59    7.50
  -3   7   1   78.09    7.60
   2  -7  -1   14.60    2.40
   2  -7  -1   13.80    3.10
  -2   7   1   12.70    2.30
  -2   7   1   14.00    3.30
   1  -7  -1  449.16   36.60
   1  -7  -1  448.06   37.40
  -1   7   1  449.95   37.50
   0  -7  -1 1153.98   92.19
   0  -7  -1 1128.79   91.29
   0   7   1 1131.09   92.29
  -1  -7  -1   38.60    4.20
  -1  -7  -1   40.30    6.00
  -1  -7  -1   40.50    4.80
   1   7   1   34.20    5.40
  -2  -7  -1   98.39    9.50
  -2  -7  -1   93.69   10.30
   2   7   1   91.29    9.80
  -3  -7  -1  174.08   15.10
  -3  -7  -1  153.08   15.60
   3   7   1  151.58   15.10
  -4  -7  -1  121.09   11.60
  -4  -7  -1  114.89   12.00
   4   7   1   89.29   11.10
   4   7   1  125.79   11.60
  -5  -7  -1   76.79    8.60
  -5  -7  -1   70.99    8.60
   5   7   1   79.69    7.90
   5   7   1   48.20    7.70
   5   7   1   64.89    7.40
  -6  -7  -1  193.48   19.00
  -6  -7  -1  183.78   18.40
   6   7   1  214.08   18.20
   6   7   1  211.88   18.10
  -7  -7  -1    6.30    1.90
  -7  -7  -1    7.20    2.40
   7   7   1    7.00    2.30
   7   7   1    8.80    2.40
  -8  -7  -1  181.98   16.20
  -8  -7  -1  195.28   16.90
   8   7   1  189.38   16.70
   8   7   1  205.38   16.70
  10  -8  -1   71.29    7.10
  10  -8  -1   73.69    7.10
 -10   8   1   89.59    7.70
 -10   8   1   81.89    7.30
   9  -8  -1  125.59   11.40
   9  -8  -1  126.09   11.50
  -9   8   1  133.09   12.00
  -9   8   1  130.69   11.50
   8  -8  -1   52.89    5.40
   8  -8  -1   42.60    5.40
  -8   8   1   37.50    5.70
  -8   8   1   46.60    5.50
   7  -8  -1    4.50    2.10
   7  -8  -1    6.80    2.30
  -7   8   1    5.60    2.30
  -7   8   1    6.00    2.30
   6  -8  -1  814.52   66.29
  -6   8   1  823.62   67.49
  -5   8   1   18.70    3.80
   4  -8  -1  139.79   14.00
   4  -8  -1  144.29   13.10
  -4   8   1  144.89   13.10
   3  -8  -1  839.52   69.99
   3  -8  -1  885.21   68.99
  -3   8   1  825.32   68.89
   2  -8  -1   91.89    8.30
   2  -8  -1   86.59    9.30
  -2   8   1   83.69    8.30
  -2   8   1   89.69    9.70
   1  -8  -1  629.34   51.69
   1  -8  -1  626.04   52.69
  -1   8   1  657.43   53.09
   0  -8  -1  418.46   35.00
   0  -8  -1  406.76   34.00
   0   8   1  416.96   35.40
  -1  -8  -1   26.90    4.60
  -1  -8  -1   32.10    5.90
   1   8   1   30.40    5.20
  -2  -8  -1  775.92   62.99
  -2  -8  -1  803.32   63.79
   2   8   1  709.83   63.09
  -3  -8  -1  366.16   30.00
  -3  -8  -1  316.47   30.20
  -4  -8  -1  367.86   29.90
  -4  -8  -1  379.66   29.70
   4   8   1  269.67   28.80
  -5  -8  -1  122.79   11.80
  -5  -8  -1  118.19   12.10
   5   8   1   98.59   11.00
   5   8   1  114.29   11.00
  -6  -8  -1  228.88   21.80
  -6  -8  -1  247.88   21.50
   6   8   1  246.68   21.00
  -7  -8  -1  144.69   12.50
  -7  -8  -1  136.69   13.00
   7   8   1  145.49   12.80
  -8  -8  -1  160.68   14.30
  10  -9  -1   75.79    7.70
 -10   9   1   76.39    7.20
   9  -9  -1  151.38   13.40
  -9   9   1  159.68   13.90
   8  -9  -1  811.32   64.79
  -8   9   1  780.62   65.19
   7  -9  -1  106.49   10.80
  -7   9   1  116.79   11.20
   6  -9  -1  218.78   21.30
  -6   9   1  269.17   21.90
   5  -9  -1    7.50    2.50
  -5   9   1   16.40    3.30
   4  -9  -1    8.00    3.10
   4  -9  -1   12.10    3.80
   4  -9  -1   10.50    2.60
  -4   9   1   11.50    2.70
   3  -9  -1    6.80    3.00
   3  -9  -1    9.00    2.20
  -3   9   1   10.40    2.60
   2  -9  -1  245.68   21.40
   2  -9  -1  224.78   19.90
   1  -9  -1  101.79    9.50
  -1   9   1  102.29   11.40
   0  -9  -1 1001.20   80.39
   0   9   1  988.00   82.09
  -1  -9  -1  202.38   20.30
   1   9   1  262.97   21.40
  -2  -9  -1    5.00    3.40
  -2  -9  -1    6.20    2.60
   2   9   1    3.00    2.60
  -3  -9  -1    8.00    2.90
  -3  -9  -1    8.80    3.60
   3   9   1    6.00    2.70
  -4  -9  -1    4.10    3.00
  -4  -9  -1    4.50    2.80
   4   9   1    8.10    2.60
   4   9   1    8.20    2.70
  -5  -9  -1   23.40    4.80
  -5  -9  -1   22.30    4.30
   5   9   1   23.50    3.90
   5   9   1   24.00    3.90
  -6  -9  -1  237.38   20.00
  -6  -9  -1  220.38   20.40
   6   9   1  252.17   20.40
   9 -10  -1    3.50    2.30
   9 -10  -1    3.80    1.70
  -9  10   1    4.00    1.60
   8 -10  -1   56.39    7.10
   8 -10  -1   56.79    5.90
  -8  10   1   58.89    6.40
   7 -10  -1    7.80    2.20
   7 -10  -1    4.10    3.00
  -7  10   1    9.10    2.60
   6 -10  -1  280.67   22.60
   6 -10  -1  238.58   23.30
  -6  10   1  251.97   22.50
   5 -10  -1  166.48   16.50
   5 -10  -1  178.98   15.80
  -5  10   1  172.58   15.70
   4 -10  -1  100.89    9.40
   4 -10  -1   97.79   10.80
  -4  10   1   83.39    9.10
   3 -10  -1   65.99    7.20
   3 -10  -1   74.29    8.90
   2 -10  -1  152.08   14.60
   2 -10  -1  136.09   12.80
   1 -10  -1   92.39    8.40
   1 -10  -1   72.29    9.40
  -1  10   1   85.89   10.50
   0 -10  -1  223.58   21.60
   0  10   1  256.97   22.40
  -1 -10  -1  201.38   20.80
   1  10   1  273.57   21.90
  -2 -10  -1   38.10    6.10
   2  10   1   41.30    6.40
  -3 -10  -1  113.69   12.00
  -3 -10  -1  113.89   12.00
   3  10   1  119.09   11.60
  -4 -10  -1   65.69    8.00
  -4 -10  -1   56.59    7.40
   4  10   1   64.09    6.90
   4  10   1   62.39    6.90
  -5 -10  -1  160.88   15.30
  -5 -10  -1  171.58   16.10
  -5 -10  -1  175.38   15.00
   5  10   1  183.68   15.30
   5  10   1  176.18   15.30
   7 -11  -1    3.40    4.00
   7 -11  -1    6.10    1.90
  -7  11   1    3.00    2.10
   6 -11  -1  127.19   11.50
  -6  11   1  115.09   11.40
   5 -11  -1  266.77   20.90
  -5  11   1  211.48   20.40
   4 -11  -1   34.30    5.90
   4 -11  -1   33.00    4.70
   3 -11  -1    0.90    2.70
   3 -11  -1    2.50    1.60
   2 -11  -1  281.07   25.70
   2 -11  -1  347.17   28.10
   1 -11  -1  431.36   37.30
   0 -11  -1   40.10    6.20
   0  11   1   39.30    6.40
  -1 -11  -1   61.09    7.40
   1  11   1   54.09    7.50
  -2 -11  -1   50.19    6.60
   2  11   1   51.89    6.30
   2  11   1   48.10    6.40
  -3 -11  -1   64.29    8.00
   3  11   1   67.29    7.20
   3  11   1   69.49    7.20
  -4 -11  -1   48.00    5.10
   4  11   1   49.00    5.40
   5 -12  -1   18.20    3.20
   4 -12  -1   32.90    5.50
   4 -12  -1   39.80    4.60
   3 -12  -1   92.99    9.50
   3 -12  -1  122.19   11.70
   2 -12  -1    0.10    2.70
   1 -12  -1  169.98   16.40
   0 -12  -1    0.40    2.30
   0  12   1    5.20    2.80
  -1 -12  -1  124.59   12.40
   1  12   1  125.89   12.00
   2  12  -2    7.00    2.10
  -2 -12   2    4.20    2.70
   1  12  -2   10.50    3.20
  -1 -12   2    7.80    2.90
   0  12  -2  473.45   37.30
   0 -12   2  414.26   37.20
  -1  12  -2   14.00    3.50
   1 -12   2    9.00    2.90
  -2  12  -2   28.30    4.70
   2 -12   2   36.20    5.50
  -3  12  -2  208.38   17.90
  -4  12  -2    5.40    2.20
   4 -12   2    9.50    3.20
  -5  12  -2   19.50    3.60
   5 -12   2   22.20    3.60
   5 -12   2   24.50    4.40
  -6  12  -2    0.40    1.80
   4  11  -2   12.00    2.60
   4  11  -2   11.40    2.50
  -4 -11   2   12.10    3.40
   3  11  -2   73.69    7.50
   3  11  -2   64.69    7.20
  -3 -11   2   59.09    8.10
  -3 -11   2   79.29    8.60
   2  11  -2  308.17   26.00
   2  11  -2  325.77   26.30
  -2 -11   2  265.67   26.80
  -2 -11   2  306.67   26.60
   1  11  -2   20.50    4.30
  -1 -11   2   12.70    4.40
  -1 -11   2   19.40    4.00
   0  11  -2  105.99   10.70
   0 -11   2   84.19    9.40
   0 -11   2   81.59   10.90
  -1  11  -2   43.90    6.90
   1 -11   2   43.00    6.40
  -2  11  -2   22.60    4.70
  -2  11  -2   18.10    3.20
   2 -11   2   19.80    4.30
  -3  11  -2   12.70    2.70
   3 -11   2   14.30    4.00
   3 -11   2   13.50    2.60
  -4  11  -2  391.76   34.70
   4 -11   2  402.36   34.50
   4 -11   2  462.15   36.40
  -5  11  -2   19.70    3.70
   5 -11   2   20.10    4.40
   5 -11   2   18.90    3.60
  -6  11  -2  162.88   14.60
   6 -11   2  154.38   14.40
   6 -11   2  157.48   14.70
  -7  11  -2  177.38   16.10
   7 -11   2  187.88   16.10
  -8  11  -2    6.70    1.70
   8 -11   2    7.70    1.90
   6  10  -2   59.79    6.00
  -6 -10   2   57.29    6.90
   5  10  -2   37.40    4.60
   5  10  -2   34.50    4.60
  -5 -10   2   39.50    6.00
   4  10  -2  202.48   17.00
   4  10  -2  190.18   17.00
  -4 -10   2  189.08   18.20
  -4 -10   2  177.08   17.50
   3  10  -2    1.90    2.00
   3  10  -2    1.30    2.00
  -3 -10   2    6.30    3.30
  -3 -10   2   -0.10    2.20
   2  10  -2  104.39   13.30
   2  10  -2  162.08   14.00
  -2 -10   2  150.58   13.90
  -2 -10   2  147.99   14.80
   1  10  -2  161.58   17.80
   1  10  -2  201.78   18.00
  -1 -10   2  208.78   18.70
  -1 -10   2  192.68   17.80
   0  10  -2  881.71   68.29
   0 -10   2  763.02   67.69
  -1  10  -2  192.58   16.90
   1 -10   2  197.38   18.60
  -2  10  -2    6.40    2.20
   2 -10   2    3.30    2.40
  -3  10  -2   58.29    6.20
   3 -10   2   53.29    7.20
   3 -10   2   52.79    6.00
  -4  10  -2   15.50    3.10
   4 -10   2    8.50    2.40
   4 -10   2   10.90    3.60
  -5  10  -2   57.59    7.20
   5 -10   2   70.69    8.40
   5 -10   2   66.89    7.30
  -6  10  -2   91.99   10.30
   6 -10   2  108.29   10.80
   6 -10   2  106.69   10.30
  -7  10  -2  323.47   33.20
  -7  10  -2  430.86   33.60
   7 -10   2  430.26   33.40
  -8  10  -2    6.90    2.20
  -8  10  -2    5.00    2.00
   8 -10   2    9.40    2.10
  -9  10  -2   65.39    6.40
   7   9  -2   24.20    3.40
  -7  -9   2   22.90    4.00
   6   9  -2   64.69    6.50
   6   9  -2   60.39    6.40
  -6  -9   2   52.89    7.40
   5   9  -2  212.08   18.90
   5   9  -2  225.68   19.00
  -5  -9   2  208.08   20.20
   4   9  -2  897.51   69.99
   4   9  -2  893.11   70.09
  -4  -9   2  791.72   71.09
  -4  -9   2  831.02   70.39
   3   9  -2    5.70    2.50
   3   9  -2    7.30    2.60
  -3  -9   2    8.10    2.90
  -3  -9   2    3.90    3.10
   2   9  -2  779.32   61.69
  -2  -9   2  725.53   61.29
  -2  -9   2  722.43   61.99
   1   9  -2  157.08   14.20
  -1  -9   2  135.89   13.10
  -1  -9   2  122.59   13.60
   0   9  -2   33.20    3.90
   0  -9   2   21.80    4.20
   0  -9   2   35.80    5.50
  -1   9  -2   15.10    2.70
   1  -9   2    9.00    2.60
  -2   9  -2  212.98   17.50
   2  -9   2  189.78   17.10
  -3   9  -2   78.29    7.60
   3  -9   2   65.99    8.40
   3  -9   2   75.09    7.40
  -4   9  -2  749.73   63.39
   4  -9   2  754.02   63.29
   4  -9   2  826.32   64.89
  -5   9  -2  877.01   74.69
   5  -9   2  942.11   75.59
   5  -9   2  962.00   76.69
  -6   9  -2   50.19    7.30
  -6   9  -2   65.89    6.50
   6  -9   2   76.29    8.00
   6  -9   2   44.70    6.70
  -7   9  -2   97.19    8.70
  -7   9  -2   71.29    8.80
   7  -9   2   95.39    9.00
  -8   9  -2    9.40    2.30
  -8   9  -2    5.70    2.30
   8  -9   2    7.10    2.10
  -9   9  -2    1.40    1.40
  -9   9  -2    2.60    1.70
   9  -9   2    3.20    1.40
 -10   9  -2  127.99   12.40
 -10   9  -2  135.29   12.60
  10  -9   2  145.19   12.10
   8   8  -2  118.09   10.50
  -8  -8   2  116.59   11.10
   7   8  -2  289.97   24.40
  -7  -8   2  284.97   25.30
   6   8  -2   39.20    4.70
   6   8  -2   34.90    4.70
  -6  -8   2   27.20    5.30
   5   8  -2   76.39    8.40
   5   8  -2   95.79    8.80
  -5  -8   2   75.59    9.60
   4   8  -2   54.49    6.50
   4   8  -2   43.80    6.00
  -4  -8   2   48.30    6.10
  -4  -8   2   28.90    6.00
   3   8  -2   26.00    4.40
   3   8  -2   15.50    3.80
  -3  -8   2   16.20    3.90
  -3  -8   2   19.60    3.80
   2   8  -2  257.77   22.70
  -2  -8   2  260.67   22.90
  -2  -8   2  245.68   22.10
   1   8  -2  870.71   70.79
   1   8  -2  839.62   69.19
  -1  -8   2  848.52   69.99
  -1  -8   2  873.91   70.49
   0   8  -2  216.08   21.60
   0   8  -2  258.17   20.20
   0  -8   2  234.08   20.90
  -1   8  -2  121.09   10.40
   1  -8   2  105.89   11.00
  -2   8  -2    7.90    2.60
  -2   8  -2    9.70    2.20
   2  -8   2   13.70    3.10
   2  -8   2    6.30    1.80
  -3   8  -2   53.19    5.70
  -3   8  -2   47.80    5.00
  -3   8  -2   40.80    6.00
   3  -8   2   57.49    6.50
   3  -8   2   51.99    5.50
  -4   8  -2  114.09   11.00
  -4   8  -2  126.09   11.80
   4  -8   2  136.79   12.00
   4  -8   2  135.49   13.00
  -5   8  -2   91.59   11.00
  -5   8  -2  115.89   10.70
   5  -8   2  138.69   11.80
   5  -8   2  135.59   12.60
  -6   8  -2  107.69    8.90
  -6   8  -2   72.99    9.10
   6  -8   2   76.39    9.00
   6  -8   2  103.19   10.20
  -7   8  -2  396.76   34.10
   7  -8   2  419.56   34.50
  -8   8  -2  222.78   18.00
  -8   8  -2  223.48   18.40
   8  -8   2  176.38   17.70
  -9   8  -2   -0.60    1.20
  -9   8  -2    1.40    1.50
   9  -8   2    0.40    1.20
   9  -8   2    3.10    2.40
 -10   8  -2   28.10    3.40
 -10   8  -2   29.80    3.80
  10  -8   2   24.50    3.70
  10  -8   2   27.20    3.40
   9   7  -2   62.99    6.70
  -9  -7   2   66.19    6.80
   8   7  -2    7.70    2.10
  -8  -7   2    0.80    2.00
   7   7  -2  436.96   36.20
  -7  -7   2  431.46   37.40
   6   7  -2  307.87   25.60
  -6  -7   2  285.27   26.80
   5   7  -2   91.69    9.20
  -5  -7   2   91.69   10.40
   4   7  -2  914.51   80.49
   4   7  -2 1012.00   80.59
  -4  -7   2 1042.30   80.79
   3   7  -2  618.14   54.29
   3   7  -2  687.73   54.69
  -3  -7   2  650.33   54.29
  -3  -7   2  688.93   54.99
   2   7  -2   63.49    6.00
   2   7  -2   56.89    7.10
  -2  -7   2   59.19    6.80
  -2  -7   2   58.49    6.40
   1   7  -2   25.00    4.80
   1   7  -2   30.80    3.60
  -1  -7   2   31.10    4.00
   0   7  -2  473.95   37.70
   0   7  -2  470.35   37.30
   0   7  -2  408.16   38.50
   0  -7   2  466.85   38.00
  -1   7  -2   12.90    2.20
  -1   7  -2   10.90    2.20
   1  -7   2    9.80    1.90
   1  -7   2    9.70    2.30
  -2   7  -2 2152.18  158.08
  -2   7  -2 1919.81  157.48
  -2   7  -2 1866.81  158.08
   2  -7   2 1932.01  157.88
   2  -7   2 2001.40  158.68
  -3   7  -2  460.95   37.00
  -3   7  -2  396.86   37.40
  -3   7  -2  494.55   37.70
   3  -7   2  471.55   37.60
  -4   7  -2   49.30    5.50
  -4   7  -2   46.10    5.00
   4  -7   2   55.79    5.90
  -5   7  -2  478.05   40.50
  -5   7  -2  492.35   41.30
   5  -7   2  514.35   41.40
  -6   7  -2   51.69    5.50
  -6   7  -2   52.29    6.10
   6  -7   2   36.90    5.90
  -7   7  -2   46.30    5.30
  -7   7  -2   35.80    5.30
   7  -7   2   24.70    4.50
   7  -7   2   44.50    5.10
  -8   7  -2  420.36   33.80
  -8   7  -2  392.56   33.30
   8  -7   2  401.06   33.10
   8  -7   2  384.36   33.30
  -9   7  -2  312.67   26.60
  -9   7  -2  327.57   27.00
   9  -7   2  317.37   26.40
   9  -7   2  312.77   26.60
 -10   7  -2   50.09    5.50
 -10   7  -2   54.69    5.30
  10  -7   2   48.60    5.10
  10  -7   2   51.29    5.30
 -11   7  -2  378.16   30.10
  11  -7   2  360.56   30.00
   9   6  -2  581.74   48.60
   9   6  -2  601.04   48.40
  -9  -6   2  599.34   49.00
   8   6  -2  134.79   12.10
   8   6  -2  126.69   12.20
  -8  -6   2  131.89   13.00
   7   6  -2  523.85   42.30
   7   6  -2  507.95   42.30
  -7  -6   2  491.25   43.40
   6   6  -2   20.80    3.30
   6   6  -2    9.70    2.40
   6   6  -2   23.50    3.80
  -6  -6   2    8.60    3.70
   5   6  -2   38.10    5.30
   5   6  -2   35.30    4.70
   5   6  -2   25.30    4.40
  -5  -6   2   26.50    5.50
   4   6  -2  183.68   15.60
   4   6  -2  172.58   15.40
  -4  -6   2  159.38   15.30
  -4  -6   2  171.88   16.10
   3   6  -2  737.73   60.49
  -3  -6   2  707.93   59.99
  -3  -6   2  771.32   60.69
   2   6  -2   82.49    8.40
   2   6  -2   81.39    7.40
  -2  -6   2   80.39    8.10
  -2  -6   2   76.49    7.60
   1   6  -2  363.76   34.20
   1   6  -2  306.27   29.60
   1   6  -2  366.56   29.00
   1   6  -2  358.06   28.70
  -1  -6   2  362.96   31.80
  -1  -6   2  343.57   29.10
   0   6  -2  844.02   68.19
   0   6  -2  885.01   69.99
   0  -6   2  866.21   70.89
   0  -6   2  796.22   68.49
  -1   6  -2   26.90    3.40
  -1   6  -2   28.80    5.10
  -1   6  -2   23.40    3.10
   1  -6   2   28.60    4.00
   1  -6   2   26.90    5.70
  -2   6  -2    9.50    1.80
  -2   6  -2    9.00    3.00
   2  -6   2    6.50    2.90
  -3   6  -2  106.89    9.40
  -3   6  -2  115.19    9.90
   3  -6   2  103.69    9.90
  -4   6  -2    2.90    1.20
  -4   6  -2    7.40    2.00
   4  -6   2    1.00    1.60
  -5   6  -2  376.86   31.00
  -5   6  -2  382.66   30.40
   5  -6   2  383.26   31.10
   5  -6   2  327.47   30.10
  -6   6  -2 1002.30   81.29
  -6   6  -2  989.50   81.89
   6  -6   2 1107.89   81.79
   6  -6   2  921.41   80.99
  -7   6  -2  134.29   12.80
  -7   6  -2  133.79   12.30
   7  -6   2  136.99   12.10
   7  -6   2  129.39   12.30
  -8   6  -2  426.96   34.70
   8  -6   2  419.36   34.10
   8  -6   2  391.16   34.20
  -9   6  -2   15.30    3.00
  -9   6  -2   14.00    2.70
   9  -6   2   15.10    2.70
   9  -6   2   20.10    3.00
 -10   6  -2    2.50    1.30
 -10   6  -2    3.60    1.80
  10  -6   2    2.80    1.40
  10  -6   2    0.90    1.40
 -11   6  -2  357.66   29.60
  11  -6   2  364.66   29.60
  10   5  -2    8.90    2.20
 -10  -5   2    8.40    2.40
   9   5  -2    7.30    2.10
   9   5  -2    8.80    2.40
  -9  -5   2    6.30    2.50
   8   5  -2   18.50    3.30
   8   5  -2   15.50    3.30
  -8  -5   2   15.90    4.00
   7   5  -2   35.10    4.80
   7   5  -2   32.50    4.90
  -7  -5   2   34.40    6.00
   6   5  -2 1777.92  142.19
   6   5  -2 1812.52  142.69
   6   5  -2 1872.01  142.59
  -6  -5   2 1611.24  143.49
   5   5  -2  507.35   40.80
   5   5  -2  492.05   40.40
   5   5  -2  488.85   40.60
  -5  -5   2  467.75   41.50
   4   5  -2  120.59   10.90
   4   5  -2  115.09   10.70
   4   5  -2  107.79   10.90
  -4  -5   2  121.09   11.40
   3   5  -2  284.07   26.10
   3   5  -2  286.67   24.50
  -3  -5   2  291.57   24.50
   2   5  -2  214.38   19.80
  -2  -5   2  224.38   21.10
   1   5  -2    2.30    1.60
  -1  -5   2    4.20    2.10
   0   5  -2 1466.55  120.19
   0  -5   2 1508.65  120.89
  -1   5  -2 2124.39  174.18
   1  -5   2 2210.88  175.08
  -2   5  -2 2047.00  174.08
   2  -5   2 2287.17  175.48
  -3   5  -2 1859.41  153.58
   3  -5   2 1943.01  155.38
  -4   5  -2   61.09    8.40
  -4   5  -2   66.69    6.60
  -4   5  -2   63.19    6.10
   4  -5   2   64.69    7.00
   4  -5   2   69.79   10.90
  -5   5  -2   46.70    5.50
   5  -5   2   39.00    5.00
   5  -5   2   47.40    6.00
  -6   5  -2  224.08   19.40
  -6   5  -2  195.78   18.90
   6  -5   2  219.48   18.50
   6  -5   2  235.58   19.20
  -7   5  -2  353.86   30.50
   7  -5   2  369.86   30.20
   7  -5   2  351.66   29.70
  -8   5  -2   94.89    9.20
   8  -5   2   93.19    8.60
   8  -5   2   88.99    8.90
  -9   5  -2 1421.76  114.39
   9  -5   2 1369.86  114.19
   9  -5   2 1468.55  114.09
 -10   5  -2   15.40    2.80
 -10   5  -2   15.40    2.80
  10  -5   2   16.80    2.80
  10  -5   2   20.60    2.90
 -11   5  -2   17.10    2.80
  11  -5   2   27.20    3.20
  10   4  -2    1.60    1.70
 -10  -4   2    1.40    2.00
   9   4  -2  518.05   42.00
   9   4  -2  517.95   42.40
  -9  -4   2  490.95   42.40
   8   4  -2 1125.29   88.99
   8   4  -2 1071.09   89.19
  -8  -4   2 1101.29   89.79
   7   4  -2    6.00    2.00
   7   4  -2    2.60    1.80
  -7  -4   2    1.80    2.50
   6   4  -2   49.00    5.20
   6   4  -2   46.00    5.60
  -6  -4   2   43.40    6.80
   5   4  -2  756.52   61.79
   5   4  -2  779.42   62.29
   5   4  -2  777.82   61.99
  -5  -4   2  731.43   62.79
   4   4  -2   28.20    3.80
   4   4  -2   26.80    3.60
   4   4  -2   24.40    5.60
  -4  -4   2   15.10    5.60
  -4  -4   2   22.00    3.90
   3   4  -2 1479.45  120.79
  -3  -4   2 1490.15  121.89
   2   4  -2 1604.54  126.79
  -2  -4   2 1531.95  127.59
  -1  -4   2  293.67   26.10
  -1  -4   2  305.17   26.10
   0   4  -2  268.77   23.10
   0  -4   2  273.17   23.60
   0  -4   2  274.37   23.50
  -1   4  -2  320.47   26.30
   1  -4   2  295.17   26.30
   1  -4   2  317.37   26.90
  -2   4  -2   73.19    7.40
   2  -4   2   76.49    8.30
   2  -4   2   70.29    7.60
  -3   4  -2 1463.45  125.69
   3  -4   2 1653.63  127.49
  -4   4  -2  666.63   56.19
   4  -4   2  660.83   58.39
  -5   4  -2   59.29    6.50
  -5   4  -2   63.59    9.30
   5  -4   2   57.59    5.90
   5  -4   2   64.79   12.60
  -6   4  -2  709.13   63.69
  -6   4  -2  819.32   63.99
   6  -4   2  823.42   63.29
  -7   4  -2  535.05   42.80
  -7   4  -2  474.45   42.60
   7  -4   2  537.65   42.20
   7  -4   2  519.75   42.60
   8  -4   2   35.30    4.70
   8  -4   2   35.60    4.10
  -9   4  -2  194.78   16.90
   9  -4   2  191.78   16.80
 -10   4  -2  719.13   56.69
  10  -4   2  677.63   56.59
 -11   4  -2   84.49    7.80
  11  -4   2   85.19    7.80
  12  -4   2   91.79    8.10
  11   3  -2   19.10    3.20
  10   3  -2    1.70    1.50
   9   3  -2   11.80    2.90
   9   3  -2   18.20    3.10
  -9  -3   2   15.10    3.40
   8   3  -2  487.75   39.20
  -8  -3   2  457.65   39.80
   7   3  -2  649.14   51.99
   7   3  -2  645.94   51.59
  -7  -3   2  591.44   52.29
   6   3  -2  631.44   50.89
   6   3  -2  652.73   50.49
  -6  -3   2  564.64   51.29
   5   3  -2  334.37   29.40
   5   3  -2  325.77   29.30
   5   3  -2  388.26   29.80
   5   3  -2  378.96   29.40
  -5  -3   2  335.57   30.00
   4   3  -2  226.58   20.50
  -4  -3   2  185.18   20.70
   3   3  -2  165.58   15.50
  -3  -3   2  160.38   16.10
   2   3  -2  743.93   62.29
  -2  -3   2  810.12   63.09
  -2  -3   2  734.93   63.19
   1   3  -2  711.83   56.89
  -1  -3   2  711.53   57.39
  -1  -3   2  675.83   57.29
   0   3  -2 1024.60   87.29
   0   3  -2 1087.89   87.79
   0  -3   2 1092.29   87.59
   0  -3   2 1140.89   87.79
  -1   3  -2 3431.26  270.97
  -1   3  -2 3541.95  271.47
   1  -3   2 3213.28  271.37
  -2   3  -2   12.20    2.30
   2  -3   2    9.70    2.20
   2  -3   2   11.60    2.80
  -3   3  -2   59.99    6.70
   3  -3   2   52.19    6.20
   3  -3   2   60.39    8.00
  -4   3  -2    2.20    2.30
   4  -3   2    2.80    3.70
  -5   3  -2   36.60    7.20
  -5   3  -2   26.90    6.60
   5  -3   2   30.20    8.60
  -6   3  -2  311.47   26.30
  -6   3  -2  292.57   26.20
   6  -3   2  329.87   25.80
  -7   3  -2 1337.47  108.39
  -7   3  -2 1320.57  108.39
   7  -3   2 1375.96  107.99
  -8   3  -2   93.89    8.80
  -8   3  -2   85.99    8.70
   8  -3   2   93.89    8.70
   8  -3   2   82.89    8.20
  -9   3  -2  499.85   40.10
   9  -3   2  467.85   39.80
  10  -3   2   12.60    2.30
 -11   3  -2    2.60    1.50
  11  -3   2    4.70    1.50
  11   2  -2  792.12   64.49
  10   2  -2  370.56   31.30
   9   2  -2   17.80    3.50
  -9  -2   2   20.20    3.50
   8   2  -2  352.56   28.10
   8   2  -2  290.17   28.30
   8   2  -2  361.16   28.10
  -8  -2   2  338.57   28.50
   7   2  -2  452.15   37.20
   7   2  -2  460.15   37.80
  -7  -2   2  443.06   37.90
   6   2  -2   61.79    6.30
   6   2  -2   57.69    6.50
   6   2  -2   57.39    5.80
  -6  -2   2   53.79    6.70
   5   2  -2 1701.03  148.39
   5   2  -2 1891.51  144.39
   4   2  -2 1417.96  105.39
  -4  -2   2 1121.59  105.49
   3   2  -2  130.89   12.70
  -3  -2   2  128.99   13.30
  -3  -2   2  120.09   14.10
   2   2  -2 1885.71  146.29
  -2  -2   2 1723.73  146.99
  -2  -2   2 1848.81  146.59
   1   2  -2 1012.90   79.69
   1   2  -2  971.30   79.89
  -1  -2   2  988.60   79.99
   0   2  -2  392.76   30.90
   0   2  -2  372.96   30.60
   0  -2   2  399.06   30.80
   0  -2   2  333.17   30.70
  -1   2  -2   42.50    4.20
  -1   2  -2   43.50    4.00
   1  -2   2   34.00    4.20
   1  -2   2   45.20    4.10
  -2   2  -2 9354.36  701.53
  -2   2  -2 8736.33  701.43
   2  -2   2 8338.17  702.13
   2  -2   2 8804.62  701.03
  -3   2  -2 2700.13  216.08
   3  -2   2 2623.24  217.68
   3  -2   2 2741.83  215.88
  -4   2  -2  683.43   52.09
   4  -2   2  539.45   53.19
   4  -2   2  597.54   51.79
  -5   2  -2  892.31   74.29
   5  -2   2  865.61   76.39
  -6   2  -2    3.50    4.10
  -6   2  -2    2.30    1.70
  -6   2  -2    3.10    2.20
   6  -2   2    2.80    1.10
  -7   2  -2   39.30    4.60
   7  -2   2   35.00    3.90
   7  -2   2   31.10    4.10
  -8   2  -2  261.67   22.00
   8  -2   2  249.28   21.50
   8  -2   2  256.67   21.80
  -9   2  -2    2.30    1.80
   9  -2   2    1.80    1.30
   9  -2   2    6.00    2.20
 -10   2  -2 1200.88   90.39
  10  -2   2 1035.10   89.89
 -11   2  -2  238.78   21.50
  11  -2   2  283.57   21.80
  12  -2   2    9.10    1.70
  12   1  -2    0.80    1.60
  11   1  -2  104.39   10.00
  10   1  -2   64.19    7.30
  10   1  -2   73.49    7.00
   9   1  -2   25.30    4.10
   8   1  -2   90.89    8.50
   8   1  -2   91.79    9.20
   8   1  -2   95.59    8.80
   7   1  -2 2367.16  191.68
   7   1  -2 2306.17  191.48
   7   1  -2 2660.33  192.48
  -7  -1   2 2263.57  192.18
   6   1  -2  206.98   15.90
   6   1  -2  168.18   15.00
   6   1  -2  180.88   15.20
   6   1  -2  167.08   20.50
  -6  -1   2  157.18   15.60
   5   1  -2    3.50    3.90
  -5  -1   2    9.10    4.00
   4   1  -2   72.79   10.00
  -4  -1   2   77.09   10.10
   3   1  -2    4.60    2.40
  -3  -1   2    2.10    1.80
  -3  -1   2    3.30    2.60
   2   1  -2  149.59   14.20
   2   1  -2  184.98   14.50
  -2  -1   2  147.19   14.20
  -2  -1   2  147.19   15.10
   1   1  -2  551.04   47.30
  -1  -1   2  517.85   47.20
  -1  -1   2  687.83   47.90
   0   1  -2  852.21   66.99
   0  -1   2  789.62   66.99
   0  -1   2  876.21   66.99
  -1   1  -2  145.89   11.80
  -1   1  -2  124.69   11.90
   1  -1   2  147.89   11.60
  -2   1  -2   11.70    3.10
  -2   1  -2   17.50    4.20
   2  -1   2   12.40    3.00
   2  -1   2    2.40    3.30
  -3   1  -2 1025.20   75.69
   3  -1   2  809.32   75.19
   3  -1   2  907.01   76.79
  -4   1  -2  283.37   24.40
   4  -1   2  262.87   25.60
   4  -1   2  237.78   24.10
  -5   1  -2  127.79   13.90
   5  -1   2  112.19   14.80
  -6   1  -2  254.77   21.50
  -6   1  -2  284.57   25.90
  -6   1  -2  265.87   22.60
   6  -1   2  230.78   21.30
   6  -1   2  248.38   21.20
  -7   1  -2  962.20   75.09
   7  -1   2  864.01   74.79
   7  -1   2  952.00   74.59
  -8   1  -2  419.66   33.90
   8  -1   2  388.86   33.70
   8  -1   2  406.16   33.40
  -9   1  -2    1.90    1.70
   9  -1   2    1.10    1.20
   9  -1   2    1.10    1.70
 -10   1  -2  116.29   11.20
  10  -1   2  116.49   10.70
  10  -1   2  124.69   11.30
  11  -1   2   96.89    8.50
  11  -1   2   90.29    8.90
  12   0  -2  201.18   17.20
  11   0  -2  142.39   12.70
  11   0  -2  134.19   12.20
  10   0  -2   18.90    2.80
  10   0  -2   22.40    3.40
  10   0  -2   19.10    3.50
   9   0  -2   50.09    5.20
   9   0  -2   50.19    5.90
  -9   0   2   49.60    6.80
   8   0  -2   13.20    3.00
   8   0  -2   13.50    2.40
  -8   0   2   12.80    3.10
   7   0  -2 1936.51  145.09
   7   0  -2 1845.82  144.29
   7   0  -2 1632.24  144.19
   6   0  -2 3077.69  249.88
   6   0  -2 3157.38  244.88
   6   0  -2 2948.91  244.18
   5   0  -2 1976.80  166.28
  -5   0   2 2056.89  165.18
   4   0  -2 1088.89   93.69
  -4   0   2 1125.39   92.49
  -4   0   2 1129.59   94.19
   3   0  -2  685.83   56.99
  -3   0   2  609.14   55.49
  -3   0   2  701.63   57.29
   2   0  -2   -2.00    1.60
   2   0  -2   -2.00    1.00
  -2   0   2    0.50    1.60
  -2   0   2   -2.10    1.60
   1   0  -2   41.50    5.60
   1   0  -2   60.49    4.90
  -1   0   2   46.30    5.20
  -1   0   2   66.09    5.40
   0   0  -2 1257.57   96.09
   0   0  -2 1045.60   95.99
   0   0   2 1171.78   95.99
   0   0   2 1351.66   96.09
  -1   0  -2   14.20    2.70
  -1   0  -2   11.90    1.80
   1   0   2   13.10    2.10
  -2   0  -2 9741.13  759.82
  -2   0  -2 9999.00  761.12
   2   0   2 9230.98  760.02
   2   0   2 9176.28  759.82
  -3   0  -2   39.60    6.00
   3   0   2   45.30    6.60
   3   0   2   53.49    6.50
  -4   0  -2  483.65   40.60
   4   0   2  428.06   40.70
  -5   0  -2   19.10    5.70
   5   0   2   10.70    5.20
  -6   0  -2   15.50    2.80
  -6   0  -2   24.30    7.20
  -6   0  -2   15.90    3.00
  -6   0  -2   14.90    2.30
  -6   0  -2   16.40    4.10
   6   0   2   16.50    3.30
   6   0   2   16.30    2.50
  -7   0  -2   48.20    5.20
   7   0   2   43.30    5.30
  -8   0  -2 1601.14  127.89
   8   0   2 1604.14  127.99
   8   0   2 1560.04  127.49
  -9   0  -2  929.91   75.99
   9   0   2  934.91   76.09
   9   0   2  938.51   75.49
 -10   0  -2  298.57   25.80
  10   0   2  309.47   26.00
  10   0   2  304.07   25.40
 -11   0  -2  216.68   19.20
  11   0   2  229.58   18.90
  11   0   2  231.78   19.50
  12  -1  -2   98.39    9.20
  12  -1  -2  102.29    9.00
  11  -1  -2   18.60    2.60
  11  -1  -2   21.60    3.50
  11  -1  -2   22.00    3.20
  10  -1  -2  423.76   33.80
  10  -1  -2  425.86   34.20
  10  -1  -2  406.76   33.30
 -10   1   2  367.26   33.90
   9  -1  -2  978.00   77.59
   9  -1  -2  988.60   78.39
  -9   1   2  915.91   78.49
   8  -1  -2  333.67   27.90
   8  -1  -2  329.77   27.20
  -8   1   2  315.67   28.10
   7  -1  -2  533.95   44.30
   7  -1  -2  551.44   44.90
   6  -1  -2  572.84   51.09
   6  -1  -2  615.94   50.69
   6  -1  -2  629.34   56.99
  -6   1   2  699.83   55.59
   5  -1  -2  174.18   20.60
  -5   1   2  189.18   18.90
   4  -1  -2  524.25   49.99
  -4   1   2  603.24   48.60
   3  -1  -2 2574.34  224.08
  -3   1   2 2909.81  223.58
  -3   1   2 2828.42  222.78
   2  -1  -2 1612.14  124.79
   2  -1  -2 1463.15  123.39
  -2   1   2 1543.95  124.09
   1  -1  -2   43.00    4.20
   1  -1  -2   42.90    4.50
  -1   1   2   45.50    4.40
   0  -1  -2  916.21   74.19
   0  -1  -2  906.51   74.09
   0   1   2  951.70   74.29
  -1  -1  -2  207.78   17.70
  -1  -1  -2  206.58   17.60
   1   1   2  205.78   17.70
  -2  -1  -2    5.40    1.70
  -2  -1  -2    7.30    2.60
   2   1   2    5.00    1.50
   2   1   2    4.30    1.70
  -3  -1  -2  941.81   72.79
   3   1   2  903.81   72.49
   3   1   2  785.52   72.19
  -4  -1  -2   14.40    4.80
   4   1   2    6.50    3.50
  -5  -1  -2  669.73   52.09
  -5  -1  -2  669.33   56.99
   5   1   2  657.23   56.49
   5   1   2  564.54   52.19
  -6  -1  -2  710.73   60.19
  -6  -1  -2  809.32   60.29
  -6  -1  -2  680.13   59.39
  -6  -1  -2  696.13   66.59
   6   1   2  788.92   60.59
  -7  -1  -2  371.86   29.90
  -7  -1  -2  313.87   29.00
   7   1   2  364.06   29.40
   7   1   2  375.46   30.10
  -8  -1  -2  105.59   10.40
   8   1   2  103.89   10.00
   8   1   2  117.09   10.70
  -9  -1  -2   24.80    4.00
   9   1   2   27.70    4.40
   9   1   2   27.90    3.70
 -10  -1  -2    4.60    2.00
  10   1   2    7.90    2.40
 -11  -1  -2  493.85   42.00
  11   1   2  483.25   41.60
  11   1   2  566.44   42.40
  12  -2  -2  277.47   20.10
  12  -2  -2  208.58   20.00
  12  -2  -2  235.48   19.60
  11  -2  -2   32.10    3.50
  11  -2  -2   26.10    3.60
  11  -2  -2   28.60    4.00
 -11   2   2   24.90    3.90
  10  -2  -2   46.30    4.70
  10  -2  -2   32.30    4.90
  10  -2  -2   44.30    5.40
 -10   2   2   46.70    5.60
   9  -2  -2  438.66   34.30
   9  -2  -2  421.06   35.00
  -9   2   2  385.36   35.00
   8  -2  -2   79.09    8.60
   8  -2  -2   91.99    8.10
  -8   2   2   82.79    8.90
   7  -2  -2   96.19    9.40
   7  -2  -2   95.79    8.80
  -7   2   2   90.49    9.50
   6  -2  -2 2887.41  220.78
   6  -2  -2 2632.44  221.28
   6  -2  -2 2773.62  228.28
   5  -2  -2  147.19   19.20
  -5   2   2  159.78   16.70
   4  -2  -2  156.08   18.10
  -4   2   2  170.18   16.30
   3  -2  -2  386.16   33.80
  -3   2   2  352.56   32.70
  -3   2   2  399.16   32.60
   2  -2  -2   34.40    4.50
   2  -2  -2   29.50    3.70
  -2   2   2   33.20    4.20
  -2   2   2   30.70    3.70
   1  -2  -2  891.91   71.89
   1  -2  -2  880.81   71.49
   0  -2  -2 3463.75  281.67
   0  -2  -2 3610.14  281.47
   0   2   2 3182.48  281.37
   0   2   2 3847.52  281.87
  -1  -2  -2 1194.68  100.09
  -1  -2  -2 1258.17  100.29
   1   2   2 1220.18   99.89
   1   2   2 1292.77  100.39
  -2  -2  -2  812.42   66.99
   2   2   2  821.62   66.69
   2   2   2  816.62   67.09
  -3  -2  -2  269.37   24.70
   3   2   2  277.27   24.40
  -4  -2  -2   31.80    6.90
   4   2   2   31.90    6.50
  -5  -2  -2  114.29   16.10
  -5  -2  -2  155.78   12.60
  -5  -2  -2  145.39   12.60
   5   2   2  122.09   15.90
   5   2   2  121.09   12.50
  -6  -2  -2  612.04   52.29
  -6  -2  -2  682.33   52.39
  -6  -2  -2  598.54   51.49
   6   2   2  657.33   52.79
  -7  -2  -2  125.29   11.70
  -7  -2  -2  139.69   12.60
   7   2   2  130.39   12.00
   7   2   2  148.99   13.00
  -8  -2  -2  358.86   30.90
  -8  -2  -2  386.46   31.90
   8   2   2  386.36   31.20
  -9  -2  -2 1009.10   75.89
   9   2   2  856.01   75.79
   9   2   2  930.71   74.99
 -10  -2  -2   16.70    3.20
  10   2   2   19.40    3.50
 -11  -2  -2   12.50    2.50
  11   2   2   14.70    2.80
  12  -3  -2  169.78   14.90
  12  -3  -2  189.18   15.30
  11  -3  -2  462.05   41.30
  11  -3  -2  559.44   41.50
  11  -3  -2  505.05   41.00
 -11   3   2  495.65   41.40
  10  -3  -2   19.30    3.40
  10  -3  -2   11.70    2.70
  10  -3  -2   16.10    2.60
 -10   3   2   17.70    3.40
   9  -3  -2  557.84   47.70
   9  -3  -2  593.74   48.40
  -9   3   2  604.14   48.60
   8  -3  -2  275.97   25.60
   8  -3  -2  307.97   25.10
  -8   3   2  316.07   26.00
   7  -3  -2    7.10    1.90
   7  -3  -2    4.20    2.40
  -7   3   2    5.80    2.40
   6  -3  -2  134.29   11.40
   6  -3  -2  118.69   11.30
   6  -3  -2  112.59   19.60
   6  -3  -2  120.99   11.80
  -6   3   2  140.49   12.20
   5  -3  -2  791.42   75.89
   5  -3  -2  888.31   69.79
  -5   3   2  857.61   70.69
  -5   3   2  913.51   73.79
   4  -3  -2    1.20    3.10
  -4   3   2   11.20    3.40
   3  -3  -2 1209.28  100.09
  -3   3   2 1221.08   98.89
   2  -3  -2 3004.40  243.98
  -2   3   2 3197.48  244.08
  -2   3   2 2921.91  243.28
   1  -3  -2   36.00    4.50
  -1   3   2   26.80    3.70
  -1   3   2   33.20    4.40
   0  -3  -2  491.55   41.20
   0   3   2  492.55   41.50
   0   3   2  498.35   40.90
  -1  -3  -2   82.89    9.00
   1   3   2   90.99    9.30
   1   3   2   87.19    8.50
  -2  -3  -2    1.20    1.50
   2   3   2    1.60    1.20
  -3  -3  -2 1581.24  124.79
   3   3   2 1468.35  123.89
  -4  -3  -2 1312.57  102.59
  -4  -3  -2 1162.98  105.09
  -4  -3  -2 1477.55  102.39
   4   3   2 1240.08  104.39
   4   3   2 1122.89  102.09
  -5  -3  -2   13.00    6.80
  -5  -3  -2   21.20    3.80
  -5  -3  -2   23.30    4.10
   5   3   2   20.70    3.60
   5   3   2   21.30    4.20
  -6  -3  -2   50.49    5.20
  -6  -3  -2   50.29    6.30
  -6  -3  -2   55.59    6.20
   6   3   2   45.10    5.80
   6   3   2   51.09    6.40
  -7  -3  -2   46.70    5.60
  -7  -3  -2   44.70    4.70
   7   3   2   34.80    5.70
   7   3   2   46.70    4.90
  -8  -3  -2   77.39    9.00
   8   3   2  101.49    9.40
  -9  -3  -2  159.18   14.30
   9   3   2  151.58   14.30
 -10  -3  -2  565.94   48.30
  10   3   2  610.44   48.50
  11   3   2   23.10    3.40
  12  -4  -2   94.29    8.50
  12  -4  -2  102.89    8.90
  11  -4  -2    4.20    1.40
  11  -4  -2    6.40    1.80
 -11   4   2    4.40    1.90
  10  -4  -2   39.90    4.90
  10  -4  -2   31.40    4.20
 -10   4   2   43.80    5.50
   9  -4  -2  160.48   14.10
   8  -4  -2  822.12   72.69
   8  -4  -2  944.51   72.29
  -8   4   2  913.91   72.99
   7  -4  -2  149.79   12.80
   7  -4  -2  146.79   12.80
   7  -4  -2  123.69   13.30
  -7   4   2  156.68   13.60
   6  -4  -2  287.97   26.90
   6  -4  -2  352.16   26.70
   6  -4  -2  303.87   26.70
  -6   4   2  341.37   27.50
   5  -4  -2  493.95   38.60
   5  -4  -2  481.85   45.70
   5  -4  -2  412.56   38.80
  -5   4   2  526.25   43.00
  -5   4   2  469.85   39.60
   4  -4  -2   80.09   11.80
  -4   4   2   83.99    9.90
   3  -4  -2  671.63   58.69
  -3   4   2  708.33   57.59
   2  -4  -2 3624.34  281.77
  -2   4   2 3391.26  280.77
   1  -4  -2   16.90    3.70
  -1   4   2   25.80    3.70
   0  -4  -2 1335.27  111.39
   0   4   2 1402.26  110.89
  -1  -4  -2 1124.99   92.29
   1   4   2 1120.99   91.59
  -2  -4  -2  397.26   35.00
   2   4   2  396.26   34.00
  -3  -4  -2   22.80    3.90
  -3  -4  -2   20.90    5.80
  -3  -4  -2   21.70    3.60
   3   4   2   18.70    4.40
   3   4   2   20.60    3.30
  -4  -4  -2  293.57   23.80
  -4  -4  -2  235.98   26.70
  -4  -4  -2  297.47   23.60
   4   4   2  233.18   23.60
   4   4   2  286.47   23.20
  -5  -4  -2    5.10    2.20
  -5  -4  -2    1.00    1.90
   5   4   2    0.50    1.90
   5   4   2    3.70    2.40
  -6  -4  -2  902.91   78.59
  -6  -4  -2  982.20   78.69
   6   4   2  915.11   78.09
   6   4   2 1043.90   78.99
  -7  -4  -2  734.13   55.49
  -7  -4  -2  662.43   56.29
   7   4   2  595.24   56.09
   7   4   2  731.53   55.89
  -8  -4  -2   16.10    2.60
  -8  -4  -2   14.20    3.10
   8   4   2   13.20    3.00
  -9  -4  -2   89.79    9.00
   9   4   2   91.39    9.10
 -10  -4  -2   12.10    2.50
  10   4   2   13.50    2.60
  11  -5  -2  399.76   32.70
  11  -5  -2  388.76   32.40
 -11   5   2  400.56   32.90
  10  -5  -2  360.96   30.50
  10  -5  -2  375.36   30.90
 -10   5   2  375.96   31.20
   9  -5  -2    1.50    1.20
   9  -5  -2    1.60    1.50
  -9   5   2    2.00    1.70
   8  -5  -2    2.20    1.70
   8  -5  -2    3.20    1.60
  -8   5   2    2.60    1.80
   7  -5  -2  354.56   28.80
   7  -5  -2  343.07   28.80
  -7   5   2  328.37   29.30
   6  -5  -2   62.29    7.00
   6  -5  -2   71.49    6.80
  -6   5   2   70.49    7.70
   5  -5  -2 1262.47   95.69
   5  -5  -2 1166.38   96.09
  -5   5   2 1141.99   96.69
   4  -5  -2 1062.69   86.79
   4  -5  -2  976.60   80.89
   4  -5  -2  986.00   81.39
  -4   5   2  917.71   81.79
  -4   5   2 1127.39   84.69
   3  -5  -2   10.60    4.30
   3  -5  -2   11.00    2.00
  -3   5   2    9.00    3.10
   2  -5  -2  459.15   40.10
  -2   5   2  453.55   39.00
   1  -5  -2    4.10    2.60
  -1   5   2    5.20    2.10
   0  -5  -2   58.99    7.90
   0   5   2   55.59    7.00
  -1  -5  -2  279.57   25.20
  -1  -5  -2  252.07   22.70
   1   5   2  296.37   24.50
   1   5   2  252.97   22.40
  -2  -5  -2 1309.37  101.79
  -2  -5  -2 1243.18  104.59
   2   5   2 1226.68  101.49
  -3  -5  -2  173.98   14.60
  -3  -5  -2  148.59   14.70
  -3  -5  -2  147.29   17.70
   3   5   2  153.48   14.90
   3   5   2  158.78   14.20
  -4  -5  -2  832.32   68.39
  -4  -5  -2  884.61   68.39
   4   5   2  775.62   67.89
  -5  -5  -2  245.08   21.10
  -5  -5  -2  253.17   21.00
   5   5   2  222.48   20.90
   5   5   2  203.68   20.20
  -6  -5  -2   78.79    8.90
  -6  -5  -2   66.99    8.40
   6   5   2   77.79    8.30
   6   5   2   80.79    8.70
  -7  -5  -2  199.28   19.10
  -7  -5  -2  214.58   18.10
  -7  -5  -2  203.38   18.90
   7   5   2  211.18   18.90
   7   5   2  219.68   18.60
  -8  -5  -2  233.88   22.50
  -8  -5  -2  261.47   21.90
   8   5   2  284.57   22.90
   8   5   2  264.07   22.40
  -9  -5  -2   15.40    2.90
   9   5   2   16.70    3.10
 -10  -5  -2  305.77   26.30
  10   5   2  328.47   26.50
  11  -6  -2  148.69   14.10
  11  -6  -2  161.08   14.00
  11  -6  -2  174.78   15.00
 -11   6   2  177.88   14.60
 -11   6   2  169.68   14.20
  10  -6  -2   93.09    9.20
  10  -6  -2   99.49    9.00
 -10   6   2  104.79    9.70
   9  -6  -2   38.20    4.80
   9  -6  -2   29.60    4.20
   9  -6  -2   41.80    4.40
  -9   6   2   32.90    5.10
   8  -6  -2  118.69   10.70
   8  -6  -2  131.69   10.70
   8  -6  -2  117.59   11.00
  -8   6   2   87.59   10.70
   7  -6  -2  434.16   42.40
   7  -6  -2  593.24   42.60
   7  -6  -2  592.84   42.80
  -7   6   2  441.76   42.80
   6  -6  -2   11.00    2.70
   6  -6  -2    8.60    2.60
   6  -6  -2   10.80    2.30
  -6   6   2   12.70    3.00
   5  -6  -2   15.50    2.40
   5  -6  -2   13.70    2.80
  -5   6   2   13.80    3.40
   4  -6  -2  406.86   33.90
   4  -6  -2  449.66   34.70
  -4   6   2  396.36   34.80
   3  -6  -2   17.00    5.70
   3  -6  -2   21.20    2.50
   3  -6  -2   19.80    2.90
   3  -6  -2   21.90    3.90
  -3   6   2   17.70    3.10
   2  -6  -2  735.33   65.09
   2  -6  -2  829.62   64.59
   2  -6  -2  840.12   68.69
   1  -6  -2  625.74   51.79
   1  -6  -2  560.14   48.60
   1  -6  -2  607.64   47.90
  -1   6   2  580.84   48.30
   0  -6  -2   47.20    4.60
   0  -6  -2   43.10    5.30
   0  -6  -2   53.09    8.40
   0   6   2   48.00    5.20
  -1  -6  -2   55.19    4.90
  -1  -6  -2   41.60    8.50
  -1  -6  -2   50.09    5.50
  -1  -6  -2   34.90    6.60
   1   6   2   43.40    5.30
  -2  -6  -2    0.50    1.20
  -2  -6  -2    1.10    2.50
  -2  -6  -2    1.80    1.40
   2   6   2    3.60    1.90
  -3  -6  -2   19.40    3.70
  -3  -6  -2   17.00    3.90
   3   6   2   11.70    3.70
   3   6   2   16.90    3.60
  -4  -6  -2  475.25   37.50
  -4  -6  -2  458.85   37.60
   4   6   2  411.56   36.90
   4   6   2  405.66   37.30
  -5  -6  -2  397.96   34.00
  -5  -6  -2  396.66   33.80
   5   6   2  388.36   33.70
   5   6   2  381.36   33.40
  -6  -6  -2   31.80    5.60
  -6  -6  -2   34.70    6.10
   6   6   2   44.50    5.60
   6   6   2   45.60    6.00
  -7  -6  -2  105.99   10.60
  -7  -6  -2  103.29   11.00
  -7  -6  -2  102.29    9.80
   7   6   2  113.69   10.60
   7   6   2  106.39   10.30
  -8  -6  -2   58.99    5.60
  -8  -6  -2   51.89    6.20
   8   6   2   57.99    6.20
   8   6   2   51.69    6.00
  -9  -6  -2   58.49    6.20
   9   6   2   61.49    6.30
  11  -7  -2   48.30    5.40
  11  -7  -2   45.80    4.50
 -11   7   2   47.80    5.00
 -11   7   2   46.20    4.70
  10  -7  -2    2.00    1.20
  10  -7  -2    1.70    1.60
 -10   7   2    3.20    1.60
 -10   7   2    3.20    1.40
   9  -7  -2   37.70    4.40
   9  -7  -2   35.90    4.50
   9  -7  -2   33.90    4.60
  -9   7   2   40.90    5.40
   8  -7  -2   81.79    7.70
   8  -7  -2   59.09    7.70
   8  -7  -2   89.09    7.70
  -8   7   2   62.59    7.80
   7  -7  -2  618.64   46.20
   7  -7  -2  590.94   45.80
  -7   7   2  457.25   46.20
   6  -7  -2  259.17   23.10
   6  -7  -2  273.37   22.50
  -6   7   2  264.17   23.60
   5  -7  -2  183.98   15.90
   5  -7  -2  168.38   15.10
  -5   7   2  179.98   16.30
   4  -7  -2  510.75   40.50
   4  -7  -2  465.85   39.80
  -4   7   2  495.95   40.70
   3  -7  -2   65.99    6.30
   3  -7  -2   58.59    7.30
  -3   7   2   62.69    6.90
  -3   7   2   59.59    6.30
   2  -7  -2   46.80    4.70
   2  -7  -2   41.40    5.10
   2  -7  -2   47.70    5.80
  -2   7   2   45.50    5.40
   1  -7  -2  784.62   65.29
   1  -7  -2  811.22   64.29
  -1   7   2  792.22   64.99
   0  -7  -2  184.78   15.80
   0  -7  -2  198.98   16.80
   0   7   2  172.18   16.40
  -1  -7  -2  223.68   18.50
  -1  -7  -2  220.48   19.50
   1   7   2  210.48   19.30
  -2  -7  -2  934.31   69.89
  -2  -7  -2  748.23   69.99
   2   7   2  855.51   69.69
  -3  -7  -2  218.28   18.90
  -3  -7  -2  244.38   18.70
   3   7   2  151.98   17.60
   3   7   2  185.98   18.50
  -4  -7  -2  208.48   20.20
  -4  -7  -2  231.98   20.40
   4   7   2  221.58   20.20
  -5  -7  -2   81.99    9.60
  -5  -7  -2   92.89    9.60
   5   7   2   70.79    9.00
   5   7   2   93.79    9.40
  -6  -7  -2    4.10    2.80
  -6  -7  -2    2.50    1.50
  -6  -7  -2    6.60    2.40
   6   7   2    4.70    2.20
   6   7   2    2.50    2.20
  -7  -7  -2   64.79    7.40
  -7  -7  -2   68.29    6.80
   7   7   2   72.39    7.40
   7   7   2   74.39    7.40
  -8  -7  -2  332.77   27.60
  -8  -7  -2  307.27   27.10
   8   7   2  337.67   27.60
   8   7   2  344.77   27.50
  10  -8  -2  365.16   30.10
  10  -8  -2  356.46   29.10
 -10   8   2  365.66   29.50
 -10   8   2  332.57   29.00
   9  -8  -2  560.44   45.90
   9  -8  -2  560.94   45.90
  -9   8   2  542.55   45.80
  -9   8   2  592.24   46.50
   8  -8  -2   25.10    3.90
   8  -8  -2   29.00    4.20
  -8   8   2   29.80    4.50
   7  -8  -2   50.89    6.10
   7  -8  -2   42.90    5.70
  -7   8   2   56.89    6.50
   6  -8  -2   15.00    3.40
   6  -8  -2   16.70    3.00
  -6   8   2   21.50    4.10
   5  -8  -2  125.59   11.70
  -5   8   2  146.09   13.00
   4  -8  -2  187.98   17.90
   4  -8  -2  199.48   18.90
   4  -8  -2  216.48   19.00
  -4   8   2  217.28   18.10
   3  -8  -2  923.71   72.59
   3  -8  -2  929.61   73.89
   3  -8  -2  870.61   73.09
  -3   8   2  858.01   72.39
   2  -8  -2   25.00    4.70
   2  -8  -2   28.10    3.80
  -2   8   2   29.70    4.90
   1  -8  -2  108.89   11.00
   1  -8  -2  107.49    9.80
  -1   8   2  107.09   10.90
   0  -8  -2  372.46   30.70
   0  -8  -2  379.36   31.90
   0   8   2  356.86   31.70
  -1  -8  -2   19.30    3.00
  -1  -8  -2   17.70    3.90
   1   8   2   23.00    4.40
  -2  -8  -2    9.10    3.10
  -2  -8  -2   22.30    5.20
   2   8   2   11.10    3.30
  -3  -8  -2  417.96   32.10
  -3  -8  -2  318.47   31.10
  -4  -8  -2   30.40    5.50
  -4  -8  -2   37.70    5.80
   4   8   2   22.60    4.60
  -5  -8  -2  599.44   51.29
  -5  -8  -2  616.74   50.69
   5   8   2  623.64   50.69
   5   8   2  592.74   50.09
  -6  -8  -2  102.49   11.30
  -6  -8  -2  109.19   10.70
  -6  -8  -2  110.39   10.10
   6   8   2  116.89   10.70
   6   8   2  106.19   12.10
  -7  -8  -2  101.09    9.80
  -7  -8  -2  100.89    9.30
   7   8   2  114.19    9.80
   9  -9  -2  281.27   22.90
   9  -9  -2  259.07   21.70
   9  -9  -2  223.68   21.50
  -9   9   2  278.67   22.20
   8  -9  -2    9.40    3.10
   8  -9  -2    7.80    2.10
   8  -9  -2    5.30    2.20
  -8   9   2   11.50    2.70
   7  -9  -2   38.90    6.90
   7  -9  -2   46.50    5.40
  -7   9   2   42.60    6.00
   6  -9  -2  200.38   19.30
   6  -9  -2  188.68   17.70
  -6   9   2  203.48   18.10
   5  -9  -2  186.28   18.30
  -5   9   2  198.88   17.50
   4  -9  -2   -0.30    1.50
   4  -9  -2    1.00    2.20
   4  -9  -2    1.70    2.80
  -4   9   2    0.00    1.80
   3  -9  -2  689.83   56.09
   3  -9  -2  644.24   54.39
   2  -9  -2   18.40    3.20
   2  -9  -2   30.00    5.40
  -2   9   2   19.60    4.80
   1  -9  -2  399.46   34.40
   1  -9  -2  390.66   32.90
  -1   9   2  399.16   34.40
   0  -9  -2  656.33   51.19
   0  -9  -2  590.44   52.49
   0   9   2  627.04   52.69
  -1  -9  -2    2.10    2.00
   1   9   2    4.20    2.80
  -2  -9  -2    3.20    2.30
   2   9   2    3.30    2.60
  -3  -9  -2   15.70    3.80
  -3  -9  -2   10.30    3.80
   3   9   2    8.10    3.10
  -4  -9  -2    1.10    2.30
  -4  -9  -2    0.60    2.50
   4   9   2    2.60    2.10
  -5  -9  -2  175.18   15.00
  -5  -9  -2  167.18   15.50
  -5  -9  -2  171.38   16.40
   5   9   2  158.88   15.20
   5   9   2  185.18   15.70
  -6  -9  -2  241.38   23.40
  -6  -9  -2  287.17   22.70
  -6  -9  -2  258.37   22.90
   6   9   2  300.87   23.10
   8 -10  -2    4.40    2.30
   8 -10  -2    3.50    1.50
  -8  10   2    3.90    1.90
   7 -10  -2    5.70    2.90
   7 -10  -2    6.30    2.10
  -7  10   2    8.60    2.60
   6 -10  -2  137.19   14.40
   6 -10  -2  159.18   13.60
  -6  10   2  133.39   13.40
   5 -10  -2  332.77   31.50
   5 -10  -2  420.06   31.30
  -5  10   2  347.17   30.60
   4 -10  -2   83.69    8.60
   4 -10  -2   86.59   10.00
   3 -10  -2  746.33   62.19
   3 -10  -2  780.02   63.99
   2 -10  -2    7.10    3.20
   2 -10  -2    9.70    2.30
   1 -10  -2    3.40    1.70
   1 -10  -2    2.20    2.50
  -1  10   2    1.70    3.20
   0 -10  -2    3.40    2.40
   0 -10  -2    7.70    2.20
   0  10   2    7.00    3.60
  -1 -10  -2   93.39   10.20
   1  10   2   91.49   10.50
  -2 -10  -2   31.90    5.60
   2  10   2   32.80    5.50
  -3 -10  -2  273.97   24.50
   3  10   2  268.07   23.80
  -4 -10  -2  552.34   46.10
  -4 -10  -2  538.85   44.70
   4  10   2  563.94   45.30
   4  10   2  531.15   45.00
  -5 -10  -2   49.50    6.50
  -5 -10  -2   48.50    4.90
   5  10   2   46.30    5.30
   7 -11  -2   10.80    2.40
   6 -11  -2    7.60    2.30
   5 -11  -2   34.40    4.90
   4 -11  -2   -0.10    1.60
   3 -11  -2  190.18   16.70
   3 -11  -2  191.18   18.60
   2 -11  -2  293.27   24.50
   2 -11  -2  240.48   22.10
   1 -11  -2    1.90    2.60
   1 -11  -2    2.40    1.70
  -1  11   2    2.30    3.70
   0 -11  -2   43.60    6.80
   0  11   2   43.80    6.80
  -1 -11  -2   39.40    6.10
   1  11   2   35.20    5.70
  -2 -11  -2    5.70    2.90
   2  11   2    6.80    2.60
  -3 -11  -2   52.69    6.90
  -3 -11  -2   52.29    5.60
   3  11   2   50.29    6.10
   3  11   2   55.89    6.10
   5 -12  -2  236.58   21.90
   4 -12  -2  193.08   16.70
   3 -12  -2   90.89    9.00
   3 -12  -2  106.99   11.30
   2 -12  -2    0.90    3.20
   1 -12  -2    3.60    2.80
   0 -12  -2   23.20    4.60
  -1 -12  -2  156.28   15.70
   1  12   2  169.18   15.40
   2  12  -3    4.20    2.10
   1  12  -3    6.70    2.80
  -1 -12   3    9.00    4.00
  -1 -12   3    6.20    2.60
   0  12  -3    8.50    2.90
   0 -12   3    4.40    2.20
  -1  12  -3    2.90    2.70
   1 -12   3    2.50    2.20
  -2  12  -3   24.70    3.60
   2 -12   3   29.80    5.00
  -3  12  -3  218.98   20.40
   3 -12   3  271.97   22.00
  -4  12  -3   56.09    6.50
   4 -12   3   70.29    7.90
  -5  12  -3   98.99    9.50
   5 -12   3   87.29    9.50
   5 -12   3  115.99   10.50
  -6  12  -3   10.50    2.50
   4  11  -3  113.49   10.20
   4  11  -3  114.89   10.10
  -4 -11   3   92.99   11.10
   3  11  -3  274.67   21.60
   3  11  -3  260.37   21.40
  -3 -11   3  224.38   22.30
  -3 -11   3  228.48   21.70
   2  11  -3   41.40    5.80
  -2 -11   3   31.60    6.30
  -2 -11   3   45.00    6.20
   1  11  -3   47.50    6.50
  -1 -11   3   38.50    5.80
  -1 -11   3   28.60    5.80
   0  11  -3  135.09   12.80
   0 -11   3  117.69   12.00
   0 -11   3  113.09   13.00
  -1  11  -3   58.09    7.60
  -1  11  -3   50.89    6.00
   1 -11   3   54.19    6.90
   1 -11   3   59.49    8.20
  -2  11  -3    8.40    2.40
  -2  11  -3   10.80    3.30
   2 -11   3    9.70    3.10
  -3  11  -3   85.49    8.80
   3 -11   3   97.09   10.30
  -4  11  -3  101.29    9.70
   4 -11   3   87.89    9.30
   4 -11   3  107.19   11.00
  -5  11  -3  247.88   22.50
   5 -11   3  285.57   23.70
   5 -11   3  252.37   22.40
  -6  11  -3   83.69    8.40
   6 -11   3   71.99    8.10
   6 -11   3   87.69    8.80
  -7  11  -3   98.09    9.30
   7 -11   3   94.99    9.20
   6  10  -3   67.29    6.90
  -6 -10   3   77.39    7.90
   5  10  -3  974.20   78.29
   5  10  -3 1011.10   78.49
  -5 -10   3  913.11   79.49
   4  10  -3    0.80    1.80
   4  10  -3    1.50    1.90
  -4 -10   3    5.40    3.10
   3  10  -3  182.18   16.40
   3  10  -3  183.98   16.50
  -3 -10   3  180.18   16.80
  -3 -10   3  170.08   17.50
   2  10  -3    5.90    2.60
   2  10  -3    2.70    2.20
  -2 -10   3   -0.60    2.70
  -2 -10   3    1.10    2.20
   1  10  -3   63.19    8.50
  -1 -10   3   64.49    7.60
  -1 -10   3   65.59    8.90
   0  10  -3  225.08   19.90
   0  10  -3  276.77   22.10
   0 -10   3  214.98   20.80
   0 -10   3  234.28   21.50
  -1  10  -3  907.91   68.49
  -1  10  -3  776.92   66.69
   1 -10   3  801.92   67.99
  -2  10  -3  182.28   16.20
  -2  10  -3  178.08   15.10
   2 -10   3  150.58   15.90
  -3  10  -3  304.47   23.30
   3 -10   3  265.97   22.80
   3 -10   3  233.08   24.00
  -4  10  -3  319.27   27.30
   4 -10   3  346.67   28.90
   4 -10   3  298.37   27.00
  -5  10  -3   52.89    7.20
   5 -10   3   73.09    8.60
   5 -10   3   67.39    7.30
  -6  10  -3    4.50    2.00
  -6  10  -3    1.30    1.80
   6 -10   3    3.20    2.10
   6 -10   3    1.20    2.60
  -7  10  -3  218.88   17.70
  -7  10  -3  162.18   16.80
   7 -10   3  215.88   17.50
   7 -10   3  194.38   17.50
  -8  10  -3    5.20    1.80
  -8  10  -3    2.30    1.80
   8 -10   3    5.90    1.90
  -9  10  -3   78.79    7.50
   7   9  -3  156.88   13.30
  -7  -9   3  144.19   14.00
   6   9  -3   71.99    6.80
   6   9  -3   59.59    6.70
  -6  -9   3   57.29    8.10
   5   9  -3    9.20    2.50
   5   9  -3   14.10    2.90
  -5  -9   3   11.70    3.90
   4   9  -3    8.00    2.80
   4   9  -3   12.30    2.90
  -4  -9   3    2.20    2.90
   3   9  -3  178.78   15.90
  -3  -9   3  151.68   16.50
  -3  -9   3  173.18   15.90
   2   9  -3  130.19   12.50
  -2  -9   3  118.59   12.20
  -2  -9   3  127.59   13.10
   1   9  -3  168.58   13.90
   1   9  -3  124.69   14.90
   1   9  -3  139.99   14.90
  -1  -9   3  170.38   14.90
  -1  -9   3  167.48   15.50
   0   9  -3   18.00    3.10
   0   9  -3   24.10    5.30
   0  -9   3   19.20    3.80
  -1   9  -3    2.60    1.60
  -1   9  -3    6.90    3.30
   1  -9   3    3.30    2.00
  -2   9  -3   11.00    2.30
  -2   9  -3   10.80    3.40
   2  -9   3    8.40    2.80
   2  -9   3   10.00    2.40
  -3   9  -3   97.49    8.70
   3  -9   3   65.89    9.00
   3  -9   3   89.19    8.30
  -4   9  -3  511.25   44.30
   4  -9   3  580.94   45.20
   4  -9   3  546.15   46.40
  -5   9  -3   21.90    3.50
  -5   9  -3   15.50    3.60
   5  -9   3   28.00    4.30
   5  -9   3   29.10    5.50
  -6   9  -3   44.20    5.30
  -6   9  -3   33.30    5.60
   6  -9   3   40.30    5.70
   6  -9   3   47.10    6.60
  -7   9  -3    8.20    2.30
  -7   9  -3    9.30    2.60
   7  -9   3    9.30    2.50
   7  -9   3    7.10    2.80
  -8   9  -3   25.50    3.90
  -8   9  -3   23.50    3.50
   8  -9   3   23.70    3.60
  -9   9  -3   10.40    2.40
  -9   9  -3   13.60    2.30
   9  -9   3    9.60    2.00
   8   8  -3  363.66   30.30
  -8  -8   3  370.06   30.80
   7   8  -3  295.27   24.80
  -7  -8   3  291.27   25.90
   6   8  -3    0.30    1.50
   6   8  -3    3.10    1.80
  -6  -8   3    4.10    2.50
   5   8  -3  262.17   22.90
  -5  -8   3  266.97   24.50
   4   8  -3  195.18   17.80
   4   8  -3  203.58   17.90
   3   8  -3   94.69    9.70
  -3  -8   3   90.99   10.40
  -3  -8   3   95.09    9.70
   2   8  -3  459.95   44.60
   2   8  -3  571.04   45.10
  -2  -8   3  566.84   45.30
  -2  -8   3  541.45   44.50
   1   8  -3  368.56   29.80
   1   8  -3  325.57   30.80
   1   8  -3  376.76   31.30
  -1  -8   3  364.56   30.50
   0   8  -3  149.69   13.20
   0  -8   3  149.79   13.90
  -1   8  -3 1504.25  115.49
  -1   8  -3 1378.76  115.69
   1  -8   3 1425.26  116.19
  -2   8  -3  610.64   51.19
  -2   8  -3  693.43   51.89
  -2   8  -3  644.64   52.09
   2  -8   3  578.14   51.39
   2  -8   3  653.13   52.59
  -3   8  -3   38.50    4.10
  -3   8  -3   33.50    4.90
  -3   8  -3   35.50    4.50
   3  -8   3   38.20    5.90
   3  -8   3   38.30    4.50
  -4   8  -3   44.60    7.10
  -4   8  -3   52.69    6.10
  -4   8  -3   55.09    5.50
   4  -8   3   60.19    6.40
  -5   8  -3  376.56   30.90
  -5   8  -3  334.17   31.50
   5  -8   3  406.56   31.90
  -6   8  -3    2.40    1.60
  -6   8  -3    0.10    1.60
   6  -8   3   -0.10    1.70
  -7   8  -3  652.83   53.09
  -7   8  -3  702.43   52.59
   7  -8   3  680.63   53.19
   7  -8   3  530.05   52.39
  -8   8  -3  341.37   28.90
  -8   8  -3  347.37   29.30
  -9   8  -3    1.60    1.30
  -9   8  -3    1.20    1.70
   9  -8   3    1.80    1.40
 -10   8  -3  450.75   38.60
 -10   8  -3  494.75   38.50
  10  -8   3  474.85   38.60
   9   7  -3  138.29   12.40
   8   7  -3   19.70    3.10
  -8  -7   3   17.30    3.90
   7   7  -3   52.69    5.60
  -7  -7   3   38.30    6.80
   6   7  -3   28.10    4.40
   6   7  -3   39.90    4.80
  -6  -7   3   19.50    4.80
   5   7  -3    5.90    2.00
   5   7  -3   10.30    2.50
  -5  -7   3    3.10    2.80
   4   7  -3 1381.66  104.79
   4   7  -3 1332.27  104.79
  -4  -7   3 1163.58  105.39
   3   7  -3  206.18   16.30
   3   7  -3  175.48   16.20
  -3  -7   3  164.58   15.70
  -3  -7   3  172.18   16.60
   2   7  -3  183.88   15.50
   2   7  -3  185.68   16.60
   2   7  -3  179.98   16.40
  -2  -7   3  168.88   15.90
  -2  -7   3  188.88   16.70
   1   7  -3   75.09    8.60
   1   7  -3   76.59    7.60
   1   7  -3   80.19    7.40
  -1  -7   3   80.09    7.90
   0   7  -3  395.86   32.90
   0   7  -3  411.36   32.80
   0  -7   3  387.26   33.30
  -1   7  -3   20.80    3.00
  -1   7  -3   16.50    2.30
  -1   7  -3   16.40    2.70
   1  -7   3   21.30    3.40
  -2   7  -3  439.86   35.40
  -2   7  -3  424.86   35.80
  -2   7  -3  456.35   35.90
   2  -7   3  421.86   35.70
  -3   7  -3  171.08   14.40
  -3   7  -3  151.28   14.20
  -3   7  -3  160.68   13.80
   3  -7   3  169.68   14.50
  -4   7  -3  351.96   28.70
  -4   7  -3  295.07   28.20
  -4   7  -3  347.37   28.00
   4  -7   3  367.56   29.00
  -5   7  -3  905.01   72.89
  -5   7  -3  904.91   73.59
   5  -7   3  891.31   73.69
  -6   7  -3    3.70    1.90
  -6   7  -3    4.90    2.20
   6  -7   3    3.00    2.00
  -7   7  -3   30.90    4.40
  -7   7  -3   31.90    4.80
   7  -7   3   31.40    4.40
   7  -7   3   19.50    3.80
  -8   7  -3  199.28   15.00
  -8   7  -3  125.39   13.90
   8  -7   3  182.48   14.20
   8  -7   3  139.69   14.20
  -9   7  -3    3.90    1.80
  -9   7  -3    3.80    1.60
   9  -7   3    2.70    1.60
   9  -7   3    3.50    1.70
 -10   7  -3   73.69    6.60
 -10   7  -3   63.69    6.70
  10  -7   3   66.09    6.50
  10  -7   3   67.59    6.60
 -11   7  -3  266.07   21.90
   9   6  -3  191.38   15.80
   9   6  -3  176.68   15.90
  -9  -6   3  177.78   16.30
   8   6  -3  270.37   24.60
   8   6  -3  299.17   24.50
  -8  -6   3  296.97   25.50
   7   6  -3  686.93   58.49
   7   6  -3  744.03   58.79
  -7  -6   3  711.43   59.99
   6   6  -3   47.30    5.80
   6   6  -3   37.90    5.60
   6   6  -3   49.10    6.50
  -6  -6   3   54.39    7.90
   5   6  -3  101.79   10.70
   5   6  -3  133.49   11.10
  -5  -6   3  112.89   12.10
   4   6  -3    1.90    1.60
   4   6  -3    1.70    1.60
  -4  -6   3    2.00    2.00
   3   6  -3  187.88   15.70
   3   6  -3  166.78   15.40
  -3  -6   3  159.28   15.10
  -3  -6   3  183.28   15.90
   2   6  -3   87.99    8.90
   2   6  -3   94.29    8.20
   2   6  -3   92.99    9.20
  -2  -6   3   82.49    8.30
   1   6  -3 2134.99  165.48
   1   6  -3 2120.79  165.38
  -1  -6   3 1953.70  165.68
   0   6  -3  716.43   58.09
   0   6  -3  753.52   58.09
   0  -6   3  686.03   58.49
   0  -6   3  720.83   60.69
  -1   6  -3  226.98   19.90
  -1   6  -3  242.78   20.00
   1  -6   3  252.77   22.90
  -2   6  -3   10.10    1.70
  -2   6  -3    9.00    1.90
  -2   6  -3   11.50    2.00
   2  -6   3    5.80    1.90
   2  -6   3   13.60    4.30
  -3   6  -3    0.70    1.20
  -3   6  -3    1.50    1.00
  -3   6  -3    3.80    1.30
   3  -6   3   -1.00    1.40
  -4   6  -3    7.20    1.70
  -4   6  -3   12.00    2.40
  -4   6  -3    7.00    2.00
   4  -6   3   10.40    2.90
  -5   6  -3 1275.67   98.19
  -5   6  -3 1141.99   98.59
   5  -6   3 1238.78   98.89
  -6   6  -3  549.65   43.20
  -6   6  -3  504.05   43.50
   6  -6   3  461.35   42.70
   6  -6   3  583.84   43.70
   7  -6   3  579.64   42.50
   7  -6   3  455.45   42.60
  -8   6  -3  685.63   54.79
   8  -6   3  678.73   54.19
   8  -6   3  634.24   54.49
  -9   6  -3  143.89   15.80
  -9   6  -3  191.78   16.30
   9  -6   3  209.58   16.10
   9  -6   3  197.38   16.30
 -10   6  -3   22.60    3.10
  10  -6   3   22.60    3.10
  10  -6   3   17.70    3.00
 -11   6  -3   11.00    2.00
  11  -6   3   14.20    2.10
  11  -6   3   13.30    2.10
  10   5  -3    7.80    2.00
  10   5  -3    9.40    2.20
   9   5  -3   16.20    3.00
   9   5  -3   10.10    2.40
  -9  -5   3   10.80    3.00
   8   5  -3    6.30    2.30
   8   5  -3    4.80    2.00
  -8  -5   3    4.10    2.70
   7   5  -3   12.50    2.60
   7   5  -3   11.90    3.10
  -7  -5   3   10.70    3.70
   6   5  -3  809.42   63.79
   6   5  -3  802.42   63.19
   6   5  -3  759.12   63.29
  -6  -5   3  723.93   64.49
   5   5  -3  218.88   19.00
   5   5  -3  217.08   18.40
   5   5  -3  199.58   18.40
  -5  -5   3  212.28   19.50
   4   5  -3  836.12   69.69
   4   5  -3  877.91   69.89
  -4  -5   3  864.11   70.39
   3   5  -3 1582.14  134.09
   3   5  -3 1696.23  134.89
   3   5  -3 1612.24  134.69
  -3  -5   3 1825.42  135.09
   2   5  -3    4.00    2.10
   2   5  -3    4.50    1.50
   2   5  -3    6.70    2.30
  -2  -5   3    2.10    2.30
  -1  -5   3  166.98   16.00
   0   5  -3  262.27   23.40
   0  -5   3  282.57   24.30
  -1   5  -3   18.30    3.40
   1  -5   3   17.20    3.90
   2  -5   3  328.17   29.40
  -3   5  -3 1126.69   95.99
  -3   5  -3 1134.89   95.39
   3  -5   3 1311.47   99.39
  -4   5  -3   67.79    6.30
  -4   5  -3   67.69    6.70
   4  -5   3   66.79   11.90
  -5   5  -3  178.88   16.10
  -5   5  -3  192.08   16.00
  -5   5  -3  192.28   15.70
   5  -5   3  159.28   15.40
  -6   5  -3   59.19    6.10
  -6   5  -3   48.90    6.40
  -6   5  -3   57.29    6.60
   6  -5   3   61.39    6.50
   6  -5   3   58.19    6.00
  -7   5  -3   23.10    3.50
  -7   5  -3   19.60    3.60
  -7   5  -3   13.00    3.40
   7  -5   3   18.80    3.40
   7  -5   3   14.80    2.70
  -8   5  -3  317.07   27.90
  -8   5  -3  263.67   27.40
  -8   5  -3  360.36   27.90
   8  -5   3  344.47   27.40
   8  -5   3  360.76   27.90
  -9   5  -3  379.06   32.80
   9  -5   3  384.46   32.90
   9  -5   3  421.66   32.70
 -10   5  -3   57.09    6.00
  10  -5   3   60.09    6.00
  10  -5   3   58.79    6.10
 -11   5  -3  116.69   10.50
  11  -5   3  123.19   10.50
  10   4  -3  131.39   12.50
  10   4  -3  156.48   13.10
   9   4  -3 1207.28   95.09
   9   4  -3 1229.28   94.69
  -9  -4   3 1078.59   94.89
   8   4  -3   50.99    5.90
   8   4  -3   49.40    5.40
  -8  -4   3   35.20    6.10
   7   4  -3   42.20    5.40
   7   4  -3   42.00    5.00
  -7  -4   3   42.90    6.80
   6   4  -3    5.80    2.30
   6   4  -3    3.90    1.80
   6   4  -3    6.10    2.50
   6   4  -3    4.10    1.90
  -6  -4   3    7.80    2.90
   5   4  -3    0.10    1.10
   5   4  -3   -1.10    1.70
   5   4  -3    3.10    1.90
   5   4  -3    0.40    1.50
  -5  -4   3    1.90    1.90
   4   4  -3    7.20    2.60
   4   4  -3   11.20    2.40
   4   4  -3   10.80    1.90
   4   4  -3   10.40    2.20
  -4  -4   3    7.60    2.60
  -3  -4   3 1669.93  136.39
   2   4  -3  784.42   64.99
  -2  -4   3  805.32   65.89
   1   4  -3  582.54   49.20
  -1  -4   3  632.44   49.90
  -1  -4   3  585.64   50.09
   0   4  -3 1472.15  124.39
   0  -4   3 1597.74  124.99
   0  -4   3 1578.54  125.09
  -1   4  -3    5.30    1.50
   1  -4   3    4.80    1.60
   1  -4   3    7.40    2.10
  -2   4  -3   90.19    8.70
   2  -4   3   89.29    9.70
   2  -4   3   86.89    8.90
  -3   4  -3  471.25   41.10
   3  -4   3  505.55   42.90
  -4   4  -3 1262.67  101.89
   4  -4   3 1275.27  106.99
  -5   4  -3 1207.48   99.09
  -5   4  -3 1425.16  100.49
  -5   4  -3 1121.49   98.99
   5  -4   3 1164.28   98.49
  -6   4  -3 1205.88   97.79
  -6   4  -3 1161.48   97.79
   6  -4   3 1258.57   97.19
  -7   4  -3   13.30    2.90
  -7   4  -3    9.40    2.60
   7  -4   3    8.40    1.90
  -8   4  -3  355.16   31.30
  -8   4  -3  379.76   31.70
  -8   4  -3  364.26   31.40
   8  -4   3  396.16   31.20
   8  -4   3  386.56   31.60
  -9   4  -3    2.30    1.80
  -9   4  -3    2.40    1.40
   9  -4   3    3.30    1.90
   9  -4   3    7.90    1.90
 -10   4  -3   52.59    5.40
  10  -4   3   47.00    5.60
  10  -4   3   55.69    5.50
 -11   4  -3   97.99    9.30
  11  -4   3  112.99    9.50
  11   3  -3  310.87   26.00
  10   3  -3   34.70    4.70
   9   3  -3  331.27   28.00
   9   3  -3  337.57   28.60
   8   3  -3  259.47   23.50
   8   3  -3  301.07   23.30
  -8  -3   3  249.97   23.70
   7   3  -3  113.59   10.30
   7   3  -3  119.59   10.80
  -7  -3   3   91.19   10.90
   6   3  -3 1098.69   88.89
   6   3  -3 1183.18   89.29
   6   3  -3 1222.38   89.89
   6   3  -3 1023.20   89.29
  -6  -3   3  985.90   89.89
   5   3  -3 1762.32  137.49
   5   3  -3 1778.12  138.19
   5   3  -3 1749.92  137.59
   5   3  -3 1658.43  137.29
  -5  -3   3 1626.54  138.09
   4   3  -3    0.80    1.10
  -4  -3   3    0.90    2.60
   3   3  -3  300.37   26.30
  -3  -3   3  303.77   27.10
   2   3  -3   17.90    2.90
  -2  -3   3   19.20    3.70
  -2  -3   3   18.20    4.50
   1   3  -3   58.49    5.90
  -1  -3   3   59.69    6.50
  -1  -3   3   68.29    6.40
   0   3  -3 1866.61  156.78
   0   3  -3 1867.01  156.28
   0  -3   3 2063.69  156.78
   0  -3   3 2029.30  156.78
  -1   3  -3 2208.88  189.08
   1  -3   3 2444.36  189.68
   1  -3   3 2453.05  189.28
  -2   3  -3  198.78   17.50
   2  -3   3  209.18   18.40
   2  -3   3  193.18   17.20
  -3   3  -3  693.43   54.99
   3  -3   3  625.64   54.19
   3  -3   3  665.23   56.69
  -4   3  -3  435.16   36.20
   4  -3   3  380.76   37.90
  -5   3  -3    2.40    1.60
  -5   3  -3    1.50    1.90
   5  -3   3    0.70    1.30
   5  -3   3   -2.40    4.10
  -6   3  -3  257.77   21.70
  -6   3  -3  238.28   20.60
  -6   3  -3  219.08   20.50
   6  -3   3  237.08   20.00
  -7   3  -3  646.84   52.09
   7  -3   3  622.04   51.49
  -8   3  -3    1.10    1.80
   8  -3   3    4.40    1.60
  -9   3  -3  428.66   35.50
  -9   3  -3  422.36   35.10
   9  -3   3  426.16   35.40
 -10   3  -3  502.45   41.00
 -10   3  -3  482.65   41.40
  10  -3   3  522.65   41.20
 -11   3  -3   17.30    2.60
  11  -3   3   19.10    2.70
  12  -3   3   89.09    7.90
  11   2  -3  374.66   31.30
  10   2  -3  415.76   34.90
   9   2  -3  212.88   17.30
   9   2  -3  184.78   17.70
   8   2  -3  228.28   23.50
   8   2  -3  294.67   23.50
   8   2  -3  304.87   23.40
   7   2  -3  209.48   17.80
   7   2  -3  215.18   18.30
   7   2  -3  202.68   17.60
  -7  -2   3  185.78   18.20
   6   2  -3  301.47   27.90
   6   2  -3  349.17   27.90
   6   2  -3  337.87   28.20
   6   2  -3  395.36   28.90
  -6  -2   3  293.87   28.40
   5   2  -3  253.57   22.30
   5   2  -3  267.77   21.70
   5   2  -3  251.67   21.70
   4   2  -3 1300.07  100.99
  -4  -2   3 1139.89  101.69
   3   2  -3 1681.33  123.29
  -3  -2   3 1291.37  124.69
  -3  -2   3 1574.94  123.89
   2   2  -3 3210.08  243.38
  -2  -2   3 2567.44  244.38
  -2  -2   3 3339.87  243.78
   1   2  -3   12.90    1.70
   1   2  -3   13.20    2.30
  -1  -2   3   13.70    1.90
  -1  -2   3   12.80    2.40
   0   2  -3    3.20    0.90
   0  -2   3    2.20    0.80
   0  -2   3    2.80    0.90
  -1   2  -3  128.39   11.50
  -1   2  -3  128.79   11.50
   1  -2   3  145.19   11.50
   1  -2   3  125.39   11.90
  -2   2  -3   19.60    3.20
  -2   2  -3   24.60    3.10
   2  -2   3   21.00    4.40
   2  -2   3   20.10    2.60
  -3   2  -3  113.09   11.10
   3  -2   3   92.29   12.10
   3  -2   3  108.89   10.60
  -4   2  -3 4114.59  306.47
   4  -2   3 3494.25  307.67
  -5   2  -3  115.39   12.50
  -5   2  -3  126.79   11.70
   5  -2   3  155.88   16.90
  -6   2  -3  343.47   28.20
  -6   2  -3  351.16   27.10
  -6   2  -3  277.57   26.10
   6  -2   3  315.47   26.40
  -7   2  -3   41.90    6.50
  -7   2  -3   31.20    4.60
   7  -2   3   35.70    4.40
   8  -2   3   -0.70    1.10
   9  -2   3   98.49    9.20
 -10   2  -3  763.82   61.29
 -10   2  -3  769.92   61.79
  10  -2   3  738.63   61.39
  11  -2   3   50.09    5.10
  11   1  -3   53.49    6.00
  10   1  -3  380.86   32.80
  10   1  -3  395.36   32.20
   9   1  -3    2.70    1.70
   9   1  -3    4.20    1.80
  -9  -1   3    0.20    2.50
   8   1  -3 2305.57  190.58
   8   1  -3 2308.77  191.28
   8   1  -3 2537.05  190.98
   7   1  -3  349.57   30.10
   7   1  -3  340.17   29.30
   7   1  -3  374.86   29.80
   6   1  -3  147.59   13.40
   6   1  -3  142.99   12.60
   6   1  -3  139.99   12.90
   5   1  -3  210.28   22.40
   5   1  -3  219.78   18.30
   5   1  -3  199.68   18.70
  -5  -1   3  237.38   23.30
   4   1  -3  153.98   16.10
  -4  -1   3  132.59   15.80
  -4  -1   3  178.38   22.70
   3   1  -3    1.80    2.20
  -3  -1   3    6.10    2.70
  -3  -1   3    7.00    4.00
   2   1  -3 6568.74  488.65
  -2  -1   3 6086.99  488.85
  -2  -1   3 5725.23  490.35
   1   1  -3 4876.81  354.06
  -1  -1   3 4005.10  354.76
   0  -1   3   11.90    5.70
  -1   1  -3 1092.49   89.79
  -1   1  -3 1129.09   89.69
   1  -1   3 1143.79   89.59
   1  -1   3 1120.49   90.29
  -2   1  -3 1219.08  108.39
  -2   1  -3 1491.25  108.99
   2  -1   3 1346.57  109.59
   2  -1   3 1321.87  108.29
  -3   1  -3  266.07   22.50
   3  -1   3  201.28   21.80
   3  -1   3  268.37   23.80
  -4   1  -3   49.40    7.40
   4  -1   3   47.10    8.90
  -5   1  -3  903.41   78.79
   5  -1   3 1063.19   83.69
  -6   1  -3  217.18   18.50
  -6   1  -3  224.08   19.80
  -6   1  -3  230.28   18.70
  -6   1  -3  205.08   17.90
   6  -1   3  200.38   18.50
  -7   1  -3 1541.55  117.99
  -7   1  -3 1541.85  119.19
   7  -1   3 1423.96  117.39
   7  -1   3 1349.47  117.69
  -8   1  -3  402.26   31.60
   8  -1   3  339.77   30.90
   8  -1   3  379.16   31.40
  -9   1  -3   15.60    3.00
  -9   1  -3   12.70    2.60
   9  -1   3   12.70    2.90
   9  -1   3   12.70    2.50
 -10   1  -3   87.49    8.80
  10  -1   3   95.49    8.50
  10  -1   3   87.79    8.90
 -11   1  -3    0.70    1.50
  11  -1   3    2.40    1.30
  12   0  -3  206.98   17.60
  11   0  -3   41.60    4.80
  11   0  -3   47.40    5.40
  10   0  -3 1161.28   88.09
  10   0  -3  978.40   87.39
  10   0  -3 1188.18   88.59
 -10   0   3 1036.40   88.39
   9   0  -3   96.49   11.30
   9   0  -3  118.19   10.70
   9   0  -3  147.99   11.50
  -9   0   3  134.69   12.20
   8   0  -3   60.39    6.40
   8   0  -3   53.19    6.10
   8   0  -3   60.79    6.80
   8   0  -3   63.49    6.00
   7   0  -3   77.09    7.90
   7   0  -3   88.79    8.70
   7   0  -3   89.39    8.10
   6   0  -3   17.70    3.20
   6   0  -3   23.50    3.90
   6   0  -3   22.80    3.30
   6   0  -3   16.30    2.90
   5   0  -3   27.60    7.30
  -5   0   3   32.70    7.10
   4   0  -3 4872.81  369.66
  -4   0   3 4840.22  368.36
  -4   0   3 4033.40  369.16
   3   0  -3  123.69   13.50
  -3   0   3  114.79   13.10
  -3   0   3  119.19   12.40
   2   0  -3 2417.36  212.48
   2   0  -3 2785.72  210.88
  -2   0   3 2706.53  211.68
   1   0  -3  315.47   27.00
  -1   0   3  345.97   27.30
   0   0   3   83.59    7.50
   0   0   3  102.29    7.70
  -1   0  -3  161.78   16.10
  -1   0  -3  192.58   15.30
   1   0   3  163.58   15.60
   1   0   3  209.98   15.30
  -2   0  -3 2554.84  192.88
  -2   0  -3 2295.57  194.18
   2   0   3 2477.75  192.78
   2   0   3 2289.07  193.18
  -3   0  -3 1105.19   88.89
   3   0   3 1126.09   88.99
   3   0   3 1009.60   88.79
  -4   0  -3   88.29   10.90
   4   0   3   80.89   10.70
  -5   0  -3 1410.86  108.39
   5   0   3 1271.67  112.49
  -6   0  -3   -0.10    1.50
  -6   0  -3    0.40    1.00
  -6   0  -3    0.80    1.30
  -6   0  -3    0.20    2.20
   6   0   3    3.50    2.20
  -7   0  -3   22.00    3.90
  -7   0  -3   29.40    4.20
  -7   0  -3   27.00    3.30
  -7   0  -3   27.70    5.20
   7   0   3   25.80    4.00
   7   0   3   23.30    3.50
  -8   0  -3  349.87   30.30
   8   0   3  363.86   30.00
   8   0   3  363.86   30.40
  -9   0  -3    2.90    1.80
   9   0   3    2.20    1.80
   9   0   3    3.80    1.60
 -10   0  -3  297.27   25.30
  10   0   3  297.17   24.90
  10   0   3  299.07   25.40
 -11   0  -3  359.26   31.30
  11   0   3  376.96   31.50
  11   0   3  403.16   31.10
  12  -1  -3    1.60    1.50
  11  -1  -3   38.40    4.30
  11  -1  -3   33.00    3.80
  11  -1  -3   38.50    4.60
 -11   1   3   30.90    4.50
  10  -1  -3  430.86   36.10
  10  -1  -3  452.65   35.80
  10  -1  -3  426.26   35.30
 -10   1   3  414.06   36.20
   9  -1  -3  610.64   49.60
   9  -1  -3  609.24   49.10
   9  -1  -3  622.34   49.99
  -9   1   3  566.64   50.09
   8  -1  -3  429.96   35.90
   8  -1  -3  427.86   35.10
  -8   1   3  416.56   36.10
   7  -1  -3  770.82   68.09
   7  -1  -3  876.01   68.29
   7  -1  -3  887.51   69.09
   6  -1  -3    6.80    2.00
   6  -1  -3    7.90    2.50
   6  -1  -3    6.90    2.10
   5  -1  -3  171.58   20.50
  -5   1   3  187.48   18.90
   4  -1  -3  504.85   47.30
  -4   1   3  539.85   46.90
  -4   1   3  536.75   45.60
   3  -1  -3  138.89   16.10
  -3   1   3  161.78   15.10
  -3   1   3  167.88   15.40
   2  -1  -3 1072.19   88.49
   2  -1  -3 1059.59   89.99
  -2   1   3 1138.39   89.19
  -2   1   3 1134.29   89.09
   1  -1  -3 7116.29  508.35
   1  -1  -3 6135.59  508.75
  -1   1   3 5903.41  508.35
   0  -1  -3  894.81   77.59
   0  -1  -3  965.20   77.59
   0   1   3 1035.50   77.79
   0   1   3  971.30   77.49
  -1  -1  -3   39.50    4.40
  -1  -1  -3   42.70    4.60
   1   1   3   45.40    4.60
   1   1   3   41.20    4.20
  -2  -1  -3   34.10    4.40
   2   1   3   34.80    4.70
   2   1   3   36.60    4.30
  -3  -1  -3    5.20    2.30
   3   1   3    5.30    2.90
   3   1   3    6.50    2.40
  -4  -1  -3   60.09    8.60
   4   1   3   54.59    8.20
  -5  -1  -3 2566.34  202.98
  -5  -1  -3 2840.92  203.78
  -5  -1  -3 2575.34  203.78
   5   1   3 2171.58  207.18
  -6  -1  -3  231.18   19.80
  -6  -1  -3  231.38   18.90
  -6  -1  -3  234.38   19.70
   6   1   3  205.68   20.00
  -7  -1  -3  315.67   24.60
  -7  -1  -3  277.87   23.70
  -7  -1  -3  270.37   24.40
   7   1   3  283.57   24.80
  -8  -1  -3  282.57   24.60
  -8  -1  -3  273.97   23.80
   8   1   3  308.77   25.00
   8   1   3  282.77   24.20
  -9  -1  -3    0.70    1.60
   9   1   3    1.90    1.70
   9   1   3    1.70    1.50
 -10  -1  -3   79.09    8.10
  10   1   3   76.29    7.50
  10   1   3   82.79    8.20
 -11  -1  -3  249.48   21.40
  11   1   3  238.28   20.90
  11   1   3  275.67   21.70
  12  -2  -3  476.15   38.80
  11  -2  -3   51.59    5.10
  11  -2  -3   44.20    4.70
  11  -2  -3   46.20    5.30
 -11   2   3   44.40    5.50
  10  -2  -3  471.85   39.80
  10  -2  -3  475.35   40.00
  10  -2  -3  484.85   39.40
 -10   2   3  494.65   40.30
   9  -2  -3    3.20    1.80
   9  -2  -3    3.70    1.50
   9  -2  -3    2.50    1.50
  -9   2   3    3.70    2.20
   8  -2  -3  144.29   13.00
   8  -2  -3  150.48   13.90
  -8   2   3  146.99   14.10
   7  -2  -3  696.63   57.59
   7  -2  -3  673.93   56.79
  -7   2   3  726.33   57.79
   6  -2  -3 1560.74  126.59
   6  -2  -3 1595.74  127.39
   5  -2  -3  177.38   23.30
   5  -2  -3  232.58   18.10
  -5   2   3  215.18   21.50
   4  -2  -3 1028.90   91.59
  -4   2   3 1134.89   89.79
   3  -2  -3 1121.99   89.69
  -3   2   3 1160.68   88.39
  -3   2   3  960.10   88.19
   2  -2  -3   24.60    4.50
  -2   2   3   23.90    3.40
  -2   2   3   26.90    3.90
   1  -2  -3   38.80    4.50
  -1   2   3   40.00    4.20
  -1   2   3   37.60    4.50
   0  -2  -3 2825.42  249.58
   0   2   3 3191.28  249.38
   0   2   3 3356.66  249.88
  -1  -2  -3    4.60    1.80
   1   2   3    7.40    1.80
   1   2   3    8.50    2.30
  -2  -2  -3 1611.74  132.89
   2   2   3 1662.23  132.49
   2   2   3 1661.73  133.09
  -3  -2  -3 2220.28  182.58
   3   2   3 2298.27  182.18
  -4  -2  -3  207.28   16.60
  -4  -2  -3  192.98   15.90
  -4  -2  -3  172.18   19.00
   4   2   3  170.78   18.50
  -5  -2  -3  162.48   14.10
  -5  -2  -3  161.48   15.00
  -5  -2  -3  170.98   14.90
  -6  -2  -3   52.19    5.40
  -6  -2  -3   59.39    6.20
  -6  -2  -3   53.39    6.30
   6   2   3   53.49    6.80
  -7  -2  -3   30.00    4.90
  -7  -2  -3   38.20    4.10
  -7  -2  -3   41.00    5.50
   7   2   3   39.60    4.80
   7   2   3   34.50    5.50
  -8  -2  -3  286.67   21.90
   8   2   3  232.28   22.70
  -9  -2  -3  655.73   51.79
   9   2   3  594.44   50.89
   9   2   3  631.54   51.79
 -10  -2  -3    5.90    2.10
  10   2   3    4.80    2.00
  10   2   3    3.90    1.70
 -11  -2  -3    4.50    1.70
  11   2   3    3.00    1.70
  12  -3  -3  131.69   13.80
  12  -3  -3  184.28   13.70
  11  -3  -3  108.39   10.60
  11  -3  -3  127.19   10.50
  11  -3  -3  110.39   10.00
 -11   3   3  114.49   10.60
  10  -3  -3   36.30    4.30
  10  -3  -3   37.30    5.20
  10  -3  -3   38.10    4.80
 -10   3   3   37.10    5.10
   9  -3  -3  941.71   79.49
   9  -3  -3 1040.50   80.39
  -9   3   3  971.20   80.39
   8  -3  -3  251.07   23.70
   8  -3  -3  281.67   23.50
   8  -3  -3  282.17   24.30
  -8   3   3  295.77   24.50
   7  -3  -3   12.50    3.10
   7  -3  -3    3.00    1.70
  -7   3   3    4.30    2.30
   6  -3  -3   60.59    5.80
   6  -3  -3   50.19    6.30
  -6   3   3   55.49    6.40
   5  -3  -3  172.38   14.20
   5  -3  -3  149.29   20.20
   5  -3  -3  159.88   14.60
  -5   3   3  160.38   17.60
  -5   3   3  182.58   15.40
   4  -3  -3  647.54   58.59
  -4   3   3  684.93   56.69
   3  -3  -3 1794.02  145.49
  -3   3   3 1771.92  144.09
   2  -3  -3  706.03   59.09
  -2   3   3  750.82   58.39
  -2   3   3  673.73   58.89
   1  -3  -3  277.47   23.90
  -1   3   3  268.37   24.00
  -1   3   3  272.57   23.30
   0  -3  -3  787.82   66.29
   0   3   3  822.22   65.89
   0   3   3  812.72   66.49
  -1  -3  -3  643.34   53.69
   1   3   3  649.93   53.99
  -2  -3  -3  411.26   35.10
   2   3   3  401.16   34.40
  -3  -3  -3 1261.77  105.09
   3   3   3 1291.37  104.29
  -4  -3  -3   99.19    9.40
  -4  -3  -3  110.79   10.30
  -4  -3  -3  105.19   10.30
   4   3   3  116.19   10.80
   4   3   3   93.09    9.60
  -5  -3  -3  619.94   48.20
  -5  -3  -3  627.14   49.40
  -5  -3  -3  635.44   49.00
   5   3   3  491.65   48.40
  -6  -3  -3  863.61   69.99
  -6  -3  -3  880.41   68.89
  -6  -3  -3  937.11   69.79
   6   3   3  752.42   69.19
   6   3   3  830.12   70.29
  -7  -3  -3  285.07   23.80
  -7  -3  -3  262.57   23.50
  -7  -3  -3  309.47   22.90
   7   3   3  213.08   23.60
   7   3   3  286.87   23.00
  -8  -3  -3    2.50    1.70
  -8  -3  -3    0.60    1.20
   8   3   3   -1.40    1.60
   8   3   3    0.80    1.70
  -9  -3  -3  292.17   28.00
  -9  -3  -3  344.57   28.40
   9   3   3  364.26   28.60
 -10  -3  -3   28.80    4.20
  10   3   3   35.10    4.40
  11  -4  -3    8.70    1.90
  11  -4  -3    9.20    1.70
 -11   4   3    9.40    2.30
  10  -4  -3  238.78   20.60
  10  -4  -3  218.08   21.70
  10  -4  -3  263.07   21.10
 -10   4   3  262.77   21.50
   9  -4  -3   33.70    4.20
   9  -4  -3   29.40    4.20
   9  -4  -3   30.80    4.90
  -9   4   3   25.10    4.30
   8  -4  -3  892.51   68.59
  -8   4   3  770.52   68.29
   7  -4  -3   17.20    3.70
   7  -4  -3   10.80    2.40
   7  -4  -3   11.00    2.90
  -7   4   3   14.40    3.30
   6  -4  -3 1321.27  115.79
   6  -4  -3 1327.57  115.99
   6  -4  -3 1400.46  116.19
   6  -4  -3 1608.54  115.79
  -6   4   3 1555.34  116.89
   5  -4  -3  900.01   73.39
   5  -4  -3  874.51   73.49
   5  -4  -3  987.60   73.19
   5  -4  -3  858.91   73.39
  -5   4   3  920.01   74.39
   4  -4  -3   27.90    3.00
   4  -4  -3   29.80    7.90
   4  -4  -3   26.10    3.30
  -4   4   3   32.70    6.30
  -4   4   3   23.90    4.60
   3  -4  -3  360.06   33.80
  -3   4   3  386.16   32.70
   2  -4  -3   13.40    3.70
  -2   4   3   16.00    3.50
   1  -4  -3  498.25   42.70
  -1   4   3  504.15   42.00
   0  -4  -3 1764.32  147.29
   0   4   3 1869.91  146.79
  -1  -4  -3 2322.97  192.08
   1   4   3 2433.26  191.48
  -2  -4  -3   10.50    2.40
  -2  -4  -3   -0.10    2.00
   2   4   3   -0.20    1.10
   2   4   3    1.90    1.70
  -3  -4  -3  193.38   17.30
  -3  -4  -3  198.38   17.60
  -3  -4  -3  193.48   16.40
   3   4   3  191.78   16.80
  -4  -4  -3  127.79   11.10
  -4  -4  -3  112.99   11.20
  -4  -4  -3  105.19   10.10
   4   4   3  107.29   10.50
   4   4   3  103.69   11.40
  -5  -4  -3  158.78   13.70
  -5  -4  -3  155.28   14.20
   5   4   3  134.79   13.30
   5   4   3  124.39   13.90
  -6  -4  -3   69.69    8.00
  -6  -4  -3   80.39    7.40
  -6  -4  -3  100.99    9.20
   6   4   3   74.99    8.10
   6   4   3   54.79    8.10
  -7  -4  -3  544.35   39.10
  -7  -4  -3  425.26   38.30
   7   4   3  407.46   38.60
  -8  -4  -3    4.10    1.60
  -8  -4  -3    3.00    1.80
   8   4   3    3.10    1.90
  -9  -4  -3  312.47   28.30
  -9  -4  -3  354.96   29.20
   9   4   3  374.06   29.40
 -10  -4  -3  116.59   10.90
  10   4   3  124.49   11.10
  11  -5  -3  312.37   25.90
  11  -5  -3  316.67   25.60
  11  -5  -3  286.77   26.30
 -11   5   3  335.37   26.20
  10  -5  -3  385.66   32.10
  10  -5  -3  385.06   32.40
 -10   5   3  398.36   32.80
   9  -5  -3   40.60    4.90
   9  -5  -3   54.69    5.60
  -9   5   3   42.10    6.00
   8  -5  -3  170.98   14.40
   8  -5  -3  146.19   13.80
  -8   5   3  150.98   14.60
   7  -5  -3   15.90    2.90
   7  -5  -3   12.10    3.10
   7  -5  -3   11.20    2.60
  -7   5   3   15.40    3.50
   6  -5  -3  127.09   10.80
   6  -5  -3  104.99   11.00
   6  -5  -3  112.39   11.10
  -6   5   3  133.69   12.10
   5  -5  -3  264.77   23.80
   5  -5  -3  298.17   24.30
   5  -5  -3  308.07   23.80
  -5   5   3  266.87   24.80
   4  -5  -3  104.79   10.70
   4  -5  -3  114.49   10.20
   4  -5  -3  134.69   10.80
   4  -5  -3  110.59   10.60
   4  -5  -3  125.49   10.20
  -4   5   3  112.99   11.20
   3  -5  -3  299.97   24.90
   3  -5  -3  262.97   25.00
   3  -5  -3  305.17   24.50
   3  -5  -3  298.17   28.80
  -3   5   3  333.37   27.70
   2  -5  -3  812.82   66.49
   2  -5  -3  751.52   63.49
   2  -5  -3  749.42   62.99
   2  -5  -3  711.33   63.39
  -2   5   3  902.51   65.59
   1  -5  -3   60.09    8.10
   1  -5  -3   55.29    5.60
   1  -5  -3   46.40    5.00
  -1   5   3   59.19    7.00
   0  -5  -3   72.09    9.30
   0  -5  -3   60.89    7.10
   0  -5  -3   75.79    6.60
   0   5   3   79.19    8.60
  -1  -5  -3  530.65   45.90
  -1  -5  -3  561.74   48.30
  -1  -5  -3  582.94   45.20
   1   5   3  554.04   45.40
   1   5   3  556.24   47.40
  -2  -5  -3   24.80    3.30
  -2  -5  -3   27.50    4.30
  -2  -5  -3   22.30    4.70
   2   5   3   25.40    3.80
  -3  -5  -3  871.41   74.89
  -3  -5  -3  922.01   73.79
  -3  -5  -3  939.11   74.99
   3   5   3  922.31   74.39
  -4  -5  -3  236.08   20.60
  -4  -5  -3  250.07   20.50
   4   5   3  186.48   20.30
   4   5   3  230.48   19.90
  -5  -5  -3   30.90    5.50
  -5  -5  -3   36.90    5.30
   5   5   3   24.90    5.20
   5   5   3   21.30    4.20
  -6  -5  -3   12.10    3.10
  -6  -5  -3   11.40    3.40
  -6  -5  -3    8.60    2.10
   6   5   3   11.60    3.10
   6   5   3   10.20    3.40
  -7  -5  -3   23.50    4.50
  -7  -5  -3   23.90    3.50
  -7  -5  -3   26.70    4.30
   7   5   3   29.30    4.30
   7   5   3   19.70    4.10
  -8  -5  -3   14.70    3.00
  -8  -5  -3   12.20    2.30
   8   5   3   16.40    3.20
  -9  -5  -3  288.77   26.90
  -9  -5  -3  345.77   27.70
   9   5   3  358.46   27.80
  11  -6  -3  107.29    9.00
  11  -6  -3   98.29    9.10
  11  -6  -3   97.49    9.80
 -11   6   3  107.39    9.50
  10  -6  -3   97.29    9.80
  10  -6  -3   93.29    8.60
  10  -6  -3   88.19    8.90
 -10   6   3  103.49    9.40
   9  -6  -3   53.29    6.10
   9  -6  -3   56.19    5.80
  -9   6   3   55.29    6.50
   8  -6  -3 1431.26  106.29
   8  -6  -3 1246.38  106.19
   8  -6  -3 1271.47  106.49
   7  -6  -3  605.94   48.20
   7  -6  -3  565.44   47.90
  -7   6   3  576.14   48.70
   6  -6  -3  138.69   13.80
   6  -6  -3  148.29   14.10
   6  -6  -3  160.48   13.60
  -6   6   3  171.18   14.90
   5  -6  -3  126.59   11.00
   5  -6  -3  124.09   11.60
  -5   6   3  122.39   12.20
   4  -6  -3  175.08   15.50
   4  -6  -3  183.38   14.90
  -4   6   3  168.68   15.80
   3  -6  -3   69.69    7.20
   3  -6  -3   69.19    6.10
   3  -6  -3   69.59    6.50
  -3   6   3   56.49    6.60
   2  -6  -3  578.84   45.90
   2  -6  -3  591.64   45.50
   2  -6  -3  520.55   46.70
   2  -6  -3  558.74   46.40
   1  -6  -3 1626.04  125.19
   1  -6  -3 1505.75  126.09
   1  -6  -3 1503.55  125.59
   1  -6  -3 1615.04  124.89
   0  -6  -3   15.80    2.40
   0  -6  -3   14.60    3.00
   0   6   3   11.80    2.40
  -1  -6  -3 1356.46  105.29
  -1  -6  -3 1295.27  106.29
   1   6   3 1280.37  105.69
  -2  -6  -3    1.50    1.40
  -2  -6  -3   -4.20    2.90
  -2  -6  -3    9.20    2.80
   2   6   3    2.40    1.70
  -3  -6  -3    8.00    2.10
  -3  -6  -3    7.80    2.70
  -3  -6  -3    8.90    3.40
   3   6   3    7.90    2.50
   3   6   3    8.00    3.50
  -4  -6  -3  328.17   29.10
  -4  -6  -3  344.87   28.80
   4   6   3  314.17   28.40
  -5  -6  -3  273.07   22.60
  -5  -6  -3  254.67   23.20
   5   6   3  248.28   22.90
   5   6   3  231.68   22.30
  -6  -6  -3   36.70    5.40
  -6  -6  -3   30.20    4.40
  -6  -6  -3   30.40    5.50
   6   6   3   41.00    5.90
   6   6   3   41.20    5.70
  -7  -6  -3  990.50   82.89
  -7  -6  -3 1022.70   83.59
  -7  -6  -3  969.60   83.79
   7   6   3 1042.90   83.39
   7   6   3 1112.89   83.89
  -8  -6  -3  281.27   24.40
  -8  -6  -3  286.47   25.00
   8   6   3  319.67   25.20
  -9  -6  -3  116.69   10.60
   9   6   3  119.59   10.70
 -11   7   3  130.69   12.60
  10  -7  -3  200.88   17.10
  10  -7  -3  214.38   18.20
  10  -7  -3  174.18   17.10
 -10   7   3  234.98   17.80
 -10   7   3  196.48   17.10
   9  -7  -3  160.88   13.60
   9  -7  -3  167.58   15.00
   9  -7  -3  144.99   13.40
   9  -7  -3  129.69   13.60
  -9   7   3  172.88   14.40
   8  -7  -3   75.59    8.10
   8  -7  -3   88.19    8.20
  -8   7   3   84.19    8.80
   7  -7  -3  442.36   35.80
   7  -7  -3  411.26   35.40
  -7   7   3  424.06   36.30
   6  -7  -3  142.09   12.90
   6  -7  -3  130.59   12.10
  -6   7   3  134.69   13.40
   5  -7  -3  671.63   53.89
   5  -7  -3  652.63   54.69
  -5   7   3  667.93   55.09
   4  -7  -3  576.44   47.50
   4  -7  -3  598.24   46.60
   4  -7  -3  547.75   45.80
  -4   7   3  538.85   46.60
   3  -7  -3  343.97   27.40
   3  -7  -3  336.97   27.90
   3  -7  -3  324.97   29.20
   3  -7  -3  327.47   28.60
   2  -7  -3    4.00    2.50
   2  -7  -3    2.90    1.80
   2  -7  -3    1.70    1.20
   2  -7  -3    2.20    1.40
  -2   7   3    1.60    1.80
   1  -7  -3   60.29    7.90
   1  -7  -3   66.29    7.50
   1  -7  -3   59.49    6.10
  -1   7   3   64.29    6.70
   0  -7  -3    2.30    1.30
   0  -7  -3   -0.10    1.60
   0   7   3    1.00    1.60
  -1  -7  -3  212.78   18.10
  -1  -7  -3  212.78   19.40
   1   7   3  213.18   18.90
  -2  -7  -3  720.23   54.19
   2   7   3  635.94   55.59
   2   7   3  628.54   54.99
  -3  -7  -3    6.60    2.70
  -3  -7  -3   11.20    3.80
   3   7   3    8.10    2.80
   3   7   3   14.30    4.20
  -4  -7  -3    5.40    2.70
  -4  -7  -3    9.50    3.40
   4   7   3    4.40    2.60
   4   7   3    8.20    3.60
  -5  -7  -3   72.59    8.90
  -5  -7  -3   85.29    8.50
  -5  -7  -3   56.39    7.00
   5   7   3   74.39    8.30
   5   7   3   76.79    8.40
  -6  -7  -3   41.90    5.20
  -6  -7  -3   51.89    7.20
  -6  -7  -3   48.30    6.10
   6   7   3   55.69    6.30
   6   7   3   51.59    6.20
  -7  -7  -3   26.90    4.50
  -7  -7  -3   26.90    3.50
  -7  -7  -3   28.20    4.10
   7   7   3   33.80    4.50
   7   7   3   27.20    4.10
  -8  -7  -3  202.88   17.30
  -8  -7  -3  196.98   16.90
   8   7   3  207.88   17.40
  10  -8  -3   41.60    4.50
  10  -8  -3   45.70    5.40
 -10   8   3   48.70    5.00
   9  -8  -3  264.77   22.80
   9  -8  -3  282.17   24.20
   9  -8  -3  253.97   22.70
  -9   8   3  296.27   23.50
   8  -8  -3   55.39    5.90
   8  -8  -3   54.69    6.00
   8  -8  -3   50.69    7.10
  -8   8   3   54.49    6.40
   7  -8  -3  294.17   29.50
   7  -8  -3  350.26   28.20
   7  -8  -3  342.77   27.80
  -7   8   3  333.47   28.60
   6  -8  -3    9.10    2.60
   6  -8  -3    8.90    3.70
   6  -8  -3    8.00    2.20
  -6   8   3   10.40    3.20
   5  -8  -3  143.49   14.50
   5  -8  -3  144.09   12.50
  -5   8   3  135.49   13.30
   4  -8  -3  529.75   42.50
   4  -8  -3  490.35   40.60
  -4   8   3  477.25   41.20
   3  -8  -3  105.19   10.40
   3  -8  -3   85.99    9.50
   3  -8  -3  110.39   11.50
  -3   8   3  116.49   10.90
   2  -8  -3   84.89    9.70
   2  -8  -3   83.19    8.00
   2  -8  -3   74.79    8.40
  -2   8   3   86.29    9.00
   1  -8  -3  988.30   78.49
   1  -8  -3  995.60   80.09
  -1   8   3  925.31   79.29
   0  -8  -3   96.99    8.80
   0  -8  -3   87.79   10.00
   0   8   3   90.39    9.70
  -1  -8  -3   82.19    9.60
   1   8   3   95.59    9.70
  -2  -8  -3  262.47   25.40
   2   8   3  313.77   25.60
  -3  -8  -3    6.30    2.70
   3   8   3    3.90    2.40
  -4  -8  -3  267.97   23.80
  -4  -8  -3  283.87   23.20
   4   8   3  218.38   22.90
   4   8   3  268.07   23.10
  -5  -8  -3  275.57   24.50
  -5  -8  -3  277.17   24.00
  -5  -8  -3  284.67   25.40
   5   8   3  288.27   24.50
   5   8   3  291.17   24.90
  -6  -8  -3  203.48   17.70
  -6  -8  -3  198.78   18.80
  -6  -8  -3  213.18   18.20
   6   8   3  219.28   18.40
   6   8   3  207.48   18.10
  -7  -8  -3   30.30    3.80
  -7  -8  -3   21.70    3.00
   7   8   3   26.30    3.50
   9  -9  -3    3.50    2.00
   9  -9  -3    4.90    1.80
   9  -9  -3    3.40    1.40
  -9   9   3    3.70    1.70
   8  -9  -3   78.79    8.40
   8  -9  -3   94.89   10.10
   8  -9  -3   98.69    8.70
  -8   9   3   88.39    9.00
   7  -9  -3  169.58   17.40
   7  -9  -3  169.18   15.40
   7  -9  -3  201.98   16.20
  -7   9   3  169.48   16.10
   6  -9  -3  925.11   74.19
   6  -9  -3  924.91   75.59
  -6   9   3  867.51   73.99
   5  -9  -3   92.79   10.20
   5  -9  -3  110.89   11.40
  -5   9   3  104.49   10.30
   4  -9  -3  353.46   27.80
   4  -9  -3  272.27   26.50
   3  -9  -3    1.40    1.50
   3  -9  -3    3.20    3.10
   3  -9  -3    0.70    2.10
  -3   9   3    6.50    3.30
   2  -9  -3  185.58   17.00
   2  -9  -3  194.48   18.90
  -2   9   3  208.38   18.60
   1  -9  -3   62.89    6.40
   1  -9  -3   64.29    8.30
  -1   9   3   52.69    7.90
   0  -9  -3  281.07   28.50
   0  -9  -3  340.67   27.20
   0   9   3  347.07   28.70
  -1  -9  -3   75.29    6.90
  -1  -9  -3   59.69    8.00
   1   9   3   55.69    8.10
  -2  -9  -3  248.98   21.50
   2   9   3  210.28   20.90
  -3  -9  -3  108.09   11.10
   3   9   3   86.39   10.10
  -4  -9  -3    2.60    1.50
  -4  -9  -3   -0.10    2.20
   4   9   3    2.00    2.20
  -5  -9  -3   36.40    4.10
  -5  -9  -3   28.70    5.20
   5   9   3   37.70    5.10
  -6  -9  -3    3.10    1.20
   6   9   3    3.50    1.80
   8 -10  -3   76.89    8.70
   8 -10  -3   92.59    7.90
  -8  10   3   76.39    8.00
   7 -10  -3   -0.50    2.10
   7 -10  -3    1.90    1.50
  -7  10   3    2.10    2.10
   6 -10  -3    7.20    2.30
   6 -10  -3    2.90    2.70
   5 -10  -3   12.20    2.90
   5 -10  -3    9.40    3.50
   4 -10  -3  301.37   25.90
   3 -10  -3  163.48   14.50
   3 -10  -3  153.58   16.10
   2 -10  -3  310.67   26.90
   2 -10  -3  279.67   24.60
  -2  10   3  284.17   26.30
   1 -10  -3    3.00    2.90
   1 -10  -3    2.80    1.70
  -1  10   3    2.90    3.40
   0 -10  -3  155.58   14.20
   0 -10  -3  166.38   16.10
   0  10   3  158.88   15.90
  -1 -10  -3   48.50    7.30
   1  10   3   53.89    7.70
  -2 -10  -3  279.07   25.20
   2  10   3  279.27   24.80
  -3 -10  -3  231.68   19.80
  -3 -10  -3  224.08   21.10
   3  10   3  234.18   20.50
  -4 -10  -3    1.60    1.30
  -4 -10  -3    2.20    2.20
   4  10   3    2.10    2.30
   4  10   3    3.60    2.10
   6 -11  -3  317.87   26.90
   5 -11  -3   13.10    2.90
   4 -11  -3   41.20    5.10
   3 -11  -3  114.59   10.50
   3 -11  -3  106.49   12.30
   2 -11  -3   57.89    8.40
   2 -11  -3   44.50    5.40
   1 -11  -3    4.90    3.10
   1 -11  -3    0.70    1.70
  -1  11   3    0.40    3.40
   0 -11  -3  411.76   35.30
   0  11   3  395.26   34.80
  -1 -11  -3  250.37   22.70
   1  11   3  247.48   22.20
  -2 -11  -3    2.60    2.40
  -2 -11  -3    0.70    1.80
   2  11   3    1.30    2.10
  -3 -11  -3   15.10    4.10
   2  12  -4   15.00    3.00
   1  12  -4  164.68   13.50
  -1 -12   4  130.09   14.20
  -1 -12   4  135.79   13.30
   0  12  -4    2.10    2.60
   0 -12   4    1.70    2.10
   0 -12   4    5.80    3.70
  -1  12  -4    3.80    2.80
   1 -12   4    7.50    4.40
   1 -12   4    3.50    2.10
  -2  12  -4  343.77   31.30
   2 -12   4  425.36   32.70
  -3  12  -4   37.90    4.80
   3 -12   4   38.00    5.90
  -4  12  -4   12.40    2.60
   4 -12   4   13.10    3.60
  -5  12  -4  139.59   13.50
   5 -12   4  164.88   14.40
   4  11  -4   -0.80    1.60
  -4 -11   4    5.60    2.60
   3  11  -4    2.90    1.90
  -3 -11   4    3.20    3.10
   2  11  -4  178.98   15.70
  -2 -11   4  159.38   15.50
  -2 -11   4  169.48   16.60
   1  11  -4  179.38   15.10
  -1 -11   4  145.49   14.40
  -1 -11   4  139.89   15.10
   0  11  -4  463.45   36.10
   0 -11   4  418.46   36.20
   0 -11   4  386.76   35.30
  -1  11  -4  109.49   11.40
  -1  11  -4  105.89   10.20
   1 -11   4  118.59   11.30
   1 -11   4  104.79   12.10
  -2  11  -4   15.30    2.90
   2 -11   4   15.40    4.70
   2 -11   4   15.00    3.80
  -3  11  -4   93.59    9.60
   3 -11   4  108.59   11.00
  -4  11  -4    6.50    2.30
   4 -11   4    9.70    3.40
  -5  11  -4    8.80    2.30
   5 -11   4    0.70    2.10
   5 -11   4    4.60    2.80
  -6  11  -4  344.87   29.70
   6 -11   4  328.97   29.40
   6 -11   4  380.96   30.20
  -7  11  -4   48.90    5.40
   7 -11   4   54.79    5.40
   7 -11   4   31.70    6.10
   5  10  -4    5.80    2.20
   5  10  -4    9.20    2.40
  -5 -10   4   10.40    3.40
   4  10  -4    6.40    2.30
   4  10  -4    7.80    2.30
  -4 -10   4    8.10    3.50
   3  10  -4  149.99   13.80
   3  10  -4  139.89   13.60
  -3 -10   4  146.69   15.00
   2  10  -4  375.16   31.80
   2  10  -4  337.57   31.30
  -2 -10   4  371.96   31.60
  -2 -10   4  394.26   32.70
   1  10  -4   23.30    4.80
  -1 -10   4   17.60    3.70
  -1 -10   4   18.10    4.50
   0  10  -4   42.30    6.70
   0  10  -4   37.60    4.80
   0 -10   4   42.80    5.60
   0 -10   4   42.40    6.70
  -1  10  -4    8.50    2.10
  -1  10  -4   10.60    3.50
   1 -10   4    5.30    2.30
  -2  10  -4  192.98   15.60
  -2  10  -4  176.78   16.10
   2 -10   4  151.48   16.30
  -3  10  -4  371.06   30.40
   3 -10   4  344.47   31.50
  -4  10  -4   26.00    3.40
  -4  10  -4   25.20    4.10
   4 -10   4   22.90    3.90
   4 -10   4   19.90    4.70
  -5  10  -4    8.20    2.50
  -5  10  -4    3.40    1.90
   5 -10   4    7.60    3.30
   5 -10   4    4.60    2.30
  -6  10  -4   16.90    3.40
  -6  10  -4   14.00    2.80
   6 -10   4   18.50    3.50
   6 -10   4   15.80    3.90
  -7  10  -4   11.90    2.70
  -7  10  -4   22.90    3.60
   7 -10   4   13.60    3.20
   7 -10   4   20.20    3.30
  -8  10  -4   12.00    2.30
  -8  10  -4   16.80    2.70
   8 -10   4   11.70    2.40
   7   9  -4    1.00    1.30
  -7  -9   4    1.20    2.10
   6   9  -4  198.18   17.10
   6   9  -4  194.48   17.00
  -6  -9   4  193.88   18.40
   5   9  -4   88.69    8.70
   5   9  -4   88.69    8.70
  -5  -9   4   79.09   10.20
   4   9  -4    8.70    2.70
   4   9  -4   13.10    3.10
  -4  -9   4   10.30    3.80
   3   9  -4  177.98   18.00
   3   9  -4  228.38   18.50
  -3  -9   4  188.48   19.10
  -3  -9   4  200.08   18.10
   2   9  -4  994.40   78.29
  -2  -9   4  823.22   78.59
  -2  -9   4 1036.60   78.19
   1   9  -4   33.90    4.30
   1   9  -4   38.00    6.00
  -1  -9   4   39.20    5.60
  -1  -9   4   30.20    5.80
   0   9  -4  858.11   69.19
   0   9  -4  809.12   67.59
   0  -9   4  837.02   68.49
  -1   9  -4  262.97   21.50
  -1   9  -4  247.78   22.70
   1  -9   4  239.28   22.30
  -2   9  -4    0.30    2.00
  -2   9  -4    1.20    1.50
  -2   9  -4   -2.60    2.10
  -2   9  -4    0.10    1.20
   2  -9   4    0.80    1.80
  -3   9  -4   51.99    5.10
  -3   9  -4   50.39    6.50
   3  -9   4   52.69    5.60
   3  -9   4   38.90    6.70
  -4   9  -4  357.76   29.10
  -4   9  -4  323.77   29.80
   4  -9   4  346.97   29.80
   4  -9   4  381.26   31.40
  -5   9  -4   11.70    2.90
  -5   9  -4   10.50    2.50
   5  -9   4   10.10    2.90
   5  -9   4   12.20    4.10
  -6   9  -4  386.06   38.40
  -6   9  -4  447.16   37.90
   6  -9   4  492.15   38.70
   6  -9   4  512.55   39.60
  -7   9  -4  693.23   59.59
  -7   9  -4  763.82   60.29
   7  -9   4  767.22   60.09
   7  -9   4  705.43   60.29
  -8   9  -4   75.59    7.60
  -8   9  -4   70.49    7.30
   8  -9   4   77.09    7.60
  -9   9  -4   19.20    2.70
  -9   9  -4   17.40    2.90
   9  -9   4   19.40    2.80
   8   8  -4    3.80    1.50
  -8  -8   4    3.20    2.50
   7   8  -4  210.38   16.90
   7   8  -4  175.18   16.60
  -7  -8   4  194.58   18.00
   6   8  -4   24.40    4.00
   6   8  -4   30.30    4.30
  -6  -8   4   23.00    5.20
   5   8  -4  634.74   48.80
   5   8  -4  642.64   48.70
  -5  -8   4  473.95   49.60
   4   8  -4   33.90    5.00
   4   8  -4   36.00    5.10
  -4  -8   4   24.50    5.50
   3   8  -4  140.69   15.90
   3   8  -4  210.58   16.70
  -3  -8   4  180.68   16.20
   2   8  -4  131.19   14.20
   2   8  -4  171.28   14.60
  -2  -8   4  167.98   14.30
  -2  -8   4  129.69   14.60
   1   8  -4    2.30    2.30
   1   8  -4   -0.70    2.30
   1   8  -4    2.70    1.60
  -1  -8   4    3.60    1.90
   0   8  -4   16.90    2.70
   0   8  -4   11.40    2.40
   0   8  -4   14.00    2.80
   0   8  -4   16.90    3.90
   0  -8   4   14.20    3.10
  -1   8  -4  588.84   48.30
  -1   8  -4  622.64   48.90
  -1   8  -4  588.94   49.90
  -1   8  -4  590.44   49.00
   1  -8   4  594.34   49.60
  -2   8  -4  215.28   19.90
  -2   8  -4  255.77   19.50
  -2   8  -4  227.28   18.80
  -2   8  -4  237.68   19.50
   2  -8   4  195.98   19.00
   2  -8   4  219.88   20.10
  -3   8  -4   38.70    5.10
  -3   8  -4   39.40    4.20
  -3   8  -4   37.90    4.80
   3  -8   4   41.00    4.80
  -4   8  -4   40.60    4.50
  -4   8  -4   40.80    5.30
  -4   8  -4   27.30    4.80
   4  -8   4   45.50    5.80
  -5   8  -4  201.28   16.90
  -5   8  -4  166.08   17.40
   5  -8   4  219.88   18.00
  -6   8  -4   36.80    4.90
  -6   8  -4   33.00    5.50
   6  -8   4   34.60    5.30
  -7   8  -4  138.79   11.50
   7  -8   4  104.99   11.40
  -8   8  -4  136.49   12.40
  -8   8  -4  150.28   12.80
   8  -8   4  120.49   12.80
   8  -8   4  142.49   12.70
  -9   8  -4   89.39    8.10
  -9   8  -4   79.49    8.20
   9  -8   4   89.69    8.30
 -10   8  -4  174.28   14.50
  10  -8   4  168.08   14.60
   8   7  -4  114.99   10.20
  -8  -7   4  101.59   11.00
   7   7  -4   51.19    5.70
   7   7  -4   50.29    5.80
  -7  -7   4   42.10    7.10
   6   7  -4    6.90    2.10
   6   7  -4    7.30    2.40
  -6  -7   4    6.50    3.30
   5   7  -4  129.09   12.30
   5   7  -4  156.28   12.60
  -5  -7   4  104.59   13.30
   4   7  -4  806.02   60.99
   4   7  -4  753.62   60.79
  -4  -7   4  656.93   61.49
   3   7  -4   74.99    8.00
   3   7  -4   74.69    8.10
  -3  -7   4   77.19    8.70
   2   7  -4  740.83   62.69
   2   7  -4  792.32   62.79
   2   7  -4  770.62   61.79
  -2  -7   4  746.93   62.19
   1   7  -4  582.34   45.50
   1   7  -4  545.95   46.50
   1   7  -4  570.34   45.40
   1   7  -4  525.35   44.80
  -1  -7   4  555.14   45.90
   0   7  -4   31.00    3.60
   0   7  -4   30.10    3.90
   0   7  -4   32.70    3.20
   0   7  -4   23.90    5.10
   0  -7   4   26.00    4.10
  -1   7  -4  105.89   11.30
  -1   7  -4  111.19    9.70
  -1   7  -4  114.79   10.20
  -1   7  -4  113.59   10.10
  -2   7  -4  473.85   37.50
  -2   7  -4  482.55   37.20
  -2   7  -4  496.95   37.70
  -2   7  -4  407.56   37.90
   2  -7   4  418.66   37.40
  -3   7  -4    2.20    1.40
  -3   7  -4   -0.50    1.20
  -3   7  -4    2.00    1.10
   3  -7   4    0.80    1.50
  -4   7  -4 1666.23  131.39
  -4   7  -4 1497.95  131.59
  -4   7  -4 1731.13  132.09
   4  -7   4 1664.73  132.29
  -5   7  -4  274.97   27.20
  -5   7  -4  367.16   28.40
  -5   7  -4  344.97   27.50
   5  -7   4  337.07   28.40
  -6   7  -4    2.90    1.70
  -6   7  -4    1.80    2.00
   6  -7   4    4.60    2.10
  -7   7  -4   82.09    9.20
   7  -7   4  108.29    9.70
  -8   7  -4   22.30    3.70
  -8   7  -4   16.50    3.10
   8  -7   4   15.70    3.30
   8  -7   4   21.70    4.00
  -9   7  -4   15.80    2.70
  -9   7  -4   14.60    2.70
   9  -7   4   14.50    2.90
   9  -7   4   13.60    2.50
 -10   7  -4  328.17   26.30
  10  -7   4  327.87   26.50
  10  -7   4  301.47   26.20
   9   6  -4   17.40    2.70
  -9  -6   4   10.80    3.00
   8   6  -4   71.39    6.70
   8   6  -4   57.19    7.10
  -8  -6   4   55.59    7.80
   7   6  -4  547.25   44.90
  -7  -6   4  543.65   46.60
   6   6  -4  460.65   46.10
   6   6  -4  657.43   46.60
  -6  -6   4  590.34   48.20
   5   6  -4  304.17   26.00
  -5  -6   4  307.97   27.40
   4   6  -4   15.50    3.10
   4   6  -4   10.50    2.60
   4   6  -4    9.50    2.70
  -4  -6   4   11.70    3.50
   3   6  -4   12.60    2.10
   3   6  -4   11.40    2.60
   3   6  -4   12.90    2.90
  -3  -6   4   12.70    3.30
   2   6  -4  467.85   36.30
   2   6  -4  449.76   35.90
   2   6  -4  399.06   37.00
   2   6  -4  472.05   36.40
   2   6  -4  453.15   37.10
  -2  -6   4  410.26   36.40
   1   6  -4  484.25   38.80
   1   6  -4  467.95   38.40
   1   6  -4  469.65   39.80
   1   6  -4  510.95   38.90
  -1  -6   4  443.36   39.10
   0   6  -4  346.17   27.50
   0   6  -4  345.87   27.60
   0   6  -4  311.57   27.10
  -1   6  -4   87.89    8.30
  -1   6  -4   93.49    8.10
  -1   6  -4   84.59    9.40
  -1   6  -4  101.89    8.50
   1  -6   4   96.79   11.40
  -2   6  -4 1347.47  103.49
  -2   6  -4 1345.07  103.09
  -2   6  -4 1309.77  103.39
   2  -6   4 1150.68  103.39
  -3   6  -4    4.80    1.50
  -3   6  -4    4.30    1.30
  -3   6  -4    4.90    1.60
   3  -6   4    3.60    2.00
  -4   6  -4   77.29    7.30
  -4   6  -4   73.49    7.60
  -4   6  -4   87.59    8.00
   4  -6   4   80.79    8.50
  -5   6  -4   21.40    3.40
  -5   6  -4   26.00    3.60
  -5   6  -4   27.60    4.20
  -6   6  -4    4.90    2.20
  -6   6  -4    3.40    1.80
   6  -6   4    4.60    2.30
   6  -6   4    4.80    2.10
  -7   6  -4    8.80    2.50
  -7   6  -4   20.00    3.60
   7  -6   4   19.90    3.10
   7  -6   4   10.60    2.90
  -8   6  -4  601.94   52.19
  -8   6  -4  674.83   52.49
   8  -6   4  599.14   52.39
   8  -6   4  673.73   51.99
  -9   6  -4    6.50    1.90
   9  -6   4    7.80    2.10
   9  -6   4    8.70    2.30
 -10   6  -4  124.79   10.70
  10  -6   4  118.39   10.70
  10  -6   4  119.09   10.90
 -11   6  -4   25.30    2.90
  11  -6   4   21.50    2.80
  10   5  -4  265.77   22.10
  10   5  -4  259.67   21.90
   9   5  -4  398.06   33.00
   9   5  -4  423.66   32.90
  -9  -5   4  361.86   33.10
   8   5  -4   66.29    7.40
   8   5  -4   67.89    7.00
  -8  -5   4   64.09    8.20
   7   5  -4   61.69    6.00
   7   5  -4   59.19    6.60
   7   5  -4   39.40    5.50
  -7  -5   4   41.90    7.20
   6   5  -4   93.09    8.40
   6   5  -4   69.39    8.40
   6   5  -4   85.59    8.90
   6   5  -4   72.89    8.00
  -6  -5   4   78.69    9.50
   5   5  -4    2.10    1.90
   5   5  -4    2.40    1.50
   5   5  -4    4.70    2.60
   5   5  -4    2.80    1.70
  -5  -5   4    5.40    2.90
   4   5  -4 2035.40  165.38
   4   5  -4 1939.91  164.58
   4   5  -4 2020.60  165.18
  -4  -5   4 2254.97  166.08
   3   5  -4  205.28   17.50
   3   5  -4  193.98   16.60
   3   5  -4  209.58   17.70
   3   5  -4  193.48   16.90
   2   5  -4   56.09    5.00
   2   5  -4   54.79    6.00
   2   5  -4   48.60    6.10
   2   5  -4   50.19    5.20
   2   5  -4   58.49    5.30
  -2  -5   4   52.19    7.40
   1   5  -4  287.87   23.40
   1   5  -4  291.67   23.30
   1   5  -4  262.07   24.20
  -1  -5   4  284.07   25.30
   0   5  -4   56.99    5.40
   0   5  -4   54.69    5.70
   0  -5   4   63.19    7.40
   1  -5   4   34.90    5.50
  -2   5  -4 1755.92  144.19
  -2   5  -4 1693.03  144.29
  -2   5  -4 1843.42  144.09
   2  -5   4 1935.51  147.39
  -3   5  -4 1771.42  136.89
  -3   5  -4 1625.24  134.69
  -3   5  -4 1669.23  134.59
  -3   5  -4 1613.04  134.79
   3  -5   4 1754.52  139.29
  -4   5  -4  655.73   50.19
  -4   5  -4  697.03   52.49
  -4   5  -4  592.94   50.49
  -4   5  -4  541.55   50.19
  -5   5  -4  364.66   29.60
  -5   5  -4  297.87   28.80
  -5   5  -4  367.96   29.10
  -5   5  -4  343.67   29.50
  -5   5  -4  423.16   31.30
   5  -5   4  319.27   28.90
  -6   5  -4   73.29    7.50
  -6   5  -4   66.49    7.90
  -6   5  -4   74.79    8.00
   6  -5   4   78.49    7.20
  -7   5  -4   12.70    2.90
  -7   5  -4   10.30    2.50
  -7   5  -4   10.40    2.90
   7  -5   4   12.20    2.50
  -8   5  -4  240.58   21.50
  -8   5  -4  240.48   21.50
  -8   5  -4  255.37   21.90
   8  -5   4  266.67   21.30
  -9   5  -4  372.86   30.40
   9  -5   4  363.16   30.30
   9  -5   4  358.86   30.60
 -10   5  -4  122.89   11.40
  10  -5   4  124.99   11.70
  10  -5   4  141.49   11.50
 -11   5  -4  648.84   54.69
  11  -5   4  709.13   54.79
  10   4  -4  229.68   19.20
  10   4  -4  216.18   18.80
   9   4  -4  581.54   48.40
   9   4  -4  589.34   48.00
   8   4  -4  148.19   14.10
   8   4  -4  154.78   13.80
  -8  -4   4  153.68   14.80
   7   4  -4  205.98   19.80
   7   4  -4  227.78   20.20
   7   4  -4  226.98   19.90
   7   4  -4  248.38   19.80
  -7  -4   4  212.88   20.80
   6   4  -4 1111.19   99.99
   6   4  -4 1299.27   99.99
   6   4  -4 1317.27  100.89
   6   4  -4 1309.97  100.19
  -6  -4   4 1150.08  101.09
   5   4  -4    6.00    1.90
   5   4  -4    6.60    1.80
   5   4  -4    4.80    1.80
   5   4  -4    3.30    2.60
  -5  -4   4    3.90    2.60
   4   4  -4  180.68   14.80
   4   4  -4  181.68   15.20
   4   4  -4  144.29   15.40
   4   4  -4  186.28   15.50
  -4  -4   4  182.88   15.80
   3   4  -4  758.72   64.59
   3   4  -4  804.22   64.49
   3   4  -4  828.32   63.79
  -3  -4   4  781.42   66.49
  -2  -4   4  230.48   20.80
  -1  -4   4 1444.76  116.89
   0  -4   4 2136.69  171.78
   1  -4   4  768.32   63.19
   2  -4   4   65.89    8.10
   3  -4   4   12.10    4.50
  -4   4  -4  596.74   45.30
  -4   4  -4  578.64   47.10
  -4   4  -4  614.54   45.80
  -4   4  -4  540.15   45.50
  -4   4  -4  512.05   45.30
   4  -4   4  493.55   50.09
  -5   4  -4 1737.23  130.69
  -5   4  -4 1771.32  131.89
  -5   4  -4 1368.66  129.79
  -5   4  -4 1469.25  130.29
  -5   4  -4 1786.22  130.19
   5  -4   4 1621.14  129.99
  -6   4  -4  343.37   30.50
  -6   4  -4  349.47   31.10
  -6   4  -4  376.46   31.50
  -6   4  -4  391.26   31.10
   6  -4   4  399.26   30.70
  -7   4  -4  439.16   34.80
  -7   4  -4  401.16   35.00
   7  -4   4  411.66   34.40
  -8   4  -4  155.98   13.50
  -8   4  -4  135.99   13.70
   8  -4   4  159.98   13.40
  -9   4  -4  184.98   15.60
  -9   4  -4  176.38   15.90
   9  -4   4  178.78   15.60
   9  -4   4  176.28   16.00
 -10   4  -4    7.30    1.80
 -10   4  -4    4.90    2.10
  10  -4   4    7.00    2.10
  10  -4   4    6.80    1.80
 -11   4  -4   42.20    4.60
  11  -4   4   49.10    4.80
  11   3  -4  286.37   24.00
  10   3  -4    9.00    2.10
  10   3  -4    8.60    2.40
   9   3  -4    5.10    1.80
   9   3  -4    7.40    2.40
   8   3  -4    7.80    2.20
   8   3  -4    7.80    2.70
   7   3  -4   64.69    7.50
   7   3  -4   71.39    7.10
   7   3  -4   76.99    7.90
  -7  -3   4   55.49    8.10
   6   3  -4  985.40   75.59
   6   3  -4 1038.80   74.89
   6   3  -4  940.81   74.39
   6   3  -4  834.92   74.59
  -6  -3   4  796.62   75.19
   5   3  -4  853.71   66.69
   5   3  -4  888.01   66.99
   5   3  -4  737.43   67.29
   5   3  -4  859.81   66.69
  -5  -3   4  777.42   67.29
   4   3  -4  356.86   28.80
   4   3  -4  364.86   28.40
   4   3  -4  369.96   29.10
  -4  -3   4  289.97   31.20
  -3  -3   4  206.08   19.10
   2   3  -4  262.77   23.30
  -2  -3   4  281.77   23.60
   1   3  -4  256.47   22.20
  -1  -3   4  296.07   22.80
  -1  -3   4  246.38   23.10
   0  -3   4 1284.17  101.19
   0  -3   4 1233.38  101.19
   1  -3   4  235.18   19.10
   1  -3   4  218.58   19.60
  -2   3  -4  524.95   45.50
   2  -3   4  510.65   46.60
   2  -3   4  608.04   45.60
   3  -3   4 1207.48  100.59
  -4   3  -4   16.20    4.10
  -4   3  -4   20.30    3.10
   4  -3   4   18.00    6.00
  -5   3  -4   59.69    7.20
  -5   3  -4   53.99    6.10
  -5   3  -4   48.10    5.50
  -5   3  -4   57.39    5.80
   5  -3   4   59.49    5.70
  -6   3  -4   54.19    5.90
  -6   3  -4   55.29    6.40
  -6   3  -4   52.99    5.40
  -6   3  -4   61.89    7.50
   6  -3   4   53.09    5.60
  -7   3  -4   70.89    7.10
  -7   3  -4   60.69    7.30
  -7   3  -4   80.49    8.90
   7  -3   4   67.09    6.80
  -8   3  -4   48.90    5.80
  -8   3  -4   56.19    5.60
   8  -3   4   43.20    5.20
  -9   3  -4  996.80   81.99
  -9   3  -4 1023.40   81.49
 -10   3  -4   22.90    3.60
 -10   3  -4   23.80    3.10
  10  -3   4   22.50    3.50
  10  -3   4   18.30    3.00
  11  -3   4  150.48   12.90
  11   2  -4  496.45   40.90
  10   2  -4   11.60    2.80
   9   2  -4  498.65   41.70
   8   2  -4  591.64   46.00
   8   2  -4  488.15   46.40
   8   2  -4  600.64   46.20
   7   2  -4  103.29   10.70
   7   2  -4  116.39   10.60
   7   2  -4  122.29   11.50
   6   2  -4  458.15   41.70
   6   2  -4  507.15   41.50
   6   2  -4  518.35   42.60
   6   2  -4  480.45   41.80
   6   2  -4  572.44   41.90
   5   2  -4  797.62   61.89
   5   2  -4  679.43   61.69
   5   2  -4  746.63   61.79
   5   2  -4  760.92   62.69
   5   2  -4  842.12   62.19
   4   2  -4   51.39    5.10
  -4  -2   4   37.80    7.50
   3   2  -4 2694.03  212.48
  -3  -2   4 2590.44  212.48
   2   2  -4  806.72   67.39
  -2  -2   4  861.51   67.79
   1   2  -4  113.69    9.30
  -1  -2   4  124.09    9.70
  -1  -2   4   80.39   10.50
   0  -2   4 2737.93  236.88
   1  -2   4  198.28   16.30
  -2   2  -4   78.89    8.30
   2  -2   4   87.19    7.50
   2  -2   4   67.59    9.20
  -3   2  -4  591.94   46.60
   3  -2   4  501.05   47.50
   4  -2   4 5107.09  411.06
  -5   2  -4  343.77   28.20
  -5   2  -4  344.97   27.50
  -5   2  -4  294.77   29.10
  -5   2  -4  316.57   27.50
   5  -2   4  383.46   33.10
  -6   2  -4 1026.20   85.09
  -6   2  -4 1025.50   84.69
  -6   2  -4 1049.20   86.79
  -6   2  -4 1189.08   85.79
   6  -2   4  987.50   84.89
  -7   2  -4  572.14   51.29
  -7   2  -4  642.54   52.29
  -7   2  -4  666.63   51.89
  -7   2  -4  688.73   53.79
   7  -2   4  615.14   51.69
  -8   2  -4    1.20    1.70
  -8   2  -4    3.10    1.80
   8  -2   4    3.40    1.60
  -9   2  -4    3.60    1.70
  -9   2  -4    0.50    1.50
   9  -2   4    1.00    1.20
 -10   2  -4  193.38   17.30
  10  -2   4  205.28   17.10
 -11   2  -4   23.50    3.40
  11  -2   4   25.90    3.20
  11   1  -4  316.37   26.70
  10   1  -4    8.30    2.10
  10   1  -4    7.60    2.30
 -10  -1   4   10.40    3.20
   9   1  -4   35.60    4.50
   9   1  -4   35.30    5.20
   9   1  -4   40.60    5.00
   8   1  -4  137.39   11.90
   8   1  -4  119.09   11.40
   7   1  -4  453.45   39.00
   7   1  -4  467.35   39.40
   7   1  -4  504.95   40.10
   6   1  -4  105.49   11.60
   6   1  -4  119.59   11.70
   6   1  -4  144.49   11.70
   6   1  -4  128.49   11.30
   6   1  -4  140.99   12.50
   5   1  -4 2150.68  160.68
   5   1  -4 2011.70  160.38
   5   1  -4 1969.30  160.38
   5   1  -4 2022.40  161.18
  -5  -1   4 1855.21  164.98
  -4  -1   4  302.27   28.50
   3   1  -4    8.30    2.60
  -3  -1   4    3.60    2.10
   2   1  -4   24.10    3.20
   2   1  -4   23.00    3.20
  -2  -1   4   22.90    4.50
  -2  -1   4   26.50    3.50
   1   1  -4   10.20    6.40
  -1  -1   4    8.00    7.30
   0  -1   4 1461.65  131.19
   1  -1   4 3368.96  283.57
  -2   1  -4  134.69   12.40
   2  -1   4  139.19   12.20
   2  -1   4  137.59   12.30
  -3   1  -4   10.20    3.10
   3  -1   4    6.30    2.80
   4  -1   4   72.29   10.20
  -5   1  -4   44.60    4.30
  -5   1  -4   44.30    5.00
  -5   1  -4   30.50    5.80
  -5   1  -4   41.80    4.80
   5  -1   4   36.30    8.10
  -6   1  -4   56.69    5.80
  -6   1  -4   46.60    6.90
  -6   1  -4   50.59    5.00
  -6   1  -4   47.20    5.50
  -6   1  -4   56.89    5.80
   6  -1   4   39.50    6.00
  -7   1  -4  608.24   50.89
  -7   1  -4  639.24   51.19
  -7   1  -4  645.34   53.19
  -7   1  -4  682.23   51.89
   7  -1   4  618.54   51.39
   7  -1   4  585.94   51.59
  -8   1  -4  177.68   16.60
  -8   1  -4  165.38   15.10
   8  -1   4  161.28   15.00
  -9   1  -4  150.58   12.30
   9  -1   4  101.79   11.40
   9  -1   4  135.69   12.10
 -10   1  -4  300.07   26.50
  10  -1   4  329.17   26.30
 -11   1  -4    1.50    1.30
  11  -1   4    1.20    1.20
  11   0  -4  759.32   58.99
  11   0  -4  731.93   58.49
 -11   0   4  674.73   58.79
  10   0  -4  471.65   40.00
  10   0  -4  491.15   39.50
 -10   0   4  474.15   40.20
   9   0  -4    7.30    2.10
   9   0  -4    2.60    1.60
   9   0  -4    2.90    1.90
  -9   0   4    2.80    2.60
   8   0  -4   31.70    4.10
   8   0  -4   40.10    5.10
   8   0  -4   26.70    4.80
   8   0  -4   31.10    4.20
   7   0  -4    1.20    1.60
   7   0  -4    0.80    1.90
   7   0  -4    3.80    1.80
   7   0  -4    0.10    1.30
   6   0  -4   35.30    4.50
   6   0  -4   38.90    5.60
   6   0  -4   38.80    4.40
   6   0  -4   31.70    4.60
   6   0  -4   37.50    4.80
   5   0  -4 1114.59   87.99
   5   0  -4 1054.29   87.29
   5   0  -4 1035.50   87.39
   5   0  -4 1032.90   87.29
  -5   0   4 1200.18   91.79
  -4   0   4 2169.98  176.68
   3   0  -4 1540.15  115.99
  -3   0   4 1296.07  114.69
  -3   0   4 1380.66  114.59
   2   0  -4  742.03   61.19
   2   0  -4  686.33   59.29
  -2   0   4  787.02   59.99
   1   0  -4   72.49    7.00
   1   0  -4   71.89    6.40
  -1   0   4   85.79    6.70
   0   0   4  294.97   33.70
  -1   0  -4   85.89    7.50
  -1   0  -4   66.89    8.30
   1   0   4   95.79    7.40
  -2   0  -4 1330.47  101.59
   2   0   4 1159.08  102.19
   2   0   4 1290.17  101.49
  -3   0  -4  310.77   26.20
   3   0   4  284.97   26.00
   4   0   4 3177.68  256.67
  -5   0  -4  444.76   37.00
  -5   0  -4  437.66   36.30
  -5   0  -4  453.15   37.00
  -6   0  -4   14.70    4.40
  -6   0  -4   18.00    2.50
  -6   0  -4   15.80    3.10
  -6   0  -4   20.80    3.40
   6   0   4   11.20    3.30
  -7   0  -4    2.10    1.70
  -7   0  -4    2.00    1.80
  -7   0  -4   11.60    1.90
  -7   0  -4    2.00    2.50
   7   0   4    1.20    1.90
   7   0   4    2.90    1.70
  -8   0  -4   25.90    3.20
  -8   0  -4   22.40    5.00
  -8   0  -4   16.50    3.40
   8   0   4   22.30    3.90
   8   0   4   21.10    3.40
  -9   0  -4    7.80    2.20
   9   0   4    6.60    2.30
   9   0   4    8.50    2.20
 -10   0  -4  748.93   61.89
  10   0   4  796.62   61.59
  10   0   4  735.83   61.89
 -11   0  -4  448.96   36.10
  11   0   4  478.75   35.90
  11   0   4  394.96   36.10
  11  -1  -4   48.00    5.20
  11  -1  -4   45.20    4.90
 -11   1   4   40.10    5.40
  10  -1  -4  293.37   23.00
  10  -1  -4  249.78   22.40
  10  -1  -4  269.07   23.30
 -10   1   4  272.57   23.60
   9  -1  -4  197.68   16.60
   9  -1  -4  199.08   17.10
   9  -1  -4  182.98   17.40
  -9   1   4  193.58   17.90
   8  -1  -4  247.98   20.50
   8  -1  -4  182.88   19.60
   8  -1  -4  250.77   19.50
   7  -1  -4 1423.06  115.09
   7  -1  -4 1338.57  114.09
   7  -1  -4 1357.36  114.09
   7  -1  -4 1573.14  114.89
   6  -1  -4  384.66   31.80
   6  -1  -4  349.27   31.30
   6  -1  -4  365.66   30.90
   6  -1  -4  392.96   31.20
   5  -1  -4  433.06   35.70
   5  -1  -4  382.96   36.00
   5  -1  -4  480.05   36.60
   5  -1  -4  423.16   36.10
   5  -1  -4  430.86   36.00
  -5   1   4  489.45   40.00
  -4   1   4  134.89   14.50
   3  -1  -4  562.24   56.19
  -3   1   4  687.63   55.29
  -3   1   4  717.33   55.29
   2  -1  -4  681.23   61.09
  -2   1   4  716.53   60.09
  -2   1   4  797.72   59.99
   1  -1  -4 2297.97  178.98
   1  -1  -4 2181.18  179.68
  -1   1   4 2247.38  179.28
   0  -1  -4 1245.48  105.89
   0  -1  -4 1263.67  105.89
   0   1   4 1325.37  105.79
   0   1   4 1447.56  106.09
  -1  -1  -4 1311.17  106.39
   1   1   4 1402.46  106.19
   1   1   4 1255.67  106.49
  -2  -1  -4 1498.65  115.89
   2   1   4 1497.75  115.49
   2   1   4 1307.77  116.09
  -3  -1  -4   56.39    7.30
   3   1   4   50.89    6.40
  -4  -1  -4  122.49   10.90
  -4  -1  -4  115.79   10.10
  -4  -1  -4  126.59   10.80
   4   1   4   90.19   12.20
  -5  -1  -4  949.60   69.99
  -5  -1  -4  912.21   69.19
  -5  -1  -4  888.71   69.99
   5   1   4  681.53   69.99
  -6  -1  -4  113.79    9.60
  -6  -1  -4  100.69    9.60
  -6  -1  -4   98.19    8.70
  -6  -1  -4   76.49   10.70
   6   1   4   88.29   10.00
  -7  -1  -4  579.84   48.70
  -7  -1  -4  596.24   49.60
   7   1   4  626.84   50.19
  -8  -1  -4  505.35   43.60
  -8  -1  -4  502.35   42.80
   8   1   4  555.44   44.00
   8   1   4  542.75   43.30
  -9  -1  -4   63.99    7.40
   9   1   4   70.89    7.70
   9   1   4   80.89    7.30
 -10  -1  -4   33.90    4.50
  10   1   4   27.40    4.30
  10   1   4   32.10    3.90
 -11  -1  -4    4.10    1.80
  11   1   4    6.10    2.10
  11  -2  -4   19.40    2.60
  11  -2  -4   21.60    3.50
  11  -2  -4   20.70    3.10
 -11   2   4   25.50    3.80
  10  -2  -4  227.38   20.20
  10  -2  -4  226.08   19.50
  10  -2  -4  228.98   19.90
 -10   2   4  247.88   20.60
   9  -2  -4   22.40    3.90
   9  -2  -4   17.80    3.00
   9  -2  -4   19.10    3.50
  -9   2   4   18.30    3.90
   8  -2  -4   60.79    7.50
   8  -2  -4   87.79    8.50
   8  -2  -4   87.19    7.60
  -8   2   4   57.99    8.60
   7  -2  -4  419.66   35.60
   7  -2  -4  471.85   36.30
   7  -2  -4  404.26   36.40
   6  -2  -4  307.77   28.30
   6  -2  -4  346.67   28.80
   6  -2  -4  348.47   27.90
   5  -2  -4  202.18   17.20
   5  -2  -4  209.78   17.50
   5  -2  -4  217.48   16.90
  -5   2   4  161.38   19.90
   4  -2  -4 1729.03  135.09
  -4   2   4 1639.44  137.69
   3  -2  -4  607.84   55.69
  -3   2   4  689.23   54.49
   2  -2  -4  470.15   39.90
  -2   2   4  479.55   39.00
  -2   2   4  456.55   39.20
   1  -2  -4  379.66   33.80
  -1   2   4  409.76   33.50
  -1   2   4  422.56   34.00
   0  -2  -4   79.29    8.10
   0   2   4   86.79    8.40
   0   2   4   83.79    7.90
  -1  -2  -4  931.11   78.69
   1   2   4  988.40   78.39
   1   2   4  981.80   78.99
  -2  -2  -4 1356.46  114.29
   2   2   4 1463.25  113.99
   3   2   4  569.64   47.70
  -4  -2  -4  115.59   10.10
  -4  -2  -4  108.79    9.30
  -4  -2  -4   88.09   10.60
  -4  -2  -4  110.29   10.30
   4   2   4   88.99   13.70
  -5  -2  -4  246.18   21.30
  -5  -2  -4  249.48   20.30
  -5  -2  -4  255.17   21.00
   5   2   4  209.08   21.40
  -6  -2  -4   51.79    6.40
  -6  -2  -4   60.69    6.30
  -6  -2  -4   55.59    5.50
   6   2   4   50.89    7.60
  -7  -2  -4   67.69    7.70
  -7  -2  -4   71.79    6.90
   7   2   4   78.09    8.50
  -8  -2  -4  355.16   32.60
  -8  -2  -4  380.36   31.90
   8   2   4  415.56   33.30
   8   2   4  405.56   32.30
  -9  -2  -4  175.48   16.00
  -9  -2  -4  192.58   16.90
   9   2   4  192.08   16.40
   9   2   4  200.68   17.10
 -10  -2  -4   75.09    7.50
  10   2   4   76.89    7.70
  10   2   4   71.39    7.00
  11  -3  -4    6.60    1.50
  11  -3  -4   11.70    2.10
  11  -3  -4    7.90    2.20
 -11   3   4   10.00    2.40
  10  -3  -4  218.28   18.20
  10  -3  -4  203.68   18.80
  10  -3  -4  220.68   18.70
 -10   3   4  220.78   19.20
   9  -3  -4 1167.88   88.59
   9  -3  -4 1165.58   87.79
   9  -3  -4 1144.29   88.79
  -9   3   4  861.21   88.19
   8  -3  -4  206.88   17.10
   8  -3  -4  180.68   16.00
  -8   3   4  156.18   16.70
   7  -3  -4  648.84   54.79
   7  -3  -4  653.13   54.29
   7  -3  -4  676.23   55.19
  -7   3   4  679.83   55.39
   6  -3  -4  127.29   12.40
   6  -3  -4  138.99   11.70
   6  -3  -4  129.39   12.20
  -6   3   4  124.99   12.70
   5  -3  -4  105.99    8.70
   5  -3  -4   92.39    8.50
   5  -3  -4   68.19    8.30
   5  -3  -4   98.89    8.20
   5  -3  -4   91.39    8.80
   4  -3  -4   67.29    6.40
   4  -3  -4   64.89    6.70
   4  -3  -4   73.29    6.30
  -4   3   4   70.09    9.00
   3  -3  -4  942.31   80.49
  -3   3   4  969.60   78.89
   2  -3  -4  475.75   41.20
  -2   3   4  485.25   40.40
   1  -3  -4 1384.16  116.89
  -1   3   4 1497.45  116.39
   0  -3  -4 1398.26  119.79
   0   3   4 1561.04  119.59
  -1  -3  -4   64.99    7.60
   1   3   4   66.99    7.20
   2   3   4  108.79   10.70
  -3  -3  -4   78.09    8.50
  -3  -3  -4   87.79    7.80
  -3  -3  -4   84.09    7.60
  -3  -3  -4   81.89    8.50
   3   3   4   77.59    9.20
   3   3   4   76.19    7.60
  -4  -3  -4  413.36   33.70
  -4  -3  -4  410.06   33.00
  -4  -3  -4  408.56   33.20
  -4  -3  -4  390.86   34.10
   4   3   4  377.96   33.20
  -5  -3  -4 1609.04  124.89
  -5  -3  -4 1601.04  126.09
  -5  -3  -4 1706.43  125.69
   5   3   4 1315.07  124.99
  -6  -3  -4  909.71   72.29
  -6  -3  -4  920.31   71.89
  -6  -3  -4  918.91   71.19
   6   3   4  764.82   72.59
  -7  -3  -4    3.20    1.80
  -7  -3  -4    5.00    2.30
  -7  -3  -4    2.80    1.30
   7   3   4    1.60    1.90
  -8  -3  -4   56.79    6.30
  -8  -3  -4   52.59    5.30
  -8  -3  -4   50.99    6.00
   8   3   4   49.20    5.70
   8   3   4   42.10    6.10
  -9  -3  -4  104.09    9.80
  -9  -3  -4  118.69   10.70
   9   3   4  123.49   10.90
   9   3   4  102.39    9.90
 -10  -3  -4    4.90    1.60
  10   3   4    2.70    1.70
  11  -4  -4  167.18   14.00
  11  -4  -4  157.38   13.70
 -11   4   4  158.88   14.30
  10  -4  -4  128.29   10.80
  10  -4  -4  113.29   11.60
  10  -4  -4  127.19   11.20
  10  -4  -4  108.49   11.20
 -10   4   4  128.79   11.70
   9  -4  -4  525.15   41.20
   9  -4  -4  515.75   41.90
   9  -4  -4  474.05   41.30
  -9   4   4  461.85   41.50
   8  -4  -4    5.50    1.80
   8  -4  -4    5.70    2.80
   8  -4  -4    6.80    2.60
  -8   4   4    5.90    2.40
   7  -4  -4  171.18   15.80
   7  -4  -4  162.18   14.80
   7  -4  -4  158.68   15.30
  -7   4   4  179.38   15.90
   6  -4  -4  871.71   83.09
   6  -4  -4  998.30   83.49
   6  -4  -4 1121.09   83.19
   6  -4  -4 1058.09   83.79
  -6   4   4 1108.69   84.39
   5  -4  -4  515.45   38.60
   5  -4  -4  432.76   38.90
   5  -4  -4  441.36   38.70
   5  -4  -4  480.15   38.90
   5  -4  -4  474.05   39.10
  -5   4   4  493.25   40.10
   4  -4  -4  199.88   18.90
   4  -4  -4  228.08   18.80
   4  -4  -4  226.98   19.00
   4  -4  -4  214.78   18.50
   4  -4  -4  242.28   18.40
  -4   4   4  206.88   19.80
   3  -4  -4  384.76   31.60
   3  -4  -4  353.66   30.80
   3  -4  -4  379.56   31.40
   3  -4  -4  384.26   30.60
   3  -4  -4  343.47   31.20
  -3   4   4  411.16   33.30
   2  -4  -4   23.10    3.20
   2  -4  -4   18.60    2.80
   2  -4  -4   21.90    3.40
  -2   4   4   18.40    3.80
  -1   4   4  975.40   79.99
   0  -4  -4 2237.08  192.38
   0   4   4 2584.64  194.08
  -1  -4  -4   53.59    5.10
  -1  -4  -4   52.59    6.10
  -1  -4  -4   47.70    5.10
   1   4   4   53.99    6.60
  -2  -4  -4  342.47   27.50
  -2  -4  -4  313.37   28.40
   2   4   4  342.77   27.70
  -3  -4  -4  615.04   49.20
  -3  -4  -4  605.04   48.20
  -3  -4  -4  567.04   49.40
   3   4   4  581.84   48.40
  -4  -4  -4   74.29    7.80
  -4  -4  -4   68.29    6.90
  -4  -4  -4   62.69    8.00
  -4  -4  -4   71.39    7.10
   4   4   4   69.89    7.40
  -5  -4  -4   54.69    6.00
  -5  -4  -4   52.19    5.10
  -5  -4  -4   46.40    6.70
   5   4   4   43.60    6.10
   5   4   4   27.50    5.80
  -6  -4  -4  455.75   37.00
  -6  -4  -4  442.56   36.30
  -6  -4  -4  430.16   35.60
   6   4   4  393.76   36.10
  -7  -4  -4   38.40    5.70
  -7  -4  -4   43.40    4.40
  -7  -4  -4   27.20    4.80
   7   4   4   36.10    5.70
   7   4   4   40.60    4.90
  -8  -4  -4  191.28   16.30
  -8  -4  -4  187.68   17.00
  -8  -4  -4  193.08   17.20
   8   4   4  190.28   17.40
  -9  -4  -4  247.68   21.80
  -9  -4  -4  260.57   22.50
   9   4   4  285.07   22.80
 -10  -4  -4   49.80    5.00
  10   4   4   46.40    5.20
  11  -5  -4  416.26   35.50
  11  -5  -4  429.86   35.30
 -11   5   4  457.45   35.90
  10  -5  -4    5.80    2.40
  10  -5  -4    5.50    1.50
  10  -5  -4    6.50    1.90
 -10   5   4    5.80    2.00
   9  -5  -4  746.73   59.19
   9  -5  -4  765.02   60.19
  -9   5   4  654.63   59.39
   8  -5  -4  475.45   34.20
   8  -5  -4  325.07   33.20
   8  -5  -4  420.46   34.40
   7  -5  -4   -0.10    2.50
   7  -5  -4    2.60    1.50
   7  -5  -4    2.20    1.90
   7  -5  -4    2.10    2.00
  -7   5   4   -0.20    1.90
   6  -5  -4    1.80    1.70
   6  -5  -4    3.90    2.00
   6  -5  -4    0.30    1.20
   6  -5  -4    1.10    2.20
  -6   5   4   -0.70    1.90
   5  -5  -4 1011.00   80.29
   5  -5  -4  973.50   79.79
   5  -5  -4  927.11   80.09
   5  -5  -4  947.11   79.69
   5  -5  -4 1085.49   79.69
  -5   5   4  989.20   80.99
   4  -5  -4   18.80    3.10
   4  -5  -4   17.60    3.30
   4  -5  -4   20.10    2.70
   4  -5  -4   20.70    2.90
   4  -5  -4   21.60    4.00
   4  -5  -4   21.90    3.70
  -4   5   4   15.80    3.70
   3  -5  -4 1324.57   99.09
   3  -5  -4 1353.96  100.39
   3  -5  -4 1285.67   99.49
   3  -5  -4 1177.28   99.79
  -3   5   4 1037.00   99.49
   2  -5  -4 1221.98   98.49
   2  -5  -4 1155.58   98.29
   2  -5  -4 1265.37   97.59
   2  -5  -4 1231.88   97.99
   1  -5  -4    1.20    0.90
   1  -5  -4    3.20    1.50
   1  -5  -4    2.30    1.00
   1  -5  -4    0.40    1.30
   1  -5  -4    0.80    1.90
   0  -5  -4  208.48   16.90
   0  -5  -4  217.68   17.30
   0  -5  -4  198.38   17.60
   0  -5  -4  190.98   18.20
  -1  -5  -4   41.90    5.60
  -1  -5  -4   45.50    5.20
  -1  -5  -4   48.10    4.70
   1   5   4   46.50    5.00
  -2  -5  -4   29.60    4.80
  -2  -5  -4   33.90    3.80
   2   5   4   31.40    4.30
  -3  -5  -4  593.74   50.69
  -3  -5  -4  595.24   49.20
  -3  -5  -4  623.34   50.39
   3   5   4  604.64   49.80
  -4  -5  -4 1631.64  132.79
  -4  -5  -4 1748.82  132.99
  -4  -5  -4 1736.93  133.69
  -4  -5  -4 1695.83  134.39
   4   5   4 1596.44  133.29
   4   5   4 1501.75  134.19
  -5  -5  -4   47.80    5.90
  -5  -5  -4   50.79    7.10
  -5  -5  -4   31.60    4.60
   5   5   4   41.00    5.80
   5   5   4   25.80    5.70
  -6  -5  -4  736.33   59.49
  -6  -5  -4  763.02   58.79
   6   5   4  631.54   59.19
   6   5   4  719.03   58.79
  -7  -5  -4   21.70    3.20
  -7  -5  -4   19.90    4.20
  -7  -5  -4   22.10    3.90
   7   5   4   20.90    4.30
  -8  -5  -4   21.00    3.00
  -8  -5  -4   22.00    3.40
  -8  -5  -4   17.00    3.60
   8   5   4   21.30    3.80
  -9  -5  -4   20.60    3.10
  -9  -5  -4   17.50    2.50
   9   5   4   20.10    3.20
  11  -6  -4  115.69   10.40
 -11   6   4  131.19   11.10
  10  -6  -4  189.18   17.30
  10  -6  -4  196.78   18.10
  10  -6  -4  195.28   17.10
 -10   6   4  235.98   18.00
   9  -6  -4  191.58   18.30
   9  -6  -4  220.48   19.50
   9  -6  -4  211.48   18.10
  -9   6   4  221.38   18.80
   8  -6  -4  277.67   25.10
   8  -6  -4  329.27   24.90
   8  -6  -4  234.88   24.70
  -8   6   4  339.07   25.90
   7  -6  -4  214.58   15.80
   7  -6  -4  144.09   16.80
   7  -6  -4  159.98   15.20
   7  -6  -4  168.28   15.50
   6  -6  -4   61.89    7.20
   6  -6  -4   53.59    9.20
   6  -6  -4   78.19    7.80
   6  -6  -4   80.49    7.20
  -6   6   4   79.69    8.50
   5  -6  -4  802.62   64.89
   5  -6  -4  817.42   66.29
   5  -6  -4  832.42   64.29
  -5   6   4  715.43   65.19
   4  -6  -4  139.89   12.50
   4  -6  -4  144.99   13.30
   4  -6  -4  133.59   11.70
  -4   6   4  123.39   12.50
   3  -6  -4    2.80    1.40
   3  -6  -4    3.50    1.90
   3  -6  -4    3.20    1.10
   3  -6  -4    1.20    1.80
   2  -6  -4  397.66   32.50
   2  -6  -4  383.76   31.90
   2  -6  -4  408.96   31.50
   2  -6  -4  344.37   33.10
   1  -6  -4   36.40    5.90
   1  -6  -4   38.60    4.80
   1  -6  -4   39.20    4.00
   1  -6  -4   43.40    4.40
   0  -6  -4  410.86   38.10
   0  -6  -4  462.85   37.00
   0  -6  -4  477.15   36.70
   0  -6  -4  426.66   37.30
   0   6   4  476.45   37.40
  -1  -6  -4  616.74   48.90
  -1  -6  -4  563.44   49.99
   1   6   4  615.64   49.30
  -2  -6  -4  479.65   40.00
  -2  -6  -4  476.55   41.40
   2   6   4  507.05   40.70
  -3  -6  -4   42.70    7.80
  -3  -6  -4   76.19    8.30
  -3  -6  -4   69.49    6.70
   3   6   4   67.29    7.20
  -4  -6  -4    9.70    3.10
  -4  -6  -4    2.90    1.70
  -4  -6  -4    6.20    2.70
   4   6   4    4.20    2.40
   4   6   4    1.50    2.80
  -5  -6  -4    1.10    1.20
  -5  -6  -4    3.10    2.30
  -5  -6  -4   -1.60    1.80
   5   6   4    0.60    2.10
   5   6   4    0.90    2.60
  -6  -6  -4  171.08   15.90
  -6  -6  -4  181.88   16.80
  -6  -6  -4  159.98   15.20
   6   6   4  191.48   16.70
   6   6   4  173.58   16.20
  -7  -6  -4  261.77   22.90
  -7  -6  -4  259.87   22.30
  -7  -6  -4  264.67   23.30
   7   6   4  263.57   22.80
   7   6   4  282.57   23.30
  -8  -6  -4    5.60    1.90
  -8  -6  -4    5.30    1.40
   8   6   4    6.10    2.00
  10  -7  -4  140.69   12.60
  10  -7  -4  144.89   13.60
 -10   7   4  157.98   13.20
   9  -7  -4  119.69   10.90
   9  -7  -4  118.69   12.20
  -9   7   4  124.99   11.60
   8  -7  -4   15.50    3.00
   8  -7  -4   18.00    3.20
   8  -7  -4   13.10    3.70
  -8   7   4   17.00    3.60
   7  -7  -4   44.60    5.50
   7  -7  -4   50.19    5.40
   7  -7  -4   27.80    6.20
  -7   7   4   45.30    6.40
   6  -7  -4  104.99    9.50
   6  -7  -4   98.59   10.00
  -6   7   4   90.79   10.50
   5  -7  -4  343.57   31.40
   5  -7  -4  389.56   30.80
   5  -7  -4  386.96   32.90
  -5   7   4  364.16   31.80
   4  -7  -4  796.02   63.59
   4  -7  -4  828.92   64.59
   4  -7  -4  789.72   62.79
  -4   7   4  692.43   63.39
   3  -7  -4  269.87   23.70
   3  -7  -4  289.87   23.20
   3  -7  -4  276.17   24.40
   2  -7  -4  702.23   59.59
   2  -7  -4  760.12   59.19
   2  -7  -4  649.04   60.59
   2  -7  -4  735.33   58.59
  -2   7   4  779.42   59.69
   1  -7  -4  127.59   11.40
   1  -7  -4  129.49   13.50
   1  -7  -4  138.49   11.90
   1  -7  -4  125.69   12.30
  -1   7   4  142.09   12.40
   0  -7  -4  406.86   36.30
   0  -7  -4  424.86   34.70
   0   7   4  427.46   35.30
  -1  -7  -4  159.08   14.80
  -1  -7  -4  174.68   13.40
   1   7   4  114.89   13.50
  -2  -7  -4  265.77   28.30
   2   7   4  395.16   28.60
  -3  -7  -4   80.19    9.30
   3   7   4   55.89    8.10
   3   7   4  105.19   10.40
  -4  -7  -4  419.46   42.60
   4   7   4  558.74   42.80
   4   7   4  534.85   43.20
  -5  -7  -4  150.18   14.70
  -5  -7  -4  156.48   14.00
   5   7   4  129.39   14.00
   5   7   4  152.28   14.60
  -6  -7  -4    1.00    1.10
  -6  -7  -4    0.40    2.10
  -6  -7  -4    1.20    1.80
   6   7   4    0.60    2.00
   6   7   4    3.00    2.10
  -7  -7  -4   74.79    7.00
  -7  -7  -4   69.19    7.90
  -7  -7  -4   74.89    7.50
   7   7   4   73.39    7.60
   7   7   4   83.39    7.80
   9  -8  -4   66.39    6.70
   9  -8  -4   73.29    7.90
  -9   8   4   67.39    7.10
   8  -8  -4  389.56   32.50
   8  -8  -4  367.56   30.70
   8  -8  -4  344.27   30.60
  -8   8   4  371.76   31.20
   7  -8  -4  528.35   41.50
   7  -8  -4  520.65   41.20
   7  -8  -4  451.55   42.90
  -7   8   4  489.35   41.80
   6  -8  -4   23.20    4.30
   6  -8  -4   21.40    5.10
   6  -8  -4   24.30    3.50
  -6   8   4   17.30    4.10
   5  -8  -4  168.58   17.20
   5  -8  -4  199.58   16.60
   5  -8  -4  210.58   18.80
  -5   8   4  189.78   17.40
   4  -8  -4    0.90    1.40
   4  -8  -4    0.20    1.90
   4  -8  -4    2.10    1.40
  -4   8   4    4.30    2.70
   3  -8  -4  167.68   15.20
   3  -8  -4  174.48   16.60
  -3   8   4  206.68   17.00
   2  -8  -4  256.77   23.10
   2  -8  -4  247.38   22.50
   2  -8  -4  273.07   24.80
  -2   8   4  288.47   23.60
   1  -8  -4 1241.78   97.19
   1  -8  -4 1183.28   99.09
  -1   8   4 1180.38   97.89
   0  -8  -4   30.40    3.90
   0  -8  -4   30.70    5.60
   0   8   4   17.20    3.90
  -1  -8  -4   24.90    5.30
  -1  -8  -4   30.20    3.90
   1   8   4   14.40    3.70
  -2  -8  -4  369.76   31.30
   2   8   4  380.56   32.30
   2   8   4  307.37   30.20
  -3  -8  -4    9.60    2.50
  -3  -8  -4    6.00    3.00
   3   8   4    6.10    3.70
   3   8   4    3.40    2.50
  -4  -8  -4   22.20    4.90
  -4  -8  -4   25.40    3.70
   4   8   4   23.40    4.90
   4   8   4   20.20    4.50
  -5  -8  -4  236.28   23.20
  -5  -8  -4  278.07   22.20
  -5  -8  -4  251.27   23.30
   5   8   4  261.57   22.80
   5   8   4  278.87   23.20
  -6  -8  -4   37.80    5.40
  -6  -8  -4   37.00    4.90
  -6  -8  -4   40.70    4.30
   6   8   4   41.60    5.10
   6   8   4   38.10    5.00
   9  -9  -4   20.70    3.70
   8  -9  -4   41.30    5.10
   8  -9  -4   47.90    5.30
   8  -9  -4   51.99    6.60
  -8   9   4   49.50    5.70
   7  -9  -4  294.87   21.50
   7  -9  -4  233.88   22.60
   7  -9  -4  230.58   20.70
  -7   9   4  223.58   21.20
   6  -9  -4   37.10    4.70
   6  -9  -4   41.40    6.90
   6  -9  -4   41.10    5.60
  -6   9   4   35.80    5.50
   5  -9  -4   18.30    4.40
   5  -9  -4   19.50    3.70
   4  -9  -4  226.98   18.70
   4  -9  -4  169.18   17.50
   3  -9  -4  269.17   24.90
  -3   9   4  312.67   25.80
   2  -9  -4   67.69    7.30
   2  -9  -4   76.69   10.50
  -2   9   4   72.19    8.90
   1  -9  -4  180.58   16.30
   1  -9  -4  197.58   18.90
  -1   9   4  187.88   17.80
   0  -9  -4    4.20    2.90
   0  -9  -4    6.30    2.10
   0   9   4    9.50    3.40
  -1  -9  -4  173.98   16.00
  -1  -9  -4  181.38   15.50
  -1  -9  -4  164.78   17.10
  -2  -9  -4  354.36   25.30
  -2  -9  -4  277.97   26.20
   2   9   4  241.48   25.40
  -3  -9  -4  174.68   17.60
  -3  -9  -4  209.88   16.40
   3   9   4  162.78   17.00
  -4  -9  -4    1.10    1.30
  -4  -9  -4    2.50    2.20
   4   9   4    0.10    1.90
  -5  -9  -4    1.40    2.20
  -5  -9  -4    3.00    1.30
   5   9   4    4.50    2.10
   7 -10  -4   43.50    6.70
   7 -10  -4   62.79    6.00
   6 -10  -4   -0.80    1.60
   6 -10  -4    3.50    2.80
   5 -10  -4   93.19    8.60
   5 -10  -4   65.89    8.70
   4 -10  -4   65.99    7.20
   3 -10  -4  411.96   36.50
  -3  10   4  500.95   42.40
   2 -10  -4   63.99    6.90
   2 -10  -4   65.29    9.50
  -2  10   4   78.79    9.40
   1 -10  -4  527.15   45.80
   1 -10  -4  608.64   48.40
  -1  10   4  549.85   47.40
   0 -10  -4   12.90    2.70
   0 -10  -4   19.10    4.60
   0  10   4   14.50    4.20
  -1 -10  -4   34.10    6.20
   1  10   4   30.80    5.60
  -2 -10  -4    7.60    3.00
  -2 -10  -4    5.30    2.20
   2  10   4    6.10    2.70
  -3 -10  -4   21.10    3.10
  -3 -10  -4   18.20    4.00
   3  10   4   20.60    3.80
  -4 -10  -4   63.09    7.10
  -4 -10  -4   68.89    7.60
   4  10   4   73.29    7.30
   6 -11  -4  125.79   11.50
   5 -11  -4   86.49    8.60
   4 -11  -4    1.40    1.60
   3 -11  -4    2.80    1.60
   2 -11  -4    3.20    4.20
   2 -11  -4    7.80    2.20
   1 -11  -4    7.00    2.10
   1 -11  -4   11.40    4.10
  -1  11   4    3.00    3.40
   0 -11  -4  261.07   22.60
   0  11   4  224.78   21.70
  -1 -11  -4   12.70    3.80
   1  11   4   13.40    3.50
  -2 -11  -4   20.00    4.10
   2  11   4   14.20    4.30
   1  12  -5  238.88   20.40
  -1 -12   5  226.48   21.10
   0  12  -5   11.90    3.30
   0 -12   5   14.60    3.20
   0 -12   5   14.20    4.10
   1 -12   5    3.70    2.10
   1 -12   5    0.80    3.40
  -2  12  -5    0.90    1.50
   2 -12   5   -1.20    1.90
   2 -12   5   -1.60    4.10
  -3  12  -5   21.00    3.40
   3 -12   5   20.30    4.30
  -4  12  -5   10.60    2.40
   4 -12   5   13.60    3.60
  -5  12  -5  189.98   16.50
   4  11  -5    8.30    2.30
  -4 -11   5    5.90    3.10
   3  11  -5    1.20    1.90
  -3 -11   5    0.00    2.90
   2  11  -5  100.09    9.50
  -2 -11   5   79.69   10.20
   1  11  -5  201.68   16.80
  -1 -11   5  167.38   16.10
  -1 -11   5  171.38   17.10
   0  11  -5   63.39    8.20
   0 -11   5   68.69    7.70
   0 -11   5   74.29    9.00
  -1  11  -5    6.70    2.70
  -1  11  -5    8.50    2.00
   1 -11   5   11.70    3.70
   1 -11   5    6.70    2.60
  -2  11  -5  326.17   29.00
   2 -11   5  370.16   30.20
  -3  11  -5   21.80    3.60
   3 -11   5   25.60    4.90
  -4  11  -5    3.60    1.90
   4 -11   5    5.20    2.60
  -5  11  -5   28.10    4.40
   5 -11   5   30.60    5.20
   5 -11   5   26.90    4.20
  -6  11  -5   42.30    5.50
  -6  11  -5   51.89    6.00
   6 -11   5   53.19    6.10
   6 -11   5   69.39    6.90
  -7  11  -5   69.59    6.90
   5  10  -5  122.69   11.00
   5  10  -5  116.49   11.00
  -5 -10   5  121.79   12.30
   4  10  -5  181.88   16.50
   4  10  -5  194.78   16.60
  -4 -10   5  178.88   17.90
   3  10  -5  748.73   66.39
   3  10  -5  871.91   66.79
  -3 -10   5  828.82   67.99
   2  10  -5    4.90    2.80
  -2 -10   5    6.20    3.30
  -2 -10   5    2.90    2.40
   1  10  -5  264.87   21.80
  -1 -10   5  234.28   21.80
  -1 -10   5  219.38   20.90
   0  10  -5   19.40    3.20
   0  10  -5   19.50    4.40
   0 -10   5   18.00    3.90
  -1  10  -5    9.20    2.30
  -1  10  -5   13.10    3.60
   1 -10   5   11.90    3.10
  -2  10  -5  103.09    9.50
   2 -10   5   87.29   10.20
  -3  10  -5  503.95   39.00
  -3  10  -5  497.25   39.80
   3 -10   5  423.96   40.60
  -4  10  -5  100.69    9.60
  -4  10  -5  112.19   10.60
   4 -10   5  106.19   11.70
   4 -10   5  108.79   10.30
  -5  10  -5  231.08   20.30
  -5  10  -5  199.08   19.20
   5 -10   5  257.47   21.60
   5 -10   5  232.58   20.00
  -6  10  -5  306.07   25.50
  -6  10  -5  265.07   24.60
   6 -10   5  289.07   25.20
   6 -10   5  321.37   26.20
  -7  10  -5   10.30    2.30
  -7  10  -5   11.50    2.70
   7 -10   5   15.20    2.90
   7 -10   5   12.20    3.10
  -8  10  -5   12.20    2.40
  -8  10  -5    7.60    1.80
   8 -10   5   11.20    2.20
   6   9  -5  155.48   14.00
   6   9  -5  164.78   14.10
  -6  -9   5  154.88   15.30
   5   9  -5  218.88   18.70
   5   9  -5  220.68   18.70
  -5  -9   5  194.08   20.00
   4   9  -5   78.79    8.50
   4   9  -5   76.79    8.30
  -4  -9   5   85.19    9.90
   3   9  -5   10.20    3.20
   3   9  -5    5.90    2.50
  -3  -9   5    8.90    3.60
   2   9  -5  442.56   40.80
   2   9  -5  458.65   41.20
  -2  -9   5  491.15   41.90
  -2  -9   5  548.85   41.00
   1   9  -5   22.70    3.50
   1   9  -5   27.80    5.20
  -1  -9   5   24.30    4.40
   0   9  -5  127.99   14.30
   0   9  -5  148.19   13.00
   0  -9   5  144.59   13.70
  -1   9  -5  139.39   12.50
  -1   9  -5  143.89   13.20
  -1   9  -5  148.09   14.30
  -1   9  -5  144.49   13.50
   1  -9   5  157.18   14.10
  -2   9  -5    8.60    2.40
  -2   9  -5   14.90    3.20
  -2   9  -5   13.50    2.20
   2  -9   5   12.10    3.40
  -3   9  -5  160.68   12.30
  -3   9  -5  167.08   13.50
  -3   9  -5  111.49   12.60
   3  -9   5  156.78   13.20
   3  -9   5  106.59   13.40
  -4   9  -5   51.59    6.40
  -4   9  -5   47.90    5.20
  -4   9  -5   48.50    5.90
   4  -9   5   36.90    6.80
   4  -9   5   54.69    6.10
  -5   9  -5   20.30    3.20
  -5   9  -5   14.10    3.30
   5  -9   5   14.60    3.60
   5  -9   5   14.20    4.30
  -6   9  -5  367.76   31.60
  -6   9  -5  362.46   30.80
   6  -9   5  381.06   32.40
   6  -9   5  362.26   31.40
  -7   9  -5   66.99    7.90
  -7   9  -5   88.09    8.50
   7  -9   5   79.99    9.00
   7  -9   5   88.09    8.50
  -8   9  -5   14.40    2.70
  -8   9  -5   17.20    2.90
   8  -9   5   16.90    3.00
   8  -9   5   15.30    3.20
  -9   9  -5   30.90    3.30
   9  -9   5   22.50    3.20
   7   8  -5   20.80    3.20
   7   8  -5   17.80    3.10
  -7  -8   5   20.50    4.20
   6   8  -5  700.93   56.39
   6   8  -5  715.03   56.29
  -6  -8   5  642.14   57.69
   5   8  -5  586.94   48.20
   5   8  -5  588.84   48.10
  -5  -8   5  566.14   49.60
   4   8  -5    7.40    2.60
   4   8  -5    3.20    2.00
  -4  -8   5    0.90    2.70
   3   8  -5  242.28   20.70
  -3  -8   5  218.38   21.30
   2   8  -5   90.59   10.00
   2   8  -5   88.79    9.90
  -2  -8   5   98.09    9.60
   1   8  -5   78.29    7.30
   1   8  -5   71.99    6.80
   1   8  -5   53.49    7.20
   1   8  -5   80.19    9.00
  -1  -8   5   82.99    8.10
   0   8  -5  436.66   39.60
   0   8  -5  450.65   40.90
   0   8  -5  472.25   39.10
   0   8  -5  525.05   39.80
   0  -8   5  510.95   40.40
  -1   8  -5  541.75   43.00
  -1   8  -5  518.15   43.80
  -1   8  -5  511.55   42.30
  -1   8  -5  508.15   42.90
   1  -8   5  530.45   43.70
  -2   8  -5    2.60    1.60
  -2   8  -5    0.40    1.10
  -2   8  -5   -0.50    1.20
  -3   8  -5  747.23   60.09
  -3   8  -5  747.63   59.49
   3  -8   5  710.13   59.99
  -4   8  -5  296.37   24.80
  -4   8  -5  230.58   24.70
  -4   8  -5  317.67   24.40
   4  -8   5  318.67   25.30
  -5   8  -5   46.90    5.50
  -5   8  -5   51.99    6.70
  -5   8  -5   44.20    5.60
   5  -8   5   46.80    6.70
  -6   8  -5   40.20    5.40
  -6   8  -5   50.39    6.60
   6  -8   5   42.40    6.10
  -7   8  -5  181.38   14.20
  -7   8  -5  119.59   13.30
   7  -8   5  150.38   13.90
  -8   8  -5    1.40    1.80
  -8   8  -5    1.90    1.50
   8  -8   5    3.40    1.80
  -9   8  -5  400.96   31.50
  -9   8  -5  335.37   31.30
   9  -8   5  417.56   31.80
 -10   8  -5  281.27   23.10
   8   7  -5  500.45   38.50
  -8  -7   5  430.86   39.00
   7   7  -5  351.76   29.50
   7   7  -5  371.36   29.70
  -7  -7   5  328.37   30.70
   6   7  -5    0.20    1.40
   6   7  -5    5.20    2.10
  -6  -7   5    2.40    3.00
   5   7  -5   78.99    8.20
   5   7  -5   72.79    8.10
  -5  -7   5   83.29    9.80
   4   7  -5   33.50    5.60
   4   7  -5   57.99    6.30
  -4  -7   5   49.99    7.20
   3   7  -5   29.60    5.00
   3   7  -5   33.10    5.40
   3   7  -5   37.90    4.00
  -3  -7   5   31.60    5.60
   2   7  -5 1769.22  137.29
   2   7  -5 1720.43  136.29
   2   7  -5 1667.13  135.59
  -2  -7   5 1638.04  136.39
   1   7  -5  788.12   64.09
   1   7  -5  746.83   65.79
   1   7  -5  817.22   64.69
   1   7  -5  836.72   64.69
  -1  -7   5  785.12   65.09
   0   7  -5  287.67   23.50
   0   7  -5  279.87   22.90
   0   7  -5  279.47   23.40
   0   7  -5  256.27   24.50
   0  -7   5  280.07   24.00
  -1   7  -5   23.20    4.60
  -1   7  -5   28.60    3.70
  -1   7  -5   27.80    3.80
  -1   7  -5   26.80    3.30
  -2   7  -5  195.38   15.80
  -2   7  -5  203.48   16.20
  -2   7  -5  192.28   16.20
   2  -7   5  156.68   16.00
  -3   7  -5    6.30    1.80
  -3   7  -5    5.30    1.80
  -3   7  -5    4.20    1.40
   3  -7   5    6.20    2.40
  -4   7  -5  189.98   16.70
  -4   7  -5  175.88   16.30
  -4   7  -5  192.88   16.10
   4  -7   5  186.88   17.10
  -5   7  -5  853.21   70.59
  -5   7  -5  943.21   71.49
  -5   7  -5  784.72   70.49
   5  -7   5  911.11   71.59
  -6   7  -5  222.28   19.50
   6  -7   5  207.98   19.30
  -7   7  -5  355.96   32.60
   7  -7   5  423.56   33.20
  -8   7  -5   29.10    4.00
  -8   7  -5   20.20    3.30
   8  -7   5   17.60    3.50
  -9   7  -5   36.50    4.20
   9  -7   5   35.90    4.70
 -10   7  -5   24.50    2.90
  10  -7   5   20.30    3.10
   9   6  -5    2.00    1.30
   8   6  -5  575.94   44.80
  -8  -6   5  508.35   45.40
   7   6  -5  829.72   70.49
   7   6  -5  902.61   70.39
  -7  -6   5  867.21   71.89
   6   6  -5  285.17   24.30
  -6  -6   5  280.97   26.00
   5   6  -5  518.95   41.40
   5   6  -5  455.45   40.90
   5   6  -5  488.45   41.40
  -5  -6   5  534.35   42.90
   4   6  -5  276.47   24.20
   4   6  -5  314.67   25.30
   4   6  -5  276.27   24.80
  -4  -6   5  294.57   25.80
   3   6  -5  221.48   19.10
   3   6  -5  215.58   18.10
   3   6  -5  210.28   19.30
   2   6  -5    2.80    2.10
   2   6  -5    2.20    1.30
   2   6  -5    3.90    2.10
   2   6  -5    0.60    1.00
   1   6  -5  696.33   55.59
   1   6  -5  746.43   56.09
   1   6  -5  587.84   56.19
   1   6  -5  679.93   57.09
   1   6  -5  754.32   55.99
  -1  -6   5  672.63   56.29
   0   6  -5   54.29    5.40
   0   6  -5   53.89    5.10
   0   6  -5   57.79    5.50
   0   6  -5   50.39    7.00
  -1   6  -5 2159.48  169.58
  -1   6  -5 2223.78  169.18
  -1   6  -5 1869.01  169.98
  -1   6  -5 2213.98  169.48
  -2   6  -5  828.72   60.89
  -2   6  -5  762.62   61.19
  -2   6  -5  752.62   61.09
   2  -6   5  675.13   61.29
  -3   6  -5    2.40    1.40
  -3   6  -5    0.10    1.20
  -3   6  -5    4.20    1.20
  -3   6  -5    0.10    3.30
   3  -6   5    3.40    2.30
  -4   6  -5  107.79   11.10
  -4   6  -5   91.59    8.20
  -4   6  -5   82.99    8.70
  -4   6  -5   79.89    8.40
  -5   6  -5    7.60    2.50
  -5   6  -5    9.40    2.00
  -5   6  -5    9.10    2.30
  -6   6  -5  183.08   16.70
  -6   6  -5  202.08   17.30
  -6   6  -5  184.28   16.30
   6  -6   5  185.68   17.20
  -7   6  -5  955.60   86.09
   7  -6   5  933.81   86.29
   7  -6   5 1298.37   85.99
  -8   6  -5  117.39   10.90
  -9   6  -5   43.30    4.80
   9  -6   5   44.00    5.30
   9  -6   5   38.60    4.80
 -10   6  -5  213.38   17.90
  10  -6   5  213.18   17.90
  10  -6   5  211.78   18.20
   9   5  -5  326.17   29.20
   9   5  -5  373.86   29.10
   8   5  -5  143.29   14.10
   8   5  -5  172.98   13.90
  -8  -5   5  137.79   14.50
   7   5  -5   11.00    2.80
   7   5  -5   15.00    3.50
   7   5  -5   20.60    4.20
   7   5  -5   21.30    3.40
  -7  -5   5   18.70    4.60
   6   5  -5  112.69   11.40
   6   5  -5  131.69   11.40
   6   5  -5  113.69   12.00
  -6  -5   5  114.39   12.80
   5   5  -5   15.70    3.20
   5   5  -5   12.80    2.80
   5   5  -5   17.20    3.30
  -5  -5   5   14.80    4.10
   4   5  -5 1058.69   86.09
   4   5  -5 1031.50   85.49
   4   5  -5 1035.20   86.39
  -4  -5   5 1130.39   86.89
   3   5  -5 1167.68   92.49
   3   5  -5 1075.99   92.59
   3   5  -5 1114.59   91.79
   3   5  -5 1207.48   91.59
   2   5  -5  497.95   37.60
   2   5  -5  491.85   37.40
   2   5  -5  471.85   38.50
   2   5  -5  391.66   38.20
  -2  -5   5  445.06   40.90
   1   5  -5  801.92   78.09
   1   5  -5  993.30   77.19
   1   5  -5  989.00   77.49
   1   5  -5  989.90   77.29
  -1  -5   5 1022.10   79.49
   0   5  -5    2.40    0.90
   0   5  -5    5.00    2.10
   0   5  -5    1.40    0.90
   0   5  -5    1.50    0.90
   0  -5   5    2.70    2.30
  -1   5  -5   12.60    1.90
  -1   5  -5   13.00    2.00
  -1   5  -5   13.50    2.20
   1  -5   5   17.60    4.40
  -2   5  -5  173.38   14.20
  -2   5  -5  173.58   14.00
  -2   5  -5  156.68   14.20
   2  -5   5  157.48   17.30
  -3   5  -5   25.10    3.70
  -3   5  -5   30.90    3.30
  -3   5  -5   31.30    3.60
  -3   5  -5   32.90    5.90
   3  -5   5   26.80    7.80
  -4   5  -5   71.59    6.40
  -4   5  -5   63.19    6.70
  -4   5  -5   69.09    6.60
  -4   5  -5   60.89    8.50
  -5   5  -5 1433.06  126.59
  -5   5  -5 1561.64  127.19
  -5   5  -5 1835.32  126.89
   5  -5   5 1494.25  126.49
  -6   5  -5  535.45   41.50
  -6   5  -5  471.55   41.60
  -6   5  -5  466.25   40.90
  -6   5  -5  513.25   42.00
   6  -5   5  521.25   41.10
  -7   5  -5   15.00    3.10
  -7   5  -5   19.80    3.90
   7  -5   5   15.60    2.90
  -8   5  -5    7.30    2.30
   8  -5   5   10.00    2.30
   8  -5   5    6.00    2.30
  -9   5  -5   15.50    2.60
   9  -5   5    8.30    2.60
   9  -5   5   11.20    2.40
 -10   5  -5   45.60    4.70
  10  -5   5   46.00    4.80
  10  -5   5   43.50    5.20
  11  -5   5  171.68   14.40
  10   4  -5   20.70    3.30
  10   4  -5   20.50    2.90
   9   4  -5  136.19   13.10
   9   4  -5  150.28   12.90
   8   4  -5   75.79    8.20
   8   4  -5   70.99    7.50
   7   4  -5 1406.26  115.09
   7   4  -5 1563.54  115.89
   7   4  -5 1416.26  114.49
  -7  -4   5 1303.87  115.59
   6   4  -5  266.37   23.30
   6   4  -5  281.97   23.40
   6   4  -5  288.67   23.10
   6   4  -5  267.57   24.10
  -6  -4   5  246.88   24.30
   5   4  -5    9.80    2.20
   5   4  -5    5.50    2.80
   5   4  -5    7.70    2.30
   5   4  -5    8.90    2.40
  -5  -4   5    3.70    2.90
   4   4  -5    4.70    1.40
   4   4  -5    3.70    1.90
   4   4  -5    6.20    2.10
   4   4  -5    4.40    2.30
  -4  -4   5    5.50    2.30
   3   4  -5    8.60    2.30
   3   4  -5    6.90    1.50
   3   4  -5    7.00    1.60
   3   4  -5   10.40    2.60
  -3  -4   5    7.30    3.10
   2   4  -5   10.40    2.60
   2   4  -5    7.90    2.30
   2   4  -5   11.70    1.80
   2   4  -5   12.80    1.90
  -2  -4   5   20.00    3.80
   1   4  -5 2537.85  222.88
  -1  -4   5 3055.49  224.28
   0  -4   5  786.42   64.19
   1  -4   5  506.35   42.50
  -2   4  -5  835.82   64.79
  -2   4  -5  884.71   64.69
   2  -4   5  686.13   67.09
  -3   4  -5    6.20    1.30
  -3   4  -5    8.30    1.90
  -3   4  -5    5.30    1.50
  -3   4  -5    3.80    3.20
  -3   4  -5    3.20    1.50
   3  -4   5    1.70    3.90
  -4   4  -5   43.80    6.40
  -4   4  -5   53.89    5.10
  -4   4  -5   43.20    5.10
  -4   4  -5   53.39    4.80
  -4   4  -5   51.09    5.40
   4  -4   5   46.90    9.90
   4  -4   5   38.50    5.10
  -5   4  -5  191.88   16.30
  -5   4  -5  161.68   13.90
  -5   4  -5  137.59   14.10
  -5   4  -5  141.49   13.70
  -5   4  -5  165.08   14.50
   5  -4   5  162.98   13.90
  -6   4  -5 1175.08   88.99
  -6   4  -5 1036.00   86.59
  -6   4  -5 1068.79   86.99
  -6   4  -5 1029.60   87.49
   6  -4   5 1072.39   86.69
  -7   4  -5  890.51   66.59
  -7   4  -5  743.13   65.79
  -7   4  -5  773.82   68.09
  -7   4  -5  842.72   66.99
   7  -4   5  840.32   66.19
  -8   4  -5 1071.89   83.09
  -8   4  -5  971.80   83.39
   8  -4   5 1036.10   82.89
  -9   4  -5    5.80    2.00
  -9   4  -5    4.20    1.90
   9  -4   5   11.70    2.80
   9  -4   5    5.90    1.90
 -10   4  -5    0.60    1.20
 -10   4  -5    1.30    1.60
  10  -4   5    1.90    1.70
  10  -4   5    3.00    1.30
  11  -4   5   29.80    3.40
  10   3  -5  305.37   25.00
  10   3  -5  284.07   24.50
   9   3  -5  703.23   56.49
   9   3  -5  682.43   56.99
   8   3  -5   94.89    9.40
   8   3  -5  101.19   10.20
   7   3  -5  105.79   10.30
   7   3  -5  108.69   10.50
   7   3  -5  121.39   11.60
   6   3  -5  664.93   55.79
   6   3  -5  657.43   56.99
   6   3  -5  758.62   56.29
   6   3  -5  658.93   56.09
   5   3  -5   32.70    4.20
   5   3  -5   31.10    4.20
   5   3  -5   32.00    5.40
   5   3  -5   37.90    4.50
  -5  -3   5   29.00    5.00
   4   3  -5  700.93   54.19
   4   3  -5  673.93   54.89
   4   3  -5  694.33   54.99
   4   3  -5  717.63   54.79
   4   3  -5  577.94   53.99
  -4  -3   5  671.53   54.89
   3   3  -5 2437.66  194.38
   3   3  -5 2624.74  193.68
   3   3  -5 2098.49  194.28
  -3  -3   5 2549.94  195.58
  -2  -3   5  264.87   22.80
  -1  -3   5  404.36   33.20
   1  -3   5   31.90    4.40
   2  -3   5  276.37   24.90
  -3   3  -5 1477.35  110.49
  -3   3  -5 1489.35  110.79
  -3   3  -5 1332.67  110.49
   3  -3   5 1203.68  113.19
  -4   3  -5  366.66   29.90
  -4   3  -5  376.56   29.70
  -4   3  -5  425.06   30.50
  -4   3  -5  291.17   31.30
   4  -3   5  350.96   33.70
  -5   3  -5  701.13   63.69
  -5   3  -5  789.22   62.59
  -5   3  -5  792.42   61.89
  -5   3  -5  768.22   61.79
  -6   3  -5  323.57   28.60
  -6   3  -5  310.67   26.30
  -6   3  -5  324.07   27.30
  -6   3  -5  302.17   26.60
   6  -3   5  325.37   26.60
  -7   3  -5    7.70    2.40
  -7   3  -5    6.20    2.90
  -7   3  -5    6.80    2.20
  -7   3  -5    4.90    1.60
   7  -3   5    4.40    1.80
  -8   3  -5  188.68   16.30
  -8   3  -5  196.18   15.90
   8  -3   5  159.68   15.70
  -9   3  -5  458.25   37.40
  -9   3  -5  449.66   37.90
   9  -3   5  458.35   37.50
 -10   3  -5   72.79    7.20
  10  -3   5   65.89    7.20
  10  -3   5   75.49    7.00
  11  -3   5  172.08   14.50
  11   2  -5   10.20    2.20
  10   2  -5    1.70    1.60
  10   2  -5    4.00    1.80
 -10  -2   5    5.10    2.60
   9   2  -5  625.44   58.49
   9   2  -5  801.82   58.29
   8   2  -5  989.30   80.99
   8   2  -5 1010.90   81.19
   7   2  -5   59.49    6.40
   7   2  -5   48.00    6.80
   7   2  -5   70.89    6.20
   7   2  -5   44.00    5.70
   7   2  -5   50.19    6.20
   6   2  -5  299.27   23.60
   6   2  -5  311.37   24.00
   6   2  -5  260.07   24.70
   6   2  -5  253.47   23.70
   6   2  -5  274.67   23.90
   5   2  -5  332.47   25.70
   5   2  -5  311.47   26.50
   5   2  -5  307.77   25.60
   5   2  -5  310.17   26.00
   5   2  -5  275.27   25.50
   4   2  -5    9.10    2.20
   4   2  -5    5.80    2.00
   4   2  -5    6.90    1.50
   4   2  -5    6.50    1.60
   4   2  -5    9.10    2.40
  -4  -2   5    4.60    2.80
  -3  -2   5   43.00    5.40
  -2  -2   5 3509.95  280.07
  -1  -2   5  807.32   90.19
   0  -2   5 1497.45  142.29
   2  -2   5   90.79    8.30
  -3   2  -5    7.90    1.80
   3  -2   5    2.90    2.40
  -4   2  -5  133.09   10.40
  -4   2  -5  114.09   10.10
  -4   2  -5  102.09   11.70
  -4   2  -5  135.59   10.80
   4  -2   5   85.79   12.40
  -5   2  -5  359.26   27.90
  -5   2  -5  330.37   27.90
  -5   2  -5  369.56   28.80
  -5   2  -5  287.97   29.70
  -6   2  -5 1358.96  105.09
  -6   2  -5 1397.36  106.09
  -6   2  -5 1232.48  105.29
  -6   2  -5 1244.48  107.39
  -7   2  -5  233.28   20.80
  -7   2  -5  258.17   23.30
  -7   2  -5  256.87   21.30
  -7   2  -5  259.77   21.80
   7  -2   5  240.68   21.30
  -8   2  -5   96.99    9.40
  -8   2  -5  119.39   12.00
  -8   2  -5   99.79    9.80
  -8   2  -5  107.89   10.30
  -9   2  -5   14.00    2.90
   9  -2   5   11.50    2.40
 -10   2  -5    5.30    1.70
  10  -2   5    0.80    1.20
 -11   2  -5  145.39   13.40
  11  -2   5  167.48   13.30
  11   1  -5  433.56   33.90
 -11  -1   5  369.96   35.00
  10   1  -5    9.10    2.20
  10   1  -5    7.80    2.30
 -10  -1   5    5.80    2.90
   9   1  -5    0.90    1.50
   9   1  -5    2.40    1.50
   9   1  -5    1.60    1.80
  -9  -1   5   -0.40    2.30
   8   1  -5  611.84   51.89
   8   1  -5  663.53   52.39
   7   1  -5   49.70    6.30
   7   1  -5   41.80    5.80
   7   1  -5   43.70    5.10
   6   1  -5 1518.25  133.59
   6   1  -5 1692.53  133.39
   6   1  -5 1601.64  133.69
   6   1  -5 1790.62  133.89
   6   1  -5 1710.73  134.69
   5   1  -5  991.20   79.39
   5   1  -5  903.41   78.79
   5   1  -5  976.80   78.89
   5   1  -5 1042.60   79.79
   5   1  -5  981.10   78.99
   4   1  -5   31.60    3.20
   4   1  -5   27.60    3.10
   4   1  -5   25.20    3.70
   4   1  -5   29.60    4.00
   4   1  -5   29.20    4.10
  -4  -1   5   15.20    5.00
  -3  -1   5   80.39    8.70
   2   1  -5   50.39    4.60
  -1  -1   5   64.69   18.40
   0  -1   5  444.56   52.19
  -2   1  -5   11.70    2.10
   2  -1   5   16.20    2.00
   3  -1   5  570.94   47.30
  -4   1  -5  496.65   40.20
  -4   1  -5  473.05   41.30
  -4   1  -5  446.56   39.50
  -4   1  -5  523.65   40.30
  -5   1  -5   18.40    3.40
  -5   1  -5   19.40    2.70
  -5   1  -5   11.10    3.60
  -5   1  -5   17.60    3.30
   5  -1   5    8.10    3.20
  -6   1  -5   35.40    7.00
  -6   1  -5   55.19    5.90
  -6   1  -5   45.60    4.70
  -6   1  -5   54.49    5.60
   6  -1   5   32.10    5.60
  -7   1  -5 1011.20   77.99
  -7   1  -5  903.31   76.09
  -7   1  -5  910.41   75.19
   7  -1   5  913.91   75.99
  -8   1  -5   32.30    5.80
  -8   1  -5   23.30    4.20
  -8   1  -5   30.90    3.70
   8  -1   5   34.20    4.70
   8  -1   5   21.30    3.80
  -9   1  -5  501.85   36.70
   9  -1   5  376.96   35.90
 -10   1  -5  227.08   20.20
  10  -1   5  245.18   20.00
 -11   1  -5    0.00    1.30
  11  -1   5   -0.20    1.00
  11   0  -5  431.66   35.40
  11   0  -5  425.76   34.90
 -11   0   5  421.46   35.40
  10   0  -5  345.57   29.80
  10   0  -5  356.66   29.40
 -10   0   5  354.16   30.30
   9   0  -5  160.88   13.00
   9   0  -5  121.89   13.00
   8   0  -5 2071.19  166.98
   8   0  -5 1939.11  166.68
   8   0  -5 2251.67  167.58
   7   0  -5  170.38   14.10
   7   0  -5  134.29   13.60
   7   0  -5  173.58   15.20
   7   0  -5  147.09   14.30
   6   0  -5   49.60    6.30
   6   0  -5   51.89    5.60
   6   0  -5   52.19    6.30
   6   0  -5   50.09    5.30
   6   0  -5   47.50    6.10
   6   0  -5   49.10    5.20
   5   0  -5  374.16   29.70
   5   0  -5  342.77   29.90
   5   0  -5  348.17   29.50
   5   0  -5  401.96   30.40
   5   0  -5  318.97   29.10
   5   0  -5  365.26   29.60
   4   0  -5  584.14   48.80
   4   0  -5  622.94   49.30
   4   0  -5  639.44   49.00
   4   0  -5  567.04   49.30
  -3   0   5  171.38   16.50
  -2   0   5 1340.27  108.29
  -1   0   5  512.15   58.79
   0   0   5 1132.99  105.19
   1   0   5   -1.10    4.00
   2   0   5  162.88   14.00
   3   0   5  437.06   36.60
  -4   0  -5  738.03   62.39
  -4   0  -5  776.12   61.59
  -4   0  -5  721.33   61.49
  -4   0  -5  769.02   60.89
  -5   0  -5  633.54   53.29
  -5   0  -5  636.64   52.59
  -5   0  -5  677.73   53.49
  -6   0  -5  175.78   19.80
  -6   0  -5  233.08   17.90
  -6   0  -5  249.58   19.00
  -6   0  -5  225.08   18.70
   6   0   5  168.58   18.80
  -7   0  -5  717.93   55.79
  -7   0  -5  674.63   58.09
  -7   0  -5  629.34   56.49
  -7   0  -5  719.73   56.69
   7   0   5  691.93   56.89
  -8   0  -5    2.50    3.00
  -8   0  -5    3.50    1.30
  -8   0  -5    1.80    1.50
   8   0   5    2.60    1.60
   8   0   5    2.40    2.10
  -9   0  -5   21.20    3.70
   9   0   5   20.20    3.60
   9   0   5   22.20    3.40
 -10   0  -5  138.79   12.00
  10   0   5  136.09   11.60
  10   0   5  120.79   11.80
 -11   0  -5   25.50    3.30
  11   0   5   24.00    3.00
  11  -1  -5   14.50    2.80
  11  -1  -5   16.80    2.60
 -11   1   5   15.10    3.00
  10  -1  -5   17.50    2.70
  10  -1  -5   19.70    3.50
  10  -1  -5   19.70    3.10
 -10   1   5   20.60    4.00
   9  -1  -5   34.90    5.30
   9  -1  -5   31.00    4.60
   9  -1  -5   32.20    4.00
  -9   1   5   28.50    5.10
   8  -1  -5  339.97   28.90
   8  -1  -5  401.26   28.50
   8  -1  -5  278.17   28.80
   7  -1  -5 1207.38   97.89
   7  -1  -5 1146.79   97.09
   7  -1  -5 1263.17   98.39
   6  -1  -5   25.60    3.70
   6  -1  -5   30.20    4.90
   6  -1  -5   29.80    4.40
   6  -1  -5   29.20    4.50
   6  -1  -5   32.40    4.00
   5  -1  -5  560.24   44.30
   5  -1  -5  519.05   44.40
   5  -1  -5  470.65   44.70
   5  -1  -5  614.54   44.90
   5  -1  -5  541.75   44.50
   5  -1  -5  538.55   43.80
   5  -1  -5  544.55   44.10
   4  -1  -5  529.75   49.80
   4  -1  -5  655.83   50.09
   4  -1  -5  646.54   49.70
   4  -1  -5  603.64   49.90
   4  -1  -5  620.44   50.09
  -4   1   5  618.24   52.89
  -3   1   5  147.89   15.00
  -2   1   5  664.83   54.99
  -1   1   5  390.06   29.20
  -1   1   5  306.27   28.60
   0   1   5    3.70    1.20
   0   1   5    3.50    1.40
   1   1   5 1894.31  151.68
   2   1   5  648.24   52.89
  -3  -1  -5   86.59    7.80
  -3  -1  -5   89.89    8.10
  -3  -1  -5   90.39    8.80
  -3  -1  -5   88.09    9.10
  -3  -1  -5   86.19    8.00
   3   1   5   77.79    8.70
  -4  -1  -5   19.20    3.50
  -4  -1  -5   21.80    3.60
  -4  -1  -5   17.20    2.60
  -4  -1  -5   16.10    3.80
   4   1   5   10.40    4.60
  -5  -1  -5    4.00    1.70
  -5  -1  -5    5.30    3.20
  -5  -1  -5    4.60    1.40
  -5  -1  -5    3.70    1.80
   5   1   5    3.10    2.60
  -6  -1  -5   64.69    6.00
  -6  -1  -5   68.99    6.90
  -6  -1  -5   48.30    8.60
  -6  -1  -5   66.49    6.90
   6   1   5   43.30    7.30
  -7  -1  -5 1336.57  106.59
  -7  -1  -5 1256.97  108.69
  -7  -1  -5 1347.57  107.59
   7   1   5 1366.76  108.09
  -8  -1  -5  373.66   29.70
  -8  -1  -5  291.67   30.10
  -8  -1  -5  357.56   30.40
   8   1   5  384.66   30.20
   8   1   5  388.16   30.80
  -9  -1  -5   17.70    2.70
  -9  -1  -5   23.50    3.60
   9   1   5   17.60    3.10
   9   1   5   23.10    3.70
 -10  -1  -5   98.99    9.30
  10   1   5   98.49    9.30
  10   1   5   97.69    8.90
  11  -2  -5  333.07   30.90
  11  -2  -5  375.86   31.60
  11  -2  -5  408.26   31.40
 -11   2   5  417.76   32.00
  10  -2  -5  857.41   73.89
  10  -2  -5  887.31   74.69
  10  -2  -5  968.90   74.49
 -10   2   5  967.90   75.19
   9  -2  -5  121.49   12.40
   9  -2  -5  149.39   13.20
   9  -2  -5  152.28   12.20
  -9   2   5  110.19   13.10
   8  -2  -5  374.36   26.10
   8  -2  -5  261.67   26.10
   8  -2  -5  355.26   27.20
  -8   2   5  233.38   26.50
   7  -2  -5    9.70    2.90
   7  -2  -5   13.30    2.60
   7  -2  -5   14.60    4.10
   7  -2  -5   11.50    3.20
   6  -2  -5  196.28   16.50
   6  -2  -5  171.68   17.70
   6  -2  -5  194.98   17.10
   6  -2  -5  210.08   17.50
   6  -2  -5  184.88   16.40
   5  -2  -5  665.43   53.59
   5  -2  -5  595.74   53.99
   5  -2  -5  743.73   53.59
   5  -2  -5  596.54   52.89
   5  -2  -5  664.73   52.79
   5  -2  -5  663.33   53.19
   4  -2  -5 2546.45  204.78
   4  -2  -5 2726.43  204.28
   4  -2  -5 2630.44  205.28
   4  -2  -5 2872.61  204.98
   4  -2  -5 2223.38  204.58
  -4   2   5 2353.96  207.28
   3  -2  -5  234.98   19.00
  -3   2   5  218.98   21.10
  -2   2   5  694.63   57.39
  -1   2   5  351.86   29.50
   0   2   5  369.96   30.90
   1   2   5   58.89    6.30
  -2  -2  -5 2353.66  191.48
  -2  -2  -5 2360.96  192.68
   2   2   5 2476.45  192.38
  -3  -2  -5   75.49    6.90
  -3  -2  -5   62.29    7.30
  -3  -2  -5   60.79    6.50
  -3  -2  -5   77.09    7.90
  -3  -2  -5   79.99    7.80
  -3  -2  -5   74.59    6.90
   3   2   5   66.49    7.90
  -4  -2  -5  543.95   46.00
  -4  -2  -5  536.85   46.30
  -4  -2  -5  550.34   45.70
  -4  -2  -5  571.74   45.00
  -5  -2  -5  586.44   45.40
  -5  -2  -5  595.54   44.70
  -5  -2  -5  579.14   45.70
  -5  -2  -5  457.85   46.20
   5   2   5  508.45   46.10
  -6  -2  -5  403.36   33.00
  -6  -2  -5  433.96   32.90
  -6  -2  -5  393.86   32.00
   6   2   5  313.07   33.30
  -7  -2  -5   77.59    8.40
  -7  -2  -5   80.29    8.60
  -7  -2  -5   80.49    7.70
   7   2   5   83.79    9.30
  -8  -2  -5  144.09   13.80
  -8  -2  -5  123.19   13.50
  -8  -2  -5  155.78   13.10
   8   2   5  167.78   14.40
   8   2   5  157.18   13.60
  -9  -2  -5   73.99    7.40
  -9  -2  -5   85.59    8.30
   9   2   5   82.89    7.90
   9   2   5   86.39    8.50
 -10  -2  -5  271.67   22.70
  10   2   5  277.97   22.80
  10   2   5  256.97   22.20
  11  -3  -5   47.60    5.10
  11  -3  -5   50.29    5.50
  11  -3  -5   47.20    4.90
 -11   3   5   53.29    5.70
  10  -3  -5  370.26   29.80
  10  -3  -5  328.47   29.90
  10  -3  -5  349.96   29.30
 -10   3   5  379.36   30.50
   9  -3  -5   45.00    4.70
   9  -3  -5   38.20    5.50
   9  -3  -5   30.20    5.00
  -9   3   5   34.60    5.50
   8  -3  -5    3.10    2.10
   8  -3  -5    7.00    2.10
   8  -3  -5    5.30    2.80
   8  -3  -5    3.40    2.50
  -8   3   5    2.80    2.50
   7  -3  -5  707.83   68.99
   7  -3  -5  865.41   69.89
   7  -3  -5  894.31   70.59
   7  -3  -5  871.31   68.79
  -7   3   5  890.71   70.09
   6  -3  -5  747.13   59.99
   6  -3  -5  724.33   59.39
   6  -3  -5  684.23   59.29
   6  -3  -5  688.13   61.09
   6  -3  -5  752.42   60.39
  -6   3   5  807.02   60.99
   5  -3  -5    0.80    1.40
   5  -3  -5    3.50    1.30
   5  -3  -5    1.60    1.30
   5  -3  -5    2.30    1.70
   5  -3  -5    1.20    1.80
  -5   3   5   -0.30    2.30
   4  -3  -5   96.49   10.40
   4  -3  -5  119.29   10.60
   4  -3  -5  123.79   10.00
   4  -3  -5   98.69   10.20
   4  -3  -5  115.49   11.10
   4  -3  -5  132.99   10.30
   3  -3  -5  109.19   10.80
   3  -3  -5  128.39   10.80
   3  -3  -5  107.39   10.60
   3  -3  -5  120.29   10.30
   3  -3  -5  121.99   10.20
   3  -3  -5  119.19   11.10
  -3   3   5  125.99   12.90
   2  -3  -5  225.68   19.10
   2  -3  -5  208.08   18.80
   2  -3  -5  235.08   18.90
   2  -3  -5  205.88   18.20
  -2   3   5  235.08   20.20
  -1   3   5 1007.20   82.19
   0  -3  -5 1400.56  119.79
   0  -3  -5 1425.66  119.29
   0   3   5 1639.14  120.69
  -1  -3  -5   31.40    5.20
  -1  -3  -5   33.70    4.10
  -1  -3  -5   39.50    3.90
   1   3   5   35.90    4.90
  -2  -3  -5  165.98   14.50
  -2  -3  -5  173.78   14.20
  -2  -3  -5  146.29   13.90
  -2  -3  -5  168.88   15.50
  -2  -3  -5  174.88   14.80
   2   3   5  157.48   15.50
  -3  -3  -5   73.79    8.10
  -3  -3  -5   61.69    7.70
  -3  -3  -5   80.49    8.00
  -3  -3  -5   79.39    7.20
  -3  -3  -5   72.89    7.00
   3   3   5   64.89    7.00
  -4  -3  -5  649.54   51.99
  -4  -3  -5  617.64   50.89
  -4  -3  -5  601.44   51.99
  -4  -3  -5  647.84   50.69
  -4  -3  -5  624.94   51.29
   4   3   5  586.34   50.79
  -5  -3  -5  864.11   68.79
  -5  -3  -5  869.91   69.49
  -5  -3  -5  890.21   70.09
   5   3   5  765.22   70.39
  -6  -3  -5   35.30    4.20
  -6  -3  -5   40.70    5.50
  -6  -3  -5   35.80    5.60
  -7  -3  -5  100.39    8.90
  -7  -3  -5   90.59    9.70
  -7  -3  -5   92.89    9.60
  -8  -3  -5  464.75   39.60
  -8  -3  -5  456.05   39.60
  -8  -3  -5  483.25   38.90
   8   3   5  479.75   39.10
   8   3   5  492.45   40.20
  -9  -3  -5   27.40    3.50
  -9  -3  -5   27.70    4.10
   9   3   5   34.60    4.60
   9   3   5   29.70    3.80
 -10  -3  -5    2.20    1.30
  10   3   5    2.40    1.60
  11  -4  -5    8.90    1.80
  11  -4  -5    8.00    1.50
 -11   4   5    5.70    2.00
  10  -4  -5  174.08   17.80
  10  -4  -5  214.58   17.40
  10  -4  -5  214.68   17.90
 -10   4   5  226.58   18.50
   9  -4  -5   34.60    4.90
   9  -4  -5   34.40    4.40
   9  -4  -5   34.30    5.60
   9  -4  -5   36.40    5.50
  -9   4   5   34.30    5.50
   8  -4  -5   23.80    4.10
   8  -4  -5   22.40    4.50
   8  -4  -5   28.80    5.20
   8  -4  -5   16.40    3.10
  -8   4   5   16.10    3.70
   7  -4  -5   59.99    7.60
   7  -4  -5   63.59    8.30
   7  -4  -5   52.69    7.10
   7  -4  -5   50.69    6.20
  -7   4   5   73.99    7.80
   6  -4  -5 2216.98  180.08
   6  -4  -5 2225.48  179.58
   6  -4  -5 2235.18  181.38
   6  -4  -5 2160.68  178.98
   6  -4  -5 2262.37  179.18
  -6   4   5 2332.07  180.68
   5  -4  -5   32.00    4.60
   5  -4  -5   33.40    4.30
   5  -4  -5   29.20    4.70
   5  -4  -5   33.10    3.80
   5  -4  -5   32.10    4.70
   5  -4  -5   35.60    5.90
  -5   4   5   36.70    6.00
   4  -4  -5 1641.64  120.29
   4  -4  -5 1493.15  120.29
   4  -4  -5 1438.46  120.59
   4  -4  -5 1581.84  121.79
   4  -4  -5 1575.74  120.89
  -4   4   5 1263.27  121.49
   3  -4  -5  824.72   64.99
   3  -4  -5  784.32   64.59
   3  -4  -5  769.52   63.79
   3  -4  -5  763.92   64.09
   3  -4  -5  822.12   63.79
   2  -4  -5  165.38   14.40
   2  -4  -5  150.08   13.60
   2  -4  -5  165.38   13.60
   2  -4  -5  167.58   14.00
   2  -4  -5  175.98   14.70
  -2   4   5  148.69   16.90
   1  -4  -5    5.00    1.30
   1  -4  -5    6.40    1.70
   1  -4  -5    3.30    1.40
   1  -4  -5    2.90    1.00
  -1   4   5    2.90    2.20
   0  -4  -5   18.70    3.10
   0  -4  -5   18.90    4.10
   0  -4  -5   19.60    2.80
   0  -4  -5   21.70    2.60
   0  -4  -5   19.50    2.50
   0   4   5   18.60    4.00
  -1  -4  -5  210.38   19.70
  -1  -4  -5  183.68   18.60
  -1  -4  -5  232.28   18.90
  -1  -4  -5  243.28   18.50
  -1  -4  -5  211.28   18.30
  -2  -4  -5 1028.10   81.59
  -2  -4  -5 1000.40   81.19
  -2  -4  -5 1041.00   81.89
  -2  -4  -5  958.90   82.49
   2   4   5 1001.30   81.29
  -3  -4  -5 1891.71  168.48
  -3  -4  -5 2189.98  168.18
  -3  -4  -5 2050.49  169.28
  -3  -4  -5 2260.07  168.08
  -3  -4  -5 2127.19  168.88
   3   4   5 2054.59  168.08
  -4  -4  -5    3.10    2.10
  -4  -4  -5    3.20    2.10
  -4  -4  -5    0.90    1.60
  -4  -4  -5    5.00    1.70
   4   4   5    1.80    1.90
  -5  -4  -5   23.70    3.50
  -5  -4  -5   31.70    4.60
  -5  -4  -5   30.70    5.40
   5   4   5   15.80    4.80
   5   4   5   23.40    4.30
  -6  -4  -5    4.80    2.10
  -6  -4  -5    4.30    1.50
  -6  -4  -5    7.10    2.70
   6   4   5    1.70    2.50
  -7  -4  -5   33.00    4.80
  -7  -4  -5   30.80    3.90
  -7  -4  -5   25.90    4.50
   7   4   5   23.00    4.80
  -8  -4  -5   62.59    6.70
  -8  -4  -5   55.19    6.70
  -8  -4  -5   61.29    6.00
   8   4   5   64.49    7.10
  -9  -4  -5  836.22   75.19
  -9  -4  -5  967.90   75.89
   9   4   5 1015.00   76.09
  11  -5  -5    6.00    1.30
  11  -5  -5    7.10    1.70
 -11   5   5    6.40    1.90
  10  -5  -5   95.99    8.80
  10  -5  -5   89.09    9.30
  10  -5  -5   86.49    8.40
 -10   5   5  102.69    9.30
   9  -5  -5  400.16   32.30
   9  -5  -5  336.97   32.30
   9  -5  -5  412.96   32.00
   9  -5  -5  409.46   33.20
  -9   5   5  362.46   32.50
   8  -5  -5  266.87   22.00
   8  -5  -5  212.58   20.20
   8  -5  -5  216.58   20.70
   8  -5  -5  203.98   19.80
  -8   5   5  258.27   21.00
   7  -5  -5   12.40    3.50
   7  -5  -5   13.80    4.20
   7  -5  -5   10.70    2.60
   7  -5  -5   14.80    3.20
  -7   5   5   11.80    3.50
   6  -5  -5  189.28   17.00
   6  -5  -5  176.58   16.50
   6  -5  -5  194.68   16.60
   6  -5  -5  193.78   17.50
   6  -5  -5  196.28   17.20
   6  -5  -5  181.08   18.70
  -6   5   5  210.98   18.10
   5  -5  -5    2.60    1.70
   5  -5  -5    0.80    1.70
   5  -5  -5    0.50    1.30
   5  -5  -5    1.60    1.80
   5  -5  -5    0.20    1.10
   5  -5  -5    0.80    1.80
  -5   5   5    2.20    2.30
   4  -5  -5  198.28   15.60
   4  -5  -5  169.48   15.50
   4  -5  -5  204.68   17.30
   4  -5  -5  173.28   16.30
   4  -5  -5  189.28   16.20
  -4   5   5  158.38   16.60
   3  -5  -5  578.74   47.40
   3  -5  -5  559.94   47.10
   3  -5  -5  591.74   46.20
   3  -5  -5  546.15   46.60
   2  -5  -5  153.28   13.40
   2  -5  -5  156.18   12.90
   2  -5  -5  151.28   13.80
   2  -5  -5  149.88   14.00
   1  -5  -5   21.10    3.30
   1  -5  -5   23.30    3.20
   1  -5  -5   21.80    2.70
   1  -5  -5   14.40    4.00
   1  -5  -5   20.90    3.60
   0  -5  -5  489.15   42.80
   0  -5  -5  518.35   43.20
   0  -5  -5  546.45   42.40
   0  -5  -5  481.25   44.00
   0  -5  -5  570.54   42.80
  -1  -5  -5  190.38   15.50
  -1  -5  -5  174.88   15.80
  -1  -5  -5  165.78   16.60
  -1  -5  -5  154.38   15.80
   1   5   5  201.68   15.80
  -2  -5  -5  128.19   11.90
  -2  -5  -5  130.09   11.40
  -2  -5  -5  115.99   12.70
  -2  -5  -5  125.09   12.20
   2   5   5  133.89   11.80
  -3  -5  -5  102.79   12.10
  -3  -5  -5  132.99   11.40
  -3  -5  -5  125.39   11.20
   3   5   5  118.39   11.40
  -4  -5  -5   20.60    3.50
  -4  -5  -5    3.40    1.60
  -4  -5  -5    6.80    2.90
  -4  -5  -5   10.00    3.10
   4   5   5    9.30    3.70
   4   5   5    9.30    3.00
  -5  -5  -5  512.15   45.80
  -5  -5  -5  551.34   47.50
   5   5   5  622.04   47.10
  -6  -5  -5  154.58   13.60
  -6  -5  -5   99.39   11.60
  -6  -5  -5  152.38   12.90
   6   5   5  144.09   13.00
  -7  -5  -5  231.98   20.70
  -7  -5  -5  246.08   20.20
  -7  -5  -5  231.28   21.10
   7   5   5  241.78   21.40
  -8  -5  -5   18.20    3.10
  -8  -5  -5   16.30    2.50
  -8  -5  -5   17.00    3.30
   8   5   5   22.30    3.60
   9   5   5    1.10    1.60
  10  -6  -5    9.60    2.20
  10  -6  -5   11.80    2.80
  10  -6  -5    9.90    1.90
 -10   6   5   13.50    2.60
   9  -6  -5  199.88   18.10
   9  -6  -5  175.08   16.80
   9  -6  -5  193.58   16.80
  -9   6   5  207.88   17.40
   8  -6  -5   36.50    5.70
   8  -6  -5   43.80    5.70
   8  -6  -5   53.09    7.20
  -8   6   5   57.99    6.40
   7  -6  -5   63.19    7.30
   7  -6  -5   62.59    7.00
   7  -6  -5   77.39    7.50
   7  -6  -5   46.70    8.60
  -7   6   5   89.79    8.40
   6  -6  -5 1365.06  109.99
   6  -6  -5 1300.17  109.79
   6  -6  -5 1440.56  110.69
  -6   6   5 1354.46  111.09
   5  -6  -5  651.43   53.49
   5  -6  -5  639.54   53.79
   5  -6  -5  697.63   52.99
  -5   6   5  608.24   53.99
   4  -6  -5  206.08   18.00
   4  -6  -5  203.38   18.80
   4  -6  -5  201.98   17.20
   4  -6  -5  197.88   18.20
   3  -6  -5    7.70    1.70
   3  -6  -5    6.80    2.50
   3  -6  -5    8.40    2.20
   3  -6  -5    5.20    2.80
   2  -6  -5  125.09   11.10
   2  -6  -5  116.99   10.40
   2  -6  -5  122.99   11.50
   2  -6  -5  117.89   11.50
   1  -6  -5    0.10    2.60
   1  -6  -5    3.50    1.40
   1  -6  -5    0.20    1.00
   1  -6  -5    0.60    1.50
   0  -6  -5  419.66   34.60
   0  -6  -5  401.26   36.20
   0  -6  -5  413.26   35.00
   0   6   5  437.56   35.00
  -1  -6  -5 1755.92  143.49
  -1  -6  -5 1633.24  142.19
  -1  -6  -5 1839.52  141.69
  -1  -6  -5 1691.13  142.59
   1   6   5 1906.01  142.19
  -2  -6  -5  187.88   15.60
  -2  -6  -5  171.78   16.10
  -2  -6  -5  155.68   17.00
   2   6   5  189.68   16.30
  -3  -6  -5  837.52   70.09
  -3  -6  -5  906.81   70.49
   3   6   5  846.92   70.79
  -4  -6  -5    5.20    3.00
  -4  -6  -5    4.10    1.80
  -4  -6  -5    3.40    2.30
  -4  -6  -5    3.10    2.50
   4   6   5    2.50    2.40
   4   6   5    5.70    3.50
  -5  -6  -5   20.40    3.40
  -5  -6  -5   25.80    4.40
  -5  -6  -5   25.20    5.00
   5   6   5   26.90    5.60
   5   6   5   22.00    4.40
  -6  -6  -5  215.78   18.70
  -6  -6  -5  217.08   19.30
  -6  -6  -5  190.68   17.90
   6   6   5  222.68   19.60
   6   6   5  210.38   18.90
  -7  -6  -5  273.37   23.20
  -7  -6  -5  262.97   22.70
  -7  -6  -5  254.87   23.40
   7   6   5  301.27   23.80
  -8  -6  -5    2.20    1.50
  -8  -6  -5    4.50    1.20
   8   6   5    3.00    1.70
  10  -7  -5  132.69   11.40
  10  -7  -5  130.79   12.20
 -10   7   5  135.69   11.90
   9  -7  -5   43.60    5.80
   9  -7  -5   40.40    4.70
  -9   7   5   40.70    5.40
   8  -7  -5  281.97   24.80
   8  -7  -5  282.17   25.00
   8  -7  -5  315.17   26.90
  -8   7   5  305.17   25.60
   7  -7  -5   23.00    5.70
   7  -7  -5   32.10    4.50
   7  -7  -5   38.70    5.00
  -7   7   5   35.30    5.50
   6  -7  -5   25.50    3.70
   6  -7  -5   24.60    4.20
   6  -7  -5   14.70    4.40
  -6   7   5   20.80    4.40
   5  -7  -5  412.16   32.80
   5  -7  -5  398.76   31.70
  -5   7   5  337.07   32.30
   4  -7  -5   78.09    9.60
   4  -7  -5  118.49   11.10
   4  -7  -5  104.29    9.20
   3  -7  -5  453.65   36.90
   3  -7  -5  448.56   38.30
   2  -7  -5  389.96   38.10
   2  -7  -5  405.56   36.10
   2  -7  -5  473.15   35.70
   2  -7  -5  458.45   36.90
   1  -7  -5  113.49    9.90
   1  -7  -5  109.79   12.50
   1  -7  -5  117.29   11.00
   1  -7  -5  100.19   10.20
  -1   7   5  113.29   10.90
   0  -7  -5    6.90    1.90
   0  -7  -5    8.20    3.30
   0  -7  -5    5.20    3.30
   0   7   5    5.10    2.20
  -1  -7  -5    1.40    1.30
  -1  -7  -5    7.20    3.30
  -1  -7  -5    2.60    2.20
   1   7   5   -0.50    1.60
  -2  -7  -5    2.00    1.50
  -2  -7  -5    0.40    2.30
  -2  -7  -5    4.30    2.20
   2   7   5    2.20    1.90
  -3  -7  -5   67.09    6.90
  -3  -7  -5   64.09    9.20
  -3  -7  -5   77.19    7.40
   3   7   5   56.69    7.50
   3   7   5   49.10    8.40
  -4  -7  -5  404.96   30.50
   4   7   5  360.16   31.30
   4   7   5  313.17   31.60
  -5  -7  -5  174.78   16.30
  -5  -7  -5  162.48   14.80
   5   7   5  177.28   16.40
   5   7   5  163.38   15.90
  -6  -7  -5   14.80    3.00
  -6  -7  -5   13.80    2.30
  -6  -7  -5   11.90    3.00
   6   7   5   12.70    3.20
   6   7   5   10.60    3.00
  -7  -7  -5   30.20    3.40
  -7  -7  -5   28.00    4.10
   7   7   5   34.30    4.30
   9  -8  -5   41.00    4.60
   9  -8  -5   49.99    5.80
  -9   8   5   43.70    5.10
   8  -8  -5   99.29    8.90
   8  -8  -5   97.39   10.30
   8  -8  -5   83.99    8.70
  -8   8   5   90.89    9.20
   7  -8  -5  490.55   37.40
   7  -8  -5  445.06   36.90
   7  -8  -5  430.46   38.90
  -7   8   5  418.46   37.40
   6  -8  -5    1.40    2.00
   6  -8  -5    3.10    2.70
   6  -8  -5    2.00    1.70
  -6   8   5    1.10    2.40
   5  -8  -5   40.20    5.00
   5  -8  -5   43.90    6.50
   5  -8  -5   37.90    5.90
  -5   8   5   54.39    9.10
   4  -8  -5    8.50    2.00
   4  -8  -5    9.30    3.00
   4  -8  -5    5.20    2.30
  -4   8   5    7.40    3.30
   3  -8  -5   41.50    4.50
   3  -8  -5   38.90    5.80
  -3   8   5   46.20    6.40
   2  -8  -5  415.36   35.10
   2  -8  -5  440.76   38.30
   2  -8  -5  397.76   36.20
  -2   8   5  479.95   36.80
   1  -8  -5  139.69   14.60
   1  -8  -5  119.19   11.80
  -1   8   5  138.39   12.90
   0  -8  -5   40.70    7.20
   0  -8  -5   39.10    4.40
   0   8   5   22.30    4.60
  -1  -8  -5  830.72   64.99
  -1  -8  -5  845.82   67.49
  -1  -8  -5  826.82   65.59
   1   8   5  695.33   65.69
  -2  -8  -5  104.49   12.20
  -2  -8  -5  125.59   10.70
  -2  -8  -5  154.98   11.70
   2   8   5   77.09   11.00
   2   8   5  115.19   12.80
  -3  -8  -5  155.08   12.10
  -3  -8  -5  133.49   11.80
  -3  -8  -5  121.59   13.10
   3   8   5  122.29   12.70
   3   8   5   91.39   12.80
  -4  -8  -5  305.57   23.60
  -4  -8  -5  279.17   24.90
   4   8   5  280.67   24.70
   4   8   5  241.08   24.30
  -5  -8  -5    7.50    2.70
  -5  -8  -5   11.00    2.00
   5   8   5    6.60    2.60
   5   8   5    4.60    2.50
  -6  -8  -5   42.10    4.10
  -6  -8  -5   36.50    4.90
   6   8   5   35.70    5.40
   8  -9  -5    3.00    2.20
   8  -9  -5    0.80    1.50
   8  -9  -5    3.20    1.80
   7  -9  -5   39.10    4.50
   7  -9  -5   26.10    5.20
   7  -9  -5   31.00    4.10
   6  -9  -5  112.49    9.80
   6  -9  -5   85.19   10.40
   6  -9  -5   85.49    8.70
   5  -9  -5  148.19   14.60
   5  -9  -5  172.38   14.10
   5  -9  -5  124.49   12.50
   4  -9  -5  613.04   55.79
   4  -9  -5  704.63   55.59
  -4   9   5  707.33   55.99
   3  -9  -5   80.79    8.30
   3  -9  -5   77.09    8.70
  -3   9   5   86.59    9.70
   2  -9  -5  115.09   11.30
   2  -9  -5  122.89   14.10
  -2   9   5  130.29   12.80
   1  -9  -5   15.90    5.30
   1  -9  -5   16.30    3.10
  -1   9   5   17.00    4.10
   0  -9  -5   21.20    5.50
   0  -9  -5   23.80    3.60
   0   9   5   21.70    4.60
  -1  -9  -5    7.60    2.20
  -1  -9  -5   13.80    4.20
   1   9   5    9.20    3.20
  -2  -9  -5  423.46   35.50
  -2  -9  -5  430.96   33.70
  -2  -9  -5  380.86   33.40
   2   9   5  377.96   34.50
  -3  -9  -5   18.60    4.10
  -3  -9  -5   21.90    3.30
   3   9   5   19.50    4.30
  -4  -9  -5  121.09   12.30
  -4  -9  -5  127.69   11.20
   4   9   5  129.99   12.20
  -5  -9  -5  122.19   11.80
   6 -10  -5  130.89   11.20
   6 -10  -5  105.69   11.80
   5 -10  -5    5.30    2.30
   5 -10  -5    7.20    2.90
   4 -10  -5  115.19    9.70
   4 -10  -5   72.69   11.70
   3 -10  -5   54.19    6.00
  -3  10   5   47.10    7.40
   2 -10  -5   68.09    7.30
  -2  10   5   79.19    9.50
   1 -10  -5  198.88   18.80
   1 -10  -5  167.68   15.80
  -1  10   5  189.88   17.60
   0 -10  -5  115.99   11.00
   0 -10  -5  136.89   13.70
   0  10   5  115.39   12.50
  -1 -10  -5   -1.10    2.80
  -1 -10  -5    1.30    1.90
   1  10   5   -0.50    2.30
  -2 -10  -5   29.20    5.20
   2  10   5   24.80    4.60
  -3 -10  -5   -0.50    1.90
   3  10   5   -0.30    2.00
   4 -11  -5  177.68   15.70
   3 -11  -5   60.19    6.30
   2 -11  -5    3.90    1.80
   1 -11  -5   63.09    6.50
  -1  11   5   73.59    8.60
   0  11   5  131.19   13.30
   0 -12   6   10.40    3.80
   1 -12   6  111.09   10.80
   2 -12   6   22.40    4.10
  -3  12  -6    1.10    1.40
   3 -12   6    0.70    2.20
  -4  12  -6  162.18   16.00
   4 -12   6  212.08   17.20
   3  11  -6   10.40    2.90
  -3 -11   6    6.80    3.30
   2  11  -6   22.90    4.20
  -2 -11   6   19.40    4.40
   1  11  -6   63.89    7.70
  -1 -11   6   71.59    8.30
  -1 -11   6   56.39    6.90
   0  11  -6  197.48   19.30
   0 -11   6  208.78   19.10
   0 -11   6  248.18   20.40
   1 -11   6   76.39    8.60
   1 -11   6   87.69    9.90
  -2  11  -6  278.27   25.10
   2 -11   6  319.37   26.20
  -3  11  -6   89.29    9.50
   3 -11   6  112.19   10.90
  -4  11  -6   38.80    5.40
   4 -11   6   47.30    7.10
  -5  11  -6   25.30    3.80
  -5  11  -6   37.60    4.80
   5 -11   6   40.20    5.90
  -6  11  -6    9.40    2.40
  -6  11  -6    4.50    2.70
   6 -11   6   10.40    2.90
   5  10  -6   33.80    4.20
  -5 -10   6   30.80    5.30
   4  10  -6  127.89   12.50
   4  10  -6  148.19   12.70
  -4 -10   6  133.09   13.90
   3  10  -6   77.79    8.20
  -3 -10   6   68.89    9.40
   2  10  -6   21.10    4.40
  -2 -10   6   19.80    4.60
   1  10  -6   15.30    3.90
  -1 -10   6   11.50    3.10
  -1 -10   6   11.60    3.50
   0  10  -6  296.07   26.10
   0 -10   6  295.77   25.70
  -1  10  -6    1.70    2.50
  -1  10  -6    5.70    1.90
   1 -10   6    5.30    2.50
  -2  10  -6   53.19    7.30
  -2  10  -6   69.49    6.80
  -2  10  -6   54.29    5.90
   2 -10   6   69.79    7.80
  -3  10  -6  133.29   12.30
  -3  10  -6  131.89   12.70
  -3  10  -6  115.69   11.30
   3 -10   6  147.49   13.60
  -4  10  -6   18.60    3.90
  -4  10  -6   30.10    4.40
  -4  10  -6   17.20    3.00
   4 -10   6   30.50    5.50
  -5  10  -6  203.48   19.50
  -5  10  -6  234.08   20.50
   5 -10   6  227.38   20.20
   5 -10   6  273.87   22.00
  -6  10  -6   19.80    3.20
  -6  10  -6   26.80    4.30
   6 -10   6   21.20    3.80
   6 -10   6   26.20    4.80
  -7  10  -6   12.40    2.50
  -7  10  -6   12.90    2.40
   7 -10   6   16.80    2.90
   7 -10   6   10.30    2.90
   6   9  -6  513.15   41.50
   6   9  -6  523.15   41.70
  -6  -9   6  482.45   42.50
   5   9  -6   23.00    4.00
   5   9  -6   27.50    3.90
  -5  -9   6   21.00    4.90
   4   9  -6   28.90    4.70
   4   9  -6   25.20    4.30
  -4  -9   6   27.10    5.50
   3   9  -6   13.80    3.70
   3   9  -6   15.30    3.70
  -3  -9   6   16.30    4.20
   2   9  -6    4.90    2.60
  -2  -9   6    3.70    2.80
   1   9  -6  499.15   42.30
   1   9  -6  540.55   44.30
  -1  -9   6  527.35   43.40
   0   9  -6  968.30   94.69
   0   9  -6 1223.08   95.89
   0   9  -6 1201.68   94.19
   0   9  -6 1124.79   94.79
   0  -9   6 1356.66   95.89
  -1   9  -6  102.49   10.70
  -1   9  -6   99.99    9.40
  -1   9  -6  106.59   10.30
   1  -9   6  112.49   10.90
  -2   9  -6  411.46   33.80
  -2   9  -6  394.66   32.90
   2  -9   6  398.46   34.50
  -3   9  -6   49.10    4.70
  -3   9  -6   35.40    5.20
  -3   9  -6   48.00    5.90
   3  -9   6   29.10    5.80
  -4   9  -6   25.20    3.60
  -4   9  -6   27.70    4.30
  -4   9  -6   22.60    4.10
   4  -9   6   25.20    4.30
  -5   9  -6   28.00    4.90
  -5   9  -6   27.80    3.90
  -5   9  -6   26.60    4.20
   5  -9   6   29.30    5.00
  -6   9  -6  347.47   30.40
  -6   9  -6  359.76   31.10
   6  -9   6  386.76   31.20
  -7   9  -6   30.10    4.60
  -7   9  -6   29.20    4.10
   7  -9   6   31.70    5.20
   7  -9   6   34.80    4.80
  -8   9  -6  207.78   18.60
  -8   9  -6  231.78   18.70
   8  -9   6  205.98   19.10
   8  -9   6  237.28   18.90
   7   8  -6    3.30    1.70
   7   8  -6    3.40    1.60
  -7  -8   6    5.60    2.70
   6   8  -6   35.90    4.60
   6   8  -6   31.70    4.40
  -6  -8   6   31.70    5.80
   5   8  -6  260.97   23.30
   5   8  -6  285.47   23.60
  -5  -8   6  265.77   24.80
   4   8  -6    5.40    2.30
   4   8  -6   13.80    3.30
  -4  -8   6   10.20    3.70
   3   8  -6  795.92   65.69
   3   8  -6  781.92   65.59
   3   8  -6  797.52   64.49
  -3  -8   6  811.92   66.39
   2   8  -6   71.39    9.10
   2   8  -6   74.69    6.90
   2   8  -6   71.39    8.20
   1   8  -6  115.59   12.10
   1   8  -6  121.49   10.10
   1   8  -6  115.09   10.50
   1   8  -6   84.39   10.30
  -1  -8   6  128.79   11.40
   0   8  -6    4.70    1.70
   0   8  -6   -0.50    2.60
   0   8  -6    1.20    1.20
   0   8  -6    3.30    1.70
   0  -8   6    2.80    2.10
  -1   8  -6   16.60    3.50
  -1   8  -6    8.30    2.20
  -1   8  -6   13.70    2.20
  -1   8  -6   14.30    2.70
   1  -8   6   16.70    3.60
  -2   8  -6    4.30    1.80
  -2   8  -6   -0.70    1.10
  -2   8  -6    4.80    1.40
  -3   8  -6  690.93   55.59
  -3   8  -6  682.93   54.89
   3  -8   6  657.23   55.49
  -4   8  -6  400.06   35.10
  -4   8  -6  395.46   35.40
  -4   8  -6  439.46   34.80
   4  -8   6  446.66   35.80
  -5   8  -6   51.49    6.20
  -5   8  -6   41.00    5.50
  -5   8  -6   46.60    5.30
   5  -8   6   55.39    7.00
  -6   8  -6    6.60    2.40
  -6   8  -6    1.50    1.80
   6  -8   6    6.00    2.60
  -7   8  -6   57.39    6.50
  -7   8  -6   53.49    6.30
   7  -8   6   56.89    6.60
  -8   8  -6    3.40    1.70
  -8   8  -6    0.30    1.80
   8  -8   6    4.70    2.00
  -9   8  -6   82.49    7.50
   9  -8   6   81.09    7.80
   8   7  -6  266.67   22.30
   7   7  -6   32.70    4.60
   7   7  -6   42.70    4.80
  -7  -7   6   34.50    5.80
   6   7  -6  155.18   14.00
   6   7  -6  163.08   14.10
  -6  -7   6  136.69   15.30
   5   7  -6   74.99    8.20
   5   7  -6   78.29    8.30
   5   7  -6   83.09    8.50
  -5  -7   6   77.39    9.60
   4   7  -6    4.60    2.40
   4   7  -6   10.90    2.50
   4   7  -6   13.20    3.40
  -4  -7   6   10.00    3.60
   3   7  -6  198.38   18.70
   3   7  -6  159.28   18.10
   3   7  -6  216.68   17.50
  -3  -7   6  256.37   19.70
   2   7  -6  922.41   74.39
   2   7  -6  794.52   75.29
   2   7  -6  969.70   76.09
   2   7  -6 1021.60   75.19
   1   7  -6   51.99    7.80
   1   7  -6   64.49    6.20
   1   7  -6   55.69    6.10
   1   7  -6   64.79    5.80
  -1  -7   6   54.09    6.50
   0   7  -6  296.97   23.50
   0   7  -6  249.58   24.40
   0   7  -6  282.17   22.90
   0   7  -6  270.97   23.30
   0  -7   6  277.27   24.00
  -1   7  -6  644.14   50.59
  -1   7  -6  622.64   49.99
  -1   7  -6  553.14   50.79
  -1   7  -6  643.94   50.39
  -2   7  -6    4.90    1.50
  -2   7  -6    6.60    1.90
  -2   7  -6    5.90    1.80
  -3   7  -6   33.20    4.50
  -3   7  -6   37.10    4.00
  -3   7  -6   37.80    5.00
   3  -7   6   33.90    5.10
  -4   7  -6  739.93   56.89
  -4   7  -6  713.73   56.49
  -4   7  -6  584.34   55.99
   4  -7   6  737.83   57.39
  -5   7  -6   13.40    2.80
  -5   7  -6   16.10    3.00
  -5   7  -6   14.70    3.30
   5  -7   6   14.40    3.60
  -6   7  -6  974.70   83.79
  -6   7  -6 1111.79   84.89
  -7   7  -6  400.36   30.00
  -7   7  -6  295.27   29.40
   7  -7   6  359.96   30.00
  -8   7  -6   20.10    3.10
   8  -7   6   16.70    3.30
  -9   7  -6  193.38   16.60
   9  -7   6  197.48   17.00
 -10   7  -6   19.60    2.40
  10  -7   6   16.00    2.60
   9   6  -6    0.30    1.10
   8   6  -6    5.00    1.60
   7   6  -6   18.00    3.30
   7   6  -6   16.00    3.00
  -7  -6   6   14.50    4.20
   6   6  -6   21.90    4.30
   6   6  -6   31.80    4.30
   6   6  -6   18.60    3.70
  -6  -6   6   28.40    5.70
   5   6  -6 1196.08   99.39
   5   6  -6 1226.48   99.19
   5   6  -6 1206.78   98.89
  -5  -6   6 1274.17  100.49
   4   6  -6 1088.69   84.59
   4   6  -6  910.81   83.89
   4   6  -6 1016.40   83.39
  -4  -6   6 1128.69   85.09
   3   6  -6  363.26   33.30
   3   6  -6  400.76   32.10
   3   6  -6  407.26   33.30
   3   6  -6  391.16   32.50
   2   6  -6   39.00    6.00
   2   6  -6   37.10    3.90
   2   6  -6   31.30    4.30
   2   6  -6   45.80    5.90
   1   6  -6   46.60    6.90
   1   6  -6   51.89    4.80
   1   6  -6   54.09    5.30
   1   6  -6   53.99    5.20
  -1  -6   6   37.20    5.40
   0   6  -6   97.59    8.70
   0   6  -6   97.79    8.90
   0   6  -6   92.89    9.90
   0   6  -6   92.99    8.40
  -1   6  -6  656.73   53.99
  -1   6  -6  679.13   53.89
  -1   6  -6  611.84   54.29
  -1   6  -6  703.93   53.69
  -2   6  -6  354.46   29.70
  -2   6  -6  377.36   29.60
  -2   6  -6  384.06   29.30
   2  -6   6  309.67   29.90
  -3   6  -6  169.68   15.50
  -3   6  -6  183.88   15.20
  -3   6  -6  171.08   17.70
  -3   6  -6  182.78   15.50
  -4   6  -6  667.03   55.29
  -4   6  -6  779.12   57.79
  -4   6  -6  640.44   54.89
  -4   6  -6  632.24   55.39
  -5   6  -6    2.20    1.50
  -5   6  -6    4.80    2.40
  -5   6  -6    3.60    1.80
  -5   6  -6    6.80    3.40
  -6   6  -6   15.10    3.20
  -6   6  -6   20.30    3.20
  -6   6  -6   18.20    4.00
  -7   6  -6  132.89   12.20
   7  -6   6  127.69   12.60
  -8   6  -6   33.90    4.40
   8  -6   6   32.30    4.90
   8  -6   6   32.30    4.20
  -9   6  -6    6.70    1.80
   9  -6   6    4.90    1.80
   9  -6   6    6.80    2.20
 -10   6  -6  619.84   48.90
  10  -6   6  589.64   48.80
   9   5  -6   11.30    2.20
   9   5  -6   11.10    2.70
   8   5  -6  398.56   31.90
   8   5  -6  365.66   32.20
   7   5  -6  179.58   19.30
   7   5  -6  232.88   20.30
   7   5  -6  254.07   19.60
   7   5  -6  247.08   20.00
   6   5  -6    1.50    1.60
   6   5  -6    4.20    2.40
   6   5  -6    2.80    1.90
  -6  -5   6    0.80    3.30
   5   5  -6   28.00    5.10
   5   5  -6   48.80    5.50
   5   5  -6   46.80    5.60
  -5  -5   6   42.60    6.50
   4   5  -6  286.37   25.60
   4   5  -6  307.07   24.70
   4   5  -6  306.97   25.40
  -4  -5   6  276.97   25.70
   3   5  -6   26.60    4.40
   3   5  -6   27.70    3.60
   3   5  -6   21.80    2.90
   3   5  -6   23.00    4.30
   2   5  -6 1656.43  134.69
   2   5  -6 1526.85  134.19
   2   5  -6 1757.42  133.49
   2   5  -6 1727.43  133.59
   1   5  -6  351.76   26.60
   1   5  -6  267.77   26.90
   1   5  -6  350.16   27.10
   1   5  -6  359.76   26.90
   1   5  -6  287.77   27.70
   0   5  -6   19.20    3.80
   0   5  -6   20.80    3.00
   0   5  -6   23.00    2.70
   0   5  -6   22.20    2.60
  -1   5  -6   15.30    2.50
  -1   5  -6   14.00    3.00
  -1   5  -6   20.20    2.40
  -1   5  -6   13.60    2.30
  -2   5  -6   33.20    3.30
  -2   5  -6   22.50    3.50
  -2   5  -6   24.30    6.10
  -2   5  -6   31.90    3.40
  -2   5  -6   29.50    3.80
  -3   5  -6    2.30    3.20
  -3   5  -6    5.00    1.50
  -3   5  -6    5.30    1.70
  -3   5  -6    3.40    1.10
  -4   5  -6 1082.89   92.39
  -4   5  -6 1203.98   92.09
  -4   5  -6 1148.49   94.39
  -4   5  -6 1139.89   92.29
  -5   5  -6  849.41   64.49
  -5   5  -6  832.62   62.09
  -5   5  -6  707.93   61.89
  -5   5  -6  671.83   62.29
  -6   5  -6  526.15   43.00
  -6   5  -6  437.26   44.70
  -6   5  -6  564.34   43.50
   6  -5   6  572.94   43.10
  -7   5  -6  336.07   27.10
  -7   5  -6  299.07   26.50
   7  -5   6  325.87   26.70
  -8   5  -6  176.78   14.70
   8  -5   6  153.58   14.40
  -9   5  -6    7.90    1.90
   9  -5   6   12.20    2.90
   9  -5   6    7.50    2.10
 -10   5  -6   70.09    6.70
  10  -5   6   77.59    7.20
  10  -5   6   70.79    6.80
  10   4  -6   17.80    3.00
  10   4  -6   19.70    2.90
   9   4  -6   50.49    6.00
   9   4  -6   52.79    5.60
   8   4  -6  147.89   13.50
   8   4  -6  153.08   14.20
   7   4  -6 1020.30   83.09
   7   4  -6 1064.69   81.99
   7   4  -6  947.21   82.39
   6   4  -6  363.06   28.50
   6   4  -6  349.77   28.80
   6   4  -6  302.57   29.20
   5   4  -6  188.18   15.90
   5   4  -6  189.48   16.10
   5   4  -6  162.38   16.40
   5   4  -6  197.38   16.50
  -5  -4   6  166.78   16.70
   4   4  -6 2403.86  182.48
   4   4  -6 2387.26  183.08
   4   4  -6 2059.39  183.18
  -4  -4   6 2276.97  183.28
   3   4  -6   18.40    2.40
   3   4  -6   14.40    2.40
   3   4  -6   15.80    3.30
   3   4  -6   15.40    3.30
   2   4  -6    3.60    1.90
   2   4  -6    6.10    1.40
   2   4  -6   10.00    2.80
   2   4  -6   12.50    1.70
   1   4  -6 1063.59   80.89
   1   4  -6 1072.29   80.99
   1   4  -6  990.10   81.19
   1   4  -6  897.11   81.79
   0   4  -6  434.56   38.90
   0   4  -6  468.45   38.50
   0   4  -6  497.95   38.40
   0   4  -6  482.55   38.20
  -1   4  -6  284.77   22.10
  -1   4  -6  252.67   22.00
  -1   4  -6  288.97   22.00
  -1   4  -6  245.28   22.10
  -2   4  -6 2196.28  168.88
  -2   4  -6 1991.50  168.98
  -2   4  -6 2183.38  169.08
  -2   4  -6 2092.59  168.98
  -3   4  -6  138.39   12.80
  -3   4  -6  123.49   14.60
  -3   4  -6  157.08   12.60
  -3   4  -6  154.98   12.90
  -3   4  -6  155.78   12.90
  -4   4  -6  193.98   14.80
  -4   4  -6  176.98   15.00
  -4   4  -6  151.38   14.90
  -4   4  -6  154.38   17.00
  -4   4  -6  179.48   15.40
  -5   4  -6    3.50    3.00
  -5   4  -6    2.50    1.70
  -5   4  -6    5.10    1.80
  -5   4  -6    3.70    1.50
   5  -4   6    2.40    1.80
  -6   4  -6  857.71   68.39
  -6   4  -6  795.12   68.59
  -6   4  -6  801.82   69.19
   6  -4   6  918.91   68.59
  -7   4  -6  605.24   49.40
  -7   4  -6  655.53   50.09
  -7   4  -6  542.85   51.59
  -7   4  -6  560.04   50.29
   7  -4   6  677.03   49.90
  -8   4  -6  536.35   47.40
  -8   4  -6  607.74   47.10
   8  -4   6  577.34   47.00
  -9   4  -6  243.78   21.30
  -9   4  -6  251.27   21.80
   9  -4   6  251.27   22.00
   9  -4   6  269.67   21.50
 -10   4  -6  157.68   15.10
  10  -4   6  181.78   14.70
  10  -4   6  175.08   15.00
  10   3  -6  539.15   42.30
 -10  -3   6  483.35   42.50
   9   3  -6  412.96   34.10
   9   3  -6  409.86   34.60
   8   3  -6   34.60    5.50
   8   3  -6   37.40    4.90
   7   3  -6    2.40    2.20
   7   3  -6    2.00    1.70
   7   3  -6    3.30    1.60
   7   3  -6    6.60    2.90
   6   3  -6   21.00    3.60
   6   3  -6   20.50    3.70
   6   3  -6   15.00    4.40
   6   3  -6   23.70    4.80
   6   3  -6   26.50    4.00
   5   3  -6    3.10    1.70
   5   3  -6    7.90    2.70
   5   3  -6    3.30    1.80
   5   3  -6    3.30    1.50
   5   3  -6    6.30    2.00
   4   3  -6 1307.77  109.09
   4   3  -6 1469.85  109.29
   4   3  -6 1268.37  109.39
   4   3  -6 1472.05  108.69
   4   3  -6 1263.57  108.49
   3   3  -6  679.93   55.19
   3   3  -6  708.73   55.29
   3   3  -6  770.12   54.49
   3   3  -6  585.74   54.49
   3   3  -6  640.34   54.29
   2   3  -6   31.50    5.10
   2   3  -6   43.70    4.30
   2   3  -6   51.19    4.30
   2   3  -6   44.90    4.90
   1   3  -6  197.18   15.50
   1   3  -6  171.58   16.30
   0   3  -6  269.77   22.00
  -1   3  -6    8.30    1.70
  -1   3  -6   13.50    2.00
  -1   3  -6   12.60    1.80
  -2   3  -6  979.60   74.39
  -2   3  -6  786.32   75.89
  -2   3  -6  963.30   74.59
  -2   3  -6  955.60   74.19
  -2   3  -6  930.61   74.39
  -3   3  -6  333.67   26.60
  -3   3  -6  317.27   26.30
  -3   3  -6  349.47   26.40
  -3   3  -6  315.07   26.00
  -3   3  -6  268.57   28.10
  -4   3  -6  183.98   15.20
  -4   3  -6  141.49   16.50
  -4   3  -6  168.18   14.30
  -4   3  -6  175.48   14.70
  -5   3  -6  144.69   16.50
  -5   3  -6  167.78   15.10
  -5   3  -6  168.38   14.30
  -5   3  -6  169.88   14.30
  -6   3  -6   86.49    9.20
  -6   3  -6   93.29   11.30
  -6   3  -6   98.49    9.90
  -6   3  -6  101.69    9.00
   6  -3   6  100.69    9.30
  -7   3  -6    7.60    3.20
  -7   3  -6    6.80    1.60
  -7   3  -6    2.50    1.90
  -7   3  -6    7.40    2.30
   7  -3   6    7.90    2.20
  -8   3  -6   14.30    3.30
  -8   3  -6   15.20    2.60
  -8   3  -6   22.00    3.30
   8  -3   6   20.40    3.20
  -9   3  -6   75.99    8.00
   9  -3   6   84.19    7.80
 -10   3  -6   55.09    5.90
  10  -3   6   53.09    6.10
  10  -3   6   61.29    5.70
  11  -3   6  257.87   21.30
  10   2  -6  248.28   21.70
 -10  -2   6  259.57   22.30
   9   2  -6  440.06   37.50
   9   2  -6  471.45   38.30
   8   2  -6   16.40    3.40
   8   2  -6   17.60    3.90
   8   2  -6   18.60    3.20
   7   2  -6  653.83   54.99
   7   2  -6  725.63   56.29
   7   2  -6  604.94   54.99
   7   2  -6  654.43   54.49
   7   2  -6  707.63   54.99
   6   2  -6 1423.06  110.29
   6   2  -6 1265.37  109.09
   6   2  -6 1448.16  109.39
   6   2  -6 1275.67  108.99
   6   2  -6 1349.86  108.79
   5   2  -6    3.30    1.60
   5   2  -6    3.80    1.70
   5   2  -6    5.70    1.70
   5   2  -6    3.00    2.30
   5   2  -6    2.20    1.80
   4   2  -6    7.90    2.20
   4   2  -6    5.40    1.50
   4   2  -6    6.70    1.70
   4   2  -6    4.30    1.90
   4   2  -6    7.00    2.20
  -4  -2   6    3.10    2.80
   3   2  -6 1081.89   92.49
   3   2  -6 1243.78   91.79
   3   2  -6 1064.39   91.99
   3   2  -6 1129.69   92.39
   3   2  -6 1202.28   91.89
   2   2  -6  864.31   64.99
   2   2  -6  706.33   65.69
   2   2  -6  846.22   65.09
  -2   2  -6  757.42   62.89
  -2   2  -6  758.32   64.69
  -2   2  -6  824.42   62.89
  -3   2  -6  217.28   19.60
  -3   2  -6  264.57   20.10
  -3   2  -6  240.08   20.10
  -3   2  -6  233.68   20.20
  -3   2  -6  245.58   21.90
  -4   2  -6  152.28   13.20
  -4   2  -6  145.99   12.80
  -4   2  -6  142.39   15.30
  -4   2  -6  162.98   13.80
  -5   2  -6  189.98   16.60
  -5   2  -6  213.48   16.90
  -5   2  -6  197.38   17.70
  -5   2  -6  177.08   19.00
  -6   2  -6 1881.81  163.98
  -6   2  -6 2004.50  166.78
  -6   2  -6 2229.28  164.08
  -6   2  -6 2075.19  164.98
  -7   2  -6    8.40    2.70
  -7   2  -6   16.00    2.50
  -7   2  -6   19.60    4.70
   7  -2   6   14.90    2.90
  -8   2  -6  438.96   39.30
   8  -2   6  506.45   39.10
  -9   2  -6  236.18   20.60
   9  -2   6  238.98   20.20
 -10   2  -6   -0.70    1.10
  10  -2   6    0.60    1.20
  10  -2   6    1.90    2.10
  11  -2   6   14.80    2.20
  11   1  -6  670.13   54.49
  10   1  -6  135.29   12.50
  10   1  -6  140.39   13.00
 -10  -1   6  154.08   13.80
   9   1  -6  326.57   25.90
   9   1  -6  283.57   26.30
   8   1  -6   13.50    3.10
   8   1  -6    9.00    2.90
   8   1  -6   13.30    2.80
   7   1  -6   36.70    4.90
   7   1  -6   26.20    5.40
   7   1  -6   36.50    5.20
   7   1  -6   29.00    4.90
   7   1  -6   42.00    4.40
   6   1  -6  579.34   45.80
   6   1  -6  546.85   44.40
   6   1  -6  569.24   44.90
   6   1  -6  530.45   44.70
   6   1  -6  482.75   44.60
   5   1  -6  779.52   67.69
   5   1  -6  856.31   68.59
   5   1  -6  853.51   68.29
   5   1  -6  850.81   67.89
   5   1  -6  846.72   67.89
   4   1  -6  394.76   32.30
   4   1  -6  372.16   32.00
   4   1  -6  383.76   31.60
   4   1  -6  385.36   32.10
   4   1  -6  387.76   31.60
   3   1  -6 2765.32  217.58
   3   1  -6 2989.10  217.28
   3   1  -6 2906.41  217.38
   3   1  -6 2376.26  217.78
   3   1  -6 2607.34  217.78
  -3  -1   6 2691.83  217.98
   2   1  -6 1074.39   86.09
  -1  -1   6    1.00    8.30
   0  -1   6  156.08   30.10
   1  -1   6  233.88   38.30
  -2   1  -6    9.20    1.80
  -2   1  -6   18.60    2.50
  -2   1  -6   12.70    3.00
  -3   1  -6 1711.63  136.29
  -3   1  -6 1598.24  134.69
  -3   1  -6 1793.42  134.69
  -3   1  -6 1648.73  134.99
  -3   1  -6 1655.23  135.59
  -4   1  -6  320.27   29.60
  -4   1  -6  324.97   28.30
  -4   1  -6  339.87   28.50
  -4   1  -6  329.87   27.70
  -4   1  -6  350.86   27.80
  -5   1  -6   15.10    4.10
  -5   1  -6   16.60    3.20
  -5   1  -6   20.20    2.80
  -5   1  -6   16.30    3.30
   5  -1   6    7.40    3.30
  -6   1  -6    1.70    2.70
  -6   1  -6    8.10    1.90
  -6   1  -6    0.70    1.80
   6  -1   6    0.40    2.50
  -7   1  -6   23.60    5.50
  -7   1  -6   22.30    3.10
  -7   1  -6   16.80    3.50
   7  -1   6   18.30    3.80
  -8   1  -6   33.00    5.00
  -8   1  -6   53.59    7.80
  -8   1  -6   41.30    4.20
   8  -1   6   27.90    4.60
  -9   1  -6  536.15   41.80
  -9   1  -6  439.36   41.00
   9  -1   6  538.85   41.40
 -10   1  -6  134.99   12.30
  10  -1   6  140.89   12.10
  11   0  -6   62.59    6.30
  11   0  -6   53.19    6.30
 -11   0   6   70.99    6.80
  10   0  -6    1.70    1.60
  10   0  -6    0.00    1.30
 -10   0   6    0.40    2.00
   9   0  -6  667.23   55.29
   8   0  -6  210.38   19.40
   7   0  -6   30.40    5.90
   7   0  -6   48.30    5.20
   7   0  -6   39.30    5.00
   7   0  -6   49.10    6.30
   7   0  -6   42.40    4.90
   6   0  -6   79.49    8.00
   6   0  -6   84.09    8.70
   6   0  -6   93.29    8.80
   6   0  -6   87.39    8.20
   6   0  -6   90.49    9.40
   6   0  -6   82.19    8.60
   5   0  -6   19.70    3.00
   5   0  -6   16.80    3.30
   5   0  -6   18.70    3.50
   5   0  -6   21.00    3.20
   5   0  -6   25.70    3.70
   5   0  -6   14.60    2.50
   4   0  -6    7.60    2.10
   4   0  -6    7.60    1.40
   4   0  -6    6.30    1.80
   4   0  -6    5.00    1.90
   4   0  -6    4.60    1.90
   4   0  -6    5.20    2.20
   4   0  -6    5.70    1.50
  -4   0   6    4.50    3.30
   3   0  -6 1772.62  169.88
   3   0  -6 2140.59  169.88
   3   0  -6 2160.68  169.98
   3   0  -6 2218.48  169.58
   3   0  -6 2315.77  169.58
   2   0  -6 3245.38  258.67
  -1   0   6    3.00    9.50
   0   0   6  723.43   76.79
  -1   0  -6  283.47   23.40
  -2   0  -6  209.88   20.50
  -2   0  -6  248.28   20.70
  -2   0  -6  229.08   19.80
  -2   0  -6  251.57   19.70
  -3   0  -6   51.69    6.10
  -3   0  -6   52.99    5.40
  -3   0  -6   59.69    6.50
  -3   0  -6   49.40    5.70
  -3   0  -6   56.99    5.20
   3   0   6   43.00    5.40
  -4   0  -6  844.82   64.99
  -4   0  -6  821.82   65.69
  -4   0  -6  766.72   65.49
  -4   0  -6  796.52   66.69
  -4   0  -6  775.12   64.89
  -5   0  -6    9.50    2.80
  -5   0  -6    7.60    2.40
  -5   0  -6    6.80    1.70
  -5   0  -6    6.70    3.70
   5   0   6    7.10    3.10
  -6   0  -6 1214.98  101.09
  -6   0  -6 1205.28  100.29
  -6   0  -6 1328.37  101.49
  -7   0  -6  359.26   37.00
  -7   0  -6  449.86   39.30
  -7   0  -6  470.75   36.50
  -7   0  -6  478.85   37.50
   7   0   6  460.75   37.80
  -8   0  -6    0.20    2.70
  -8   0  -6    0.70    1.20
  -8   0  -6   -2.00    1.30
   8   0   6   -2.20    1.50
   8   0   6    1.20    1.90
  -9   0  -6    3.10    1.50
  -9   0  -6    1.20    1.10
   9   0   6    1.50    1.60
   9   0   6   -0.50    1.70
 -10   0  -6   15.50    2.80
  10   0   6   19.50    2.70
  11  -1  -6  809.32   64.89
  11  -1  -6  780.62   64.39
 -11   1   6  808.72   64.99
  10  -1  -6    3.70    1.60
  10  -1  -6    4.70    2.00
 -10   1   6    2.60    2.30
   9  -1  -6   17.20    3.70
   9  -1  -6   21.90    3.20
   9  -1  -6   27.10    3.90
  -9   1   6   21.90    4.60
   8  -1  -6  237.28   22.30
   8  -1  -6  264.07   22.20
   7  -1  -6  213.08   22.40
   7  -1  -6  243.08   23.10
   7  -1  -6  302.47   21.90
   7  -1  -6  267.47   22.10
   6  -1  -6  141.39   13.40
   6  -1  -6  139.69   12.80
   6  -1  -6  146.09   13.90
   6  -1  -6  140.99   12.80
   6  -1  -6  162.48   13.60
   5  -1  -6 1960.80  173.68
   5  -1  -6 2282.57  173.08
   5  -1  -6 2393.66  173.68
   5  -1  -6 2082.39  172.88
   5  -1  -6 2069.09  173.18
   5  -1  -6 2175.78  172.58
   4  -1  -6  372.36   30.10
   4  -1  -6  350.36   30.10
   4  -1  -6  363.06   29.50
   4  -1  -6  395.86   29.90
   4  -1  -6  382.26   30.30
   4  -1  -6  345.17   30.50
  -4   1   6  316.57   32.40
   3  -1  -6  369.06   30.00
   3  -1  -6  350.86   30.80
   3  -1  -6  328.97   30.60
   3  -1  -6  391.96   30.20
   3  -1  -6  399.26   30.60
   2  -1  -6   35.80    3.80
   2  -1  -6   36.40    3.50
   2  -1  -6   30.00    4.20
  -2   1   6   20.60    4.60
   1  -1  -6  328.27   26.80
   0  -1  -6  330.27   27.90
  -1  -1  -6 2467.65  182.28
  -1  -1  -6 2263.57  182.98
  -1  -1  -6 2169.98  182.38
   1   1   6 2234.18  182.28
  -2  -1  -6 1043.90   78.99
  -2  -1  -6 1044.60   80.09
  -2  -1  -6  999.60   80.39
  -2  -1  -6  967.50   79.39
  -2  -1  -6  923.61   79.19
   2   1   6  926.11   79.49
  -3  -1  -6  114.49   11.20
  -3  -1  -6  138.09   11.70
  -3  -1  -6  125.09   10.30
  -3  -1  -6  115.29   10.90
  -3  -1  -6  111.09   10.50
   3   1   6   98.19   10.90
  -4  -1  -6  771.12   67.49
  -4  -1  -6  827.92   67.69
  -4  -1  -6  824.62   68.49
  -4  -1  -6  875.11   66.99
  -5  -1  -6   22.50    5.70
  -5  -1  -6   31.70    4.90
  -5  -1  -6   24.50    4.30
  -5  -1  -6   30.60    3.80
   5   1   6   25.70    5.30
  -6  -1  -6    3.80    1.90
  -6  -1  -6    1.80    2.00
  -6  -1  -6    1.30    1.10
  -6  -1  -6    2.60    3.20
   6   1   6    3.50    2.70
  -7  -1  -6  785.22   58.29
  -7  -1  -6  677.83   60.49
  -7  -1  -6  742.63   59.09
  -7  -1  -6  666.43   58.79
   7   1   6  701.23   59.59
  -8  -1  -6    8.80    2.50
  -8  -1  -6    8.50    1.90
   8   1   6    9.20    2.50
   8   1   6   10.60    3.00
  -9  -1  -6  112.99   10.00
  -9  -1  -6   87.59    9.10
   9   1   6  110.69   10.10
   9   1   6  111.09    9.80
 -10  -1  -6  213.08   17.20
  10   1   6  183.18   17.00
  10   1   6  205.08   16.80
  11  -2  -6  169.58   14.60
  11  -2  -6  164.38   14.80
 -11   2   6  179.98   15.10
  10  -2  -6  715.03   62.39
  10  -2  -6  792.62   62.99
  10  -2  -6  777.12   63.29
 -10   2   6  822.62   63.79
   9  -2  -6    1.30    2.00
   9  -2  -6    4.60    1.70
   9  -2  -6    1.80    1.70
  -9   2   6    1.90    2.40
   8  -2  -6  694.23   57.79
   8  -2  -6  741.53   58.29
  -8   2   6  654.23   58.29
   7  -2  -6   11.40    3.40
   7  -2  -6   13.90    4.00
   7  -2  -6   14.90    3.00
   7  -2  -6    8.20    2.70
   6  -2  -6  375.66   30.30
   6  -2  -6  366.36   29.80
   6  -2  -6  311.17   30.50
   6  -2  -6  349.27   29.00
   6  -2  -6  348.17   29.10
   5  -2  -6  166.58   14.60
   5  -2  -6  142.59   15.00
   5  -2  -6  156.08   14.10
   5  -2  -6  167.38   14.20
   5  -2  -6  158.98   13.70
   5  -2  -6  167.88   14.60
   4  -2  -6  330.37   29.40
   4  -2  -6  358.76   28.80
   4  -2  -6  338.77   29.90
   4  -2  -6  369.96   29.00
   4  -2  -6  385.86   29.60
   4  -2  -6  316.17   29.20
   3  -2  -6    0.70    0.80
   3  -2  -6    2.10    1.40
   3  -2  -6    1.70    1.50
   3  -2  -6    9.70    2.00
   3  -2  -6    7.00    1.30
  -3   2   6    2.40    2.80
   2  -2  -6 2002.10  159.48
   2  -2  -6 2073.99  159.58
   2  -2  -6 2037.10  159.98
   2  -2  -6 1903.71  159.98
   2  -2  -6 1972.30  160.38
   1  -2  -6  677.93   57.09
   1  -2  -6  655.93   57.19
   1  -2  -6  731.43   56.69
   1  -2  -6  738.23   57.69
   1  -2  -6  749.42   56.79
  -1   2   6  679.83   57.79
   0  -2  -6  363.56   29.20
   0  -2  -6  373.06   30.10
   0  -2  -6  361.36   29.20
   0  -2  -6  345.67   29.40
   0  -2  -6  342.57   29.50
   0   2   6  365.46   30.00
  -1  -2  -6  363.06   27.30
  -1  -2  -6  334.77   27.40
  -1  -2  -6  345.57   28.10
  -1  -2  -6  300.17   27.40
  -1  -2  -6  326.27   27.50
  -1  -2  -6  317.87   28.90
   1   2   6  338.77   28.20
  -2  -2  -6   19.90    3.00
  -2  -2  -6   25.70    3.50
  -2  -2  -6   28.60    4.80
  -2  -2  -6   25.50    3.60
  -2  -2  -6   29.10    4.30
  -2  -2  -6   26.70    3.00
   2   2   6   20.10    4.00
  -3  -2  -6  128.49   11.70
  -3  -2  -6  123.29   10.70
  -3  -2  -6   93.79   10.90
  -3  -2  -6  123.49   11.70
  -3  -2  -6  124.99   10.70
  -3  -2  -6  115.29   10.30
   3   2   6  102.59   10.30
  -4  -2  -6  834.92   66.89
  -4  -2  -6  795.02   67.59
  -4  -2  -6  856.41   68.59
  -4  -2  -6  808.02   67.79
  -5  -2  -6 1228.38   97.69
  -5  -2  -6 1123.49   96.49
  -5  -2  -6 1247.68   97.59
   5   2   6 1201.88   98.59
  -6  -2  -6   14.30    3.30
  -6  -2  -6    9.60    4.40
  -6  -2  -6   17.10    2.80
  -6  -2  -6   19.70    3.70
   6   2   6   14.90    4.40
  -7  -2  -6   38.60    5.60
  -7  -2  -6   42.10    4.50
  -7  -2  -6   41.80    5.30
   7   2   6   31.00    5.80
  -8  -2  -6    5.10    2.00
  -8  -2  -6    2.60    1.30
  -8  -2  -6    3.10    1.60
   8   2   6    0.00    2.00
   8   2   6    3.90    2.30
  -9  -2  -6   99.99    9.40
  -9  -2  -6  112.89   10.20
   9   2   6  102.09    9.70
   9   2   6  114.59   10.30
 -10  -2  -6   91.89    8.40
  11  -3  -6  116.69   11.30
  11  -3  -6  133.69   11.20
 -11   3   6  136.09   11.70
  10  -3  -6    6.90    2.20
  10  -3  -6    4.40    1.50
  10  -3  -6    7.50    2.00
 -10   3   6    6.10    2.50
   9  -3  -6  129.09   11.90
   9  -3  -6  129.89   12.70
   9  -3  -6  138.29   12.40
  -9   3   6  129.49   13.00
   8  -3  -6  184.08   17.40
   8  -3  -6  182.38   16.10
   8  -3  -6  178.48   17.10
   7  -3  -6 1496.65  122.99
   7  -3  -6 1496.75  124.69
   7  -3  -6 1515.35  124.09
  -7   3   6 1604.54  124.39
   6  -3  -6  387.36   33.50
   6  -3  -6  362.86   34.20
   6  -3  -6  408.26   33.10
   6  -3  -6  392.96   32.40
   6  -3  -6  413.86   32.60
  -6   3   6  376.06   33.80
   5  -3  -6  327.17   27.10
   5  -3  -6  326.47   26.50
   5  -3  -6  297.97   27.80
   5  -3  -6  297.67   26.50
   5  -3  -6  325.87   26.30
   4  -3  -6  524.95   40.90
   4  -3  -6  448.66   40.70
   4  -3  -6  514.15   41.60
   4  -3  -6  513.45   40.10
   4  -3  -6  525.35   40.40
   4  -3  -6  430.26   40.40
   3  -3  -6  148.89   14.00
   3  -3  -6  163.88   13.80
   3  -3  -6  156.58   14.40
   3  -3  -6  168.08   13.70
   3  -3  -6  163.08   14.80
   3  -3  -6  167.18   14.30
   2  -3  -6  172.88   14.10
   2  -3  -6  170.08   14.70
   2  -3  -6  157.58   14.30
   2  -3  -6  173.18   14.10
   2  -3  -6  166.18   15.00
  -2   3   6  163.28   16.20
   1  -3  -6 1658.03  125.29
   1  -3  -6 1651.63  124.29
   1  -3  -6 1530.55  124.69
   1  -3  -6 1539.45  124.59
   1  -3  -6 1518.85  124.19
  -1   3   6 1429.46  125.69
   0  -3  -6  243.58   19.70
   0  -3  -6  232.28   19.40
   0  -3  -6  241.48   19.80
   0  -3  -6  230.58   19.30
   0  -3  -6  248.88   20.30
   0  -3  -6  210.78   21.30
   0   3   6  227.78   20.80
  -1  -3  -6  504.65   39.10
  -1  -3  -6  433.76   38.90
  -1  -3  -6  480.25   38.60
  -1  -3  -6  514.25   39.70
  -1  -3  -6  473.65   40.60
  -1  -3  -6  476.35   38.80
   1   3   6  447.86   40.10
  -2  -3  -6 1109.29   89.89
  -2  -3  -6 1028.60   87.99
  -2  -3  -6  998.80   88.39
  -2  -3  -6 1177.68   89.29
  -2  -3  -6 1165.88   88.49
  -3  -3  -6   80.09    7.40
  -3  -3  -6   60.29    7.80
  -3  -3  -6   74.59    7.30
  -3  -3  -6   71.09    8.30
  -3  -3  -6   78.29    8.40
   3   3   6   67.09    7.10
  -4  -3  -6  255.97   20.90
  -4  -3  -6  244.08   21.70
  -4  -3  -6  225.48   21.90
  -4  -3  -6  250.87   22.70
   4   3   6  242.08   21.10
  -5  -3  -6   16.70    5.30
  -5  -3  -6   17.20    3.70
  -5  -3  -6   26.40    4.40
  -5  -3  -6   16.00    2.80
   5   3   6   20.20    4.90
  -6  -3  -6   64.99    6.90
   6   3   6   83.29    9.50
  -7  -3  -6  525.15   43.60
  -7  -3  -6  521.25   44.50
  -7  -3  -6  556.44   44.40
   7   3   6  527.85   45.30
  -8  -3  -6  597.34   48.80
  -8  -3  -6  559.64   48.80
  -8  -3  -6  610.64   48.20
   8   3   6  578.04   48.40
   8   3   6  615.24   49.30
  -9  -3  -6   17.40    2.40
  -9  -3  -6   16.30    2.90
   9   3   6   16.10    3.00
   9   3   6   15.80    2.60
 -11   4   6   16.20    2.70
  10  -4  -6  629.24   52.49
  10  -4  -6  565.74   52.89
  10  -4  -6  686.03   52.99
 -10   4   6  734.33   53.59
   9  -4  -6  310.67   28.40
   9  -4  -6  358.66   27.90
   9  -4  -6  327.57   28.10
   9  -4  -6  321.87   28.70
  -9   4   6  347.47   28.80
   8  -4  -6  117.99   13.30
   8  -4  -6  172.18   15.40
   8  -4  -6  148.99   14.70
   8  -4  -6  143.89   13.90
  -8   4   6  168.18   14.60
   7  -4  -6  218.88   19.90
   7  -4  -6  227.58   21.10
   7  -4  -6  230.48   22.00
   7  -4  -6  216.78   20.30
  -7   4   6  256.27   21.20
   6  -4  -6   79.59    8.60
   6  -4  -6   81.99    9.80
   6  -4  -6   75.69    7.80
   6  -4  -6   72.09    7.60
   6  -4  -6   57.49    7.20
  -6   4   6   85.49    9.10
   5  -4  -6   47.70    7.00
   5  -4  -6   69.79    8.30
   5  -4  -6   64.89    7.00
   5  -4  -6   67.69    6.60
   5  -4  -6   61.19    6.30
   5  -4  -6   67.89    7.20
  -5   4   6   70.79    9.10
   4  -4  -6  623.34   56.19
   4  -4  -6  738.53   57.29
   4  -4  -6  720.73   55.69
   4  -4  -6  717.63   56.29
   4  -4  -6  670.83   56.09
   4  -4  -6  739.43   55.59
  -4   4   6  573.24   56.79
   3  -4  -6  942.51   76.09
   3  -4  -6  930.21   75.19
   3  -4  -6  933.81   75.09
   3  -4  -6  941.11   76.49
   3  -4  -6  926.81   75.69
   2  -4  -6    3.20    1.00
   2  -4  -6    3.40    1.80
   2  -4  -6    1.60    1.10
   2  -4  -6    3.50    1.60
   2  -4  -6    5.10    1.60
   1  -4  -6  212.28   17.90
   1  -4  -6  226.58   18.60
   1  -4  -6  221.38   18.10
   1  -4  -6  219.18   17.50
   1  -4  -6  158.88   19.40
   0  -4  -6   34.70    3.40
   0  -4  -6   27.40    5.60
   0  -4  -6   30.00    4.00
   0  -4  -6   32.70    4.30
   0  -4  -6   30.90    3.80
  -1  -4  -6  212.88   17.40
  -1  -4  -6  210.38   17.90
  -1  -4  -6  196.98   19.00
  -1  -4  -6  170.98   17.20
  -1  -4  -6  208.98   17.20
  -2  -4  -6  646.74   52.59
  -2  -4  -6  686.43   53.49
  -2  -4  -6  612.44   54.09
  -2  -4  -6  609.84   52.79
   2   4   6  660.03   52.69
  -3  -4  -6  122.39   11.50
  -3  -4  -6  120.79   12.60
  -3  -4  -6  127.69   11.60
  -3  -4  -6  121.69   12.80
   3   4   6  127.09   11.60
  -4  -4  -6    4.10    1.70
  -4  -4  -6   12.00    3.20
  -4  -4  -6    5.00    2.60
   4   4   6    4.50    2.30
  -5  -4  -6  369.86   32.20
  -5  -4  -6  414.26   31.00
   5   4   6  316.77   32.60
  -6  -4  -6   79.19    7.50
   6   4   6   71.29    9.40
  -7  -4  -6  120.69   11.60
  -7  -4  -6  107.89   10.50
  -7  -4  -6  120.49   11.40
   7   4   6  127.59   12.30
  -8  -4  -6  179.68   15.30
  -8  -4  -6  166.28   15.90
  -8  -4  -6  187.08   15.90
   8   4   6  168.88   15.40
   8   4   6  200.48   16.50
  -9  -4  -6    3.50    1.50
   9   4   6    4.40    1.80
  10  -5  -6   79.09    8.40
  10  -5  -6   88.49    7.80
  10  -5  -6   82.09    8.00
 -10   5   6   92.39    8.50
   9  -5  -6  663.23   61.19
   9  -5  -6  744.73   61.99
   9  -5  -6  739.63   61.19
   9  -5  -6  787.12   60.99
  -9   5   6  827.02   61.79
   8  -5  -6   41.30    5.90
   8  -5  -6   42.00    6.40
   8  -5  -6   52.69    7.20
  -8   5   6   43.90    6.20
   7  -5  -6  573.44   49.70
   7  -5  -6  578.14   49.10
   7  -5  -6  568.94   50.99
   7  -5  -6  594.04   48.80
  -7   5   6  653.03   49.90
   6  -5  -6  277.17   23.90
   6  -5  -6  238.28   25.70
   6  -5  -6  283.27   24.30
   6  -5  -6  290.67   23.70
   6  -5  -6  287.57   24.60
  -6   5   6  293.37   25.10
   5  -5  -6    1.70    1.50
   5  -5  -6   -0.10    2.00
   5  -5  -6    0.90    2.00
   5  -5  -6    0.60    2.10
   5  -5  -6    3.20    1.40
  -5   5   6   -1.60    2.50
   4  -5  -6   31.30    5.40
   4  -5  -6   35.00    5.30
   4  -5  -6   37.40    3.90
   4  -5  -6   30.90    4.10
   4  -5  -6   39.30    5.30
   3  -5  -6  679.83   58.49
   3  -5  -6  697.93   58.19
   3  -5  -6  723.23   58.99
   3  -5  -6  740.63   57.59
   2  -5  -6  275.97   22.80
   2  -5  -6  237.98   21.90
   2  -5  -6  258.17   21.50
   2  -5  -6  265.77   22.40
   1  -5  -6 1427.36  112.89
   1  -5  -6 1465.05  113.59
   1  -5  -6 1484.95  112.49
   1  -5  -6 1196.98  114.59
   1  -5  -6 1423.36  113.09
   0  -5  -6  987.50   76.49
   0  -5  -6  887.51   78.39
   0  -5  -6  936.31   76.49
   0  -5  -6  956.60   76.99
  -1  -5  -6   66.09    6.60
  -1  -5  -6   64.69    8.40
  -1  -5  -6   56.99    6.90
  -1  -5  -6   63.09    7.10
   1   5   6   71.79    7.00
  -2  -5  -6   38.50    6.90
  -2  -5  -6   48.30    6.10
  -2  -5  -6   52.19    6.20
  -2  -5  -6   42.20    5.10
   2   5   6   52.79    5.70
  -3  -5  -6    1.30    1.40
  -3  -5  -6    3.00    2.30
  -3  -5  -6    1.30    1.60
   3   5   6    4.30    2.20
  -4  -5  -6  225.28   20.00
  -4  -5  -6  147.29   15.80
   4   5   6  193.18   18.40
   4   5   6  196.28   17.00
  -5  -5  -6  341.07   28.60
   5   5   6  340.37   29.50
  -6  -5  -6  662.63   49.80
  -6  -5  -6  626.74   50.19
  -6  -5  -6  558.84   48.80
   6   5   6  548.75   50.49
  -7  -5  -6    1.00    1.70
  -7  -5  -6    3.60    1.90
  -7  -5  -6    2.10    1.20
   7   5   6    1.00    2.10
  -8  -5  -6  255.37   23.70
  -8  -5  -6  273.47   23.70
  -8  -5  -6  283.77   23.30
   8   5   6  322.57   24.20
  10  -6  -6   33.60    3.60
  10  -6  -6   28.50    5.40
 -10   6   6   38.10    4.30
   9  -6  -6  144.89   14.60
   9  -6  -6  173.18   15.70
   9  -6  -6  179.28   14.70
  -9   6   6  174.38   15.10
   8  -6  -6  194.88   18.40
   8  -6  -6  228.48   20.30
  -8   6   6  214.18   19.00
   7  -6  -6   81.39    9.70
   7  -6  -6   56.49    7.30
   7  -6  -6   70.09    7.90
  -7   6   6   92.69    8.80
   6  -6  -6  254.77   20.40
   6  -6  -6  180.88   19.20
   6  -6  -6  233.88   19.60
   6  -6  -6  185.78   21.20
   6  -6  -6  270.37   19.80
  -6   6   6  238.58   20.60
   5  -6  -6  661.53   49.00
   5  -6  -6  551.64   50.19
   5  -6  -6  563.04   48.00
   5  -6  -6  661.33   49.40
  -5   6   6  512.45   49.60
   4  -6  -6    6.20    1.70
   4  -6  -6    4.50    2.30
   4  -6  -6    7.10    2.80
   4  -6  -6   10.70    2.80
   3  -6  -6  954.30   79.19
   3  -6  -6  972.50   79.69
   3  -6  -6  978.90   78.39
   3  -6  -6  988.00   79.99
   2  -6  -6  149.49   12.50
   2  -6  -6  131.79   13.00
   2  -6  -6  152.08   13.80
   1  -6  -6   -0.20    1.40
   1  -6  -6   -0.30    1.10
   1  -6  -6    2.90    1.20
   1  -6  -6   -1.10    3.20
   0  -6  -6  175.68   15.60
   0  -6  -6  183.48   18.10
   0  -6  -6  179.98   16.10
   0   6   6  171.78   15.90
  -1  -6  -6   98.99    9.30
  -1  -6  -6   81.69    9.50
  -1  -6  -6  103.39   10.00
  -1  -6  -6  102.99   11.50
   1   6   6   96.59    9.70
  -2  -6  -6   14.10    3.10
  -2  -6  -6    8.70    2.30
  -2  -6  -6    7.30    3.40
   2   6   6   10.00    2.90
  -3  -6  -6  338.77   28.30
  -3  -6  -6  327.17   28.20
   3   6   6  331.47   28.80
  -4  -6  -6  310.67   31.40
  -4  -6  -6  416.16   30.60
   4   6   6  322.47   32.10
   4   6   6  393.26   31.40
  -5  -6  -6  111.39    9.70
  -5  -6  -6  110.59   11.00
   5   6   6   95.69   11.50
   5   6   6   86.89   10.40
  -6  -6  -6    6.40    2.30
  -6  -6  -6    4.00    2.10
  -6  -6  -6    4.40    1.50
   6   6   6    5.80    2.80
  -7  -6  -6    0.40    1.50
  -7  -6  -6    1.60    1.90
  -7  -6  -6    2.10    1.10
   7   6   6    1.70    1.70
   9  -7  -6  624.44   51.19
   9  -7  -6  607.94   50.09
  -9   7   6  620.54   50.49
   8  -7  -6  191.18   17.00
   8  -7  -6  160.78   15.10
  -8   7   6  168.68   15.70
   7  -7  -6    5.80    2.10
   7  -7  -6    5.10    2.20
   7  -7  -6    3.90    2.90
  -7   7   6    5.90    2.70
   6  -7  -6   64.09    6.90
   6  -7  -6   70.89    7.80
  -6   7   6   62.19   10.10
   5  -7  -6   22.40    3.30
   5  -7  -6   17.60    4.60
   5  -7  -6   24.40    4.30
   4  -7  -6    3.10    1.90
   4  -7  -6    0.40    1.20
   4  -7  -6    1.40    2.00
   3  -7  -6  312.27   27.20
   3  -7  -6  341.57   28.20
   3  -7  -6  336.07   28.80
   2  -7  -6  475.05   40.30
   2  -7  -6  480.55   39.00
   1  -7  -6    8.00    2.60
   1  -7  -6    6.80    2.00
   1  -7  -6    4.30    4.30
  -1   7   6    6.80    2.60
   0  -7  -6  132.89   13.10
   0   7   6  163.58   14.00
  -1  -7  -6   90.59    9.50
  -1  -7  -6  119.29   12.10
  -1  -7  -6  107.59    9.30
   1   7   6   73.19    9.50
  -2  -7  -6  280.07   22.80
  -2  -7  -6  256.27   24.40
  -2  -7  -6  262.17   22.30
   2   7   6  240.58   23.00
  -3  -7  -6  217.18   19.70
  -3  -7  -6  265.27   20.10
   3   7   6  196.48   21.30
   3   7   6  226.88   20.60
  -4  -7  -6  317.97   28.00
  -4  -7  -6  364.26   26.80
   4   7   6  327.17   27.70
   4   7   6  248.98   27.80
  -5  -7  -6   33.70    4.40
  -5  -7  -6   35.60    5.40
   5   7   6   36.30    5.40
   5   7   6   38.30    5.90
  -6  -7  -6  286.07   26.90
  -6  -7  -6  321.17   26.30
   6   7   6  351.86   27.40
   8  -8  -6  266.17   22.50
   8  -8  -6  303.47   24.10
  -8   8   6  236.38   22.60
   7  -8  -6  154.38   13.20
   7  -8  -6  151.18   13.40
   7  -8  -6  133.59   14.60
   6  -8  -6  360.76   30.10
   6  -8  -6  353.96   31.50
   6  -8  -6  340.87   29.30
   5  -8  -6  675.73   52.79
   5  -8  -6  591.14   53.39
   5  -8  -6  606.44   51.49
  -5   8   6  664.73   52.59
   4  -8  -6  336.57   29.20
   4  -8  -6  305.37   27.40
  -4   8   6  359.96   29.10
   3  -8  -6   27.90    4.40
   3  -8  -6   25.40    3.50
   3  -8  -6   31.60    5.20
  -3   8   6   28.70    5.10
   2  -8  -6   26.40    4.50
   2  -8  -6   16.30    3.30
  -2   8   6   30.70    5.10
   1  -8  -6  115.69   11.30
   1  -8  -6  102.09   10.60
   1  -8  -6  134.79   14.40
   0  -8  -6  119.09   13.50
   0  -8  -6  115.89   10.50
   0   8   6  100.09   11.10
  -1  -8  -6  599.54   47.70
  -1  -8  -6  653.13   50.69
   1   8   6  501.75   48.40
  -2  -8  -6   16.90    3.10
  -2  -8  -6   17.70    3.30
  -2  -8  -6   15.60    4.40
   2   8   6   18.70    4.00
   2   8   6   12.50    4.80
  -3  -8  -6    5.60    2.30
  -3  -8  -6    8.90    2.30
  -3  -8  -6    5.20    2.80
   3   8   6    4.20    3.60
   3   8   6    7.00    2.90
  -4  -8  -6  237.58   18.70
  -4  -8  -6  209.38   19.70
   4   8   6  219.18   19.80
   4   8   6  201.88   19.50
  -5  -8  -6    0.30    1.50
  -5  -8  -6    0.90    1.10
   5   8   6    1.90    2.20
   5   8   6    0.10    2.20
   7  -9  -6   11.30    3.20
   7  -9  -6    9.60    2.30
   7  -9  -6   13.60    2.60
   6  -9  -6  130.29   12.20
   6  -9  -6  133.09   13.90
   6  -9  -6  153.88   12.90
   5  -9  -6  214.28   17.00
   5  -9  -6  167.88   15.70
   5  -9  -6  180.98   17.50
   4  -9  -6  103.69   10.90
   4  -9  -6  116.79   10.50
   4  -9  -6   91.39    9.30
  -4   9   6  111.19   11.30
   3  -9  -6   18.20    3.40
   3  -9  -6   14.90    3.70
  -3   9   6   20.90    4.60
   2  -9  -6  201.98   18.50
  -2   9   6  223.48   19.70
   1  -9  -6  112.79   10.60
   1  -9  -6  109.39   13.60
  -1   9   6  113.89   11.80
   0  -9  -6   12.20    2.60
   0  -9  -6    9.40    4.80
   0   9   6   11.20    3.40
  -1  -9  -6  104.59   10.20
  -1  -9  -6  123.19   12.80
   1   9   6  107.79   11.40
  -2  -9  -6   58.39    7.50
  -2  -9  -6   51.79    6.00
   2   9   6   49.99    7.00
  -3  -9  -6   53.79    5.70
  -3  -9  -6   56.89    6.90
   3   9   6   49.40    6.70
  -4  -9  -6  191.98   17.60
   4   9   6  209.88   17.80
   5 -10  -6   32.50    5.30
   5 -10  -6   38.50    5.10
   4 -10  -6   11.20    2.80
   3 -10  -6    7.70    2.20
  -3  10   6    3.20    3.40
   2 -10  -6  120.29   11.30
  -2  10   6  128.59   13.00
   1 -10  -6  261.07   23.00
   1 -10  -6  255.37   27.90
  -1  10   6  301.47   24.60
   0 -10  -6   97.59    9.50
   0 -10  -6  110.49   11.90
   0  10   6  103.79   10.80
  -1 -10  -6  137.79   13.50
  -1 -10  -6  174.48   15.30
   1  10   6  157.88   14.50
  -2 -10  -6   17.80    5.50
   2  10   6   11.60    3.20
   2  11  -7    6.50    2.60
  -2 -11   7    3.30    2.80
   1  11  -7   93.19    9.90
  -1 -11   7  102.99   10.70
   0  11  -7   14.30    3.20
   0 -11   7   12.20    2.90
   0 -11   7    7.00    3.20
   1 -11   7  208.68   19.60
   1 -11   7  243.68   20.80
   2 -11   7  101.29   10.40
  -3  11  -7    3.00    1.60
  -3  11  -7    0.20    1.60
   3 -11   7    4.30    2.50
  -4  11  -7   49.50    5.90
  -4  11  -7   63.59    6.70
   4 -11   7   74.49    8.10
  -5  11  -7   47.20    5.30
  -5  11  -7   31.10    4.60
   5 -11   7   53.29    6.60
   4  10  -7   62.79    6.40
  -4 -10   7   49.60    7.50
   3  10  -7  144.59   13.10
  -3 -10   7  131.79   13.80
   2  10  -7  124.39   12.10
  -2 -10   7  110.69   12.20
   1  10  -7  713.53   62.19
  -1 -10   7  792.02   62.79
   0  10  -7   45.40    5.00
   0  10  -7   56.29    6.90
   0 -10   7   44.10    5.90
  -1  10  -7   23.30    3.70
  -1  10  -7   21.80    3.10
   1 -10   7   29.20    4.80
  -2  10  -7   27.70    3.60
  -2  10  -7   28.60    4.90
  -2  10  -7   25.20    4.10
   2 -10   7   32.60    5.50
  -3  10  -7    3.40    2.60
  -3  10  -7    2.10    1.30
  -3  10  -7    0.10    1.60
   3 -10   7    2.70    2.60
  -4  10  -7   61.79    6.50
  -4  10  -7   71.09    7.60
  -4  10  -7   59.39    7.60
   4 -10   7   82.69    9.20
  -5  10  -7  493.85   41.20
  -5  10  -7  443.66   40.30
   5 -10   7  561.04   42.70
  -6  10  -7  109.29    9.60
  -6  10  -7   85.49    8.90
   6 -10   7  112.29   10.50
   6 -10   7   88.49    9.40
  -7  10  -7   94.09    8.50
   5   9  -7   51.19    5.90
   5   9  -7   59.29    5.90
  -5  -9   7   39.30    6.70
   4   9  -7  229.38   21.80
   4   9  -7  281.57   22.00
  -4  -9   7  248.38   22.90
   3   9  -7  449.95   36.70
  -3  -9   7  414.16   37.20
   2   9  -7    4.70    2.90
   2   9  -7    3.20    1.70
  -2  -9   7    8.30    3.00
   1   9  -7   10.00    3.60
   1   9  -7   11.40    2.10
  -1  -9   7    7.90    2.70
   0   9  -7  347.37   29.40
   0   9  -7  348.27   27.90
   0   9  -7  302.67   28.50
   0  -9   7  351.96   29.20
  -1   9  -7   11.40    2.00
  -1   9  -7    5.40    2.20
  -1   9  -7    7.80    2.10
  -1   9  -7   11.70    3.30
   1  -9   7   10.20    3.00
  -2   9  -7  303.17   24.90
  -2   9  -7  269.17   25.40
  -2   9  -7  310.47   25.80
   2  -9   7  318.27   26.60
  -3   9  -7  195.78   17.30
  -3   9  -7  181.58   17.10
  -3   9  -7  188.18   16.40
   3  -9   7  205.98   18.70
  -4   9  -7   78.19    8.50
  -4   9  -7   76.79    8.40
  -4   9  -7   82.29    7.70
  -5   9  -7   45.90    6.30
  -5   9  -7   46.40    5.30
  -5   9  -7   45.90    5.80
   5  -9   7   54.89    6.80
  -6   9  -7   42.10    5.70
  -6   9  -7   51.29    6.20
   6  -9   7   62.99    6.60
  -7   9  -7   16.60    2.90
  -7   9  -7   16.20    2.80
   7  -9   7   12.00    3.30
   7  -9   7   17.00    3.20
  -8   9  -7  308.17   24.70
   8  -9   7  272.07   26.20
   8  -9   7  312.57   25.00
   7   8  -7    1.60    1.50
   6   8  -7  139.59   12.40
   6   8  -7  154.08   12.60
  -6  -8   7  112.99   13.40
   5   8  -7    2.90    2.20
   5   8  -7    3.10    1.90
  -5  -8   7    3.20    3.10
   4   8  -7  543.85   44.00
   4   8  -7  476.05   43.00
   4   8  -7  529.85   43.80
  -4  -8   7  561.74   45.00
   3   8  -7  227.18   18.60
   3   8  -7  209.98   19.60
   3   8  -7  176.68   19.40
  -3  -8   7  265.47   20.90
   2   8  -7   30.10    5.70
   2   8  -7   34.30    4.10
   1   8  -7  205.68   20.30
   1   8  -7  225.58   18.40
  -1  -8   7  215.68   19.30
   0   8  -7  147.09   14.90
   0   8  -7  158.18   13.40
   0  -8   7  154.98   14.40
  -1   8  -7    8.20    2.80
  -1   8  -7    3.40    1.90
  -1   8  -7    9.90    1.80
  -1   8  -7    7.30    2.10
   1  -8   7    9.70    2.90
  -2   8  -7  329.57   29.90
  -2   8  -7  381.56   29.50
  -3   8  -7  259.27   22.90
  -3   8  -7  286.07   23.70
  -3   8  -7  279.97   23.70
  -4   8  -7    6.50    2.00
  -4   8  -7   13.20    3.00
  -4   8  -7    9.80    2.50
   4  -8   7    9.30    3.30
  -5   8  -7  203.58   17.30
  -5   8  -7  145.39   16.10
  -5   8  -7  197.08   16.50
   5  -8   7  211.98   17.60
  -6   8  -7  311.37   26.00
  -6   8  -7  279.47   25.00
  -6   8  -7  285.37   25.50
   6  -8   7  331.37   26.30
  -7   8  -7    8.80    2.60
  -7   8  -7   13.00    2.60
   7  -8   7   18.60    3.40
  -8   8  -7    7.80    2.00
   8  -8   7    8.60    2.30
   9  -8   7  237.18   19.90
   8   7  -7  552.04   44.90
   7   7  -7    9.30    2.20
   7   7  -7    6.80    2.10
   6   7  -7  616.04   48.90
   6   7  -7  641.74   49.20
  -6  -7   7  519.05   49.80
   5   7  -7  118.89   11.30
   5   7  -7  102.49   10.80
   5   7  -7  120.79   11.00
  -5  -7   7  111.19   12.30
   4   7  -7  135.29   12.70
   4   7  -7  132.19   11.60
   4   7  -7  103.79   11.90
  -4  -7   7  134.29   13.30
   3   7  -7  218.28   22.30
   3   7  -7  259.67   21.30
  -3  -7   7  285.77   23.20
   2   7  -7  246.08   23.40
   2   7  -7  243.58   22.60
   2   7  -7  280.27   22.40
   2   7  -7  266.77   21.80
   1   7  -7  144.49   14.70
   1   7  -7  160.78   12.90
   1   7  -7  144.59   13.20
  -1  -7   7  139.79   13.60
   0   7  -7 1750.12  119.39
   0   7  -7 1393.86  117.99
   0   7  -7 1299.27  117.79
  -1   7  -7  368.86   28.10
  -1   7  -7  363.36   28.50
  -1   7  -7  324.17   28.80
  -1   7  -7  303.77   28.40
  -2   7  -7   44.50    5.30
  -2   7  -7   49.60    5.60
  -2   7  -7   51.49    5.00
  -3   7  -7   58.29    6.00
  -3   7  -7   59.19    5.90
  -3   7  -7   37.90    5.10
   3  -7   7   57.69    6.70
  -4   7  -7  177.48   15.50
  -4   7  -7  157.48   15.00
  -4   7  -7  177.28   15.90
   4  -7   7  181.08   16.60
  -5   7  -7    5.40    2.30
  -5   7  -7    3.30    1.70
  -5   7  -7    2.50    1.70
   5  -7   7    2.40    2.50
  -6   7  -7   89.19   10.50
  -6   7  -7  124.99   11.40
  -6   7  -7  114.89   10.50
   6  -7   7  137.99   11.90
  -7   7  -7  538.45   44.90
   7  -7   7  550.14   45.30
  -8   7  -7  167.18   14.30
   8  -7   7  159.18   14.60
  -9   7  -7  116.89   10.60
   9  -7   7  126.89   11.00
   8   6  -7  101.59    9.40
   7   6  -7    8.30    2.20
   7   6  -7    3.10    2.50
   7   6  -7    9.90    2.30
   6   6  -7  579.24   42.90
   6   6  -7  541.55   43.00
   6   6  -7  464.85   42.80
  -6  -6   7  473.55   43.80
   5   6  -7  725.53   62.09
   5   6  -7  807.52   62.69
   5   6  -7  760.82   61.89
  -5  -6   7  737.43   63.09
   4   6  -7  212.28   17.20
   4   6  -7  201.48   18.30
   4   6  -7  168.28   17.60
  -4  -6   7  206.98   18.70
   3   6  -7  236.88   19.60
   3   6  -7  229.78   19.30
   3   6  -7  215.38   20.40
   2   6  -7  469.75   39.10
   2   6  -7  480.35   37.70
   2   6  -7  417.96   38.10
   2   6  -7  462.55   37.30
   1   6  -7   50.99    5.20
   1   6  -7   41.40    6.70
   1   6  -7   49.50    4.90
   0   6  -7   19.90    3.20
   0   6  -7   25.00    3.30
   0   6  -7   19.60    4.00
   0   6  -7   21.70    2.80
  -1   6  -7  686.13   59.69
  -1   6  -7  757.82   59.09
  -1   6  -7  716.83   59.49
  -1   6  -7  762.02   59.39
  -2   6  -7   15.00    2.80
  -2   6  -7   17.50    2.60
  -2   6  -7   15.10    2.70
  -3   6  -7  651.93   56.69
  -3   6  -7  677.83   57.19
  -3   6  -7  752.22   57.29
  -3   6  -7  727.83   59.59
  -4   6  -7  402.76   34.20
  -4   6  -7  422.86   34.00
  -4   6  -7  444.16   36.40
  -4   6  -7  361.16   33.40
  -5   6  -7    5.40    1.90
  -5   6  -7    2.50    2.60
  -5   6  -7    4.60    1.90
  -5   6  -7   11.80    4.10
  -6   6  -7    7.60    2.00
  -6   6  -7    3.60    2.00
  -7   6  -7   21.50    3.10
  -7   6  -7   23.60    3.80
   7  -6   7   19.20    3.90
  -8   6  -7  181.18   15.70
   8  -6   7  176.98   16.20
  -9   6  -7 1028.80   82.79
   9  -6   7 1032.50   83.29
   9   5  -7   12.50    2.30
   8   5  -7  800.02   68.59
   8   5  -7  866.91   67.89
   7   5  -7  664.83   50.59
   7   5  -7  612.74   50.99
   7   5  -7  574.94   50.59
   6   5  -7   77.79    9.50
   6   5  -7  104.59   10.00
   6   5  -7  122.99   10.00
   5   5  -7    2.60    1.80
   5   5  -7    4.00    2.00
   5   5  -7    9.60    2.90
  -5  -5   7   -2.20    2.90
   4   5  -7    7.10    2.40
   4   5  -7    7.80    1.80
   4   5  -7    7.60    2.80
  -4  -5   7    8.70    3.00
   3   5  -7    3.70    1.40
   3   5  -7    5.10    1.80
   3   5  -7    4.70    2.50
   3   5  -7    2.80    2.40
   2   5  -7  768.82   63.69
   2   5  -7  738.13   62.89
   2   5  -7  793.62   62.19
   2   5  -7  781.02   62.29
   1   5  -7 1802.62  139.69
   1   5  -7 1770.82  139.59
   1   5  -7 1652.93  140.79
   0   5  -7  147.59   12.90
   0   5  -7  150.58   13.10
   0   5  -7  151.38   13.80
   0   5  -7  148.19   12.70
  -1   5  -7  873.81   76.09
  -1   5  -7  974.40   76.39
  -1   5  -7  860.01   76.39
  -1   5  -7 1034.40   76.09
  -1   5  -7  985.10   76.29
  -2   5  -7    2.00    1.30
  -2   5  -7   -1.30    3.60
  -2   5  -7    0.90    1.00
  -2   5  -7    2.20    1.20
  -2   5  -7    2.40    1.50
  -3   5  -7   11.90    2.50
  -3   5  -7    2.80    1.20
  -3   5  -7    1.30    3.30
  -3   5  -7    2.20    1.40
  -4   5  -7  161.08   14.40
  -4   5  -7  148.59   14.50
  -4   5  -7  171.18   16.90
  -4   5  -7  164.28   14.00
  -5   5  -7  161.98   14.90
  -5   5  -7  175.88   15.00
  -5   5  -7  167.48   17.30
  -6   5  -7   20.10    3.70
  -6   5  -7   24.60    3.50
  -6   5  -7   14.50    4.50
   6  -5   7   18.40    3.50
  -7   5  -7  811.02   70.19
  -7   5  -7  907.41   70.89
   7  -5   7  895.61   70.39
  -8   5  -7   98.69    8.80
   8  -5   7   82.99    8.50
  -9   5  -7   33.40    4.20
   9  -5   7   37.30    5.00
   9  -5   7   39.30    4.40
  10  -5   7    1.60    1.50
  10  -5   7    2.20    1.50
   9   4  -7   80.19    8.30
   9   4  -7   87.99    8.10
   8   4  -7   25.00    4.10
   8   4  -7   30.60    4.20
   8   4  -7   27.00    4.70
   7   4  -7  210.28   20.30
   7   4  -7  229.18   19.30
   7   4  -7  233.78   20.10
   6   4  -7    3.40    1.80
   6   4  -7    4.70    2.30
   6   4  -7    2.60    1.90
   6   4  -7    2.30    2.60
   5   4  -7  957.90   67.29
   5   4  -7  692.53   67.99
   4   4  -7  299.37   25.50
   4   4  -7  271.57   25.70
   4   4  -7  318.87   24.90
  -4  -4   7  294.27   25.70
   3   4  -7   88.89    7.70
   3   4  -7   94.59    9.00
   3   4  -7   74.69    7.60
   3   4  -7   80.79    8.60
   2   4  -7    4.30    1.20
   2   4  -7    3.30    1.30
   2   4  -7    5.50    2.00
   2   4  -7    4.20    2.40
   2   4  -7    2.60    1.30
   1   4  -7   28.50    3.00
   1   4  -7   25.60    3.00
   1   4  -7   27.60    4.40
   1   4  -7   25.40    3.20
   1   4  -7   21.80    3.40
   0   4  -7    5.30    1.40
   0   4  -7    3.90    1.20
   0   4  -7    5.00    1.30
   0   4  -7    5.40    2.10
   0   4  -7    5.30    1.40
  -1   4  -7 2116.99  190.68
  -1   4  -7 2233.88  190.78
  -1   4  -7 2527.35  190.48
  -1   4  -7 2397.76  190.58
  -1   4  -7 2664.03  190.78
  -2   4  -7  380.46   30.40
  -2   4  -7  390.56   30.70
  -2   4  -7  329.97   30.60
  -2   4  -7  391.96   30.70
  -3   4  -7   44.80    4.60
  -3   4  -7   46.40    4.70
  -3   4  -7   37.60    4.60
  -3   4  -7   39.70    4.20
  -3   4  -7   31.00    6.60
  -4   4  -7   75.39    7.70
  -4   4  -7   80.59    7.40
  -5   4  -7   25.40    5.90
  -5   4  -7   18.00    3.90
  -5   4  -7   22.40    3.40
  -5   4  -7   24.80    3.70
   5  -4   7   19.00    3.40
  -6   4  -7   -0.20    1.30
  -6   4  -7   -0.30    1.70
  -6   4  -7    0.50    2.30
  -6   4  -7    0.30    1.80
   6  -4   7    1.80    1.80
  -7   4  -7  233.78   20.50
  -7   4  -7  264.57   21.20
   7  -4   7  235.58   20.80
  -8   4  -7  304.77   28.20
  -8   4  -7  331.97   29.20
  -8   4  -7  370.46   28.70
   8  -4   7  375.96   28.70
  -9   4  -7  175.08   15.90
   9  -4   7  171.18   14.90
  10  -4   7  284.37   23.90
  10  -4   7  290.27   23.60
  10   3  -7  498.15   39.00
 -10  -3   7  438.36   40.80
   9   3  -7  497.75   40.90
   9   3  -7  499.25   41.40
   8   3  -7  513.25   42.30
   8   3  -7  509.75   43.10
   7   3  -7  360.36   33.20
   7   3  -7  401.86   32.70
   7   3  -7  413.16   34.20
   6   3  -7   30.00    4.60
   6   3  -7   39.10    4.80
   6   3  -7   27.80    4.70
   6   3  -7   28.00    4.70
   6   3  -7   44.50    6.40
   5   3  -7   95.59   10.00
   5   3  -7  102.99    9.50
   5   3  -7   97.99    9.90
   5   3  -7   89.49    9.20
   5   3  -7  108.89    9.70
   4   3  -7  882.01   74.99
   4   3  -7  926.11   75.99
   4   3  -7  997.20   75.79
   4   3  -7 1023.50   75.19
   4   3  -7  838.72   75.29
   3   3  -7  206.68   15.90
   3   3  -7  187.48   16.80
   3   3  -7  168.78   15.70
   3   3  -7  188.18   16.60
   2   3  -7  807.82   66.19
   2   3  -7  793.32   66.09
   2   3  -7  940.51   66.29
   2   3  -7  795.82   66.69
   2   3  -7  775.12   67.19
   1   3  -7 1895.41  135.99
   1   3  -7 1669.13  136.69
   1   3  -7 1637.24  135.89
   1   3  -7 1783.02  135.89
   1   3  -7 1521.15  135.99
   0   3  -7  138.19   11.20
   0   3  -7  135.29   11.30
   0   3  -7  135.59   11.80
   0   3  -7  137.99   11.20
   0   3  -7  102.79   12.80
  -1   3  -7   23.50    3.20
  -1   3  -7   29.50    3.10
  -1   3  -7   21.30    4.70
  -1   3  -7   25.80    3.40
  -1   3  -7   26.00    2.80
  -1   3  -7   27.60    3.00
  -2   3  -7  163.68   17.50
  -2   3  -7  183.58   15.40
  -2   3  -7  178.48   15.60
  -2   3  -7  205.98   15.70
  -3   3  -7  341.17   27.50
  -3   3  -7  351.46   27.80
  -3   3  -7  323.87   27.10
  -3   3  -7  288.67   29.60
  -3   3  -7  342.97   27.60
  -4   3  -7  548.95   41.30
  -4   3  -7  418.56   42.80
  -4   3  -7  500.05   40.70
  -4   3  -7  504.85   40.30
  -5   3  -7 1552.44  142.89
  -5   3  -7 1785.82  140.29
  -5   3  -7 1828.32  140.39
  -5   3  -7 1820.22  141.19
  -6   3  -7  323.07   28.00
  -6   3  -7  374.36   27.90
  -6   3  -7  295.87   28.60
  -7   3  -7  190.48   16.20
  -7   3  -7  172.78   15.70
   7  -3   7  189.28   16.20
  -8   3  -7   83.69    8.90
  -8   3  -7   83.39    8.10
  -8   3  -7   97.49   10.80
   8  -3   7   92.69    8.60
  -9   3  -7   69.49    7.20
   9  -3   7   69.19    6.80
  10  -3   7   61.99    5.90
  10   2  -7   37.60    4.70
 -10  -2   7   41.50    5.50
   9   2  -7   16.90    3.30
  -9  -2   7    2.10    2.40
   8   2  -7    6.00    2.20
   8   2  -7    6.00    2.70
   8   2  -7    4.90    1.90
   7   2  -7  766.22   63.69
   7   2  -7  775.42   62.09
   7   2  -7  749.42   62.59
   6   2  -7 1110.99   80.79
   6   2  -7 1018.60   79.39
   6   2  -7  904.01   79.49
   6   2  -7  808.22   79.19
   6   2  -7 1050.59   79.19
   5   2  -7   25.20    4.00
   5   2  -7   26.50    3.80
   5   2  -7   25.70    4.60
   5   2  -7   25.70    4.20
   5   2  -7   27.10    3.90
   4   2  -7  327.77   27.80
   4   2  -7  356.86   27.90
   4   2  -7  345.77   28.50
   4   2  -7  333.27   28.30
   4   2  -7  319.07   28.60
   3   2  -7  227.28   18.40
   3   2  -7  198.78   19.10
   3   2  -7  235.38   18.30
   3   2  -7  205.28   18.60
   3   2  -7  221.58   18.90
   2   2  -7   92.99    8.40
   2   2  -7   82.19    8.20
   2   2  -7   89.69    7.90
   2   2  -7   96.89    8.10
   2   2  -7   85.49    8.90
   1   2  -7  432.76   33.50
   1   2  -7  377.86   33.70
   1   2  -7  423.26   34.30
   1   2  -7  398.56   33.50
   1   2  -7  436.96   33.60
   0   2  -7 1381.36  120.39
   0   2  -7 1452.05  119.69
   0   2  -7 1505.45  119.29
   0   2  -7 1578.04  119.39
   0   2  -7 1541.95  119.19
  -1   2  -7  170.58   14.80
  -1   2  -7  161.78   14.60
  -1   2  -7  194.58   16.50
  -1   2  -7  185.48   14.90
  -2   2  -7 1399.96  114.29
  -2   2  -7 1505.95  114.09
  -2   2  -7 1459.65  114.19
  -2   2  -7 1468.15  115.99
  -2   2  -7 1292.97  113.69
  -3   2  -7  107.09    8.70
  -3   2  -7  100.29   10.80
  -3   2  -7   96.39    9.00
  -3   2  -7   81.39    8.20
  -3   2  -7   89.89    8.70
  -4   2  -7   16.90    5.10
  -4   2  -7   20.30    3.50
  -4   2  -7   23.80    3.40
  -4   2  -7   18.90    2.80
  -4   2  -7   19.90    3.10
  -5   2  -7   81.19   11.20
  -5   2  -7   90.49    9.10
  -5   2  -7  104.69   10.10
  -5   2  -7  112.79    9.30
  -6   2  -7   43.30    6.30
  -6   2  -7   27.60    6.80
  -6   2  -7   57.19    5.20
  -7   2  -7    7.50    2.50
  -7   2  -7   14.90    4.50
  -7   2  -7   13.20    2.30
   7  -2   7   13.00    2.70
  -8   2  -7  519.95   41.60
  -8   2  -7  480.75   38.80
  -8   2  -7  396.56   39.40
   8  -2   7  512.25   39.30
  -9   2  -7  260.77   20.80
  -9   2  -7  205.68   20.00
   9  -2   7  260.37   20.40
 -10   2  -7    7.40    1.90
  10  -2   7    7.40    2.30
  10  -2   7    9.70    1.90
  10   1  -7   60.09    6.10
  10   1  -7   47.80    5.50
 -10  -1   7   54.19    7.00
   9   1  -7  505.85   40.90
   9   1  -7  483.35   41.40
   8   1  -7   54.79    7.40
   8   1  -7   68.29    7.00
   7   1  -7    3.50    2.10
   7   1  -7    5.40    2.80
   7   1  -7    4.00    2.20
   7   1  -7    5.70    2.00
   7   1  -7    7.90    2.30
   6   1  -7  317.47   26.00
   6   1  -7  318.27   26.50
   6   1  -7  329.57   27.50
   6   1  -7  277.07   26.40
   5   1  -7   45.60    6.20
   5   1  -7   69.19    6.40
   5   1  -7   54.19    6.50
   5   1  -7   62.69    6.20
   5   1  -7   50.89    5.80
   4   1  -7 1466.95  122.09
   4   1  -7 1591.14  122.69
   4   1  -7 1472.15  122.59
   4   1  -7 1612.94  122.19
   4   1  -7 1467.25  122.79
   3   1  -7  862.41   69.99
   3   1  -7  863.81   70.19
   3   1  -7  782.32   70.29
   3   1  -7  908.91   69.69
   3   1  -7  898.81   69.69
   2   1  -7   61.59    7.20
   2   1  -7   77.19    6.60
   2   1  -7   79.89    6.50
   2   1  -7   68.99    7.30
   2   1  -7   70.79    6.90
   1   1  -7  291.17   21.90
   1   1  -7  269.37   22.30
   1   1  -7  264.47   21.70
   1   1  -7  235.98   22.50
   0   1  -7    5.30    1.20
   0   1  -7    5.30    1.60
   0   1  -7    4.60    1.20
   0   1  -7    3.30    1.70
  -1   1  -7   19.80    2.50
  -1   1  -7   14.70    3.20
  -1   1  -7   20.50    2.50
  -1   1  -7   13.50    2.90
  -2   1  -7  919.31   72.59
  -2   1  -7  818.62   71.99
  -2   1  -7  867.31   71.09
  -2   1  -7  966.10   71.09
  -2   1  -7  835.42   71.09
  -3   1  -7 1866.01  154.58
  -3   1  -7 1878.71  154.78
  -3   1  -7 1954.00  156.38
  -3   1  -7 2066.89  154.58
  -3   1  -7 1883.11  155.58
  -4   1  -7  153.98   13.00
  -4   1  -7  142.39   13.50
  -4   1  -7  145.49   13.70
  -4   1  -7  136.29   14.90
  -5   1  -7  465.95   47.40
  -5   1  -7  571.54   46.20
  -5   1  -7  611.64   45.30
  -6   1  -7  219.48   22.90
  -6   1  -7  314.57   22.40
  -6   1  -7  249.68   25.00
  -7   1  -7   -0.50    1.50
  -7   1  -7    2.30    1.30
  -7   1  -7    2.10    2.90
  -8   1  -7   14.90    3.40
  -8   1  -7   27.90    3.40
  -8   1  -7   29.40    5.70
   8  -1   7   24.40    3.70
  -9   1  -7  558.84   50.89
  -9   1  -7  679.93   51.89
   9  -1   7  668.03   51.49
 -10   1  -7    4.80    1.50
  10  -1   7    2.80    1.30
  10   0  -7    5.30    1.70
  10   0  -7    3.70    1.90
 -10   0   7    3.70    2.40
   9   0  -7  509.15   47.40
   9   0  -7  593.14   47.00
  -9   0   7  620.94   48.20
   8   0  -7  424.66   41.00
   8   0  -7  556.44   40.90
   7   0  -7   91.89    7.80
   7   0  -7   83.69    8.60
   7   0  -7   76.09    8.50
   7   0  -7   61.99    8.80
   6   0  -7 1555.34  116.49
   6   0  -7 1457.55  115.49
   6   0  -7 1532.25  114.99
   6   0  -7 1393.86  115.39
   6   0  -7 1206.78  115.09
   5   0  -7   18.30    3.70
   5   0  -7   17.60    3.40
   5   0  -7   22.60    3.50
   5   0  -7   20.50    3.30
   5   0  -7   17.00    2.80
   4   0  -7    2.20    1.50
   4   0  -7    2.10    1.50
   4   0  -7    0.20    1.00
   4   0  -7    0.20    0.90
   4   0  -7    2.00    1.80
   4   0  -7   -0.60    1.80
   3   0  -7  251.77   23.70
   3   0  -7  305.67   23.10
   3   0  -7  287.07   23.10
   3   0  -7  260.67   22.70
   3   0  -7  264.87   23.60
   3   0  -7  297.67   23.50
   2   0  -7  386.96   34.00
   2   0  -7  492.05   34.50
   2   0  -7  419.56   34.90
   2   0  -7  414.86   34.20
   2   0  -7  385.26   34.90
   2   0  -7  434.56   34.70
   1   0  -7  134.69   10.10
   1   0  -7  107.59    9.70
   1   0  -7  108.49   10.60
   1   0  -7  110.69   10.30
   0   0  -7 1949.10  172.38
   0   0  -7 2142.89  172.68
   0   0  -7 1967.90  172.98
   0   0  -7 2371.66  172.58
   0   0  -7 2380.56  173.58
  -1   0  -7  375.36   31.80
  -1   0  -7  352.16   32.70
  -1   0  -7  442.16   31.90
  -1   0  -7  380.66   31.80
  -1   0  -7  409.46   32.90
  -1   0  -7  371.76   32.30
  -2   0  -7  151.88   11.60
  -2   0  -7  115.49   11.60
  -2   0  -7  131.89   11.70
  -2   0  -7  122.69   12.70
  -2   0  -7  140.29   12.80
  -3   0  -7   37.90    4.70
  -3   0  -7   35.30    4.40
  -3   0  -7   32.20    5.60
  -3   0  -7   41.30    4.20
  -3   0  -7   35.70    5.40
  -4   0  -7  339.17   30.70
  -4   0  -7  304.97   29.20
  -4   0  -7  369.26   29.70
  -4   0  -7  354.86   28.90
  -4   0  -7  352.36   28.80
  -5   0  -7  338.27   33.20
  -5   0  -7  380.76   31.70
  -5   0  -7  425.36   31.10
  -5   0  -7  377.86   31.90
   5   0   7  325.17   32.00
  -6   0  -7  365.86   36.00
  -6   0  -7  478.75   33.50
  -6   0  -7  431.06   34.40
  -6   0  -7  406.76   34.20
   6   0   7  324.87   34.30
  -7   0  -7  270.87   21.60
  -7   0  -7  256.07   24.50
  -7   0  -7  260.27   22.40
   7   0   7  233.18   22.50
  -8   0  -7   14.80    2.30
  -8   0  -7   14.70    4.20
  -8   0  -7   11.90    3.10
   8   0   7   10.60    2.90
   8   0   7   15.10    3.20
  -9   0  -7  497.65   39.50
  -9   0  -7  433.66   38.70
   9   0   7  507.25   39.20
 -10   0  -7   -0.20    1.20
  10   0   7    1.80    1.30
  11  -1  -7  376.06   32.50
  10  -1  -7   69.19    7.00
  10  -1  -7   71.69    7.40
 -10   1   7   72.29    7.90
   9  -1  -7    3.70    2.00
   9  -1  -7    5.90    2.40
  -9   1   7    8.00    2.80
   8  -1  -7    1.70    1.80
   8  -1  -7    0.20    1.90
   8  -1  -7    1.00    1.80
  -8   1   7   -4.00    2.00
   7  -1  -7   51.69    5.00
   7  -1  -7   28.40    5.60
   7  -1  -7   46.00    5.30
   7  -1  -7   31.20    5.40
   6  -1  -7  103.79    9.30
   6  -1  -7   94.29    9.70
   6  -1  -7  105.59    9.30
   6  -1  -7   88.89   10.20
   5  -1  -7 1739.83  133.99
   5  -1  -7 1486.55  134.69
   5  -1  -7 1607.74  134.09
   5  -1  -7 1668.73  133.49
   5  -1  -7 1806.92  134.69
   5  -1  -7 1690.93  133.89
   4  -1  -7    2.00    1.50
   4  -1  -7    4.60    2.10
   4  -1  -7    3.70    1.20
   4  -1  -7    4.90    1.80
   4  -1  -7    2.00    1.90
   4  -1  -7    2.20    1.20
   3  -1  -7 1005.80   73.39
   3  -1  -7  880.81   73.49
   3  -1  -7  952.90   73.79
   3  -1  -7  867.41   74.09
   3  -1  -7  883.21   72.99
   3  -1  -7  867.31   73.79
   2  -1  -7  316.47   25.70
   2  -1  -7  328.57   25.40
   2  -1  -7  292.07   26.10
   2  -1  -7  305.77   25.20
   2  -1  -7  295.37   25.80
   1  -1  -7   78.29    8.50
   1  -1  -7   96.09    9.20
   1  -1  -7  102.09    8.30
   1  -1  -7  104.19    8.40
   1  -1  -7   90.39    8.60
   0  -1  -7  198.88   16.50
   0  -1  -7  167.98   15.40
   0  -1  -7  181.98   15.90
   0  -1  -7  203.48   15.60
   0  -1  -7  161.88   16.50
   0  -1  -7  193.38   15.70
  -1  -1  -7  403.86   33.20
  -1  -1  -7  384.66   32.70
  -1  -1  -7  377.26   32.80
  -1  -1  -7  434.06   32.80
  -1  -1  -7  432.86   33.80
  -1  -1  -7  366.06   33.90
  -2  -1  -7   76.19    8.70
  -2  -1  -7   80.59    8.00
  -2  -1  -7   76.19    7.70
  -2  -1  -7   83.59    8.60
  -2  -1  -7   87.69    7.50
  -3  -1  -7 1827.22  142.09
  -3  -1  -7 1929.71  143.49
  -3  -1  -7 1624.84  142.39
  -3  -1  -7 1671.23  142.29
  -3  -1  -7 1816.42  143.59
  -4  -1  -7  443.56   39.70
  -4  -1  -7  482.45   39.20
  -4  -1  -7  472.25   40.90
  -4  -1  -7  492.35   40.10
  -5  -1  -7   29.80    4.70
  -5  -1  -7   25.60    3.70
  -5  -1  -7   25.10    4.70
  -5  -1  -7   19.30    5.20
   5   1   7   24.40    5.40
  -6  -1  -7   22.10    6.00
  -6  -1  -7   22.80    4.10
  -6  -1  -7   35.00    5.10
  -6  -1  -7   16.90    3.10
   6   1   7   19.00    5.00
  -7  -1  -7   23.00    4.10
  -7  -1  -7   24.60    4.10
  -7  -1  -7   22.50    5.60
  -7  -1  -7   23.70    3.30
   7   1   7   22.00    4.50
  -8  -1  -7    1.20    1.20
  -8  -1  -7    2.50    1.50
   8   1   7    2.90    2.00
   8   1   7    1.00    1.80
  -9  -1  -7  472.55   42.00
  -9  -1  -7  534.25   42.70
   9   1   7  573.64   42.50
   9   1   7  503.25   42.50
  10  -2  -7  287.17   28.00
  10  -2  -7  355.86   28.40
  10  -2  -7  343.47   28.80
 -10   2   7  389.26   29.20
   9  -2  -7  393.76   31.80
   9  -2  -7  342.77   31.00
   9  -2  -7  372.96   32.20
  -9   2   7  405.26   32.60
   8  -2  -7  655.43   57.09
   8  -2  -7  763.82   56.09
   8  -2  -7  579.84   56.39
  -8   2   7  746.73   57.59
   7  -2  -7  133.59   12.00
   7  -2  -7  104.89   12.00
   6  -2  -7  332.57   25.10
   6  -2  -7  338.17   25.20
   6  -2  -7  308.37   26.90
   6  -2  -7  269.77   25.90
   6  -2  -7  232.98   25.20
   5  -2  -7   20.40    3.40
   5  -2  -7   22.00    4.00
   5  -2  -7   21.80    3.40
   5  -2  -7   17.40    2.80
   5  -2  -7   15.10    3.50
   5  -2  -7   14.70    3.90
   4  -2  -7  838.92   70.59
   4  -2  -7  940.71   69.59
   4  -2  -7  785.92   69.79
   4  -2  -7  898.81   69.19
   4  -2  -7  892.81   69.99
   4  -2  -7  783.72   69.79
   3  -2  -7  885.81   66.59
   3  -2  -7  833.12   66.99
   3  -2  -7  807.02   66.29
   3  -2  -7  802.82   67.09
   3  -2  -7  790.82   67.39
   2  -2  -7 1555.84  124.49
   2  -2  -7 1622.34  123.39
   2  -2  -7 1599.14  123.49
   2  -2  -7 1576.04  123.99
   2  -2  -7 1361.16  123.69
   1  -2  -7  259.47   22.30
   1  -2  -7  274.47   21.90
   1  -2  -7  271.97   21.90
   1  -2  -7  269.97   22.90
   1  -2  -7  250.17   22.30
   0  -2  -7  320.77   25.00
   0  -2  -7  297.27   24.10
   0  -2  -7  317.77   23.90
   0  -2  -7  244.78   25.20
   0  -2  -7  312.57   23.90
   0  -2  -7  286.27   24.20
   0  -2  -7  245.88   23.80
  -1  -2  -7  341.07   26.30
  -1  -2  -7  319.07   26.40
  -1  -2  -7  292.17   27.90
  -1  -2  -7  348.27   27.50
  -1  -2  -7  321.77   26.70
  -1  -2  -7  285.87   26.40
  -2  -2  -7   15.70    2.70
  -2  -2  -7   16.70    2.90
  -2  -2  -7    9.90    3.20
  -2  -2  -7   12.30    2.30
  -2  -2  -7   13.20    2.20
  -2  -2  -7   10.20    2.90
  -3  -2  -7   10.90    2.90
  -3  -2  -7   12.30    3.30
  -3  -2  -7   11.90    3.40
  -3  -2  -7   12.80    2.80
  -3  -2  -7   12.00    2.60
  -3  -2  -7   14.50    2.60
  -4  -2  -7 1417.06  117.89
  -4  -2  -7 1304.37  117.49
  -4  -2  -7 1521.25  118.99
  -4  -2  -7 1566.04  117.09
  -5  -2  -7  140.59   11.70
  -5  -2  -7  114.79   12.40
  -6  -2  -7  140.89   13.30
  -6  -2  -7  152.88   14.30
  -6  -2  -7  156.18   16.50
   6   2   7  154.98   15.50
  -7  -2  -7  520.45   42.30
  -7  -2  -7  497.85   42.40
  -7  -2  -7  504.65   41.60
   7   2   7  504.55   43.10
  -8  -2  -7  142.89   12.80
  -8  -2  -7  146.39   13.40
   8   2   7  157.38   13.90
   8   2   7  146.29   13.40
  -9  -2  -7   48.70    4.90
  -9  -2  -7   52.29    5.50
   9   2   7   56.19    5.40
   9   2   7   50.89    5.70
  10  -3  -7   61.39    6.10
  10  -3  -7   53.99    5.60
  10  -3  -7   56.99    6.30
 -10   3   7   60.79    6.60
   9  -3  -7   19.80    3.60
   9  -3  -7   20.90    4.10
   9  -3  -7   20.60    3.20
  -9   3   7   23.00    4.10
   8  -3  -7  265.27   23.70
   8  -3  -7  251.87   23.60
   8  -3  -7  261.17   22.60
   8  -3  -7  254.07   23.10
  -8   3   7  283.57   23.80
   7  -3  -7  247.88   23.00
   7  -3  -7  255.17   21.50
   7  -3  -7  214.48   22.10
   7  -3  -7  258.17   21.90
   7  -3  -7  266.87   23.80
  -7   3   7  276.27   23.30
   6  -3  -7   35.50    5.80
   6  -3  -7   43.70    5.70
   6  -3  -7   34.70    4.70
   6  -3  -7   44.70    5.20
   6  -3  -7   30.80    6.30
  -6   3   7   33.90    6.10
   5  -3  -7  615.74   52.19
   5  -3  -7  638.04   51.29
   5  -3  -7  613.34   50.59
   5  -3  -7  604.14   50.79
   5  -3  -7  653.53   50.39
  -5   3   7  571.34   51.89
   4  -3  -7 1060.29   79.99
   4  -3  -7 1037.00   80.79
   4  -3  -7 1072.19   80.29
   4  -3  -7  941.61   80.69
   4  -3  -7  829.32   80.39
   4  -3  -7 1015.30   81.59
   3  -3  -7   31.60    4.70
   3  -3  -7   35.00    3.70
   3  -3  -7   37.30    3.90
   3  -3  -7   35.40    5.00
   3  -3  -7   30.20    4.40
   2  -3  -7  207.98   18.90
   2  -3  -7  215.98   18.50
   2  -3  -7  224.58   19.60
   2  -3  -7  228.18   19.10
   2  -3  -7  228.88   18.40
   1  -3  -7   80.39    7.60
   1  -3  -7   74.99    7.10
   1  -3  -7   78.69    7.60
   1  -3  -7   78.09    8.10
   1  -3  -7   80.79    7.10
   0  -3  -7   29.90    3.20
   0  -3  -7   22.70    5.00
   0  -3  -7   28.40    3.20
   0  -3  -7   25.40    3.70
   0  -3  -7   30.30    4.10
   0  -3  -7   29.00    3.50
  -1  -3  -7  613.14   50.09
  -1  -3  -7  659.83   51.19
  -1  -3  -7  637.04   50.39
  -1  -3  -7  611.94   49.80
  -1  -3  -7  537.65   49.99
  -1  -3  -7  639.14   52.19
  -2  -3  -7 1030.90   88.79
  -2  -3  -7 1064.39   88.79
  -2  -3  -7 1173.58   90.99
  -2  -3  -7 1182.38   90.29
  -2  -3  -7 1179.18   89.49
  -2  -3  -7 1006.30   89.19
  -3  -3  -7   44.80    6.60
  -3  -3  -7   47.30    6.90
  -3  -3  -7   45.90    5.50
  -3  -3  -7   48.30    5.40
   3   3   7   43.00    5.30
  -4  -3  -7   11.40    3.60
  -4  -3  -7    7.90    2.20
  -4  -3  -7   10.10    3.10
  -4  -3  -7   12.10    3.90
  -5  -3  -7   12.60    2.60
  -5  -3  -7   30.00    6.30
  -5  -3  -7   14.70    3.50
  -5  -3  -7   24.50    4.50
   5   3   7   15.40    4.50
  -6  -3  -7   56.19    6.40
  -6  -3  -7   39.10    4.70
  -6  -3  -7   47.10    5.90
   6   3   7   37.40    6.80
  -7  -3  -7  361.76   29.40
  -7  -3  -7  357.06   30.00
  -7  -3  -7  336.57   30.20
   7   3   7  361.36   31.00
  -8  -3  -7   30.40    3.60
  -8  -3  -7   28.00    4.10
   8   3   7   36.70    5.00
   8   3   7   34.00    4.20
  -9  -3  -7    4.10    2.00
  10  -4  -7  781.72   66.89
  10  -4  -7  843.42   67.29
 -10   4   7  876.71   67.69
   9  -4  -7   73.59    7.50
   9  -4  -7   69.89    8.00
   9  -4  -7   65.39    7.70
   9  -4  -7   76.89    7.20
  -9   4   7   78.59    7.90
   8  -4  -7  256.97   23.70
   8  -4  -7  263.57   22.80
   8  -4  -7  290.57   24.40
   8  -4  -7  233.58   23.00
  -8   4   7  284.97   23.60
   7  -4  -7    8.50    2.80
   7  -4  -7    5.40    2.30
   7  -4  -7    8.80    2.40
   7  -4  -7   11.60    3.90
   7  -4  -7    9.90    3.40
  -7   4   7   13.20    3.40
   6  -4  -7   47.20    6.10
   6  -4  -7   51.69    6.60
   6  -4  -7   46.80    5.60
   6  -4  -7   41.80    5.60
   6  -4  -7   48.80    8.10
  -6   4   7   53.69    7.60
   5  -4  -7    6.90    1.90
   5  -4  -7    5.60    2.90
   5  -4  -7   10.70    2.80
   5  -4  -7   12.60    2.60
  -5   4   7    3.90    3.50
   4  -4  -7 2189.88  165.88
   4  -4  -7 2020.20  165.68
   4  -4  -7 1940.21  166.18
   4  -4  -7 2208.38  167.68
   4  -4  -7 1993.40  166.48
   3  -4  -7  118.99   10.70
   3  -4  -7  116.99   11.30
   3  -4  -7  124.89   10.80
   3  -4  -7  122.89   11.70
   3  -4  -7  126.09   12.10
   2  -4  -7 1413.26  113.59
   2  -4  -7 1376.96  113.39
   2  -4  -7 1465.95  112.79
   2  -4  -7 1308.77  112.69
   2  -4  -7 1478.95  114.29
   1  -4  -7  239.18   20.30
   1  -4  -7  239.98   19.70
   1  -4  -7  234.78   20.20
   1  -4  -7  219.58   19.60
   1  -4  -7  252.37   21.00
   0  -4  -7   13.10    2.90
   0  -4  -7   12.30    2.60
   0  -4  -7   10.70    2.40
   0  -4  -7   10.40    4.20
  -1  -4  -7    5.30    1.80
  -1  -4  -7    2.20    1.50
  -1  -4  -7    5.20    3.10
  -1  -4  -7    5.70    2.30
  -1  -4  -7    8.20    2.20
  -2  -4  -7  315.07   27.20
  -2  -4  -7  290.67   27.10
  -2  -4  -7  327.87   28.10
  -2  -4  -7  327.87   28.80
   2   4   7  343.67   27.30
  -3  -4  -7  781.12   65.49
  -3  -4  -7  847.12   65.49
  -3  -4  -7  809.72   66.69
   3   4   7  768.12   65.39
  -4  -4  -7  756.02   59.99
  -4  -4  -7  727.03   61.79
   4   4   7  717.73   60.29
  -5  -4  -7  731.93   58.49
  -5  -4  -7  734.83   57.19
   5   4   7  627.34   59.09
  -6  -4  -7    3.40    1.40
  -6  -4  -7    2.80    2.00
  -6  -4  -7    3.30    2.40
   6   4   7    2.50    2.90
  -7  -4  -7   27.80    4.30
  -7  -4  -7   25.50    4.30
  -7  -4  -7   32.30    3.80
   7   4   7   30.60    5.00
  -8  -4  -7    2.30    1.40
  -8  -4  -7    0.80    1.00
   8   4   7    3.10    2.00
   8   4   7    0.60    1.80
  10  -5  -7    4.70    1.40
 -10   5   7    4.60    1.80
   9  -5  -7  106.79    9.10
   9  -5  -7   93.99    9.90
   9  -5  -7   92.99    9.30
  -9   5   7   97.99    9.50
   8  -5  -7    2.40    1.60
   8  -5  -7    0.20    2.30
   8  -5  -7    1.10    1.90
  -8   5   7    2.20    2.00
   7  -5  -7  587.74   48.30
   7  -5  -7  497.65   46.00
  -7   5   7  589.34   46.80
   6  -5  -7  625.54   50.79
   6  -5  -7  660.13   50.89
   6  -5  -7  562.44   52.99
   6  -5  -7  605.64   50.89
  -6   5   7  642.14   51.99
   5  -5  -7    4.80    2.60
   5  -5  -7    2.40    2.30
   5  -5  -7    3.90    1.60
   5  -5  -7    3.90    1.90
   5  -5  -7    7.20    2.30
   4  -5  -7  161.08   16.50
   4  -5  -7  181.38   15.80
   4  -5  -7  163.98   14.80
   4  -5  -7  186.78   16.00
   3  -5  -7   12.20    2.80
   3  -5  -7   12.60    2.20
   3  -5  -7   13.90    3.20
   3  -5  -7   10.50    3.10
   2  -5  -7  116.59   11.00
   2  -5  -7  119.09   11.60
   2  -5  -7  114.99   10.30
   1  -5  -7  503.45   40.20
   1  -5  -7  458.75   40.80
   1  -5  -7  513.25   41.50
   1  -5  -7  493.55   40.80
   0  -5  -7  499.75   39.30
   0  -5  -7  395.76   38.30
   0  -5  -7  474.45   41.10
   0  -5  -7  495.05   38.60
  -1  -5  -7   18.30    3.30
  -1  -5  -7   16.30    3.50
  -1  -5  -7   12.30    2.70
  -1  -5  -7   15.40    4.70
   1   5   7   23.40    3.70
  -2  -5  -7  450.35   40.20
  -2  -5  -7  500.05   42.10
  -2  -5  -7  470.45   40.20
  -2  -5  -7  489.15   41.10
   2   5   7  511.15   40.50
  -3  -5  -7  104.99   12.00
  -3  -5  -7  121.39   11.10
  -3  -5  -7  112.99   12.30
  -3  -5  -7  112.49   11.00
   3   5   7  120.29   11.50
  -4  -5  -7  112.09   12.70
  -4  -5  -7  142.09   12.00
   4   5   7  130.09   12.60
   4   5   7  120.69   13.90
  -5  -5  -7   21.80    3.20
  -5  -5  -7   14.90    3.60
   5   5   7   11.60    4.20
  -6  -5  -7   35.30    5.40
  -6  -5  -7   40.20    4.40
  -6  -5  -7   37.20    5.20
   6   5   7   38.50    6.40
  -7  -5  -7   11.20    2.50
  -7  -5  -7    8.80    2.50
  -7  -5  -7   12.00    2.10
   7   5   7   13.00    3.00
   9  -6  -7   42.00    5.30
   9  -6  -7   32.80    4.50
   9  -6  -7   40.00    4.40
  -9   6   7   40.90    5.00
   8  -6  -7   12.60    2.60
   8  -6  -7   10.50    2.90
   8  -6  -7   15.10    3.70
  -8   6   7   13.20    3.00
   7  -6  -7   52.09    6.50
   7  -6  -7   70.09    8.70
   7  -6  -7   58.59    6.30
  -7   6   7   53.49    7.30
   6  -6  -7  196.78   20.90
   6  -6  -7  259.57   19.60
   6  -6  -7  194.98   20.70
   6  -6  -7  207.48   18.70
   5  -6  -7   59.19    8.20
   5  -6  -7   53.99    7.50
   5  -6  -7   70.29    7.40
   4  -6  -7  837.22   67.79
   3  -6  -7  461.35   35.90
   3  -6  -7  386.86   37.20
   3  -6  -7  468.55   36.90
   2  -6  -7    3.40    1.30
   2  -6  -7    2.00    1.80
   2  -6  -7    2.10    1.80
   2  -6  -7    2.60    1.70
   1  -6  -7    2.20    1.50
   1  -6  -7    3.30    1.80
   0  -6  -7   80.59    8.20
   0  -6  -7  115.79   12.00
   0   6   7   71.49    8.40
  -1  -6  -7    3.30    3.20
  -1  -6  -7    0.80    2.00
  -1  -6  -7   -0.50    1.20
  -1  -6  -7    0.90    2.00
   1   6   7    0.50    1.60
  -2  -6  -7  351.96   33.20
  -2  -6  -7  370.46   31.70
  -2  -6  -7  364.16   31.50
   2   6   7  408.96   32.20
  -3  -6  -7 1474.25  107.69
  -3  -6  -7 1335.67  107.59
  -3  -6  -7 1136.09  108.49
   3   6   7 1375.46  108.19
  -4  -6  -7    3.30    2.20
  -4  -6  -7    0.90    1.50
   4   6   7   -1.20    3.10
   4   6   7    1.00    2.40
  -5  -6  -7  225.38   19.70
  -5  -6  -7  248.78   18.70
   5   6   7  212.28   20.40
   5   6   7  179.68   19.10
  -6  -6  -7   46.80    4.90
  -6  -6  -7   44.50    5.60
   6   6   7   56.49    6.60
  -7  -6  -7    7.60    1.90
   9  -7  -7  465.05   37.90
   8  -7  -7  232.58   19.00
   8  -7  -7  207.48   17.40
  -8   7   7  171.68   17.60
   7  -7  -7   49.00    5.60
   7  -7  -7   49.40    7.30
   6  -7  -7  520.15   42.80
   6  -7  -7  520.55   45.00
   6  -7  -7  517.75   43.30
   5  -7  -7    0.90    2.30
   5  -7  -7    4.90    1.70
   5  -7  -7    5.30    2.40
   4  -7  -7    9.20    2.00
   4  -7  -7    6.80    2.70
   4  -7  -7    7.20    2.90
   3  -7  -7  267.27   23.20
   3  -7  -7  260.77   21.50
   3  -7  -7  237.88   22.40
   2  -7  -7  334.07   31.60
   2  -7  -7  388.16   32.40
  -2   7   7  407.16   32.30
   1  -7  -7  145.89   13.00
   1  -7  -7  115.09   12.00
  -1   7   7  132.89   12.60
   0  -7  -7  476.55   38.60
   0  -7  -7  483.75   41.00
   0   7   7  410.06   38.20
  -1  -7  -7  148.19   13.30
  -1  -7  -7  155.58   16.10
   1   7   7  138.59   13.90
  -2  -7  -7   23.90    5.50
  -2  -7  -7   23.50    4.00
  -2  -7  -7   27.80    4.00
   2   7   7   25.70    4.70
  -3  -7  -7    5.60    2.20
  -3  -7  -7    5.40    2.30
  -3  -7  -7    7.10    2.90
   3   7   7    8.70    3.90
   3   7   7    7.30    3.00
  -4  -7  -7   15.10    3.60
  -4  -7  -7   21.30    3.20
   4   7   7   18.20    3.90
   4   7   7   17.70    4.70
  -5  -7  -7   43.00    4.30
  -5  -7  -7   37.10    4.90
   5   7   7   30.70    5.00
   5   7   7   37.20    5.80
   8  -8  -7   20.90    3.70
   8  -8  -7   14.90    3.20
   7  -8  -7    2.30    2.20
   7  -8  -7    1.00    2.00
   7  -8  -7    1.40    1.50
   6  -8  -7  109.89   10.10
   6  -8  -7  115.19   10.70
   6  -8  -7  102.79   11.70
   5  -8  -7  695.53   55.09
   5  -8  -7  667.73   55.89
   5  -8  -7  633.94   53.99
   4  -8  -7    9.20    2.90
   4  -8  -7    5.60    1.70
   4  -8  -7    8.70    3.10
  -4   8   7    6.10    3.10
   3  -8  -7  107.89   11.70
   3  -8  -7  114.89   11.30
  -3   8   7  133.69   12.20
   2  -8  -7    9.30    2.90
   2  -8  -7   13.40    2.90
  -2   8   7   12.70    3.40
   1  -8  -7   76.79    8.70
   1  -8  -7   85.09    8.30
  -1   8   7   86.39    9.10
   0  -8  -7  153.68   16.00
   0  -8  -7  131.39   12.80
   0   8   7  145.99   13.70
  -1  -8  -7  220.98   21.10
  -1  -8  -7  209.68   18.80
   1   8   7  220.38   19.70
  -2  -8  -7   49.00    7.30
  -2  -8  -7   47.40    5.30
   2   8   7   29.90    6.50
   2   8   7   48.80    6.60
  -3  -8  -7  324.97   24.80
  -3  -8  -7  323.37   26.10
   3   8   7  243.08   25.80
   3   8   7  281.17   25.60
  -4  -8  -7   33.40    4.00
  -4  -8  -7   35.10    5.00
   4   8   7   28.30    5.00
   4   8   7   31.20    4.80
   6  -9  -7   31.80    4.10
   6  -9  -7   41.10    4.80
   6  -9  -7   33.90    5.50
   5  -9  -7    8.30    2.60
   5  -9  -7    9.30    3.00
   4  -9  -7   85.59    9.50
   4  -9  -7   92.99    9.10
   3  -9  -7   69.19    7.10
   3  -9  -7   54.89    7.20
  -3   9   7   73.99    8.30
   2  -9  -7  516.05   44.80
  -2   9   7  576.04   45.90
   1  -9  -7   33.30    4.50
  -1   9   7   32.60    5.30
   0  -9  -7   41.80    7.10
   0  -9  -7   38.20    4.60
   0   9   7   34.70    5.70
  -1  -9  -7    4.30    3.10
  -1  -9  -7    8.00    2.30
   1   9   7    6.30    2.80
  -2  -9  -7    6.50    2.80
   2   9   7    6.40    2.60
   4 -10  -7  182.58   16.10
   3 -10  -7   21.00    3.50
   2 -10  -7   51.19    5.70
  -2  10   7   54.99    7.30
   1 -10  -7   67.59    6.80
   0  10   7  113.59   11.50
  -1 -11   8    4.40    2.70
   0 -11   8    9.00    3.30
   1 -11   8   17.30    3.50
   1 -11   8   22.50    4.60
  -2  11  -8  149.99   14.90
   2 -11   8  209.48   16.30
  -3  11  -8   12.30    2.70
   3 -11   8   22.20    4.00
   4 -11   8  436.96   37.10
   3  10  -8    2.90    2.30
  -3 -10   8    3.20    2.60
   2  10  -8   73.09    8.20
  -2 -10   8   72.49    8.70
   1  10  -8  125.29   12.60
   1  10  -8  115.89   12.50
  -1 -10   8  143.39   13.10
   0  10  -8    8.10    3.10
   0  10  -8   12.20    2.10
   0 -10   8   15.80    3.20
  -1  10  -8   28.90    3.60
   1 -10   8   30.10    4.70
  -2  10  -8  212.78   19.00
  -2  10  -8  229.18   20.10
   2 -10   8  244.18   20.70
  -3  10  -8   -0.30    1.20
  -3  10  -8    3.00    2.60
  -3  10  -8    3.00    1.70
   3 -10   8    1.70    2.60
  -4  10  -8   15.10    2.50
  -4  10  -8   13.00    3.00
  -4  10  -8   13.60    3.20
   4 -10   8   12.40    3.90
  -5  10  -8   65.79    7.50
  -5  10  -8   82.89    8.00
  -5  10  -8   69.79    7.20
   5 -10   8   85.99    9.00
  -6  10  -8   -0.40    1.30
   6 -10   8    4.70    2.40
   5   9  -8  123.99   10.50
  -5  -9   8  103.09   11.60
   4   9  -8  682.43   53.59
  -4  -9   8  621.64   54.29
   3   9  -8   52.69    6.40
   3   9  -8   37.90    5.00
  -3  -9   8   44.10    6.60
   2   9  -8    0.60    1.50
   2   9  -8    0.60    2.40
  -2  -9   8    1.50    2.50
   1   9  -8   -0.80    2.40
   1   9  -8    2.80    1.40
   0   9  -8   74.59    8.20
   0   9  -8   69.49    7.50
   0   9  -8   70.89    6.70
   0  -9   8   64.79    7.70
  -1   9  -8  109.59   10.70
  -1   9  -8  112.19    9.90
   1  -9   8  106.29   11.00
  -2   9  -8  575.84   47.40
  -2   9  -8  556.04   47.40
  -2   9  -8  565.14   46.60
   2  -9   8  597.64   48.20
  -3   9  -8  130.49   12.60
  -3   9  -8  153.58   13.70
  -3   9  -8  135.69   13.50
   3  -9   8  168.08   15.10
  -4   9  -8  279.37   23.30
  -4   9  -8  258.87   23.80
  -4   9  -8  293.57   24.30
  -5   9  -8  128.29   11.60
  -5   9  -8  127.29   12.30
  -5   9  -8  127.69   11.80
   5  -9   8  129.89   13.90
  -6   9  -8   11.10    2.70
  -6   9  -8   14.40    2.50
  -6   9  -8    9.20    2.30
   6  -9   8   10.10    2.90
  -7   9  -8   46.90    5.00
   7  -9   8   49.70    5.40
   7  -9   8   45.90    5.90
   6   8  -8  207.78   18.30
   6   8  -8  222.68   18.50
   5   8  -8    0.90    2.70
   5   8  -8    2.70    1.90
   5   8  -8    2.20    2.20
  -5  -8   8    2.70    3.30
   4   8  -8   60.79    6.70
   4   8  -8   78.69    7.50
   4   8  -8   53.59    7.20
  -4  -8   8   64.99    8.40
   3   8  -8  808.92   70.39
   3   8  -8  898.51   71.79
  -3  -8   8  921.01   72.19
   2   8  -8    3.60    1.50
   1   8  -8  569.44   44.70
   1   8  -8  531.85   46.20
   1   8  -8  538.45   45.20
   0   8  -8   65.39    5.80
   0   8  -8   44.20    6.10
   0   8  -8   65.09    7.70
   0  -8   8   50.99    6.40
  -1   8  -8   65.69    6.90
  -1   8  -8   58.99    6.70
  -1   8  -8   68.99    6.40
   1  -8   8   65.59    7.70
  -2   8  -8   34.90    3.90
  -2   8  -8   34.10    4.70
  -2   8  -8   28.30    4.50
  -3   8  -8  180.98   16.50
  -3   8  -8  188.18   16.80
  -4   8  -8    2.20    1.40
  -4   8  -8    0.40    2.00
  -4   8  -8    3.60    1.90
   4  -8   8   -2.30    2.50
  -5   8  -8  438.66   35.50
  -5   8  -8  434.86   36.10
  -5   8  -8  415.56   35.50
   5  -8   8  420.46   36.20
  -6   8  -8  214.88   19.80
  -6   8  -8  234.78   20.20
  -6   8  -8  237.98   20.40
   6  -8   8  258.27   20.90
  -7   8  -8    5.70    1.80
   7  -8   8    4.00    2.00
  -8   8  -8   21.70    3.00
   8  -8   8   27.40    3.60
   7   7  -8  191.68   17.00
   7   7  -8  208.98   17.20
   6   7  -8  500.35   40.30
   6   7  -8  477.25   40.40
   5   7  -8  287.47   24.40
   5   7  -8  267.17   23.90
   5   7  -8  314.07   24.30
  -5  -7   8  252.07   25.00
   4   7  -8  137.49   14.50
   4   7  -8  161.18   13.90
   4   7  -8  155.78   14.50
  -4  -7   8  171.08   15.50
   3   7  -8   11.10    3.40
   3   7  -8   11.90    3.20
   3   7  -8   14.30    2.50
  -3  -7   8   14.50    4.00
   2   7  -8    2.50    2.60
   2   7  -8    1.60    1.20
   2   7  -8    1.20    1.70
   1   7  -8  286.17   25.70
   1   7  -8  289.07   24.00
   1   7  -8  287.67   24.30
   0   7  -8  533.45   44.00
   0   7  -8  539.75   44.40
   0   7  -8  551.54   45.30
  -1   7  -8   54.29    5.20
  -1   7  -8   37.90    4.50
  -2   7  -8   96.69    9.30
  -2   7  -8  118.49    9.90
  -2   7  -8   82.99    8.70
  -3   7  -8  346.27   30.00
  -3   7  -8  364.36   29.50
  -4   7  -8   15.70    3.40
  -4   7  -8   15.10    2.70
  -4   7  -8   12.90    2.90
   4  -7   8   14.90    3.90
  -5   7  -8   15.50    2.90
  -5   7  -8    8.50    2.40
  -5   7  -8   11.00    3.20
   5  -7   8   15.70    3.90
  -6   7  -8  198.38   17.80
  -6   7  -8  204.68   18.10
   6  -7   8  222.28   18.90
  -7   7  -8    6.50    1.80
  -7   7  -8    7.40    2.10
   7  -7   8    7.80    2.50
  -8   7  -8  328.37   26.90
   8  -7   8  321.47   27.20
   8   6  -8   68.39    6.60
   7   6  -8    2.60    1.70
   7   6  -8    3.50    2.30
   7   6  -8    5.60    1.90
   6   6  -8   10.00    2.60
   6   6  -8   11.40    2.60
   6   6  -8    8.90    3.00
   5   6  -8  159.28   14.30
   5   6  -8  155.48   14.40
   5   6  -8  162.58   14.90
  -5  -6   8  148.99   15.50
   4   6  -8    3.90    2.30
   4   6  -8    4.30    1.60
   4   6  -8    3.70    2.10
  -4  -6   8   -1.70    2.60
   3   6  -8  938.21   71.69
   3   6  -8  843.62   72.49
   3   6  -8  873.21   71.79
   2   6  -8 1141.59   89.99
   2   6  -8 1048.50   91.99
   2   6  -8 1154.58   90.19
   1   6  -8  351.16   33.00
   1   6  -8  441.96   35.00
   1   6  -8  437.26   33.50
   0   6  -8  108.99   10.50
   0   6  -8  112.19    9.40
   0   6  -8   89.69    9.00
  -1   6  -8   -1.10    2.80
  -1   6  -8    0.60    1.00
  -1   6  -8    4.10    1.40
  -1   6  -8    1.20    1.40
  -2   6  -8    7.70    1.90
  -2   6  -8    1.10    1.00
  -2   6  -8    1.20    1.60
  -3   6  -8  634.74   49.20
  -3   6  -8  497.65   45.70
  -3   6  -8  573.34   46.60
  -4   6  -8  935.21   77.09
  -4   6  -8  944.51   76.39
  -4   6  -8  849.61   76.69
  -4   6  -8 1057.69   79.29
  -5   6  -8   24.20    3.90
  -5   6  -8   26.20    4.10
  -5   6  -8   34.50    6.50
  -6   6  -8  276.47   23.30
  -6   6  -8  271.67   23.50
  -7   6  -8   45.30    5.50
  -7   6  -8   42.60    4.80
   7  -6   8   49.50    6.30
  -8   6  -8   33.70    4.00
   8  -6   8   30.70    4.40
  -9   6  -8   98.69    9.40
   9  -6   8  122.29   10.00
   8   5  -8  389.86   34.30
   8   5  -8  452.35   34.80
   7   5  -8   69.59    6.80
   7   5  -8   63.79    6.90
   7   5  -8   59.69    7.20
   6   5  -8  238.48   19.40
   6   5  -8  220.48   19.70
   6   5  -8  203.08   19.50
   5   5  -8  276.67   26.40
   5   5  -8  336.77   26.60
   5   5  -8  321.07   27.20
   4   5  -8   71.09    7.80
   4   5  -8   56.69    7.60
   4   5  -8   62.69    6.50
  -4  -5   8   63.69    8.20
   3   5  -8   94.49    9.80
   3   5  -8   88.99    9.80
   3   5  -8   87.59    8.60
   3   5  -8  103.99    8.90
   2   5  -8  582.64   46.20
   2   5  -8  520.65   46.60
   2   5  -8  587.24   46.20
   2   5  -8  581.54   47.70
   1   5  -8   30.20    4.90
   1   5  -8   24.10    3.20
   1   5  -8   27.30    3.50
   0   5  -8  775.92   68.69
   0   5  -8  906.41   68.89
   0   5  -8  852.61   69.49
   0   5  -8  876.21   68.69
  -1   5  -8  358.56   30.70
  -1   5  -8  403.36   30.60
  -1   5  -8  386.76   30.30
  -1   5  -8  354.26   30.50
  -1   5  -8  340.97   30.70
  -2   5  -8  198.88   17.30
  -2   5  -8  206.68   17.70
  -2   5  -8  177.18   20.30
  -2   5  -8  229.48   17.80
  -2   5  -8  211.68   18.00
  -3   5  -8   44.80    5.90
  -3   5  -8   48.80    5.30
  -3   5  -8   46.00    4.80
  -3   5  -8   47.90    8.40
  -4   5  -8    4.10    3.70
  -4   5  -8    3.00    1.60
  -4   5  -8    7.00    1.80
  -5   5  -8   23.90    5.80
  -5   5  -8   28.10    3.90
  -5   5  -8   22.10    3.60
  -6   5  -8  737.73   62.69
  -6   5  -8  710.63   60.49
  -6   5  -8  770.32   60.29
  -7   5  -8  282.07   23.10
  -7   5  -8  290.87   25.30
  -7   5  -8  245.48   22.60
  -8   5  -8    0.10    1.10
  -8   5  -8    1.00    1.50
   8  -5   8   -0.10    1.60
   9  -5   8   17.80    3.00
   9  -5   8   19.50    2.70
  -9  -4   8    1.30    2.20
   8   4  -8    0.60    1.50
   8   4  -8    1.90    1.80
   8   4  -8    4.20    2.50
   7   4  -8   11.50    2.60
   7   4  -8   14.40    3.40
   7   4  -8    9.10    3.50
   7   4  -8   10.40    2.50
   6   4  -8   75.99    8.00
   6   4  -8   82.99    7.80
   6   4  -8   62.29    7.70
   5   4  -8 1311.27   99.09
   5   4  -8 1122.89   98.19
   4   4  -8  882.01   73.99
   4   4  -8  963.10   74.49
   4   4  -8  874.11   73.29
   3   4  -8  192.68   16.50
   3   4  -8  236.08   17.80
   3   4  -8  216.18   18.00
   3   4  -8  154.88   16.30
   2   4  -8  894.21   72.09
   2   4  -8  896.91   71.49
   2   4  -8  854.41   72.79
   2   4  -8 1004.80   71.69
   2   4  -8  794.22   71.49
   1   4  -8   15.60    2.40
   1   4  -8   16.70    2.50
   1   4  -8   19.50    3.80
   1   4  -8   18.10    2.50
   0   4  -8  121.49   11.70
   0   4  -8  133.29   11.10
   0   4  -8  122.79   11.10
   0   4  -8  128.89   11.00
  -1   4  -8  864.51   68.29
  -1   4  -8  928.21   68.39
  -1   4  -8  753.42   68.29
  -1   4  -8  769.62   68.29
  -1   4  -8  916.51   68.09
  -2   4  -8  554.04   46.00
  -2   4  -8  529.25   46.20
  -2   4  -8  567.64   45.70
  -2   4  -8  607.84   46.10
  -3   4  -8  271.57   20.30
  -3   4  -8  247.68   19.70
  -3   4  -8  223.38   19.90
  -3   4  -8  188.98   22.20
  -4   4  -8 1387.96  119.39
  -4   4  -8 1585.24  119.19
  -4   4  -8 1477.75  122.49
  -5   4  -8  317.57   25.70
  -5   4  -8  260.87   28.00
  -5   4  -8  321.37   25.80
   5  -4   8  312.27   25.80
  -6   4  -8   82.39    9.20
  -6   4  -8  103.49    9.10
   6  -4   8   96.79    9.20
  -7   4  -8   22.10    5.40
  -7   4  -8   40.80    4.70
  -7   4  -8   31.80    3.90
   7  -4   8   29.80    4.10
  -8   4  -8  489.65   43.00
   8  -4   8  574.84   43.40
   9  -4   8  222.68   19.20
   9  -4   8  223.68   18.70
   9   3  -8   33.80    4.70
   8   3  -8  373.66   32.10
   8   3  -8  414.86   32.60
   8   3  -8  382.36   33.30
   7   3  -8  618.44   52.89
   7   3  -8  583.04   52.59
   7   3  -8  698.53   52.39
   7   3  -8  660.73   53.69
   6   3  -8   86.89    7.40
   6   3  -8   53.89    7.60
   6   3  -8   57.89    7.20
   6   3  -8   69.39    7.60
   6   3  -8   68.89    8.30
   5   3  -8   48.10    5.00
   5   3  -8   26.00    4.50
   5   3  -8   44.10    5.90
   5   3  -8   30.00    5.30
   5   3  -8   42.70    5.20
   4   3  -8   18.90    3.70
   4   3  -8   20.00    3.60
   4   3  -8   14.00    3.10
   4   3  -8   12.60    2.50
   4   3  -8   13.80    2.50
   3   3  -8   10.40    2.00
   3   3  -8    4.40    2.30
   3   3  -8    6.90    1.80
   3   3  -8    8.30    2.40
   2   3  -8  502.45   42.30
   2   3  -8  575.24   42.60
   2   3  -8  480.25   43.50
   2   3  -8  511.95   42.50
   2   3  -8  539.15   43.00
   1   3  -8  707.33   58.39
   1   3  -8  750.82   58.29
   1   3  -8  715.83   59.19
   1   3  -8  717.63   58.29
   0   3  -8  111.69   12.70
   0   3  -8  117.29   11.00
   0   3  -8  123.99   10.60
   0   3  -8  124.59   10.50
   0   3  -8  123.09   10.50
  -1   3  -8  365.86   29.20
  -1   3  -8  360.06   29.20
  -1   3  -8  336.17   29.20
  -1   3  -8  338.67   31.30
  -1   3  -8  369.56   29.00
  -2   3  -8   35.00    6.70
  -2   3  -8   33.70    3.80
  -2   3  -8   37.20    4.10
  -2   3  -8   39.60    4.20
  -3   3  -8  152.48   13.00
  -3   3  -8  131.19   15.40
  -3   3  -8  158.88   13.10
  -3   3  -8  140.29   12.50
  -4   3  -8  195.38   17.40
  -4   3  -8  228.18   18.20
  -4   3  -8  206.38   17.10
  -4   3  -8  167.88   19.70
  -5   3  -8  168.48   20.80
  -5   3  -8  244.68   18.70
  -5   3  -8  224.58   19.60
  -5   3  -8  218.88   18.60
  -6   3  -8   19.00    3.30
  -6   3  -8    8.80    3.00
  -6   3  -8   18.90    3.00
  -6   3  -8   13.90    4.60
   6  -3   8   26.70    3.80
  -7   3  -8  213.88   17.40
  -7   3  -8  189.28   18.30
   7  -3   8  203.08   17.70
  -8   3  -8  109.99   10.50
  -8   3  -8  138.99   13.10
  -8   3  -8  122.59   11.60
   8  -3   8  117.89   10.90
   9  -3   8  126.59   11.10
 -10  -2   8  112.99   11.30
   9   2  -8   16.60    3.00
  -9  -2   8   -2.20    2.00
   8   2  -8   76.29    7.60
   8   2  -8   87.69    8.40
   8   2  -8   78.89    9.00
   7   2  -8  619.64   55.59
   7   2  -8  690.13   56.69
   7   2  -8  699.63   54.99
   7   2  -8  684.43   55.59
   6   2  -8  157.18   13.80
   6   2  -8  163.78   15.20
   6   2  -8  142.59   14.00
   5   2  -8  237.68   21.90
   5   2  -8  251.17   21.30
   5   2  -8  255.37   21.50
   4   2  -8 1298.97  111.49
   4   2  -8 1361.46  111.69
   4   2  -8 1485.15  111.19
   4   2  -8 1339.97  110.99
   4   2  -8 1430.26  111.99
   3   2  -8   29.70    4.30
   3   2  -8   30.30    3.80
   3   2  -8   34.00    4.00
   3   2  -8   22.30    4.20
   3   2  -8   33.10    4.50
   2   2  -8    1.00    1.70
   2   2  -8    2.60    1.00
   2   2  -8    2.90    1.20
   2   2  -8    2.60    1.50
   1   2  -8  566.54   46.10
   1   2  -8  562.94   45.90
   1   2  -8  612.84   46.90
   1   2  -8  518.85   47.30
   1   2  -8  587.14   46.00
   0   2  -8  199.18   17.20
   0   2  -8  200.28   16.80
   0   2  -8  194.98   16.70
   0   2  -8  223.58   17.10
   0   2  -8  190.18   18.40
  -1   2  -8  827.52   68.49
  -1   2  -8  840.72   66.69
  -1   2  -8  781.02   66.39
  -1   2  -8  762.12   66.69
  -1   2  -8  931.61   66.89
  -2   2  -8 1065.99   93.49
  -2   2  -8 1164.88   95.99
  -2   2  -8 1311.67   93.99
  -2   2  -8 1136.99   93.89
  -3   2  -8   37.10    4.50
  -3   2  -8   37.90    6.80
  -3   2  -8   34.70    4.10
  -3   2  -8   36.30    4.20
  -3   2  -8   30.80    3.70
  -4   2  -8  103.49   11.20
  -4   2  -8  159.48   14.90
  -4   2  -8  125.09   11.50
  -5   2  -8  122.39   12.50
  -5   2  -8  127.89   11.60
  -6   2  -8  191.38   19.10
  -6   2  -8  226.88   18.30
  -7   2  -8  159.78   13.10
  -7   2  -8  166.48   16.00
  -7   2  -8  112.69   13.60
   7  -2   8  160.98   13.60
  -8   2  -8  782.82   67.19
  -8   2  -8  925.11   69.89
  -8   2  -8  839.52   68.09
   8  -2   8  800.02   67.59
  -9   2  -8    8.70    1.70
  -9   2  -8   10.10    2.30
   9  -2   8   11.70    2.10
  10   1  -8  818.82   67.99
 -10  -1   8  859.41   68.39
   9   1  -8 1463.35  117.09
   9   1  -8 1430.96  116.29
   8   1  -8   43.70    5.40
   8   1  -8   59.49    6.40
   8   1  -8   54.69    6.90
   7   1  -8  144.89   13.10
   7   1  -8  147.49   14.80
   7   1  -8  149.69   13.90
   6   1  -8    1.20    1.50
   6   1  -8    3.20    2.20
   6   1  -8    1.10    1.70
   6   1  -8    3.20    2.40
   5   1  -8    5.00    2.00
   5   1  -8    2.20    1.60
   5   1  -8    4.20    2.10
   5   1  -8    6.90    2.50
   4   1  -8   56.29    6.20
   4   1  -8   52.09    5.80
   4   1  -8   59.19    5.80
   4   1  -8   51.09    6.10
   3   1  -8  998.60   79.29
   3   1  -8  909.11   79.59
   3   1  -8 1003.50   78.89
   3   1  -8  996.60   78.89
   2   1  -8  103.29    9.70
   2   1  -8   87.59    9.80
   2   1  -8   97.49    9.30
   2   1  -8  114.89    9.10
   2   1  -8   98.99    8.80
   1   1  -8  952.70   79.09
   1   1  -8  863.01   79.29
   1   1  -8  965.20   80.39
   1   1  -8 1028.80   79.79
   1   1  -8 1130.49   79.49
   0   1  -8  512.15   40.50
   0   1  -8  424.16   38.80
   0   1  -8  454.75   39.00
   0   1  -8  479.95   39.30
   0   1  -8  543.35   39.30
  -1   1  -8    3.10    1.50
  -1   1  -8    4.80    2.20
  -1   1  -8    4.00    1.20
  -1   1  -8    6.10    1.50
  -1   1  -8    1.60    1.60
  -2   1  -8  113.69    9.40
  -2   1  -8  106.59   11.10
  -2   1  -8   98.89    9.40
  -2   1  -8   94.79    9.40
  -3   1  -8  308.87   27.40
  -3   1  -8  320.27   25.40
  -3   1  -8  279.37   25.50
  -3   1  -8  299.97   25.50
  -4   1  -8   13.40    2.90
  -4   1  -8   10.50    3.90
  -4   1  -8   18.10    3.60
  -4   1  -8   13.70    2.70
  -5   1  -8  512.15   49.70
  -5   1  -8  633.24   47.40
  -6   1  -8  376.86   31.50
  -6   1  -8  304.27   27.90
  -7   1  -8    1.80    2.80
  -7   1  -8    6.40    2.30
  -7   1  -8    3.40    1.50
  -8   1  -8    6.80    2.20
  -8   1  -8    7.60    1.70
  -8   1  -8    4.70    3.20
   8  -1   8    6.90    2.20
  -9   1  -8    1.70    1.00
  -9   1  -8    2.70    1.40
   9  -1   8    1.00    1.30
  10   0  -8    1.90    1.80
  10   0  -8    4.10    1.60
 -10   0   8    4.40    2.10
   9   0  -8  154.78   14.80
   9   0  -8  157.68   14.20
  -9   0   8  169.68   15.40
   8   0  -8  144.39   15.20
   8   0  -8  174.98   14.80
   7   0  -8  545.45   42.20
   7   0  -8  408.36   42.30
   7   0  -8  548.25   41.10
   6   0  -8 1424.76  110.59
   6   0  -8 1295.27  110.29
   6   0  -8 1392.36  109.89
   6   0  -8 1345.87  111.19
   5   0  -8  182.28   15.00
   5   0  -8  127.19   13.70
   5   0  -8  135.19   13.40
   5   0  -8  175.88   14.20
   5   0  -8  173.18   14.50
   4   0  -8   73.49    6.90
   4   0  -8   60.09    7.50
   4   0  -8   62.09    6.90
   4   0  -8   65.49    7.00
   4   0  -8   59.39    6.00
   4   0  -8   62.79    6.40
   3   0  -8   25.10    3.40
   3   0  -8   22.30    3.80
   3   0  -8   21.30    3.50
   3   0  -8   19.60    3.80
   3   0  -8   20.70    3.00
   3   0  -8   23.70    2.90
   2   0  -8   99.59    8.10
   2   0  -8   89.19    8.70
   2   0  -8   84.49    7.70
   2   0  -8   85.69    7.90
   2   0  -8   80.29    8.80
   1   0  -8  782.92   57.39
   1   0  -8  707.63   57.09
   1   0  -8  735.73   57.69
   1   0  -8  697.33   58.29
   1   0  -8  619.34   57.79
   0   0  -8 1585.14  115.69
   0   0  -8 1452.95  115.79
   0   0  -8 1527.05  116.99
   0   0  -8 1322.47  116.19
   0   0  -8 1331.07  115.49
  -1   0  -8    3.20    1.40
  -1   0  -8    4.00    2.20
  -1   0  -8    4.80    1.90
  -1   0  -8    2.90    1.50
  -1   0  -8    7.40    1.60
  -2   0  -8  751.52   56.99
  -2   0  -8  648.94   58.09
  -2   0  -8  729.93   58.59
  -2   0  -8  673.23   56.99
  -3   0  -8   62.39    7.10
  -3   0  -8   70.49    8.50
  -3   0  -8   64.79    6.90
  -3   0  -8   69.89    6.80
  -3   0  -8   71.59    8.00
  -4   0  -8  161.28   15.20
  -4   0  -8  181.88   16.20
  -4   0  -8  168.88   17.20
  -4   0  -8  169.08   15.20
  -4   0  -8  172.08   15.80
  -5   0  -8   43.30    8.20
  -5   0  -8   40.80    5.50
  -5   0  -8   36.70    5.10
  -5   0  -8   53.49    6.80
   5   0   8   43.30    6.80
  -6   0  -8  457.55   40.50
  -6   0  -8  544.35   44.20
   6   0   8  488.25   41.90
  -7   0  -8   62.69    7.00
  -7   0  -8   64.39    9.00
  -7   0  -8   59.59    6.00
   7   0   8   50.39    7.00
  -8   0  -8  494.15   40.60
  -8   0  -8  475.95   39.90
  -8   0  -8  499.05   41.90
  -9   0  -8  101.19    9.40
  -9   0  -8  112.99   10.00
   9   0   8  114.59    9.80
  10  -1  -8   21.70    3.40
  10  -1  -8   18.80    2.80
 -10   1   8   23.10    3.70
   9  -1  -8  808.82   64.69
   9  -1  -8  773.52   65.19
  -9   1   8  797.82   65.39
   8  -1  -8   71.99    8.40
   8  -1  -8   69.19    7.90
   7  -1  -8    8.30    2.20
   7  -1  -8    8.70    3.10
   7  -1  -8    5.10    2.40
   7  -1  -8    7.10    2.30
  -7   1   8    1.10    2.20
   6  -1  -8  476.65   49.99
   6  -1  -8  699.53   50.19
   6  -1  -8  643.74   49.40
   6  -1  -8  608.34   49.20
   5  -1  -8  331.07   26.10
   5  -1  -8  314.87   27.80
   5  -1  -8  253.57   26.20
   5  -1  -8  305.97   27.10
   5  -1  -8  330.37   26.90
   5  -1  -8  348.57   26.70
   4  -1  -8    9.30    2.50
   4  -1  -8   11.70    3.40
   4  -1  -8   13.70    2.20
   4  -1  -8   15.50    3.30
   4  -1  -8    9.70    2.30
   4  -1  -8   11.20    2.70
   3  -1  -8 1011.40   84.79
   3  -1  -8 1050.79   85.49
   3  -1  -8 1183.78   84.49
   3  -1  -8  966.10   84.49
   3  -1  -8 1044.80   84.99
   3  -1  -8 1027.30   84.09
   2  -1  -8 1098.09   84.59
   2  -1  -8 1028.90   85.59
   2  -1  -8 1041.70   84.99
   2  -1  -8 1036.20   84.39
   1  -1  -8  260.17   23.30
   1  -1  -8  285.97   22.80
   1  -1  -8  280.27   23.80
   1  -1  -8  262.77   23.00
   1  -1  -8  277.17   22.60
   0  -1  -8   97.29    9.40
   0  -1  -8   95.59    8.20
   0  -1  -8  107.79    9.10
   0  -1  -8   87.39    8.40
   0  -1  -8   74.29    8.00
  -1  -1  -8  168.78   13.60
  -1  -1  -8  151.48   13.50
  -1  -1  -8  168.28   14.90
  -1  -1  -8  153.48   13.50
  -1  -1  -8  136.29   14.70
  -1  -1  -8  158.08   14.20
  -2  -1  -8  198.08   16.70
  -2  -1  -8  182.48   16.90
  -2  -1  -8  199.88   18.30
  -2  -1  -8  201.48   18.20
  -3  -1  -8  429.16   35.50
  -3  -1  -8  408.46   33.60
  -3  -1  -8  339.97   33.60
  -3  -1  -8  420.96   33.90
  -3  -1  -8  440.26   35.10
  -4  -1  -8  762.42   62.79
  -4  -1  -8  724.33   62.19
  -4  -1  -8  844.92   64.79
  -4  -1  -8  725.23   62.99
  -5  -1  -8   25.30    4.50
  -5  -1  -8   30.40    4.90
  -5  -1  -8   28.90    6.50
  -5  -1  -8   21.10    3.60
   5   1   8   24.30    5.50
  -6  -1  -8  249.28   21.20
  -6  -1  -8  257.77   24.50
  -6  -1  -8  245.18   22.10
   6   1   8  246.58   23.00
  -7  -1  -8   23.70    4.00
  -7  -1  -8   19.10    5.20
  -7  -1  -8   19.80    3.00
   7   1   8   18.00    4.40
  -8  -1  -8   12.50    2.70
  -8  -1  -8   15.50    2.30
   8   1   8   12.90    3.10
   8   1   8   15.00    3.10
  -9  -1  -8  290.77   22.50
  -9  -1  -8  247.58   21.90
  10  -2  -8   16.30    2.60
  10  -2  -8   16.60    3.00
 -10   2   8   16.30    3.00
   9  -2  -8  198.78   18.20
   9  -2  -8  184.08   17.10
   9  -2  -8  219.88   17.90
  -9   2   8  214.68   18.40
   8  -2  -8 1197.58  103.59
   8  -2  -8 1282.17  103.19
   8  -2  -8 1230.18  102.39
  -8   2   8 1387.36  103.89
   7  -2  -8    7.50    2.50
   7  -2  -8   16.30    2.80
   7  -2  -8   10.80    3.40
   7  -2  -8    7.40    2.90
  -7   2   8   15.30    4.00
   6  -2  -8  475.65   50.99
   6  -2  -8  670.83   50.49
   6  -2  -8  617.94   52.29
   6  -2  -8  705.33   50.59
   5  -2  -8   97.79   10.30
   5  -2  -8  102.29    8.90
   5  -2  -8   85.49    8.20
   5  -2  -8   65.79    8.30
   5  -2  -8   90.79    9.30
   4  -2  -8  498.35   43.30
   4  -2  -8  562.94   43.00
   4  -2  -8  513.55   44.10
   4  -2  -8  505.15   43.40
   4  -2  -8  528.05   42.60
   3  -2  -8   24.50    4.00
   3  -2  -8   28.60    3.60
   3  -2  -8   24.60    4.40
   3  -2  -8   25.10    3.20
   2  -2  -8  799.82   63.09
   2  -2  -8  749.82   63.59
   2  -2  -8  802.22   62.39
   2  -2  -8  818.32   62.59
   2  -2  -8  697.83   62.89
   1  -2  -8  159.18   13.50
   1  -2  -8  143.59   13.90
   1  -2  -8  158.98   14.00
   1  -2  -8  153.68   13.50
   1  -2  -8  174.68   14.90
   0  -2  -8 1113.59   93.59
   0  -2  -8 1172.78   93.09
   0  -2  -8 1139.59   93.29
   0  -2  -8 1207.18   94.39
  -1  -2  -8  379.16   30.10
  -1  -2  -8  324.97   30.20
  -1  -2  -8  338.67   28.40
  -1  -2  -8  357.36   28.70
  -1  -2  -8  322.77   28.60
  -1  -2  -8  346.27   29.10
  -2  -2  -8    8.80    3.20
  -2  -2  -8   13.20    2.70
  -2  -2  -8    9.50    2.50
  -2  -2  -8   12.90    3.50
  -2  -2  -8    9.90    2.20
  -3  -2  -8  232.88   21.40
  -3  -2  -8  262.77   23.40
  -3  -2  -8  276.07   23.20
  -3  -2  -8  246.48   21.90
  -4  -2  -8   29.10    4.90
  -4  -2  -8   27.20    5.70
  -4  -2  -8   23.60    4.60
  -4  -2  -8   31.20    4.30
  -5  -2  -8   33.10    4.30
  -5  -2  -8   27.30    6.40
  -5  -2  -8   21.30    4.30
  -5  -2  -8   37.50    5.60
   5   2   8   32.80    6.30
  -6  -2  -8  411.36   38.40
  -6  -2  -8  517.75   37.80
  -6  -2  -8  441.76   40.50
   6   2   8  455.85   39.70
  -7  -2  -8  700.13   55.09
  -7  -2  -8  695.93   55.79
   7   2   8  637.14   56.29
  -8  -2  -8   32.20    3.60
  -8  -2  -8   28.40    4.10
   8   2   8   34.10    4.80
   8   2   8   36.50    4.30
  10  -3  -8   69.29    6.60
 -10   3   8   65.39    6.90
   9  -3  -8   13.50    2.50
   9  -3  -8   13.90    3.20
   9  -3  -8   19.00    3.20
  -9   3   8   16.90    3.30
   8  -3  -8   34.20    5.60
   8  -3  -8   38.60    4.90
   8  -3  -8   42.80    5.80
  -8   3   8   39.80    5.80
   7  -3  -8  199.38   18.70
   7  -3  -8  194.38   18.10
   7  -3  -8  186.98   16.90
   7  -3  -8  194.28   16.60
   7  -3  -8  173.08   17.30
  -7   3   8  192.48   17.90
   6  -3  -8  227.98   19.40
   6  -3  -8  224.68   19.80
   6  -3  -8  231.08   19.40
   6  -3  -8  216.28   21.40
  -6   3   8  213.48   20.70
   5  -3  -8 1642.44  127.69
   5  -3  -8 1607.04  129.79
   5  -3  -8 1651.53  127.89
   5  -3  -8 1600.24  127.99
  -5   3   8 1429.36  129.09
   4  -3  -8  341.07   29.80
   4  -3  -8  321.97   28.80
   4  -3  -8  352.26   28.30
   4  -3  -8  335.17   28.10
   3  -3  -8  285.27   22.20
   3  -3  -8  276.07   23.60
   3  -3  -8  251.97   22.80
   3  -3  -8  258.27   22.00
   3  -3  -8  243.18   22.70
   2  -3  -8  431.96   37.00
   2  -3  -8  437.86   36.40
   2  -3  -8  448.66   37.80
   2  -3  -8  464.55   37.10
   2  -3  -8  446.26   36.40
   1  -3  -8    8.80    2.20
   1  -3  -8    7.50    1.70
   1  -3  -8   10.00    1.90
   1  -3  -8   10.50    2.50
   1  -3  -8   11.20    2.90
   0  -3  -8   62.39    6.20
   0  -3  -8   68.19    6.70
   0  -3  -8   71.59    6.90
   0  -3  -8   56.89    8.50
   0  -3  -8   66.99    7.50
  -1  -3  -8 1745.13  131.79
  -1  -3  -8 1619.84  130.39
  -1  -3  -8 1686.03  130.89
  -1  -3  -8 1658.23  132.39
  -1  -3  -8 1543.75  130.29
  -1  -3  -8 1505.05  130.09
  -2  -3  -8  124.89   12.60
  -2  -3  -8  109.19   11.00
  -2  -3  -8  130.79   12.40
  -2  -3  -8  111.49   11.20
  -2  -3  -8  111.09   10.60
  -2  -3  -8  112.09   10.70
   2   3   8  126.09   11.00
  -3  -3  -8  204.18   18.30
  -3  -3  -8  204.08   18.70
  -3  -3  -8  196.18   17.10
   3   3   8  168.88   16.70
  -4  -3  -8  121.49   13.50
  -4  -3  -8  143.99   15.20
  -4  -3  -8  159.48   13.10
  -5  -3  -8  144.39   13.70
  -5  -3  -8  143.09   15.60
  -5  -3  -8  165.18   14.10
  -5  -3  -8  112.29   12.50
   5   3   8  157.18   15.30
  -6  -3  -8  137.19   12.80
  -6  -3  -8  147.59   12.90
  -6  -3  -8  135.49   11.90
   6   3   8  109.69   13.40
  -7  -3  -8  233.98   21.10
  -7  -3  -8  233.08   20.50
  -7  -3  -8  257.67   21.40
   7   3   8  256.67   22.00
  -8  -3  -8  133.19   11.20
  -8  -3  -8  124.89   11.50
   8   3   8  131.89   12.00
   9  -4  -8   86.09    7.80
   9  -4  -8   77.89    8.00
  -9   4   8   82.79    8.30
   8  -4  -8  699.93   56.89
   8  -4  -8  625.54   55.99
   8  -4  -8  706.73   55.79
  -8   4   8  696.63   56.29
   7  -4  -8  481.75   37.80
   7  -4  -8  418.86   37.90
   7  -4  -8  435.76   37.30
   7  -4  -8  469.05   39.70
  -7   4   8  461.85   38.50
   6  -4  -8   65.39    8.60
   6  -4  -8   49.20    6.40
   6  -4  -8   63.19    6.30
   6  -4  -8   36.50    5.90
  -6   4   8   60.29    7.90
   5  -4  -8  261.27   24.50
   5  -4  -8  316.37   24.90
   5  -4  -8  296.77   26.90
   5  -4  -8  294.27   25.10
   4  -4  -8    6.80    1.90
   4  -4  -8   12.80    3.10
   4  -4  -8   13.70    3.40
   4  -4  -8    8.70    3.10
   4  -4  -8   14.20    2.50
   3  -4  -8   13.60    2.40
   3  -4  -8   18.10    3.40
   3  -4  -8   13.00    3.50
   3  -4  -8   22.30    3.80
   3  -4  -8   25.80    3.10
   2  -4  -8  291.27   22.80
   2  -4  -8  314.67   23.80
   2  -4  -8  265.07   24.20
   2  -4  -8  279.97   22.80
   2  -4  -8  218.18   23.20
   1  -4  -8 1018.40   94.49
   1  -4  -8 1204.88   96.09
   1  -4  -8 1298.67   95.49
   1  -4  -8 1195.48   95.19
   1  -4  -8 1184.58   94.59
   0  -4  -8   12.00    2.50
   0  -4  -8   11.80    2.50
   0  -4  -8   12.30    4.20
   0  -4  -8   11.40    3.00
  -1  -4  -8  153.58   13.70
  -1  -4  -8  161.58   15.00
  -1  -4  -8  110.39   12.50
  -1  -4  -8  146.89   12.60
  -1  -4  -8  130.59   12.40
  -2  -4  -8    7.50    3.30
  -2  -4  -8    4.80    2.10
  -2  -4  -8    6.70    2.40
  -2  -4  -8    6.30    2.90
   2   4   8    5.40    2.10
  -3  -4  -8  306.37   28.30
  -3  -4  -8  312.77   28.00
  -3  -4  -8  341.77   27.10
   3   4   8  303.47   26.90
  -4  -4  -8  359.06   28.40
  -4  -4  -8  310.27   30.10
  -5  -4  -8  471.35   33.00
  -5  -4  -8  383.26   33.60
   5   4   8  321.07   34.30
  -6  -4  -8   33.80    4.00
  -6  -4  -8   33.00    4.90
   6   4   8   33.20    6.10
  -7  -4  -8  348.07   27.90
  -7  -4  -8  343.07   28.60
  -7  -4  -8  295.67   28.10
   7   4   8  333.67   28.10
   7   4   8  377.86   29.10
   9  -5  -8    6.40    2.40
   9  -5  -8   10.20    1.90
   9  -5  -8    6.80    2.00
  -9   5   8    7.20    2.20
   8  -5  -8  138.59   15.10
   8  -5  -8  187.88   15.30
   8  -5  -8  190.78   16.50
  -8   5   8  173.88   15.50
   7  -5  -8  971.00   89.69
   7  -5  -8 1173.78   89.89
   7  -5  -8 1082.69   89.39
   7  -5  -8 1220.78   92.09
  -7   5   8 1105.19   90.29
   6  -5  -8    5.80    3.40
   6  -5  -8    6.20    2.30
   6  -5  -8    7.00    2.10
   6  -5  -8    3.30    2.00
   5  -5  -8  183.28   16.80
   5  -5  -8  186.38   17.80
   5  -5  -8  200.88   17.00
   5  -5  -8  225.38   17.70
   5  -5  -8  178.98   19.00
   4  -5  -8  104.29    9.60
   4  -5  -8   67.69    7.70
   4  -5  -8   60.89    9.10
   4  -5  -8  107.89    9.30
   4  -5  -8   99.19    8.10
   3  -5  -8    6.00    2.40
   3  -5  -8    7.60    2.50
   3  -5  -8    4.30    1.40
   3  -5  -8    6.00    2.50
   2  -5  -8   18.50    3.40
   2  -5  -8    9.00    2.10
   2  -5  -8   23.30    3.60
   2  -5  -8   11.30    3.20
   1  -5  -8  493.65   41.00
   0  -5  -8   27.10    6.30
   0  -5  -8   26.30    4.60
   0  -5  -8   17.90    3.40
  -1  -5  -8  869.21   70.69
  -1  -5  -8  804.32   69.19
   1   5   8  849.81   68.59
  -2  -5  -8  635.04   53.99
  -2  -5  -8  691.13   54.89
  -2  -5  -8  589.54   52.89
   2   5   8  669.23   53.29
  -3  -5  -8   46.50    5.90
  -3  -5  -8   44.10    6.90
  -3  -5  -8   36.20    6.70
   3   5   8   44.70    6.10
  -4  -5  -8  146.79   11.80
  -4  -5  -8  123.29   12.50
   4   5   8  105.39   12.00
   4   5   8  120.29   13.60
  -5  -5  -8    8.00    2.00
  -5  -5  -8    8.20    2.60
   5   5   8    7.60    3.30
  -6  -5  -8   38.90    4.20
  -6  -5  -8   35.90    4.80
   6   5   8   36.70    5.60
  -7  -5  -8  272.67   23.50
   7   5   8  300.97   24.30
   8  -6  -8   20.60    4.00
   8  -6  -8   14.20    3.90
   8  -6  -8   18.50    2.90
   7  -6  -8  114.79   10.80
   7  -6  -8  118.49   12.70
   6  -6  -8   60.79    6.40
   6  -6  -8   58.39    8.50
   5  -6  -8    7.10    2.60
   5  -6  -8    7.00    1.90
   5  -6  -8    6.10    3.10
   5  -6  -8    6.00    2.90
   4  -6  -8  402.96   31.70
   4  -6  -8  360.66   31.30
   4  -6  -8  339.17   30.20
   3  -6  -8  690.63   53.19
   3  -6  -8  640.44   51.89
   3  -6  -8  592.54   53.49
   2  -6  -8   12.40    2.90
   1  -6  -8  634.54   48.00
   1  -6  -8  502.35   46.90
   0  -6  -8   54.19    6.40
   0  -6  -8   40.30    5.40
   0  -6  -8   57.49    9.00
   0   6   8   48.10    6.00
  -1  -6  -8   13.90    3.60
  -1  -6  -8    6.90    2.20
  -1  -6  -8    8.70    4.20
   1   6   8   15.20    3.40
  -2  -6  -8   42.80    7.00
  -2  -6  -8   47.60    5.80
  -2  -6  -8   43.30    5.90
  -2  -6  -8   56.69    8.10
   2   6   8   56.79    6.50
  -3  -6  -8  266.37   21.60
  -3  -6  -8  251.87   22.60
   3   6   8  225.28   21.80
  -4  -6  -8   12.40    2.50
  -4  -6  -8   10.70    3.10
   4   6   8    8.80    3.20
   4   6   8    2.50    3.40
  -5  -6  -8  224.48   18.10
  -5  -6  -8  208.48   18.70
   5   6   8  200.88   19.40
  -6  -6  -8  390.66   32.20
  -6  -6  -8  363.56   32.60
   6   6   8  432.86   33.20
   8  -7  -8   51.69    6.20
   8  -7  -8   48.30    5.10
   7  -7  -8  247.28   21.20
   7  -7  -8  253.17   22.80
   6  -7  -8  128.39   14.00
   6  -7  -8  135.79   12.60
   6  -7  -8  140.69   12.20
   5  -7  -8   33.50    6.30
   5  -7  -8   41.10    5.80
   5  -7  -8   41.30    4.60
   4  -7  -8  187.28   16.80
   4  -7  -8  196.58   18.60
   4  -7  -8  207.78   18.10
   3  -7  -8   32.40    5.40
   3  -7  -8   25.50    4.50
   2  -7  -8    0.60    1.80
   2  -7  -8   -0.70    1.60
  -2   7   8   -0.10    2.00
   1  -7  -8  244.28   21.00
   1  -7  -8  207.88   20.10
  -1   7   8  244.68   20.70
   0  -7  -8  416.16   36.50
   0  -7  -8  446.16   39.00
   0  -7  -8  435.76   37.30
   0   7   8  461.95   37.20
  -1  -7  -8    7.50    2.30
  -1  -7  -8    9.80    3.90
   1   7   8    6.10    2.60
  -2  -7  -8   73.99    8.10
  -2  -7  -8   85.39    9.70
   2   7   8   82.29    8.90
  -3  -7  -8   -0.70    2.00
  -3  -7  -8    0.30    1.90
   3   7   8   -0.80    3.20
   3   7   8    1.50    2.40
  -4  -7  -8   64.99    6.00
  -4  -7  -8   64.89    6.80
   4   7   8   47.00    6.60
   4   7   8   48.80    7.60
  -5  -7  -8  107.99   10.70
   7  -8  -8    9.60    3.20
   6  -8  -8  245.28   22.10
   6  -8  -8  238.48   20.50
   6  -8  -8  246.68   20.90
   5  -8  -8  130.39   11.20
   5  -8  -8  121.79   12.80
   5  -8  -8  123.39   12.00
   4  -8  -8  183.28   17.40
   4  -8  -8  189.58   17.00
   3  -8  -8  399.96   31.90
   3  -8  -8  324.67   31.80
  -3   8   8  413.06   32.30
   2  -8  -8  130.69   13.90
   2  -8  -8  165.38   13.90
  -2   8   8  162.38   14.50
   1  -8  -8   97.09   11.10
   1  -8  -8  120.89   10.80
  -1   8   8  131.59   11.60
   0  -8  -8   50.19    5.90
   0   8   8   56.99    6.70
  -1  -8  -8   96.99   10.80
  -1  -8  -8   91.59    9.00
   1   8   8   91.69    9.70
  -2  -8  -8   28.60    4.90
   2   8   8   24.00    4.20
   2   8   8   15.00    4.60
  -3  -8  -8  385.06   29.50
   3   8   8  344.67   30.90
   3   8   8  302.37   29.00
   4  -9  -8    3.30    1.90
   4  -9  -8    0.50    2.20
  -4   9   8    3.00    2.80
   3  -9  -8  200.58   21.00
   3  -9  -8  260.47   21.10
  -3   9   8  289.97   22.00
   2  -9  -8   54.79    5.80
  -2   9   8   44.50    6.40
   1  -9  -8   11.10    2.60
  -1   9   8   15.20    3.60
   0  -9  -8   90.89    9.00
   0   9   8  100.59    9.80
   1   9   8  102.79   10.20
   2  10  -9  252.77   22.80
  -2 -10   9  279.87   23.50
   1  10  -9  151.08   14.10
   1  10  -9  153.88   14.90
  -1 -10   9  207.18   16.00
   0  10  -9   25.20    3.20
   0 -10   9   29.00    5.00
  -1  10  -9  378.06   30.80
   1 -10   9  374.46   31.60
  -2  10  -9   29.40    4.40
  -2  10  -9   28.10    3.40
   2 -10   9   24.20    4.50
  -3  10  -9   34.10    4.00
  -3  10  -9   31.90    4.60
   3 -10   9   29.30    5.00
  -4  10  -9   11.90    2.30
  -4  10  -9   13.00    2.80
   4 -10   9   12.60    3.50
  -5  10  -9    7.10    1.90
   4   9  -9  245.88   19.50
  -4  -9   9  202.68   20.10
   3   9  -9   12.70    2.80
   3   9  -9   19.00    3.40
  -3  -9   9   12.90    3.70
   2   9  -9   31.30    5.00
   2   9  -9   26.30    3.70
  -2  -9   9   29.10    5.20
   1   9  -9  378.86   32.30
   1   9  -9  380.16   31.20
   0   9  -9   74.19    7.50
   0   9  -9   58.29    7.40
   0   9  -9   71.79    6.70
  -1   9  -9   21.40    3.80
  -1   9  -9   18.70    2.80
   1  -9   9   20.40    3.90
  -2   9  -9  645.94   52.29
  -2   9  -9  659.73   52.99
   2  -9   9  626.84   53.39
  -3   9  -9   10.40    2.80
  -3   9  -9    6.40    1.90
   3  -9   9    7.30    3.10
  -4   9  -9   92.89    9.70
  -4   9  -9  100.59    9.10
  -4   9  -9   89.69    9.50
   4  -9   9  113.59   11.40
  -5   9  -9  101.89    9.70
  -5   9  -9   99.19    9.30
  -5   9  -9   98.79    9.40
  -6   9  -9   17.20    2.80
   6  -9   9   19.30    3.90
   5   8  -9    5.60    2.50
   5   8  -9    5.00    2.50
   5   8  -9    4.80    1.90
   4   8  -9  139.89   13.90
   4   8  -9  178.18   14.60
  -4  -8   9  162.98   15.40
   3   8  -9   11.30    2.40
   3   8  -9    9.80    3.30
  -3  -8   9   14.10    3.90
   2   8  -9  352.46   34.50
   2   8  -9  398.26   33.30
  -2  -8   9  464.95   35.20
   1   8  -9  336.37   28.10
   1   8  -9  311.37   28.90
   1   8  -9  347.77   27.70
   0   8  -9  209.08   17.20
   0   8  -9  193.28   18.00
   0   8  -9  202.38   17.70
  -1   8  -9  159.88   14.10
   1  -8   9  165.88   15.20
  -2   8  -9    9.90    2.10
  -2   8  -9    9.80    2.50
  -3   8  -9   14.50    3.10
  -3   8  -9    9.60    2.70
  -3   8  -9    7.90    1.90
  -4   8  -9  153.58   14.80
  -4   8  -9  159.68   14.40
  -4   8  -9  164.98   14.10
  -5   8  -9  310.87   25.00
  -5   8  -9  305.27   24.60
  -5   8  -9  282.97   24.50
   5  -8   9  266.37   25.00
  -6   8  -9  113.99   10.80
  -6   8  -9  125.29   11.20
   6  -8   9  131.39   11.60
  -7   8  -9  189.28   15.90
   7  -8   9  185.28   16.20
   6   7  -9  492.75   47.90
   6   7  -9  648.74   48.30
   6   7  -9  623.14   48.00
   5   7  -9    3.70    2.30
   5   7  -9    5.60    2.10
   5   7  -9    2.20    1.90
   4   7  -9  705.83   52.69
   4   7  -9  564.24   52.29
   4   7  -9  618.24   51.79
  -4  -7   9  664.33   53.19
   3   7  -9  212.38   18.20
   3   7  -9  207.78   19.50
  -3  -7   9  216.58   19.60
   2   7  -9  148.39   15.90
   2   7  -9  173.98   14.40
   2   7  -9  165.08   14.70
   1   7  -9   47.70    5.30
   1   7  -9   56.29    5.90
   1   7  -9   58.49    7.70
   0   7  -9  268.27   23.20
   0   7  -9  264.47   22.50
  -1   7  -9   41.80    4.80
  -1   7  -9   40.30    4.50
  -2   7  -9  910.41   83.69
  -2   7  -9 1041.10   84.29
  -2   7  -9 1183.28   84.79
  -3   7  -9  154.08   16.80
  -3   7  -9  199.18   16.70
  -3   7  -9  239.98   18.00
  -4   7  -9   21.30    3.50
  -4   7  -9   25.90    4.00
  -4   7  -9   24.80    4.40
   4  -7   9   30.50    5.30
  -5   7  -9   35.40    4.70
  -5   7  -9   41.00    5.10
   5  -7   9   42.70    6.10
  -6   7  -9   20.80    3.10
  -6   7  -9   19.50    3.30
   6  -7   9   24.50    4.10
  -7   7  -9    4.90    1.40
  -7   7  -9    4.70    1.70
   7  -7   9    3.20    1.90
   8  -7   9   58.49    5.90
   7   6  -9   44.20    5.00
   7   6  -9   43.60    4.80
   6   6  -9  115.79   10.60
   6   6  -9  127.59   11.10
   6   6  -9   96.89   10.70
   5   6  -9    1.60    2.00
   5   6  -9    1.30    1.70
   5   6  -9    5.60    2.50
   4   6  -9  271.87   25.00
   4   6  -9  299.07   24.30
   3   6  -9  592.74   49.70
   3   6  -9  556.64   50.89
   3   6  -9  673.33   50.59
   2   6  -9   13.10    2.40
   2   6  -9   18.00    3.00
   2   6  -9   19.70    4.50
   1   6  -9   44.10    5.90
   1   6  -9   26.70    3.90
   1   6  -9   36.50    4.40
   0   6  -9  307.87   25.10
   0   6  -9  287.67   25.70
  -1   6  -9   31.60    4.00
  -1   6  -9   22.80    3.30
  -2   6  -9    0.40    1.00
  -2   6  -9    1.40    1.40
  -3   6  -9  903.21   73.59
  -3   6  -9  959.00   79.89
  -3   6  -9  860.91   72.69
  -4   6  -9   37.80    7.00
  -4   6  -9   34.30    4.50
  -5   6  -9  497.75   40.50
  -5   6  -9  478.65   40.40
  -6   6  -9  490.35   40.20
  -6   6  -9  487.15   40.40
  -7   6  -9   63.29    6.40
  -7   6  -9   74.19    7.00
   7  -6   9   69.49    7.40
  -8   6  -9   52.29    5.30
   8  -6   9   54.29    5.80
   7   5  -9    0.80    1.40
   7   5  -9    2.10    1.70
   7   5  -9    0.80    1.90
   6   5  -9 1697.03  125.59
   6   5  -9 1422.26  125.09
   6   5  -9 1537.95  124.89
   5   5  -9  577.94   47.80
   5   5  -9  562.24   47.20
   4   5  -9  115.39   10.60
   4   5  -9   76.29    8.90
   4   5  -9  109.59   10.10
   3   5  -9    6.10    1.60
   3   5  -9    7.50    2.60
   3   5  -9    4.60    2.50
   2   5  -9   72.39    8.40
   2   5  -9   68.89    6.80
   1   5  -9    0.30    2.20
   1   5  -9    0.40    1.20
   1   5  -9    1.70    1.10
   0   5  -9  722.63   55.49
   0   5  -9  750.22   54.89
   0   5  -9  656.13   54.79
   0   5  -9  582.84   54.59
  -1   5  -9  818.22   68.39
  -1   5  -9  860.81   68.69
  -1   5  -9  867.71   68.69
  -2   5  -9  125.09    9.80
  -2   5  -9   78.99    9.10
  -2   5  -9   93.59   12.90
  -2   5  -9  105.39    9.10
  -3   5  -9  567.94   45.20
  -3   5  -9  536.15   48.30
  -4   5  -9   12.70    2.40
  -4   5  -9    9.70    2.50
  -4   5  -9   10.50    4.40
  -5   5  -9   45.90    5.50
  -5   5  -9   46.70    5.70
  -5   5  -9   37.70    7.30
  -6   5  -9  144.59   14.50
  -6   5  -9  131.39   12.00
  -6   5  -9  126.69   12.30
  -7   5  -9  241.38   20.00
  -7   5  -9  229.58   19.70
  -8   5  -9    2.00    1.20
   8  -5   9    4.80    2.00
   8   4  -9  301.67   24.90
   7   4  -9   17.90    3.00
   7   4  -9   18.10    3.50
   6   4  -9   42.20    5.20
   6   4  -9   32.80    5.20
   6   4  -9   43.90    6.00
   5   4  -9  131.89   12.10
   5   4  -9  162.38   13.30
   5   4  -9  103.19   11.90
   4   4  -9   21.40    3.60
   4   4  -9   19.70    4.00
   4   4  -9   29.20    4.80
   4   4  -9   43.90    5.70
   3   4  -9  284.07   24.90
   3   4  -9  238.38   23.50
   3   4  -9  324.57   23.70
   2   4  -9  797.02   61.19
   2   4  -9  779.02   59.69
   2   4  -9  747.93   59.79
   2   4  -9  642.94   59.59
   1   4  -9   95.69    9.50
   1   4  -9   88.19    8.30
   1   4  -9   91.49    8.50
   1   4  -9   93.19    8.40
   0   4  -9    1.40    1.30
   0   4  -9    3.50    1.30
   0   4  -9    2.00    1.20
   0   4  -9    2.50    1.90
  -1   4  -9    8.80    1.80
  -1   4  -9   11.80    2.10
  -1   4  -9    8.60    2.10
  -1   4  -9    3.10    4.20
  -2   4  -9   49.80    5.40
  -2   4  -9   51.59    5.60
  -2   4  -9   48.00    9.00
  -2   4  -9   53.39    5.20
  -3   4  -9  473.05   35.80
  -3   4  -9  387.26   38.70
  -4   4  -9  468.95   33.90
  -4   4  -9  337.17   33.80
  -4   4  -9  425.26   37.10
  -5   4  -9   56.99    6.30
  -5   4  -9   62.89    6.60
  -5   4  -9   62.09    9.00
  -6   4  -9   52.29    6.10
  -6   4  -9   38.50    7.80
  -6   4  -9   55.29    5.60
   6  -4   9   56.79    5.90
  -7   4  -9   55.89    5.60
  -7   4  -9   65.59    8.10
   7  -4   9   48.40    5.80
  -8   4  -9   17.20    2.50
   8  -4   9   21.90    2.90
   9  -4   9   28.50    3.80
  -9  -3   9   -0.60    1.80
   8   3  -9  762.02   62.09
   8   3  -9  776.72   63.09
   7   3  -9  539.05   41.50
   7   3  -9  441.86   42.40
   7   3  -9  539.65   42.30
   6   3  -9  212.78   21.80
   6   3  -9  288.57   21.70
   6   3  -9  271.97   22.80
   6   3  -9  226.08   22.00
   6   3  -9  254.37   21.70
   5   3  -9  219.08   19.90
   5   3  -9  221.58   20.00
   5   3  -9  241.88   20.40
   5   3  -9  242.08   19.80
   5   3  -9  211.28   20.40
   4   3  -9  113.19   10.70
   4   3  -9  122.79   10.60
   4   3  -9  141.59   11.90
   4   3  -9   85.99   10.90
   3   3  -9    2.00    1.40
   3   3  -9    2.80    1.30
   3   3  -9    3.00    2.10
   2   3  -9 1447.16  121.59
   2   3  -9 1580.54  121.69
   2   3  -9 1525.75  122.79
   1   3  -9  395.76   31.70
   1   3  -9  391.96   31.90
   1   3  -9  390.46   32.60
   1   3  -9  370.76   31.60
   0   3  -9  332.27   31.70
   0   3  -9  363.56   29.40
   0   3  -9  364.36   29.50
   0   3  -9  355.76   29.30
   0   3  -9  364.76   29.80
  -1   3  -9  965.40   86.69
  -1   3  -9 1096.69   84.49
  -1   3  -9 1003.70   84.09
  -1   3  -9 1120.69   84.39
  -2   3  -9   98.79    9.30
  -2   3  -9  115.09    9.70
  -2   3  -9  109.59    9.70
  -2   3  -9   94.09   12.10
  -3   3  -9   18.70    5.50
  -3   3  -9   18.40    3.20
  -3   3  -9   20.80    2.90
  -3   3  -9   16.40    3.10
  -4   3  -9  101.99   11.60
  -4   3  -9   74.89    8.20
  -5   3  -9  163.98   18.20
  -5   3  -9  181.98   15.50
  -6   3  -9  219.68   25.40
  -6   3  -9  312.87   23.60
   6  -3   9  294.87   23.60
  -7   3  -9  996.90   78.29
  -7   3  -9  930.31   75.79
   7  -3   9  895.51   75.89
  -8   3  -9  170.78   14.70
  -8   3  -9  132.09   12.30
   8  -3   9  137.19   12.50
   9  -3   9  120.89   10.50
   9   2  -9   30.80    4.40
   8   2  -9    3.80    1.60
   8   2  -9    0.20    2.40
   8   2  -9    3.40    2.00
   7   2  -9   98.59   10.90
   7   2  -9   99.59    9.30
   7   2  -9   98.39    9.80
   6   2  -9    4.50    2.90
   6   2  -9    2.90    2.30
   6   2  -9    1.60    1.70
   6   2  -9    1.90    1.90
   5   2  -9  916.21   80.89
   5   2  -9 1017.40   80.89
   5   2  -9 1054.49   81.69
   4   2  -9 1931.01  157.18
   4   2  -9 2016.50  157.28
   4   2  -9 1936.31  157.58
   3   2  -9   17.30    2.80
   3   2  -9   12.30    3.30
   3   2  -9   16.10    3.10
   3   2  -9   16.40    2.80
   2   2  -9  132.39   11.90
   2   2  -9  116.59   10.80
   2   2  -9  126.19   11.00
   1   2  -9  184.18   18.10
   1   2  -9  212.28   16.50
   1   2  -9  195.48   16.90
   1   2  -9  184.18   16.10
   1   2  -9  185.78   16.20
   0   2  -9   32.80    3.70
   0   2  -9   30.50    3.50
   0   2  -9   32.20    5.90
   0   2  -9   29.80    3.40
   0   2  -9   32.90    4.20
  -1   2  -9  143.89   11.50
  -1   2  -9  124.59   11.10
  -1   2  -9  130.69   11.30
  -1   2  -9  129.29   13.50
  -1   2  -9  115.29   11.20
  -2   2  -9  850.51   74.49
  -2   2  -9  871.81   74.09
  -2   2  -9  964.60   77.19
  -2   2  -9 1013.90   74.69
  -3   2  -9    7.40    2.20
  -3   2  -9   14.30    2.60
  -3   2  -9   10.50    3.80
  -4   2  -9  232.38   20.70
  -4   2  -9  248.98   23.70
  -5   2  -9   81.79    8.00
  -5   2  -9   78.79   10.70
  -6   2  -9    0.50    2.60
  -6   2  -9    2.80    2.20
  -6   2  -9    1.70    1.30
  -7   2  -9  153.68   13.50
  -7   2  -9  134.19   12.30
  -7   2  -9  146.09   14.90
   7  -2   9  134.29   12.70
  -8   2  -9   25.40    3.30
  -8   2  -9   28.90    5.30
  -8   2  -9   28.80    4.10
   8  -2   9   27.80    3.70
   9  -2   9    6.70    1.60
   9   1  -9   98.69    9.80
   9   1  -9   97.69    9.10
  -9  -1   9  101.19   10.20
   8   1  -9   82.29    9.50
   8   1  -9   97.09    8.80
   8   1  -9   80.59    7.90
   7   1  -9  637.84   53.79
   7   1  -9  711.53   52.99
   7   1  -9  625.34   51.99
   7   1  -9  589.64   52.59
   6   1  -9   85.49    8.20
   6   1  -9   70.79    8.70
   6   1  -9   79.99    8.60
   6   1  -9   90.89    9.80
   5   1  -9   16.40    3.70
   5   1  -9   12.70    2.80
   5   1  -9   14.30    3.00
   5   1  -9   13.90    3.20
   4   1  -9  440.06   34.10
   4   1  -9  376.46   33.30
   4   1  -9  439.86   33.70
   4   1  -9  353.36   33.80
   3   1  -9  718.73   55.69
   3   1  -9  602.94   55.89
   3   1  -9  678.33   55.19
   3   1  -9  707.53   55.29
   2   1  -9  404.16   35.10
   2   1  -9  451.05   35.30
   2   1  -9  395.86   36.50
   2   1  -9  476.25   36.20
   1   1  -9 1195.08  108.09
   1   1  -9 1462.35  108.59
   1   1  -9 1384.46  108.89
   1   1  -9 1370.86  109.99
   0   1  -9  222.68   18.80
   0   1  -9  200.28   18.60
   0   1  -9  252.37   19.20
   0   1  -9  232.28   20.70
   0   1  -9  224.98   19.10
  -1   1  -9   80.29    7.40
  -1   1  -9   72.09    7.40
  -1   1  -9   78.99    7.50
  -1   1  -9   88.99    9.40
  -2   1  -9    2.70    1.50
  -2   1  -9    3.70    1.40
  -2   1  -9    3.80    2.70
  -3   1  -9    5.30    1.70
  -3   1  -9    4.10    2.80
  -3   1  -9    6.60    2.30
  -3   1  -9    4.50    1.80
  -4   1  -9  138.29   13.90
  -4   1  -9  171.18   14.60
  -5   1  -9  823.82   76.29
  -5   1  -9 1074.79   77.59
  -6   1  -9   80.49    8.00
  -6   1  -9   60.69    6.50
  -6   1  -9   55.69    9.50
  -7   1  -9  275.77   22.10
  -7   1  -9  247.68   24.40
  -7   1  -9  275.17   22.90
   7  -1   9  248.78   22.30
  -8   1  -9   89.89    8.60
  -8   1  -9   99.49    9.30
  -8   1  -9  105.49   10.80
   8  -1   9   95.49    9.00
  -9   1  -9    1.10    1.20
   9  -1   9    1.10    1.20
   9   0  -9   22.70    3.80
   9   0  -9   18.50    3.10
  -9   0   9   25.50    4.10
   8   0  -9    0.40    1.80
   8   0  -9    2.60    2.40
   8   0  -9    1.30    1.50
  -8   0   9   -1.50    1.90
   7   0  -9  663.93   57.89
   7   0  -9  722.13   57.09
   7   0  -9  718.23   58.99
   6   0  -9  772.32   60.49
   6   0  -9  736.53   61.29
   6   0  -9  700.33   59.79
   5   0  -9    7.60    2.20
   5   0  -9    7.20    2.20
   5   0  -9   13.20    3.40
   5   0  -9    9.30    2.90
   4   0  -9 1578.04  130.19
   4   0  -9 1527.45  128.29
   4   0  -9 1709.83  129.09
   3   0  -9   16.10    3.80
   3   0  -9   14.30    2.20
   3   0  -9    8.20    2.60
   3   0  -9    9.40    2.10
   3   0  -9   15.70    2.90
   2   0  -9    1.60    1.60
   2   0  -9    3.10    1.90
   2   0  -9    3.50    1.70
   2   0  -9    2.30    1.10
   1   0  -9  560.54   46.30
   1   0  -9  555.54   46.00
   1   0  -9  577.54   47.40
   0   0  -9  303.17   25.90
   0   0  -9  273.37   24.00
   0   0  -9  299.87   24.50
   0   0  -9  294.87   24.30
  -1   0  -9   71.09    8.20
  -1   0  -9   62.09    6.50
  -1   0  -9   73.69    6.70
  -1   0  -9   66.39    6.60
  -2   0  -9  869.01   80.99
  -2   0  -9 1050.09   79.59
  -2   0  -9 1056.09   79.39
  -2   0  -9  951.70   80.69
  -3   0  -9  368.96   35.00
  -3   0  -9  370.56   36.80
  -3   0  -9  469.45   36.70
  -3   0  -9  447.26   35.40
  -3   0  -9  467.35   35.20
  -4   0  -9   43.70    5.30
  -4   0  -9   42.20    5.60
  -4   0  -9   21.30    5.90
  -5   0  -9    4.60    3.20
  -5   0  -9    5.70    2.80
  -5   0  -9    3.90    1.70
   5   0   9    5.40    3.40
  -6   0  -9   18.20    5.20
  -6   0  -9   30.10    4.90
  -6   0  -9   30.50    3.80
   6   0   9   21.30    5.50
  -7   0  -9   82.29    8.30
  -7   0  -9   69.99    9.60
  -7   0  -9   78.99    7.40
  -8   0  -9  156.08   15.00
  -8   0  -9  157.48   13.80
  -8   0  -9  149.79   13.20
   8   0   9  160.48   13.70
   9  -1  -9  607.04   50.39
   9  -1  -9  609.14   50.89
  -9   1   9  637.14   51.09
   8  -1  -9  116.19   12.00
   8  -1  -9  126.69   11.60
   8  -1  -9  109.59   10.50
  -8   1   9  125.09   12.00
   7  -1  -9    4.20    2.30
   7  -1  -9    4.40    2.60
   7  -1  -9    6.10    1.90
  -7   1   9   -0.90    2.20
   6  -1  -9   31.80    5.90
   6  -1  -9   34.90    5.40
   6  -1  -9   40.90    5.00
   6  -1  -9   46.10    5.00
   5  -1  -9    6.40    2.30
   5  -1  -9    3.20    2.50
   5  -1  -9    4.80    2.30
   5  -1  -9    2.40    1.60
   5  -1  -9    4.20    3.00
   5  -1  -9    5.20    1.80
   4  -1  -9  163.48   17.70
   4  -1  -9  235.98   19.70
   4  -1  -9  228.18   17.70
   4  -1  -9  209.48   18.50
   3  -1  -9 1283.27  123.89
   3  -1  -9 1684.73  123.29
   3  -1  -9 1702.23  125.09
   3  -1  -9 1468.95  123.39
   2  -1  -9   85.69    7.90
   2  -1  -9   96.49    8.90
   2  -1  -9   81.39    9.30
   2  -1  -9   87.39    8.10
   1  -1  -9  385.36   32.50
   1  -1  -9  359.06   31.90
   1  -1  -9  370.56   31.30
   1  -1  -9  388.06   31.10
   0  -1  -9  240.98   21.70
   0  -1  -9  239.08   20.40
   0  -1  -9  244.08   20.20
   0  -1  -9  232.18   21.00
  -1  -1  -9   60.99    5.90
  -1  -1  -9   60.49    7.30
  -1  -1  -9   55.29    5.70
  -1  -1  -9   55.69    5.80
  -1  -1  -9   53.19    7.10
  -2  -1  -9   37.80    6.30
  -2  -1  -9   34.10    6.30
  -2  -1  -9   48.60    4.90
  -2  -1  -9   45.90    5.40
  -3  -1  -9  910.31   72.19
  -3  -1  -9  843.32   70.59
  -3  -1  -9  861.01   70.89
  -4  -1  -9  116.49   13.00
  -4  -1  -9  103.99   10.50
  -4  -1  -9  104.69   11.00
  -4  -1  -9  117.79   11.50
  -5  -1  -9  564.34   44.90
  -5  -1  -9  536.15   46.90
  -5  -1  -9  483.45   44.60
  -5  -1  -9  563.44   44.00
   5   1   9  521.65   45.60
  -6  -1  -9  113.89   14.20
  -6  -1  -9  146.39   12.90
  -6  -1  -9  145.39   11.90
   6   1   9  114.79   13.20
  -7  -1  -9   47.80    5.80
  -7  -1  -9   44.30    7.30
  -7  -1  -9   49.30    4.90
   7   1   9   46.60    6.20
  -8  -1  -9   10.00    2.10
  -8  -1  -9    7.50    1.50
   8   1   9    8.40    2.00
   9  -2  -9  382.36   31.40
  -9   2   9  374.16   31.80
   8  -2  -9  338.87   29.00
   8  -2  -9  342.67   28.50
   8  -2  -9  309.07   27.60
  -8   2   9  344.67   28.70
   7  -2  -9   45.70    6.30
   7  -2  -9   43.60    5.60
   7  -2  -9   44.20    5.00
   7  -2  -9   39.30    6.50
  -7   2   9   50.69    6.80
   6  -2  -9 1044.10   86.59
   6  -2  -9 1078.49   84.79
   6  -2  -9  849.41   85.39
   6  -2  -9 1178.18   84.89
  -6   2   9 1095.99   86.19
   5  -2  -9  209.98   21.20
   5  -2  -9  247.98   21.00
   5  -2  -9  257.07   23.20
   5  -2  -9  280.17   21.70
   4  -2  -9   80.89    9.20
   4  -2  -9   83.09    7.40
   4  -2  -9   67.49    7.50
   3  -2  -9   16.90    2.60
   3  -2  -9   13.60    3.40
   3  -2  -9   13.00    2.40
   3  -2  -9   14.80    3.40
   2  -2  -9  764.02   60.29
   2  -2  -9  777.92   60.39
   2  -2  -9  744.33   61.79
   2  -2  -9  691.03   60.89
   2  -2  -9  743.33   61.29
   1  -2  -9  307.37   24.20
   1  -2  -9  283.77   24.50
   1  -2  -9  285.77   23.70
   1  -2  -9  262.27   24.90
   0  -2  -9 1355.06  109.09
   0  -2  -9 1396.36  109.39
   0  -2  -9 1324.27  109.89
  -1  -2  -9  419.86   33.90
  -1  -2  -9  390.76   35.40
  -1  -2  -9  444.56   34.80
  -1  -2  -9  412.26   33.70
  -1  -2  -9  386.76   33.70
  -2  -2  -9   49.90    6.70
  -2  -2  -9   45.50    5.00
  -2  -2  -9   47.20    7.30
  -2  -2  -9   39.00    5.40
  -3  -2  -9  478.35   41.10
  -3  -2  -9  441.86   40.60
  -3  -2  -9  525.35   43.10
  -3  -2  -9  542.35   42.50
  -4  -2  -9   17.50    3.90
  -4  -2  -9   24.90    5.90
  -4  -2  -9   22.20    3.70
  -5  -2  -9    1.00    3.20
  -5  -2  -9    1.00    1.80
  -5  -2  -9    2.80    2.40
  -5  -2  -9    2.50    1.60
   5   2   9    3.20    3.20
  -6  -2  -9  526.15   43.40
  -6  -2  -9  530.25   43.50
  -6  -2  -9  554.54   42.70
   6   2   9  465.15   44.00
  -7  -2  -9  141.89   13.50
  -7  -2  -9  154.68   12.90
   7   2   9  150.48   14.00
  -8  -2  -9    6.80    1.40
   8   2   9    9.10    2.10
   9  -3  -9  208.28   19.30
   9  -3  -9  257.47   19.90
  -9   3   9  238.28   20.00
   8  -3  -9  137.49   13.00
   8  -3  -9  144.99   12.50
  -8   3   9  135.29   13.00
   7  -3  -9   46.30    5.20
   7  -3  -9   45.80    6.20
   7  -3  -9   42.30    5.60
   7  -3  -9   49.00    7.30
  -7   3   9   44.40    6.40
   6  -3  -9  117.39   10.60
   6  -3  -9  114.19   10.90
   6  -3  -9  110.39   10.50
   6  -3  -9   98.39   12.30
  -6   3   9  111.49   12.00
   5  -3  -9  491.25   39.30
   5  -3  -9  484.05   39.50
   5  -3  -9  452.65   39.00
   5  -3  -9  463.55   41.10
   4  -3  -9   85.39    7.90
   4  -3  -9   82.69    8.10
   4  -3  -9   81.09    9.60
   3  -3  -9  276.97   27.60
   3  -3  -9  294.07   26.20
   3  -3  -9  348.87   26.50
   3  -3  -9  352.06   27.40
   2  -3  -9  467.95   40.90
   2  -3  -9  470.05   40.20
   2  -3  -9  393.46   39.30
   2  -3  -9  564.64   40.60
   2  -3  -9  535.05   39.60
   1  -3  -9   23.10    4.70
   1  -3  -9   30.10    3.70
   1  -3  -9   27.30    4.50
   1  -3  -9   29.90    4.10
   0  -3  -9   66.89    6.60
   0  -3  -9   39.90    6.40
   0  -3  -9   57.79    6.00
   0  -3  -9   60.09    5.60
  -1  -3  -9   23.30    3.30
  -1  -3  -9   14.90    4.50
  -1  -3  -9   19.10    3.60
  -1  -3  -9   19.60    4.30
  -1  -3  -9   20.30    3.00
  -1  -3  -9   17.50    3.10
  -2  -3  -9   18.00    4.50
  -2  -3  -9   15.60    2.90
  -2  -3  -9   16.70    3.20
  -2  -3  -9   15.10    4.20
   2   3   9   16.70    3.30
  -3  -3  -9  247.78   23.80
  -3  -3  -9  271.47   23.40
  -3  -3  -9  250.47   22.20
  -4  -3  -9  996.60   76.79
  -4  -3  -9  891.71   77.39
  -5  -3  -9    2.40    1.50
  -5  -3  -9    2.10    1.80
  -5  -3  -9    5.20    3.60
   5   3   9    0.70    3.00
  -6  -3  -9   78.29    7.40
  -6  -3  -9   81.19    8.10
   6   3   9   69.79    8.90
  -7  -3  -9   29.10    3.40
   7   3   9   30.90    4.00
   7   3   9   33.80    4.80
   8  -4  -9  399.96   36.10
   8  -4  -9  443.06   36.80
   8  -4  -9  475.15   36.00
  -8   4   9  426.36   36.30
   7  -4  -9   99.89    9.50
   7  -4  -9  109.29   11.10
   7  -4  -9   90.29    9.00
   7  -4  -9   89.99    9.50
  -7   4   9   93.69   10.10
   6  -4  -9   29.70    6.40
   6  -4  -9   33.90    4.60
   6  -4  -9   32.60    4.70
   6  -4  -9   33.50    4.70
   5  -4  -9   16.80    3.20
   5  -4  -9   19.30    4.90
   5  -4  -9   18.70    3.60
   5  -4  -9   21.80    3.30
   4  -4  -9   59.59    7.50
   4  -4  -9   65.19    6.80
   4  -4  -9   68.59    8.70
   4  -4  -9   82.29    7.10
   3  -4  -9   23.00    4.00
   3  -4  -9   18.50    2.80
   3  -4  -9    8.40    2.00
   3  -4  -9   14.90    3.30
   2  -4  -9 1106.59   92.09
   2  -4  -9 1296.87   90.59
   2  -4  -9  959.60   90.99
   1  -4  -9  115.29   10.70
   1  -4  -9  132.89   11.70
   1  -4  -9  116.89   11.30
   0  -4  -9  262.17   24.20
   0  -4  -9  300.67   24.00
  -1  -4  -9  214.78   21.30
  -1  -4  -9  232.48   20.90
   1   4   9  225.98   19.70
  -2  -4  -9   10.90    3.50
  -2  -4  -9    7.30    2.40
  -2  -4  -9    9.40    3.40
  -2  -4  -9    7.10    2.40
   2   4   9    9.10    2.70
  -3  -4  -9    1.50    2.20
  -3  -4  -9    2.70    2.80
  -3  -4  -9    1.20    1.80
   3   4   9    2.30    2.30
  -4  -4  -9   96.49    8.60
  -4  -4  -9   63.49    9.90
  -4  -4  -9   95.49    9.40
   4   4   9   78.59   10.30
  -5  -4  -9  269.27   22.10
  -5  -4  -9  252.37   22.80
  -6  -4  -9  337.97   28.40
  -6  -4  -9  342.97   27.70
   6   4   9  324.47   28.90
   8  -5  -9    4.60    2.00
   8  -5  -9    5.50    2.40
   8  -5  -9    5.60    1.70
   7  -5  -9  151.98   13.90
   7  -5  -9  166.78   14.20
   7  -5  -9  138.49   14.10
   7  -5  -9  185.08   16.10
   6  -5  -9   64.99    6.50
   6  -5  -9   52.29    6.30
   6  -5  -9   59.09    8.40
   6  -5  -9   58.09    6.30
   5  -5  -9  533.45   49.90
   5  -5  -9  640.34   50.59
   5  -5  -9  617.94   50.19
   5  -5  -9  676.33   52.89
   4  -5  -9  800.82   57.09
   4  -5  -9  596.54   55.79
   4  -5  -9  716.23   55.79
   4  -5  -9  792.72   57.29
   4  -5  -9  568.74   57.49
   3  -5  -9    2.30    1.30
   3  -5  -9    6.30    2.60
   3  -5  -9    4.50    2.20
   3  -5  -9    4.70    2.20
   2  -5  -9   30.90    4.60
   2  -5  -9   21.90    4.50
   2  -5  -9   20.00    3.80
   1  -5  -9   26.70    4.30
   1  -5  -9   23.60    4.10
   1  -5  -9   27.20    5.00
   0  -5  -9   13.10    3.20
   0  -5  -9   19.40    4.10
   0   5   9   32.10    4.50
  -1  -5  -9  256.27   25.10
  -1  -5  -9  294.77   26.90
  -1  -5  -9  302.07   26.10
   1   5   9  315.77   25.30
  -2  -5  -9  254.57   23.70
  -2  -5  -9  305.47   25.40
  -2  -5  -9  258.97   23.30
  -2  -5  -9  263.97   24.60
   2   5   9  292.67   23.90
  -3  -5  -9    2.40    2.10
  -3  -5  -9    1.30    1.90
  -3  -5  -9    1.40    2.90
   3   5   9    2.30    2.40
  -4  -5  -9  155.88   14.30
  -4  -5  -9  172.58   13.70
   4   5   9  121.09   14.90
  -5  -5  -9  181.78   14.30
  -5  -5  -9  165.68   14.90
   5   5   9  140.89   15.50
  -6  -5  -9   15.30    2.60
  -6  -5  -9   15.70    2.70
   6   5   9   17.20    3.30
   7  -6  -9   26.60    3.70
   7  -6  -9   23.70    4.80
   6  -6  -9   66.39    6.70
   6  -6  -9   63.09    8.50
   5  -6  -9   38.50    6.80
   5  -6  -9   34.30    5.40
   5  -6  -9   38.70    4.70
   4  -6  -9  162.98   15.80
   4  -6  -9  153.58   14.90
   4  -6  -9  155.08   13.80
   3  -6  -9  107.19   10.90
   3  -6  -9  105.69   11.20
   2  -6  -9  389.56   32.90
   2  -6  -9  384.86   33.50
   1  -6  -9  190.58   17.60
   1  -6  -9  189.68   17.00
  -1   6   9  185.68   17.00
   0  -6  -9   42.70    5.90
   0  -6  -9   39.10    5.60
   0   6   9   39.70    5.50
  -1  -6  -9   41.60    7.30
  -1  -6  -9   37.70    6.10
  -1  -6  -9   39.60    5.40
   1   6   9   40.20    5.60
  -2  -6  -9   79.39    9.00
  -2  -6  -9   62.79    8.50
   2   6   9   70.59    7.90
  -3  -6  -9    8.50    2.40
  -3  -6  -9    7.60    2.90
   3   6   9    9.20    3.00
   3   6   9    5.30    3.40
  -4  -6  -9  110.29   10.40
  -4  -6  -9  117.29    9.70
   4   6   9   81.59   10.80
  -5  -6  -9  522.95   44.50
   5   6   9  553.04   44.80
   6  -7  -9  371.76   31.40
   6  -7  -9  388.86   33.10
   5  -7  -9   30.40    4.60
   5  -7  -9   28.80    3.80
   5  -7  -9   23.00    4.80
   4  -7  -9  290.27   26.40
   4  -7  -9  290.57   27.00
  -4   7   9  340.77   26.80
   3  -7  -9    1.70    2.00
   3  -7  -9    0.00    1.90
  -3   7   9    3.10    2.50
   2  -7  -9   -0.50    1.80
   2  -7  -9    2.60    1.80
  -2   7   9    0.30    1.90
   1  -7  -9  179.48   17.90
   1  -7  -9  207.68   17.70
  -1   7   9  207.98   17.80
   0  -7  -9  264.77   22.20
   0  -7  -9  235.08   22.50
   0   7   9  270.97   22.50
  -1  -7  -9   14.60    3.10
  -1  -7  -9   16.80    4.60
   1   7   9   21.50    3.80
  -2  -7  -9  307.37   26.10
   2   7   9  283.27   25.40
  -3  -7  -9   54.79    6.00
   3   7   9   43.50    5.80
   3   7   9   33.40    6.20
   5  -8  -9    2.70    2.30
   4  -8  -9   90.49    9.30
   4  -8  -9   92.79    9.80
   3  -8  -9  267.67   21.60
   3  -8  -9  229.98   21.70
   2  -8  -9   24.80    4.50
   2  -8  -9   31.10    4.50
  -2   8   9   27.20    4.50
   1  -8  -9   18.30    3.90
   1  -8  -9   18.40    3.30
  -1   8   9   22.50    4.10
   0  -8  -9   14.60    2.90
   0   8   9   18.20    3.60
   1   8   9   20.80    3.70
  -1  10 -10  127.59   11.10
  -2  10 -10    3.20    1.50
   3   9 -10   39.30    5.30
   2   9 -10  655.43   53.19
   2   9 -10  596.54   53.69
  -2  -9  10  722.63   54.59
   1   9 -10   39.80    5.50
   1   9 -10   45.80    4.90
  -1  -9  10   52.69    6.70
   0   9 -10   34.30    3.80
   0   9 -10   30.10    4.20
  -1   9 -10    5.00    2.20
  -1   9 -10    3.50    1.40
  -2   9 -10   22.60    3.80
  -2   9 -10   23.40    3.10
   2  -9  10   18.00    3.80
  -3   9 -10    7.90    1.90
  -3   9 -10    5.40    2.50
   3  -9  10    7.40    2.90
  -4   9 -10  460.35   38.20
  -4   9 -10  471.75   38.40
  -5   9 -10  126.49   11.30
   5  -9  10  128.09   12.40
   4   8 -10  156.98   12.90
   4   8 -10  126.59   12.40
   3   8 -10   36.20    5.40
   3   8 -10   36.10    4.40
  -3  -8  10   36.20    5.90
   2   8 -10   57.89    6.00
   2   8 -10   49.50    7.10
  -2  -8  10   70.49    7.80
   1   8 -10  332.77   30.70
   1   8 -10  389.96   30.10
   1   8 -10  362.26   30.30
   0   8 -10   11.30    2.20
   0   8 -10   11.50    2.70
  -1   8 -10  378.96   30.60
  -1   8 -10  354.16   30.20
  -2   8 -10  169.78   14.50
  -2   8 -10  167.28   14.90
   2  -8  10  162.48   15.60
  -3   8 -10   75.89    7.80
  -3   8 -10   75.29    7.30
  -4   8 -10    0.10    1.70
  -4   8 -10   -0.10    1.30
  -5   8 -10  136.09   12.50
  -5   8 -10  147.89   12.60
  -6   8 -10    2.60    1.40
  -6   8 -10    2.30    1.40
   5   7 -10   52.99    6.30
   5   7 -10   62.49    6.30
   4   7 -10  623.64   48.30
   4   7 -10  547.95   47.70
   3   7 -10  233.28   19.90
   3   7 -10  238.18   21.10
  -3  -7  10  231.58   21.30
   2   7 -10  107.99    9.70
   2   7 -10  100.09   11.10
   2   7 -10  106.99   10.00
   1   7 -10   15.20    2.50
   1   7 -10   15.50    3.70
   1   7 -10   15.50    3.00
   0   7 -10    8.90    2.30
   0   7 -10    9.50    2.00
   0   7 -10    7.90    2.70
  -1   7 -10  143.39   13.90
  -1   7 -10  183.48   14.40
  -2   7 -10  184.48   16.10
  -2   7 -10  190.38   16.40
  -3   7 -10   74.19    7.30
  -3   7 -10   74.79    7.60
  -4   7 -10   14.40    2.80
  -4   7 -10   13.30    2.60
  -5   7 -10  272.67   21.80
  -5   7 -10  252.87   21.80
   5  -7  10  241.58   22.10
  -6   7 -10   21.60    3.30
  -6   7 -10   23.00    3.10
   6  -7  10   24.90    3.80
   6   6 -10   21.70    3.00
   6   6 -10   17.60    3.50
   5   6 -10    4.60    2.00
   5   6 -10    4.90    2.10
   4   6 -10    6.90    2.20
   4   6 -10    8.60    2.70
   3   6 -10  253.37   22.30
   3   6 -10  243.38   21.00
   2   6 -10   58.29    5.60
   2   6 -10   54.29    7.30
   2   6 -10   41.90    5.20
   1   6 -10  764.12   58.39
   1   6 -10  738.73   57.29
   1   6 -10  624.64   56.99
   0   6 -10  628.44   51.19
   0   6 -10  563.44   50.49
   0   6 -10  679.73   50.79
  -1   6 -10   35.00    4.00
  -2   6 -10   51.99    6.40
  -2   6 -10   78.09    6.50
  -3   6 -10    7.60    2.10
  -3   6 -10   10.80    2.10
  -4   6 -10    3.10    1.90
  -4   6 -10    5.60    1.90
  -4   6 -10    6.40    3.70
  -5   6 -10  305.37   28.40
  -5   6 -10  383.36   30.60
  -5   6 -10  338.27   28.60
  -6   6 -10  420.66   35.50
  -6   6 -10  446.86   35.70
   6  -6  10  430.76   36.20
  -7   6 -10   34.50    3.70
  -7   6 -10   30.30    3.90
   7  -6  10   39.00    4.70
   7   5 -10  116.79   10.30
   6   5 -10  275.17   25.90
   6   5 -10  333.37   25.70
   5   5 -10  186.28   17.10
   5   5 -10  200.08   17.20
   4   5 -10  113.89   10.80
   4   5 -10  118.99   11.60
   3   5 -10  418.16   34.50
   3   5 -10  414.36   35.60
   2   5 -10  112.89   10.60
   2   5 -10   82.09    8.80
   2   5 -10  104.49    9.10
   1   5 -10  133.59   12.30
   1   5 -10  146.59   12.30
   1   5 -10  163.68   13.60
   1   5 -10  126.19   12.30
   0   5 -10  408.06   30.40
   0   5 -10  312.77   30.10
   0   5 -10  378.36   30.80
   0   5 -10  370.46   30.40
  -1   5 -10   13.90    2.70
  -1   5 -10   10.40    2.20
  -1   5 -10   10.60    2.10
  -2   5 -10  133.49   12.40
  -2   5 -10  135.59   12.60
  -2   5 -10  144.29   12.20
  -3   5 -10  258.07   23.90
  -3   5 -10  290.87   23.70
  -3   5 -10  301.37   26.90
  -4   5 -10   52.19    5.90
  -4   5 -10   60.09    8.60
  -4   5 -10   51.69    6.00
  -5   5 -10    5.40    2.20
  -5   5 -10    6.70    3.40
  -5   5 -10    5.90    1.80
  -6   5 -10    1.60    1.30
  -6   5 -10    6.10    3.20
  -6   5 -10    1.50    1.80
  -7   5 -10    1.80    1.20
   8  -5  10  243.78   20.60
   7   4 -10   24.80    3.40
   7   4 -10   25.70    4.10
   6   4 -10   10.80    2.40
   6   4 -10    9.60    2.70
   5   4 -10  160.68   15.10
   5   4 -10  172.58   15.10
   4   4 -10   96.09   10.40
   4   4 -10  119.79   10.50
   4   4 -10  122.79   11.30
   3   4 -10  916.81   73.19
   3   4 -10  941.21   73.39
   3   4 -10  849.72   74.29
   2   4 -10  743.33   61.79
   2   4 -10  737.83   61.69
   2   4 -10  815.32   63.09
   1   4 -10  116.99   10.30
   1   4 -10  111.39   10.20
   1   4 -10  109.39   10.40
   1   4 -10  124.69   11.30
   0   4 -10  379.36   30.20
   0   4 -10  346.97   30.20
   0   4 -10  349.87   30.50
   0   4 -10  383.76   30.20
  -1   4 -10   56.59    5.50
  -1   4 -10   59.19    5.70
  -1   4 -10   56.49    5.80
  -1   4 -10   38.20    8.80
  -2   4 -10    9.00    4.60
  -2   4 -10    7.60    1.80
  -2   4 -10    9.40    2.30
  -2   4 -10    6.10    2.10
  -3   4 -10  997.40   71.69
  -3   4 -10  874.51   74.89
  -3   4 -10  784.02   71.89
  -4   4 -10  433.86   34.50
  -4   4 -10  435.26   37.60
  -4   4 -10  380.56   34.60
  -5   4 -10   15.10    2.80
  -5   4 -10   11.70    4.40
  -5   4 -10    9.70    2.70
  -6   4 -10  501.15   40.70
  -6   4 -10  487.85   42.70
  -7   4 -10   95.79    9.30
  -7   4 -10  117.59   11.50
   8   3 -10  371.06   30.30
   7   3 -10  269.27   22.60
   7   3 -10  254.57   21.90
   6   3 -10  334.87   29.30
   6   3 -10  307.17   28.70
   6   3 -10  390.16   28.90
   5   3 -10  489.15   42.70
   5   3 -10  549.54   42.90
   5   3 -10  506.75   42.40
   4   3 -10  121.79   10.90
   4   3 -10  110.79   11.20
   4   3 -10  110.49   10.60
   3   3 -10    2.20    1.40
   3   3 -10    2.60    2.10
   3   3 -10    0.00    1.30
   2   3 -10    5.10    2.60
   2   3 -10    6.60    1.70
   2   3 -10    7.30    2.00
   1   3 -10   89.49    8.00
   1   3 -10   81.09    7.80
   1   3 -10   86.39    8.10
   1   3 -10   85.19    8.70
   0   3 -10  529.75   42.30
   0   3 -10  461.35   44.80
   0   3 -10  535.85   42.10
   0   3 -10  530.15   42.50
   0   3 -10  516.05   42.10
  -1   3 -10  881.61   69.89
  -1   3 -10  937.51   70.19
  -1   3 -10  772.92   72.69
  -1   3 -10  867.11   70.19
  -2   3 -10  146.19   14.40
  -2   3 -10  192.78   14.70
  -2   3 -10  147.39   17.20
  -2   3 -10  171.48   14.30
  -3   3 -10  178.08   15.20
  -3   3 -10  154.18   17.80
  -3   3 -10  156.28   15.10
  -3   3 -10  189.38   14.90
  -4   3 -10   27.80    4.10
  -4   3 -10   29.00    6.70
  -5   3 -10   14.70    2.80
  -5   3 -10   13.70    4.70
  -6   3 -10   42.00    4.60
  -6   3 -10   41.00    7.20
   6  -3  10   37.80    5.00
  -7   3 -10  286.97   24.50
  -7   3 -10  261.97   22.40
   7  -3  10  260.97   22.50
  -8   3 -10    9.10    1.80
   8  -3  10   10.80    2.00
   8   2 -10   67.19    6.90
   8   2 -10   76.29    7.70
   8   2 -10   63.79    6.50
   7   2 -10    1.20    1.90
   7   2 -10   -1.50    2.00
   7   2 -10    3.60    2.70
   7   2 -10    2.20    1.50
   6   2 -10   98.89   10.70
   6   2 -10  107.19   11.10
   6   2 -10  119.39   11.70
   6   2 -10  126.49   10.60
   5   2 -10  771.82   60.09
   5   2 -10  771.72   60.69
   5   2 -10  623.34   59.99
   5   2 -10  778.22   60.39
   4   2 -10  190.98   15.70
   4   2 -10  155.58   15.70
   4   2 -10  173.08   15.20
   3   2 -10  342.47   30.20
   3   2 -10  340.27   29.30
   3   2 -10  374.36   29.50
   2   2 -10  738.83   58.89
   2   2 -10  765.62   59.79
   2   2 -10  679.83   58.89
   1   2 -10   35.80    5.00
   1   2 -10   42.40    4.30
   1   2 -10   35.50    4.30
   1   2 -10   40.20    7.00
   0   2 -10    0.80    1.20
   0   2 -10   -0.40    1.40
   0   2 -10    0.70    1.30
   0   2 -10    2.10    2.90
   0   2 -10    2.20    1.30
  -1   2 -10  662.63   56.99
  -1   2 -10  758.82   57.29
  -1   2 -10  696.73   59.89
  -2   2 -10  279.37   22.70
  -2   2 -10  250.17   25.00
  -3   2 -10  256.57   23.90
  -3   2 -10  314.87   27.20
  -4   2 -10  485.85   49.80
  -4   2 -10  668.23   47.80
  -5   2 -10   16.90    5.00
  -5   2 -10   24.90    3.50
  -6   2 -10    3.40    1.30
  -6   2 -10    0.20    2.70
  -7   2 -10   25.00    5.30
  -7   2 -10   28.50    3.40
   7  -2  10   25.40    3.60
  -8   2 -10  136.49   12.00
   8  -2  10  148.59   12.30
  -9  -1  10   50.59    8.10
   8   1 -10  496.45   44.00
   8   1 -10  568.34   44.60
   8   1 -10  573.54   45.40
   7   1 -10  977.10   76.29
   7   1 -10  909.71   76.79
   7   1 -10  945.61   77.79
   6   1 -10   10.20    2.40
   6   1 -10   14.20    3.60
   6   1 -10    9.70    2.90
   6   1 -10    8.00    2.40
   5   1 -10  186.08   15.80
   5   1 -10  198.28   16.70
   5   1 -10  169.48   16.00
   5   1 -10  151.68   15.60
   4   1 -10    1.20    1.30
   4   1 -10    2.70    2.10
   4   1 -10    0.50    1.70
   3   1 -10   42.70    4.80
   3   1 -10   42.70    5.30
   3   1 -10   44.10    6.00
   2   1 -10  122.39   10.70
   2   1 -10  114.39   12.00
   2   1 -10  120.99   10.00
   2   1 -10   83.39    9.60
   1   1 -10 1102.79   97.59
   1   1 -10 1300.47  100.09
   1   1 -10 1254.67   98.19
   0   1 -10   34.70    4.80
   0   1 -10   54.49    7.30
   0   1 -10   48.00    4.70
   0   1 -10   52.09    5.30
  -1   1 -10 1165.38   94.19
  -1   1 -10 1115.59   91.69
  -2   1 -10  134.59   13.50
  -2   1 -10  107.19   10.70
  -3   1 -10   12.80    2.50
  -3   1 -10    4.70    3.00
  -3   1 -10    6.30    2.00
  -4   1 -10   37.30    5.10
  -4   1 -10   39.80    7.70
  -5   1 -10   63.89    9.10
  -5   1 -10   61.09    6.50
  -6   1 -10   55.19    7.00
  -6   1 -10   49.80    8.50
  -6   1 -10   67.69    6.20
  -7   1 -10  578.54   48.10
  -7   1 -10  547.65   46.00
   7  -1  10  574.94   46.30
  -8   1 -10  360.36   28.70
  -8   1 -10  299.17   27.10
   8  -1  10  344.77   27.40
  -9   0  10  103.49   10.10
   8   0 -10    3.80    2.30
   8   0 -10    6.50    2.10
   8   0 -10    3.50    1.60
  -8   0  10    3.80    2.40
   7   0 -10  250.17   21.60
   7   0 -10  271.37   23.50
   7   0 -10  254.37   22.40
   6   0 -10  212.98   18.00
   6   0 -10  200.88   18.40
   6   0 -10  207.38   19.30
   5   0 -10  680.03   49.40
   5   0 -10  612.84   49.10
   5   0 -10  506.45   48.70
   4   0 -10  996.60   85.79
   4   0 -10 1135.79   86.29
   3   0 -10   15.70    4.30
   3   0 -10   20.60    3.60
   3   0 -10   11.90    3.00
   3   0 -10    8.50    2.10
   2   0 -10   74.59    7.80
   2   0 -10   64.69    7.00
   2   0 -10   82.69    9.00
   1   0 -10   56.59    6.90
   1   0 -10   87.39    9.20
   1   0 -10   89.89    7.80
   0   0 -10  263.17   23.40
   0   0 -10  295.97   25.50
  -1   0 -10  630.04   48.40
  -1   0 -10  595.14   48.40
  -1   0 -10  486.85   49.99
  -1   0 -10  657.83   48.40
  -2   0 -10 1403.66  107.39
  -2   0 -10 1261.67  107.19
  -3   0 -10    7.60    3.50
  -3   0 -10   14.30    2.90
  -3   0 -10   13.00    2.80
  -4   0 -10  106.99   12.70
  -5   0 -10   24.70    4.90
  -5   0 -10   37.40    4.60
  -5   0 -10   28.00    6.60
  -6   0 -10    5.90    2.70
  -6   0 -10    8.50    1.90
  -6   0 -10    3.90    3.30
  -7   0 -10   33.00    4.50
  -7   0 -10   32.30    5.50
  -7   0 -10   28.30    3.50
   7   0  10   33.80    4.30
   8   0  10  439.16   36.30
   8  -1 -10    1.80    1.60
   8  -1 -10   -1.20    1.50
  -8   1  10    0.00    1.90
   7  -1 -10  526.85   41.70
   7  -1 -10  487.15   42.40
  -7   1  10  511.65   42.90
   6  -1 -10   11.20    2.40
   6  -1 -10    7.60    2.40
  -6   1  10    0.70    2.60
   5  -1 -10    4.00    1.80
   5  -1 -10    3.90    1.70
   5  -1 -10    9.00    2.40
   5  -1 -10    5.90    3.60
  -5   1  10    5.60    3.10
   4  -1 -10  174.38   14.20
   4  -1 -10  140.79   14.80
   4  -1 -10  139.99   14.30
   4  -1 -10  203.28   17.00
   3  -1 -10  121.39   11.00
   2  -1 -10   25.80    3.90
   2  -1 -10   39.50    5.20
   2  -1 -10   35.20    5.90
   1  -1 -10 1156.08   94.89
   1  -1 -10 1193.38   95.19
   1  -1 -10 1185.88   96.69
   0  -1 -10  812.62   64.49
   0  -1 -10  777.22   64.49
  -1  -1 -10   46.80    7.20
  -1  -1 -10   60.59    6.00
  -1  -1 -10   55.69    5.80
  -1  -1 -10   67.79    6.10
  -2  -1 -10   46.50    5.30
  -2  -1 -10   46.70    5.00
  -2  -1 -10   36.50    7.00
  -3  -1 -10  218.48   17.60
  -3  -1 -10  180.28   17.10
  -4  -1 -10   18.40    5.40
  -4  -1 -10   30.90    4.20
  -5  -1 -10  163.38   16.70
   5   1  10  148.59   15.70
  -6  -1 -10  479.65   37.40
  -6  -1 -10  419.46   38.80
   6   1  10  437.76   37.80
  -7  -1 -10    0.70    0.90
  -7  -1 -10    3.10    2.10
  -7  -1 -10    1.10    2.60
   7   1  10    0.40    1.60
   8  -2 -10  112.69   10.60
  -8   2  10  111.29   10.70
   7  -2 -10   95.39   10.10
   7  -2 -10  115.79   10.90
   7  -2 -10  115.99   10.10
  -7   2  10  115.69   11.30
   6  -2 -10 1380.46  107.49
   6  -2 -10 1411.56  106.99
   6  -2 -10 1311.77  108.59
   6  -2 -10 1276.37  106.89
  -6   2  10 1254.57  107.99
   5  -2 -10   39.20    5.40
   5  -2 -10   44.80    7.50
   5  -2 -10   44.50    5.70
   5  -2 -10   40.40    5.10
   4  -2 -10  275.17   23.20
   4  -2 -10  283.97   23.50
   4  -2 -10  234.98   23.80
   4  -2 -10  306.67   25.60
   3  -2 -10   91.69    9.40
   3  -2 -10   97.59   10.50
   3  -2 -10   89.19    8.50
   3  -2 -10   90.09    8.70
   2  -2 -10  287.07   25.70
   2  -2 -10  303.47   24.10
   2  -2 -10  240.28   24.30
   2  -2 -10  331.17   27.20
   1  -2 -10   13.60    2.80
   1  -2 -10   14.30    3.80
   1  -2 -10   13.00    2.30
   1  -2 -10   10.80    3.50
   0  -2 -10  551.74   45.50
   0  -2 -10  564.24   45.70
  -1  -2 -10  147.39   14.20
  -1  -2 -10  148.79   12.50
  -1  -2 -10  113.59   13.90
  -1  -2 -10  141.29   12.50
  -1  -2 -10  153.88   12.60
  -2  -2 -10  719.83   59.09
  -2  -2 -10  673.23   57.19
  -2  -2 -10  722.03   57.49
  -3  -2 -10  183.68   18.30
  -3  -2 -10  165.08   16.10
  -3  -2 -10  196.88   17.50
  -4  -2 -10   10.00    2.80
  -4  -2 -10    6.70    2.30
  -4  -2 -10    5.60    3.50
  -5  -2 -10   48.90    8.10
   5   2  10   41.90    6.90
  -6  -2 -10    6.70    1.70
  -6  -2 -10    8.30    3.60
   6   2  10    6.40    3.10
  -7  -2 -10   22.90    2.70
   7   2  10   23.80    3.30
   8  -3 -10  120.79   10.60
   8  -3 -10  126.99   11.10
  -8   3  10  112.59   11.10
   7  -3 -10   46.50    5.90
   7  -3 -10   45.60    5.10
   7  -3 -10   44.70    5.50
  -7   3  10   54.79    6.90
   6  -3 -10   30.30    6.00
   6  -3 -10   26.50    4.20
   6  -3 -10   27.10    4.30
   6  -3 -10   33.90    4.40
   5  -3 -10  336.97   29.10
   5  -3 -10  346.57   29.00
   5  -3 -10  363.16   29.50
   5  -3 -10  339.87   31.10
   4  -3 -10  301.27   26.80
   4  -3 -10  293.97   24.60
   4  -3 -10  282.27   24.60
   3  -3 -10  751.82   60.99
   3  -3 -10  744.53   60.09
   3  -3 -10  717.23   61.89
   3  -3 -10  747.03   60.09
   2  -3 -10  257.37   27.90
   2  -3 -10  307.57   27.30
   2  -3 -10  364.06   26.90
   2  -3 -10  367.46   28.30
   1  -3 -10  110.29   10.30
   1  -3 -10  103.49   11.30
   1  -3 -10  106.09    9.70
   1  -3 -10  110.89   11.00
   0  -3 -10   91.09   11.50
   0  -3 -10  123.49   10.30
   0  -3 -10  121.19   10.60
   0  -3 -10  120.19   11.50
  -1  -3 -10  128.99   13.30
  -1  -3 -10  132.79   11.00
  -1  -3 -10  136.99   11.30
  -1  -3 -10   92.19   12.10
  -2  -3 -10   21.40    3.70
  -2  -3 -10   27.30    5.20
  -2  -3 -10   22.40    5.00
  -2  -3 -10   22.60    3.50
  -3  -3 -10  828.92   70.59
  -3  -3 -10  946.91   71.89
  -3  -3 -10  830.22   72.39
  -4  -3 -10  224.18   18.00
  -4  -3 -10  215.18   18.70
  -4  -3 -10  166.98   19.40
   4   3  10  210.98   19.70
  -5  -3 -10   37.90    6.80
   5   3  10   48.10    7.10
  -6  -3 -10   68.19    6.40
   6   3  10   65.19    7.60
   7  -4 -10  192.08   16.60
   7  -4 -10  174.58   17.00
   7  -4 -10  201.48   17.00
   7  -4 -10  216.38   18.30
   6  -4 -10  603.64   45.10
   6  -4 -10  553.54   46.90
   6  -4 -10  490.55   44.90
   6  -4 -10  544.85   44.80
   5  -4 -10  509.15   39.90
   5  -4 -10  494.05   39.50
   5  -4 -10  495.75   41.80
   5  -4 -10  422.46   39.30
   4  -4 -10    4.70    2.90
   4  -4 -10    4.00    1.60
   4  -4 -10    3.00    1.60
   4  -4 -10    4.80    2.50
   3  -4 -10   60.09    7.50
   3  -4 -10   60.49    8.50
   3  -4 -10   81.69    7.10
   3  -4 -10   84.79    8.80
   2  -4 -10  127.99   11.00
   2  -4 -10  104.39    9.20
   2  -4 -10   87.99    9.70
   2  -4 -10   87.69   10.60
   1  -4 -10  136.29   12.00
   1  -4 -10   91.49   11.60
   1  -4 -10  118.09   10.50
   1  -4 -10  137.19   11.30
   0  -4 -10  303.07   25.50
   0  -4 -10  286.47   26.90
   0  -4 -10  318.17   26.30
  -1  -4 -10 1000.70   79.49
   1   4  10  919.51   77.89
  -2  -4 -10   48.90    7.20
  -2  -4 -10   37.70    5.30
  -2  -4 -10   48.00    6.80
   2   4  10   44.40    5.80
  -3  -4 -10  100.39    9.80
  -3  -4 -10   75.89   10.00
  -3  -4 -10   81.69    8.50
  -4  -4 -10    2.10    2.00
  -4  -4 -10    2.70    1.80
  -4  -4 -10   -0.10    3.00
   4   4  10    3.80    3.20
  -5  -4 -10    0.30    1.50
  -5  -4 -10    0.70    1.30
   5   4  10   -0.30    2.60
   7  -5 -10   17.20    3.80
   7  -5 -10   17.20    2.90
   6  -5 -10   74.09    8.30
   6  -5 -10   88.89    8.50
   6  -5 -10   92.49    8.50
   6  -5 -10   97.19   10.50
   5  -5 -10  764.12   57.39
   5  -5 -10  583.24   56.89
   5  -5 -10  753.12   59.69
   5  -5 -10  733.23   57.69
   4  -5 -10   72.49    8.10
   4  -5 -10   75.09    9.10
   3  -5 -10  160.98   15.70
   3  -5 -10  153.48   15.20
   3  -5 -10  161.18   14.90
   2  -5 -10   28.60    5.10
   2  -5 -10   26.80    4.40
   2  -5 -10   27.30    4.90
   1  -5 -10   30.70    4.90
   1  -5 -10   29.90    5.30
   0  -5 -10   82.99    9.30
   0  -5 -10   81.89    8.70
   0   5  10   79.59    8.50
  -1  -5 -10  378.46   32.40
   1   5  10  362.96   31.30
  -2  -5 -10  150.68   15.60
  -2  -5 -10  182.08   16.00
   2   5  10  154.78   14.60
  -3  -5 -10  115.79   12.00
  -3  -5 -10  154.08   13.30
  -4  -5 -10  180.28   15.80
  -4  -5 -10  185.08   16.40
   6  -6 -10    5.70    2.90
   5  -6 -10  126.19   13.20
   4  -6 -10   70.59    8.50
   4  -6 -10   60.69    7.80
   3  -6 -10   12.00    3.50
   3  -6 -10   12.40    3.70
   2  -6 -10  393.36   34.40
   2  -6 -10  393.96   34.00
  -2   6  10  410.16   33.80
   1  -6 -10  662.93   53.99
   1  -6 -10  644.44   54.39
  -1   6  10  649.93   53.69
   0  -6 -10   28.00    5.00
   0  -6 -10   25.70    4.20
   0   6  10   27.40    4.40
  -1  -6 -10  369.66   32.70
   1   6  10  390.46   32.00
  -2  -6 -10    5.50    3.80
  -2  -6 -10    7.30    3.20
   2   6  10    4.70    2.70
  -3  -6 -10    2.40    2.20
   3   6  10   -1.20    2.70
   5  -7 -10  115.99   11.90
   4  -7 -10  285.87   26.50
   4  -7 -10  293.27   25.70
   3  -7 -10   23.70    4.50
   3  -7 -10   25.20    4.40
  -3   7  10   23.20    4.20
   2  -7 -10   73.79    8.00
   2  -7 -10   64.69    7.90
  -2   7  10   74.59    7.80
   1  -7 -10   22.00    4.10
   1  -7 -10   22.20    3.80
  -1   7  10   21.50    3.90
   0  -7 -10    6.60    2.90
   0   7  10   10.20    2.60
   1   7  10   49.99    6.10
   0   9 -11   22.50    3.00
   0  -9  11   20.60    4.60
  -1   9 -11  267.87   22.20
  -2   9 -11   49.10    5.10
  -2   9 -11   48.20    5.60
  -3   9 -11    4.00    2.40
  -3   9 -11    5.00    1.90
   3   8 -11    0.50    2.00
   3   8 -11    1.90    1.50
   2   8 -11   74.59    6.80
   2   8 -11   62.39    7.40
   1   8 -11   76.39    6.80
   1   8 -11   60.59    7.20
  -1  -8  11   70.79    8.50
   0   8 -11  111.39    9.90
   0   8 -11  110.79   10.30
  -1   8 -11  223.28   19.90
  -1   8 -11  244.08   19.70
  -2   8 -11  174.18   15.30
  -2   8 -11  172.88   14.90
  -3   8 -11   96.49    8.30
  -3   8 -11   83.99    8.50
   3  -8  11   81.59    9.20
  -4   8 -11   75.89    7.90
  -4   8 -11   88.79    7.90
   4   7 -11  766.82   58.09
   4   7 -11  658.73   57.69
   3   7 -11    3.60    1.70
   3   7 -11    3.20    2.20
   2   7 -11  381.86   30.60
   2   7 -11  353.76   31.20
   1   7 -11  209.18   18.30
   1   7 -11  224.48   18.30
   1   7 -11  211.28   18.80
   0   7 -11   67.29    6.70
   0   7 -11   65.89    6.50
  -1   7 -11   27.40    3.50
  -1   7 -11   23.90    3.60
  -2   7 -11  245.38   21.60
  -2   7 -11  261.37   21.40
  -3   7 -11  149.59   13.00
  -3   7 -11  143.19   13.10
  -4   7 -11  355.46   28.00
  -4   7 -11  315.27   27.90
  -5   7 -11  185.08   15.90
  -5   7 -11  184.28   15.80
   5   6 -11    7.20    2.30
   5   6 -11   11.90    2.50
   4   6 -11   15.70    3.20
   4   6 -11   17.00    3.10
   3   6 -11    3.00    2.60
   3   6 -11    5.70    1.90
   2   6 -11  111.89   11.60
   2   6 -11  120.59   10.70
   1   6 -11  459.15   38.80
   1   6 -11  485.35   38.90
   1   6 -11  478.75   39.50
   0   6 -11  158.28   14.00
   0   6 -11  163.58   14.10
  -1   6 -11   32.50    4.00
  -1   6 -11   31.40    4.10
  -2   6 -11  275.17   22.80
  -2   6 -11  260.97   22.50
  -3   6 -11   86.29    8.50
  -3   6 -11   88.99    8.40
  -4   6 -11    1.60    1.80
  -4   6 -11    1.90    1.60
  -5   6 -11  382.86   32.80
  -5   6 -11  411.16   32.80
  -6   6 -11   13.00    2.10
   6  -6  11   15.70    2.90
   6   5 -11  393.76   30.80
   6   5 -11  349.47   31.10
   5   5 -11   12.80    2.80
   5   5 -11   10.90    2.60
   4   5 -11 1085.19   83.99
   4   5 -11  982.10   83.49
   3   5 -11  393.86   34.20
   3   5 -11  409.86   33.40
   2   5 -11  145.89   13.70
   2   5 -11  140.09   12.60
   1   5 -11   25.90    3.40
   1   5 -11   21.90    3.40
   1   5 -11   19.60    3.10
   1   5 -11   21.90    4.00
   0   5 -11  119.09   10.80
   0   5 -11  109.29   10.70
   0   5 -11  117.19   10.50
   0   5 -11  120.59   10.50
  -1   5 -11   10.00    2.10
  -1   5 -11   11.30    2.20
  -1   5 -11   10.00    2.50
  -2   5 -11  492.65   39.60
  -2   5 -11  467.95   39.30
  -3   5 -11  774.82   66.69
  -3   5 -11  780.22   64.39
  -3   5 -11  825.92   64.69
  -4   5 -11    2.20    1.90
  -4   5 -11    0.20    3.00
  -4   5 -11    0.10    1.40
  -5   5 -11  199.18   18.10
  -5   5 -11  227.78   20.00
  -5   5 -11  209.58   18.20
  -6   5 -11   10.80    2.00
   6   4 -11  365.56   28.50
   6   4 -11  315.67   28.80
   5   4 -11   72.69    8.20
   5   4 -11   87.69    8.20
   4   4 -11    3.40    1.80
   4   4 -11    3.80    2.20
   3   4 -11  158.68   15.10
   3   4 -11  196.48   15.50
   3   4 -11  167.28   16.10
   2   4 -11  262.37   21.20
   2   4 -11  230.28   21.10
   2   4 -11  261.47   22.20
   1   4 -11  302.27   23.90
   1   4 -11  288.37   23.30
   1   4 -11  258.27   23.00
   1   4 -11  266.17   23.30
   0   4 -11  430.76   36.70
   0   4 -11  447.06   36.80
   0   4 -11  444.26   36.50
   0   4 -11  460.25   36.60
  -1   4 -11  284.57   24.40
  -1   4 -11  304.17   24.50
  -1   4 -11  287.17   24.70
  -2   4 -11   12.80    5.00
  -2   4 -11   20.10    3.10
  -2   4 -11   25.20    3.50
  -2   4 -11   17.60    3.20
  -3   4 -11   20.20    3.20
  -3   4 -11   18.20    5.70
  -3   4 -11   17.10    3.20
  -4   4 -11   44.10    8.00
  -4   4 -11   51.69    5.70
  -5   4 -11  283.37   26.70
  -5   4 -11  307.67   25.00
  -6   4 -11  446.56   38.10
  -6   4 -11  442.96   36.50
   7   3 -11   46.90    4.90
   6   3 -11  525.85   43.80
   6   3 -11  475.15   43.30
   6   3 -11  588.84   43.50
   5   3 -11  673.23   49.20
   5   3 -11  528.45   48.70
   5   3 -11  591.84   49.10
   4   3 -11   32.70    5.00
   4   3 -11   36.20    4.90
   4   3 -11   31.10    4.40
   3   3 -11  123.99   11.80
   3   3 -11  140.79   12.10
   3   3 -11  131.19   12.70
   2   3 -11   20.50    3.30
   2   3 -11   22.50    3.40
   2   3 -11   22.10    4.20
   1   3 -11    9.00    2.00
   1   3 -11    8.70    2.40
   1   3 -11    8.20    2.00
   0   3 -11  758.32   63.29
   0   3 -11  767.72   63.29
   0   3 -11  846.52   63.69
   0   3 -11  760.82   63.39
  -1   3 -11  206.18   18.70
  -1   3 -11  220.58   19.10
  -1   3 -11  251.37   19.00
  -1   3 -11  205.18   22.10
  -2   3 -11  194.58   15.60
  -2   3 -11  171.68   15.90
  -2   3 -11  153.88   18.00
  -2   3 -11  175.48   15.50
  -3   3 -11  468.15   48.50
  -3   3 -11  659.03   46.70
  -4   3 -11   69.89    7.20
  -4   3 -11   69.29   10.70
  -5   3 -11   -1.40    2.60
  -5   3 -11    0.30    1.30
  -6   3 -11   65.09    8.50
  -6   3 -11   71.99    6.70
  -7   3 -11  149.29   13.00
  -7   3 -11  117.29   11.20
   7   2 -11   20.70    2.90
   7   2 -11   20.00    3.30
   6   2 -11   63.79    7.50
   6   2 -11   78.49    7.30
   6   2 -11   77.59    7.80
   5   2 -11   83.69    8.70
   5   2 -11   88.69    8.40
   5   2 -11   73.59    8.10
   4   2 -11   20.10    3.00
   4   2 -11   11.00    2.80
   4   2 -11    8.40    2.70
   3   2 -11  360.96   28.90
   3   2 -11  344.57   29.00
   3   2 -11  324.67   29.50
   2   2 -11 1500.15  114.29
   2   2 -11 1375.76  113.59
   2   2 -11 1371.56  113.59
   1   2 -11    5.20    2.10
   1   2 -11    2.50    1.70
   1   2 -11    1.50    1.40
   1   2 -11    5.60    4.10
   0   2 -11   25.20    3.40
   0   2 -11   24.30    6.00
   0   2 -11   28.80    3.80
   0   2 -11   22.10    3.90
   0   2 -11   27.30    3.70
  -1   2 -11   24.00    6.00
  -1   2 -11   34.30    3.90
  -1   2 -11   21.00    3.60
  -2   2 -11    2.30    1.50
  -2   2 -11    1.30    1.40
  -2   2 -11   -2.80    2.60
  -3   2 -11   55.09    5.70
  -3   2 -11   40.70    8.30
  -3   2 -11   45.50    5.40
  -4   2 -11  879.01   71.49
  -5   2 -11   68.59    6.50
  -5   2 -11   49.10    8.80
  -6   2 -11  268.57   21.30
  -6   2 -11  252.27   23.30
   6  -2  11  236.38   21.30
  -7   2 -11   79.09    8.50
  -7   2 -11   71.59    6.70
   7  -2  11   69.99    7.30
   7   1 -11  285.87   24.90
   7   1 -11  303.07   24.50
   6   1 -11   23.60    3.30
   6   1 -11   15.30    3.20
   5   1 -11  243.68   20.80
   5   1 -11  255.97   21.00
   5   1 -11  222.78   21.00
   4   1 -11  101.69   10.50
   4   1 -11  110.69   10.10
   3   1 -11    0.60    1.80
   3   1 -11    2.10    1.30
   3   1 -11    2.20    2.20
   2   1 -11  220.48   16.90
   2   1 -11  209.28   19.10
   2   1 -11  145.09   15.70
   1   1 -11  196.48   18.00
   1   1 -11  211.18   18.30
   1   1 -11  226.98   20.80
   0   1 -11  242.78   22.10
   0   1 -11  289.07   25.00
   0   1 -11  260.47   22.10
  -1   1 -11  608.34   57.39
  -1   1 -11  729.43   57.29
  -1   1 -11  796.82   60.69
  -2   1 -11  182.68   19.20
  -2   1 -11  196.68   16.60
  -3   1 -11   23.20    3.70
  -3   1 -11   18.60    5.30
  -3   1 -11   26.30    3.90
  -4   1 -11    0.20    2.80
  -4   1 -11    3.10    1.70
  -5   1 -11   63.59    9.50
  -5   1 -11   83.49    7.50
  -6   1 -11   94.09   10.90
  -6   1 -11   98.59    8.90
  -7   1 -11  359.56   30.80
  -7   1 -11  349.67   29.40
   7  -1  11  373.36   29.70
   7   0 -11   10.70    2.00
   7   0 -11    5.10    2.20
  -7   0  11    5.80    2.80
   6   0 -11   22.40    3.30
   6   0 -11   15.30    3.40
   5   0 -11  140.09   12.50
   5   0 -11  130.29   12.60
   5   0 -11  132.39   12.40
   4   0 -11  970.70   71.39
   4   0 -11  781.32   71.59
   3   0 -11    2.70    2.00
   3   0 -11    4.30    3.50
   3   0 -11    2.80    1.40
   2   0 -11  669.83   56.49
   2   0 -11  659.03   54.59
   1   0 -11   12.00    4.00
   1   0 -11   13.10    2.70
   1   0 -11    6.50    1.80
   0   0 -11    2.90    2.70
   0   0 -11    0.90    1.50
   0   0 -11    1.70    1.20
  -1   0 -11  110.29   10.20
  -1   0 -11  114.29   12.50
  -1   0 -11  104.99    9.90
  -2   0 -11  163.98   19.50
  -2   0 -11  217.48   17.80
  -2   0 -11  227.48   17.70
  -3   0 -11   36.50    4.50
  -3   0 -11   22.70    5.90
  -3   0 -11   33.30    4.30
  -4   0 -11  539.05   44.50
  -5   0 -11  341.87   28.50
  -6   0 -11    0.70    1.10
  -6   0 -11    0.60    2.50
   7  -1 -11  405.06   36.00
   7  -1 -11  460.55   35.50
  -7   1  11  431.06   36.40
   6  -1 -11  252.67   20.20
   6  -1 -11  236.88   20.50
  -6   1  11  208.38   21.90
   5  -1 -11   11.40    2.70
   5  -1 -11   10.90    2.80
   4  -1 -11    1.20    3.10
   4  -1 -11    2.90    2.10
   4  -1 -11    1.20    1.30
   3  -1 -11   57.29    7.70
   3  -1 -11   66.29    6.70
   3  -1 -11   72.09    9.00
   2  -1 -11  221.88   20.90
   2  -1 -11  212.08   18.80
   2  -1 -11  226.98   19.40
   1  -1 -11  628.14   52.69
   1  -1 -11  635.44   50.89
   1  -1 -11  598.44   50.59
   0  -1 -11  106.59   11.30
   0  -1 -11   94.69    9.10
   0  -1 -11   91.29    8.90
  -1  -1 -11   34.20    6.70
  -1  -1 -11   51.69    5.10
  -2  -1 -11   64.49    6.80
  -2  -1 -11   68.19    6.80
  -3  -1 -11   67.79    9.30
  -3  -1 -11   68.79    7.20
  -4  -1 -11  114.99    9.50
  -4  -1 -11   87.59   11.50
   4   1  11   83.49   11.30
  -5  -1 -11  386.66   34.30
  -6  -1 -11   55.09    7.90
  -6  -1 -11   72.69    6.20
   7  -2 -11  537.45   41.60
   7  -2 -11  482.35   42.10
   6  -2 -11  285.17   25.70
   6  -2 -11  318.97   25.50
   5  -2 -11    7.20    2.40
   5  -2 -11    6.00    3.70
   5  -2 -11    5.20    2.10
   4  -2 -11  847.82   69.19
   4  -2 -11  809.12   66.89
   4  -2 -11  813.92   67.49
   3  -2 -11  555.94   46.80
   3  -2 -11  556.74   46.10
   3  -2 -11  578.14   48.40
   2  -2 -11   40.40    4.70
   2  -2 -11   42.60    5.70
   2  -2 -11   45.50    6.50
   1  -2 -11   48.60    5.10
   1  -2 -11   41.90    5.50
   1  -2 -11   48.20    6.80
   0  -2 -11  433.26   36.20
   0  -2 -11  447.66   36.40
  -1  -2 -11   57.89    7.90
  -1  -2 -11   56.89    6.00
  -2  -2 -11  428.86   36.30
  -2  -2 -11  437.26   36.30
  -2  -2 -11  457.85   38.90
  -3  -2 -11  304.97   25.90
  -3  -2 -11  307.47   28.20
  -4  -2 -11   43.10    4.50
  -4  -2 -11   28.40    6.30
   4   2  11   29.20    6.10
  -5  -2 -11   75.09    9.50
   5   2  11   88.09    9.70
  -6  -2 -11   12.20    2.60
   7  -3 -11  112.79   10.50
   7  -3 -11  114.39   10.00
   6  -3 -11   50.29    6.00
   6  -3 -11   56.09    5.80
   6  -3 -11   53.69    7.50
   5  -3 -11    2.60    1.70
   5  -3 -11   -0.10    1.50
   5  -3 -11    1.90    2.90
   4  -3 -11   12.30    3.00
   4  -3 -11   13.10    2.50
   4  -3 -11   16.40    4.60
   3  -3 -11  634.54   51.39
   3  -3 -11  584.94   50.59
   3  -3 -11  649.34   52.89
   2  -3 -11  108.89   11.60
   2  -3 -11  100.29    9.70
   2  -3 -11  115.09   10.50
   1  -3 -11  190.28   16.20
   1  -3 -11  187.28   17.80
   1  -3 -11  175.18   15.70
   0  -3 -11  192.98   16.30
   0  -3 -11  194.78   18.20
   0  -3 -11  174.68   16.00
  -1  -3 -11  230.48   21.40
  -1  -3 -11  280.77   23.80
   1   3  11  259.17   21.90
  -2  -3 -11   61.49    8.20
  -3  -3 -11  119.89   11.30
  -3  -3 -11  128.89   13.40
  -4  -3 -11   17.10    2.80
  -4  -3 -11   10.80    3.90
   4   3  11   13.40    4.30
  -5  -3 -11  134.19   11.40
   5   3  11  123.09   12.90
   6  -4 -11  372.76   29.30
   6  -4 -11  389.96   31.10
   6  -4 -11  303.07   29.20
   5  -4 -11   59.59    8.20
   5  -4 -11   59.39    6.30
   5  -4 -11   50.49    5.90
   4  -4 -11   -0.30    1.50
   4  -4 -11    1.50    1.90
   4  -4 -11    0.00    2.40
   3  -4 -11   31.90    4.70
   3  -4 -11   27.10    3.80
   3  -4 -11   35.90    6.10
   2  -4 -11    6.50    2.90
   2  -4 -11    4.20    1.70
   2  -4 -11    4.90    2.10
   1  -4 -11   11.30    2.80
   1  -4 -11   18.80    4.40
   0  -4 -11  930.31   74.39
   0   4  11  864.31   72.79
  -1  -4 -11  119.09   12.10
   1   4  11  107.59   10.70
  -2  -4 -11   75.49    9.20
   4   4  11    0.70    2.80
   5  -5 -11  344.37   30.50
   4  -5 -11   25.60    5.30
   3  -5 -11  272.37   27.70
   3  -5 -11  343.57   28.20
   2  -5 -11  733.13   60.69
   2  -5 -11  718.33   60.09
   1  -5 -11    6.90    2.80
  -1   5  11    5.00    2.30
   0  -5 -11   44.10    6.20
   0   5  11   33.70    4.90
  -1  -5 -11    2.00    2.40
   1   5  11    2.00    2.10
  -2  -5 -11    0.10    2.60
   4  -6 -11   20.10    4.60
  -4   6  11   29.10    4.50
   3  -6 -11   20.00    4.20
  -3   6  11   16.30    3.70
   2  -6 -11  181.28   17.00
   1  -6 -11   66.39    7.80
  -1   6  11   66.99    7.20
   0  -6 -11  102.89   10.60
   0   6  11   98.89    9.70
   0   8 -12   48.10    4.90
  -1   8 -12  312.87   25.90
   3   7 -12    4.80    1.90
   2   7 -12  298.57   25.70
   1   7 -12  191.48   16.30
   0   7 -12   80.79    7.20
   0   7 -12   69.59    7.20
  -1   7 -12   11.50    2.50
  -1   7 -12   13.40    2.30
  -2   7 -12   24.60    3.50
  -2   7 -12   28.70    3.80
  -3   7 -12  116.49   10.60
  -3   7 -12  119.09   10.70
  -4   7 -12  187.08   16.00
   4   6 -12   53.99    5.80
   4   6 -12   47.20    5.50
   3   6 -12    2.70    1.60
   3   6 -12    4.30    2.40
   2   6 -12   55.09    5.30
   2   6 -12   40.40    5.80
   1   6 -12  121.79   11.80
   1   6 -12  146.29   11.70
   1   6 -12  126.79   11.60
   0   6 -12   65.39    6.40
   0   6 -12   62.19    6.30
  -1   6 -12  552.44   45.70
  -1   6 -12  568.84   45.70
  -2   6 -12  385.16   31.60
  -2   6 -12  379.06   31.60
  -3   6 -12   52.69    5.50
  -3   6 -12   46.70    5.40
  -4   6 -12   86.89    8.50
  -4   6 -12   90.59    8.40
  -5   6 -12   18.60    2.70
   5   5 -12   23.80    3.20
   5   5 -12   18.50    3.30
   4   5 -12  611.74   47.80
   4   5 -12  550.24   47.50
   3   5 -12  206.28   17.20
   3   5 -12  188.88   17.60
   2   5 -12   15.30    2.60
   2   5 -12    9.50    2.90
   1   5 -12  260.47   23.00
   1   5 -12  282.57   22.90
   0   5 -12   70.59    6.90
   0   5 -12   66.29    7.10
   0   5 -12   70.19    6.70
  -1   5 -12    7.60    1.90
  -1   5 -12    7.30    2.00
  -2   5 -12  363.66   30.90
  -2   5 -12  382.86   31.00
  -3   5 -12   14.70    2.70
  -3   5 -12   12.40    2.50
  -4   5 -12   83.79    9.80
  -4   5 -12   84.69    8.10
  -5   5 -12  322.07   27.40
  -5   5 -12  342.27   28.80
   5   4 -12   17.70    3.40
   5   4 -12   18.50    3.10
   4   4 -12   24.50    3.90
   4   4 -12   19.90    3.50
   3   4 -12  251.17   20.50
   3   4 -12  207.38   19.50
   3   4 -12  239.68   19.80
   2   4 -12   44.00    5.00
   2   4 -12   48.70    5.90
   2   4 -12   36.90    5.00
   1   4 -12  426.46   35.60
   1   4 -12  428.06   35.40
   1   4 -12  434.96   35.50
   0   4 -12  599.54   48.10
   0   4 -12  596.84   48.30
   0   4 -12  581.44   48.50
  -1   4 -12   27.10    3.60
  -1   4 -12   32.20    3.90
  -1   4 -12   26.70    3.90
  -2   4 -12  124.09   15.10
  -2   4 -12  136.99   12.50
  -2   4 -12  152.58   12.60
  -3   4 -12   84.89    7.90
  -3   4 -12   71.69   10.00
  -4   4 -12    4.80    1.90
  -4   4 -12    6.20    3.20
  -5   4 -12  376.16   31.70
  -5   4 -12  391.86   33.10
   6   3 -12  720.53   58.29
   5   3 -12  417.46   36.20
   5   3 -12  516.15   36.30
   5   3 -12  381.76   35.90
   4   3 -12  239.28   21.80
   4   3 -12  245.78   21.70
   4   3 -12  283.57   22.20
   3   3 -12  686.63   56.09
   3   3 -12  675.53   55.59
   3   3 -12  684.63   55.69
   2   3 -12   49.70    5.70
   2   3 -12   49.70    5.50
   2   3 -12   55.49    6.30
   1   3 -12    1.60    1.40
   1   3 -12    5.30    2.00
   1   3 -12    0.60    1.90
   0   3 -12   24.40    3.60
   0   3 -12   26.30    3.70
   0   3 -12   24.50    3.70
  -1   3 -12  222.08   25.80
  -1   3 -12  293.67   23.10
  -1   3 -12  300.97   23.50
  -2   3 -12   62.69    6.10
  -2   3 -12   46.30    8.70
  -2   3 -12   58.19    6.20
  -3   3 -12  724.83   54.09
  -3   3 -12  594.34   56.09
  -4   3 -12   17.20    2.90
  -4   3 -12   13.70    4.40
  -5   3 -12   80.79    9.30
  -5   3 -12   76.89    7.50
  -6   3 -12   24.60    4.60
   6   2 -12   50.69    5.10
   6   2 -12   46.10    5.50
   5   2 -12   25.50    4.10
   5   2 -12   30.20    4.00
   5   2 -12   24.50    3.80
   4   2 -12    0.80    1.50
   4   2 -12    1.90    2.00
   4   2 -12   -1.20    2.20
   3   2 -12  588.94   49.50
   3   2 -12  564.04   49.60
   3   2 -12  672.13   50.29
   2   2 -12  366.76   31.00
   2   2 -12  354.56   31.10
   2   2 -12  403.16   31.60
   1   2 -12   96.79    9.30
   1   2 -12   97.39    9.10
   0   2 -12  135.79   12.90
   0   2 -12  139.19   16.20
   0   2 -12  159.88   13.10
  -1   2 -12  149.99   17.00
  -1   2 -12  159.88   13.70
  -1   2 -12  159.78   14.00
  -2   2 -12   26.80    4.00
  -2   2 -12   28.80    3.80
  -2   2 -12   25.10    6.40
  -3   2 -12  515.85   37.30
  -3   2 -12  378.06   39.10
  -4   2 -12   99.59    8.90
  -4   2 -12   82.39   11.00
  -5   2 -12  189.18   15.80
  -5   2 -12  175.18   17.50
  -6   2 -12  274.47   23.40
  -6   2 -12  256.07   21.90
   6   1 -12  539.55   48.70
   6   1 -12  653.13   48.60
   5   1 -12 1273.77  105.99
   5   1 -12 1419.96  106.19
   5   1 -12 1256.37  106.09
   4   1 -12   18.80    5.60
   4   1 -12   23.70    3.60
   4   1 -12   22.60    3.80
   3   1 -12   29.20    4.60
   3   1 -12   28.40    3.90
   2   1 -12   12.60    2.40
   2   1 -12   14.40    3.10
   1   1 -12   21.80    3.60
   1   1 -12   22.20    5.90
   1   1 -12   19.00    3.10
   0   1 -12   13.70    4.80
   0   1 -12   21.00    3.00
   0   1 -12   14.00    2.60
  -1   1 -12  959.50   78.19
  -1   1 -12  938.71   75.29
  -1   1 -12  895.91   74.89
  -2   1 -12   87.49    8.30
  -2   1 -12   93.49    8.50
  -2   1 -12   76.89   10.80
  -3   1 -12  330.77   32.60
  -3   1 -12  387.96   30.20
  -4   1 -12   95.49   12.20
  -4   1 -12  124.89   10.40
  -5   1 -12   11.80    3.60
  -5   1 -12   12.50    2.30
   6   0 -12    0.00    1.20
   6   0 -12    2.50    1.70
   5   0 -12  550.74   43.10
   5   0 -12  494.15   43.00
   4   0 -12  320.07   26.70
   4   0 -12  312.97   27.10
   3   0 -12  250.87   21.40
   3   0 -12  239.28   20.80
   2   0 -12  840.32   65.79
   2   0 -12  768.82   65.39
   2   0 -12  813.72   68.09
   1   0 -12   35.90    4.70
   1   0 -12   34.00    4.40
   1   0 -12   38.00    7.00
   0   0 -12   95.39    9.50
   0   0 -12  109.59    9.70
   0   0 -12  106.69   12.20
  -1   0 -12    6.70    3.70
  -1   0 -12   11.70    2.40
  -2   0 -12  140.99   12.70
  -2   0 -12  142.49   13.00
  -2   0 -12  154.58   15.70
  -3   0 -12  138.19   12.00
  -3   0 -12  122.69   14.30
  -4   0 -12  472.75   45.60
  -4   0 -12  589.14   43.80
  -5   0 -12   38.80    4.00
  -5   0 -12   26.50    5.60
   6  -1 -12   39.10    5.20
   6  -1 -12   48.70    5.00
   5  -1 -12  516.55   40.50
   5  -1 -12  463.15   40.40
   4  -1 -12   15.40    2.90
   4  -1 -12   15.40    3.10
   3  -1 -12   13.90    4.70
   3  -1 -12   10.80    2.30
   3  -1 -12   13.20    3.00
   2  -1 -12  209.18   17.90
   2  -1 -12  215.08   20.40
   2  -1 -12  201.48   18.30
   1  -1 -12  383.46   32.20
   1  -1 -12  405.46   34.70
   1  -1 -12  381.36   32.30
   0  -1 -12  201.68   17.40
   0  -1 -12  220.18   20.00
   0  -1 -12  190.38   17.30
  -1  -1 -12  839.02   67.09
  -1  -1 -12  754.42   64.29
  -2  -1 -12  508.05   41.80
  -2  -1 -12  477.65   39.40
  -2  -1 -12  444.96   39.00
  -3  -1 -12    9.60    4.20
  -3  -1 -12    8.10    2.40
   3   1  12    8.30    4.50
  -4  -1 -12    4.20    3.00
  -4  -1 -12    6.80    2.20
  -5  -1 -12   37.20    6.30
   6  -2 -12   86.59    8.70
   6  -2 -12   91.89    8.40
   5  -2 -12   68.99    7.00
   5  -2 -12   64.59    6.90
   4  -2 -12 1081.79   87.19
   4  -2 -12 1042.50   89.29
   4  -2 -12 1117.09   87.59
   3  -2 -12   60.39    8.60
   3  -2 -12   66.29    7.00
   3  -2 -12   57.09    6.20
   2  -2 -12   34.90    5.00
   2  -2 -12   37.50    4.40
   2  -2 -12   42.70    7.10
   1  -2 -12   11.70    3.90
   1  -2 -12    7.70    2.10
   1  -2 -12    5.80    1.70
   0  -2 -12   93.69    9.40
   0  -2 -12  115.89   11.90
   0  -2 -12  102.19    9.40
  -1  -2 -12    6.60    3.40
  -1  -2 -12    3.30    1.60
  -2  -2 -12  316.77   28.70
  -3  -2 -12  105.79   11.70
  -3  -2 -12   99.29    9.50
   5  -3 -12    7.00    2.10
   5  -3 -12    9.80    2.30
   5  -3 -12   10.30    4.00
   4  -3 -12   36.40    4.50
   4  -3 -12   46.10    7.30
   4  -3 -12   31.40    4.70
   3  -3 -12  328.67   27.50
   3  -3 -12  268.77   24.80
   3  -3 -12  307.67   25.50
   2  -3 -12   47.20    5.40
   2  -3 -12   59.89    7.80
   2  -3 -12   55.39    6.10
   1  -3 -12  548.65   41.60
   1  -3 -12  473.65   39.30
   1  -3 -12  423.86   38.90
   0  -3 -12  204.28   17.50
   0  -3 -12  158.88   14.90
   0   3  12  166.78   15.30
  -1  -3 -12   10.70    3.50
  -2  -3 -12   73.99    9.10
  -3  -3 -12    1.40    2.80
   3   3  12    4.50    3.50
   4  -4 -12  197.98   18.70
   4  -4 -12  187.98   16.90
   3  -4 -12  390.66   33.00
   3  -4 -12  400.36   34.70
   2  -4 -12    0.70    2.40
   1  -4 -12   11.40    3.60
  -1   4  12   11.30    2.80
   0  -4 -12   73.89    8.80
   0   4  12   69.29    7.50
  -1  -4 -12   45.40    6.60
  -2  -4 -12   60.99    7.90
   3  -5 -12  257.77   23.70
   2  -5 -12  143.99   14.20
   1  -5 -12   12.20    3.50
   0   6 -13   22.00    3.30
   2   5 -13  522.45   36.80
   2   5 -13  369.06   36.90
   1   5 -13  211.28   18.00
   0   5 -13   38.90    4.70
  -1   5 -13   18.60    2.70
  -1   5 -13   17.00    3.30
  -2   5 -13  105.79    9.50
  -3   5 -13   17.20    2.80
   3   4 -13   13.00    2.80
   2   4 -13   19.80    3.20
   2   4 -13   21.40    3.40
   2   4 -13   17.40    3.30
   1   4 -13  272.57   21.70
   1   4 -13  240.18   21.50
   0   4 -13  322.17   27.10
   0   4 -13  327.27   27.10
  -1   4 -13  176.28   15.00
  -2   4 -13  163.88   14.20
  -3   4 -13  153.28   13.40
   4   3 -13  361.46   30.10
   3   3 -13  413.66   36.30
   3   3 -13  420.26   36.10
   3   3 -13  489.05   36.60
   2   3 -13    1.50    2.00
   2   3 -13   -0.60    2.30
   2   3 -13    0.80    1.50
   1   3 -13   74.19    7.30
   1   3 -13   71.09    7.10
   0   3 -13   17.10    2.90
  -1   3 -13    4.30    1.70
  -2   3 -13  364.66   30.00
  -2   3 -13  363.66   32.60
  -3   3 -13  243.18   22.80
  -3   3 -13  251.97   20.90
  -4   3 -13    1.50    1.50
   5   2 -13   48.40    5.60
   4   2 -13   14.80    2.70
   4   2 -13   16.50    3.00
   3   2 -13  167.18   14.40
   3   2 -13  150.98   13.80
   2   2 -13  207.78   18.50
   2   2 -13  228.08   18.90
   1   2 -13  451.65   35.40
   1   2 -13  406.66   35.20
   0   2 -13  918.81   74.29
  -1   2 -13    7.80    4.40
  -1   2 -13   10.80    2.30
  -2   2 -13    3.80    1.60
  -2   2 -13    2.90    3.40
  -3   2 -13   15.00    2.60
  -3   2 -13   17.40    4.80
  -4   2 -13    7.40    3.20
  -4   2 -13    7.90    2.50
   5   1 -13  247.98   20.90
   4   1 -13   10.90    2.50
   4   1 -13   10.40    2.30
   3   1 -13  285.07   24.20
   3   1 -13  293.57   24.60
   2   1 -13   73.19    7.10
   2   1 -13   70.69    7.40
   1   1 -13    6.20    4.90
   1   1 -13    8.50    2.00
   1   1 -13    7.40    2.20
   0   1 -13  235.58   23.80
   0   1 -13  255.47   21.00
  -1   1 -13  104.99    9.20
  -1   1 -13   86.09   11.60
  -2   1 -13    3.50    3.30
  -3   1 -13  317.67   26.20
  -3   1 -13  313.17   28.40
  -4   1 -13   72.99    8.70
   5   0 -13    4.50    1.90
   4   0 -13   10.50    2.60
   4   0 -13   15.20    2.60
   3   0 -13  114.29   10.60
   3   0 -13  121.09   11.10
   2   0 -13 1188.68   99.09
   2   0 -13 1280.87   99.39
   2   0 -13 1231.28  101.89
   1   0 -13   17.00    5.30
   1   0 -13   17.30    2.80
   1   0 -13   18.70    3.00
   0   0 -13  351.16   29.50
   0   0 -13  360.76   32.10
  -1   0 -13    6.20    3.70
  -1   0 -13    4.10    1.60
  -2   0 -13    7.10    3.70
  -3   0 -13   25.30    5.20
   4  -1 -13  180.08   15.60
   4  -1 -13  174.88   15.40
   3  -1 -13    7.10    1.80
   3  -1 -13    5.40    4.60
   2  -1 -13    5.10    2.20
   2  -1 -13    6.10    4.10
   2  -1 -13    4.40    1.50
   1  -1 -13   88.49   10.80
   1  -1 -13   82.59    8.10
   1  -1 -13   87.19    8.10
   0  -1 -13  255.37   22.70
   0  -1 -13  224.68   20.00
  -1  -1 -13  289.67   24.20
  -2  -1 -13   47.90    7.40
  -3  -1 -13   12.30    3.80
   4  -2 -13  242.88   20.60
   3  -2 -13    2.10    1.80
   3  -2 -13    4.70    4.10
   3  -2 -13    3.70    1.70
   2  -2 -13  376.56   30.30
   2  -2 -13  335.37   30.00
   2  -2 -13  388.16   32.70
   1  -2 -13  278.87   24.20
   1  -2 -13  245.38   21.70
   0  -2 -13   45.40    7.00
   0  -2 -13   37.30    4.50
  -1  -2 -13   11.40    3.70
  -2  -2 -13  326.27   28.90
   2  -3 -13   16.20    4.60
   1  -3 -13  337.47   29.90
   0  -3 -13  228.38   21.10
_computing_structure_solution     'SHELXT 2014/4 (Sheldrick, 2014)'
;
_shelx_hkl_checksum              49922
_shelx_res_file
;
TITL 4iba1a.res in P-1
 shelx.res created by SHELXL-2016/4 at 22:17:26 on 20-Sep-2016
CELL  1.54178  10.6311  11.0403  12.0340   97.594   92.173   99.423
ZERR     2.00   0.0005   0.0005   0.0006    0.002    0.002    0.001
LATT   1
SFAC  C    H    N    O    S    I
UNIT  52 44 4 14 4 4
MERG   2
OMIT    -9  -3   9
OMIT    -9  -4   8
OMIT    -1  -1   6
OMIT     0  -1   5
OMIT     1   0   1
DFIX     0.860   0.040 HN1 N1
DFIX     0.860   0.040 HN2 N2
DFIX  0.820 0.020 O7 H2O7
DFIX  0.820 0.020 O7 H1O7
FMAP   2
PLAN   40
SIZE     0.080   0.110   0.220
ACTA
BOND
BOND   $H
CONF
LIST   4
L.S.  80
TEMP  -100.00
WGHT    0.079700    0.262700
FVAR       0.34168
I1    6    0.901907    0.362132   -0.134761    11.00000    0.01479    0.03166 =
         0.01664    0.00403    0.00650   -0.00216
I2    6    0.238913    0.223029    0.999914    11.00000    0.01804    0.04120 =
         0.01761    0.00722    0.00791    0.00979
S1    5    0.368634    0.185973    0.388225    11.00000    0.00871    0.00847 =
         0.01275    0.00111    0.00249   -0.00027
S2    5    0.775771    0.202985    0.462108    11.00000    0.00817    0.01023 =
         0.01486    0.00132    0.00266   -0.00083
O5    4    0.758418    0.298187    0.396424    11.00000    0.01110    0.01995 =
         0.01418    0.00718    0.00168    0.00090
O7    4    0.595272    0.476075    0.392821    11.00000    0.01953    0.00942 =
         0.02136   -0.00030    0.00221    0.00172
O3    4    0.436338    0.061754    0.177716    11.00000    0.01568    0.01018 =
         0.01888   -0.00204    0.00407   -0.00154
O2    4    0.385743    0.064984    0.409536    11.00000    0.01883    0.01272 =
         0.01931    0.00532    0.00382    0.00511
O1    4    0.382066    0.283091    0.481085    11.00000    0.01477    0.01376 =
         0.01165   -0.00109    0.00206   -0.00101
O6    4    0.683223    0.403855    0.609828    11.00000    0.01738    0.00994 =
         0.02124    0.00134    0.00159   -0.00221
O4    4    0.764828    0.077771    0.409615    11.00000    0.01477    0.01604 =
         0.01752   -0.00473    0.00572   -0.00102
N1    3    0.473865    0.238321    0.301692    11.00000    0.00994    0.01148 =
         0.01012   -0.00119    0.00209   -0.00209
N2    3    0.666930    0.196271    0.558170    11.00000    0.01043    0.00814 =
         0.01847    0.00425    0.00475    0.00002
C15   1    0.973149    0.372503    0.571218    11.00000    0.01193    0.01260 =
         0.01378    0.00354    0.00436    0.00149
AFIX  43
H15   2    0.926916    0.434422    0.552424    11.00000   -1.20000
AFIX   0
C1    1    0.218031    0.174630    0.316927    11.00000    0.00901    0.01629 =
         0.01131    0.00120    0.00502   -0.00088
C14   1    0.923562    0.247122    0.539928    11.00000    0.00874    0.01364 =
         0.01122    0.00136    0.00294   -0.00156
C24   1    0.372000    0.242608    0.876823    11.00000    0.01359    0.02662 =
         0.01163    0.00410   -0.00064    0.01003
C12   1    0.720968    0.177921   -0.028290    11.00000    0.01632    0.01969 =
         0.01409   -0.00325    0.00456    0.00156
AFIX  43
H12   2    0.743547    0.121332   -0.087657    11.00000   -1.20000
AFIX   0
C10   1    0.745048    0.385382    0.072086    11.00000    0.01487    0.01568 =
         0.01433    0.00281    0.00592   -0.00324
AFIX  43
H10   2    0.784176    0.470125    0.081032    11.00000   -1.20000
AFIX   0
C20   1    0.636334    0.298926    0.623940    11.00000    0.00738    0.01355 =
         0.01489    0.00335   -0.00264    0.00116
C21   1    0.544311    0.273430    0.711254    11.00000    0.00653    0.01396 =
         0.01398    0.00189   -0.00231    0.00215
C8    1    0.598664    0.219548    0.133633    11.00000    0.00995    0.01338 =
         0.01364    0.00039   -0.00150    0.00262
C16   1    1.090064    0.405036    0.629722    11.00000    0.01361    0.01511 =
         0.01595    0.00436    0.00290   -0.00159
AFIX  43
H16   2    1.125122    0.490056    0.651777    11.00000   -1.20000
AFIX   0
C7    1    0.497246    0.164824    0.204235    11.00000    0.00852    0.01234 =
         0.01311   -0.00099   -0.00158    0.00293
C19   1    0.987670    0.155317    0.568584    11.00000    0.01198    0.01220 =
         0.02226    0.00296    0.00773    0.00115
AFIX  43
H19   2    0.951207    0.070383    0.548274    11.00000   -1.20000
AFIX   0
C23   1    0.452144    0.355342    0.877909    11.00000    0.01634    0.02057 =
         0.01434   -0.00302   -0.00124    0.00393
AFIX  43
H23   2    0.448327    0.421848    0.935780    11.00000   -1.20000
AFIX   0
C25   1    0.377825    0.143308    0.793148    11.00000    0.01344    0.01405 =
         0.01812    0.00665    0.00254    0.00220
AFIX  43
H25   2    0.323712    0.065693    0.792743    11.00000   -1.20000
AFIX   0
C11   1    0.775800    0.302539   -0.015255    11.00000    0.01159    0.02151 =
         0.01408    0.00647    0.00246    0.00114
C6    1    0.153635    0.061273    0.266506    11.00000    0.01549    0.02124 =
         0.01680    0.00160    0.00129   -0.00251
AFIX  43
H6    2    0.189454   -0.011585    0.270213    11.00000   -1.20000
AFIX   0
C9    1    0.656897    0.343842    0.146258    11.00000    0.01496    0.01635 =
         0.01392   -0.00158    0.00500    0.00385
AFIX  43
H9    2    0.635821    0.400468    0.206341    11.00000   -1.20000
AFIX   0
C22   1    0.537153    0.371278    0.795536    11.00000    0.01316    0.01268 =
         0.01749   -0.00053   -0.00331    0.00010
AFIX  43
H22   2    0.591048    0.449034    0.796067    11.00000   -1.20000
AFIX   0
C17   1    1.157341    0.313359    0.656769    11.00000    0.00806    0.02693 =
         0.01875    0.00794    0.00215    0.00122
AFIX  43
H17   2    1.239003    0.336432    0.695619    11.00000   -1.20000
AFIX   0
C2    1    0.167777    0.283875    0.312244    11.00000    0.01896    0.02138 =
         0.02000    0.00529    0.00737    0.00647
AFIX  43
H2    2    0.213500    0.361512    0.347460    11.00000   -1.20000
AFIX   0
C26   1    0.463498    0.160251    0.711404    11.00000    0.01142    0.01408 =
         0.01623    0.00163    0.00301    0.00409
AFIX  43
H26   2    0.467745    0.093534    0.653865    11.00000   -1.20000
AFIX   0
C18   1    1.105826    0.188536    0.627320    11.00000    0.01325    0.02249 =
         0.02405    0.00711    0.00461    0.00558
AFIX  43
H18   2    1.151187    0.126474    0.647265    11.00000   -1.20000
AFIX   0
C13   1    0.633555    0.137603    0.045928    11.00000    0.01101    0.01840 =
         0.01662   -0.00217    0.00117   -0.00156
AFIX  43
H13   2    0.596126    0.052405    0.037462    11.00000   -1.20000
AFIX   0
C4    1   -0.015192    0.161829    0.205033    11.00000    0.01319    0.05313 =
         0.02348    0.00927    0.00091    0.00087
AFIX  43
H4    2   -0.095970    0.157034    0.166620    11.00000   -1.20000
AFIX   0
C3    1    0.051321    0.276683    0.255865    11.00000    0.02257    0.03700 =
         0.03497    0.01306    0.00305    0.01393
AFIX  43
H3    2    0.016110    0.349761    0.251479    11.00000   -1.20000
AFIX   0
C5    1    0.036018    0.054359    0.210252    11.00000    0.01651    0.03974 =
         0.02394    0.00301   -0.00105   -0.01116
AFIX  43
H5    2   -0.009541   -0.023486    0.175348    11.00000   -1.20000
AFIX   0
H2O7  2    0.577872    0.543094    0.420490    11.00000    0.03977
H1O7  2    0.643189    0.456960    0.440845    11.00000    0.02641
HN2   2    0.636683    0.126756    0.576567    11.00000    0.01688
HN1   2    0.506563    0.310387    0.314760    11.00000    0.02984
HKLF 4
REM  4iba1a.res in P-1
REM R1 =  0.0409 for    4351 Fo > 4sig(Fo)  and  0.0421 for all    4556 data
REM    368 parameters refined using      4 restraints
END
WGHT      0.0797      0.2627
REM Highest difference peak  1.228,  deepest hole -1.175,  1-sigma level  0.219
Q1    1   0.8062  0.3558 -0.1714  11.00000  0.05    1.23
Q2    1   1.0052  0.3623 -0.1138  11.00000  0.05    1.09
Q3    1   0.1434  0.2165  0.9646  11.00000  0.05    1.01
Q4    1   0.3482  0.2326  1.0135  11.00000  0.05    0.96
Q5    1   0.7546  0.3936 -0.1223  11.00000  0.05    0.94
Q6    1   0.1178  0.2752  1.0024  11.00000  0.05    0.91
Q7    1   0.4030  0.1633  0.9728  11.00000  0.05    0.75
Q8    1   1.0383  0.3804 -0.0364  11.00000  0.05    0.73
Q9    1   0.8586  0.2226  0.5018  11.00000  0.05    0.72
Q10   1  -0.0062  0.2404  0.0815  11.00000  0.05    0.72
Q11   1   0.5259 -0.1084  0.0611  11.00000  0.05    0.71
Q12   1   0.0556  0.3708  0.0743  11.00000  0.05    0.69
Q13   1   0.9799  0.4176 -0.1787  11.00000  0.05    0.67
Q14   1   1.1383  0.3216  0.7854  11.00000  0.05    0.67
Q15   1   0.2864  0.1778  0.3454  11.00000  0.05    0.66
Q16   1   0.5189  0.3556  0.9211  11.00000  0.05    0.64
Q17   1   0.1742  0.1209  0.8387  11.00000  0.05    0.64
Q18   1   0.7142  0.5273  0.8972  11.00000  0.05    0.63
Q19   1  -0.1327 -0.0427  0.1840  11.00000  0.05    0.60
Q20   1   0.8037  0.6071  0.1710  11.00000  0.05    0.60
Q21   1   0.5914  0.3160  0.8971  11.00000  0.05    0.57
Q22   1  -0.1100  0.3031  0.1104  11.00000  0.05    0.57
Q23   1   1.0170  0.1029  0.4405  11.00000  0.05    0.57
Q24   1   0.0363 -0.0837  0.0755  11.00000  0.05    0.56
Q25   1   0.8651  0.4288  0.1032  11.00000  0.05    0.56
Q26   1   0.9113  0.4238 -0.0605  11.00000  0.05    0.55
Q27   1   0.0282  0.0459  0.0728  11.00000  0.05    0.54
Q28   1   1.2787  0.3694  0.7967  11.00000  0.05    0.54
Q29   1   1.0814  0.1943  0.7821  11.00000  0.05    0.53
Q30   1   0.2347  0.1663  0.9136  11.00000  0.05    0.53
Q31   1   0.9507  0.1946  0.4819  11.00000  0.05    0.52
Q32   1   1.2348  0.2735  0.7453  11.00000  0.05    0.52
Q33   1   0.4566  0.1250  0.0414  11.00000  0.05    0.52
Q34   1   1.1945  0.1339  0.7299  11.00000  0.05    0.52
Q35   1  -0.0582  0.1406  0.0291  11.00000  0.05    0.51
Q36   1   0.7524  0.4180  0.6542  11.00000  0.05    0.51
Q37   1   0.4801  0.2285  0.0228  11.00000  0.05    0.51
Q38   1   0.5253  0.3453  0.0737  11.00000  0.05    0.51
Q39   1   0.0000  0.0000  0.0000  10.50000  0.05    0.51
Q40   1  -0.1395  0.2051  0.0532  11.00000  0.05    0.50
;
_shelx_res_checksum              70351
loop_
_space_group_symop_operation_xyz
'x, y, z'
'-x, -y, -z'
loop_
_atom_site_type_symbol
_atom_site_label
_atom_site_fract_x
_atom_site_fract_y
_atom_site_fract_z
_atom_site_U_iso_or_equiv
_atom_site_adp_type
_atom_site_calc_flag
_atom_site_occupancy
I I1 0.90191(2) 0.36213(2) -0.13476(2) 0.02152(13) Uani d 1
I I2 0.23891(2) 0.22303(3) 0.99991(2) 0.02462(14) Uani d 1
S S1 0.36863(8) 0.18597(8) 0.38822(7) 0.0102(2) Uani d 1
S S2 0.77577(8) 0.20298(8) 0.46211(7) 0.0113(2) Uani d 1
O O5 0.7584(3) 0.2982(3) 0.3964(2) 0.0148(6) Uani d 1
O O7 0.5953(3) 0.4761(2) 0.3928(2) 0.0171(6) Uani d 1
O O3 0.4363(2) 0.0618(2) 0.1777(2) 0.0156(6) Uani d 1
O O2 0.3857(3) 0.0650(2) 0.4095(2) 0.0163(6) Uani d 1
O O1 0.3821(3) 0.2831(2) 0.4811(2) 0.0140(6) Uani d 1
O O6 0.6832(3) 0.4039(2) 0.6098(2) 0.0168(6) Uani d 1
O O4 0.7648(3) 0.0778(3) 0.4096(2) 0.0170(6) Uani d 1
N N1 0.4739(3) 0.2383(3) 0.3017(3) 0.0112(7) Uani d 1
N N2 0.6669(3) 0.1963(3) 0.5582(3) 0.0122(6) Uani d 1
C C15 0.9731(4) 0.3725(4) 0.5712(3) 0.0126(7) Uani d 1
H H15 0.926916 0.434422 0.552424 0.015 Uiso calc 1
C C1 0.2180(3) 0.1746(3) 0.3169(3) 0.0125(7) Uani d 1
C C14 0.9236(4) 0.2471(3) 0.5399(3) 0.0116(7) Uani d 1
C C24 0.3720(4) 0.2426(4) 0.8768(3) 0.0164(8) Uani d 1
C C12 0.7210(4) 0.1779(4) -0.0283(3) 0.0173(8) Uani d 1
H H12 0.743547 0.121332 -0.087657 0.021 Uiso calc 1
C C10 0.7450(4) 0.3854(4) 0.0721(3) 0.0154(8) Uani d 1
H H10 0.784176 0.470125 0.081032 0.019 Uiso calc 1
C C20 0.6363(3) 0.2989(3) 0.6239(3) 0.0120(7) Uani d 1
C C21 0.5443(3) 0.2734(3) 0.7113(3) 0.0115(7) Uani d 1
C C8 0.5987(4) 0.2195(4) 0.1336(3) 0.0124(8) Uani d 1
C C16 1.0901(4) 0.4050(4) 0.6297(3) 0.0151(8) Uani d 1
H H16 1.125122 0.490056 0.651777 0.018 Uiso calc 1
C C7 0.4972(3) 0.1648(3) 0.2042(3) 0.0115(7) Uani d 1
C C19 0.9877(4) 0.1553(4) 0.5686(3) 0.0154(8) Uani d 1
H H19 0.951207 0.070383 0.548274 0.018 Uiso calc 1
C C23 0.4521(4) 0.3553(4) 0.8779(3) 0.0176(8) Uani d 1
H H23 0.448327 0.421848 0.935780 0.021 Uiso calc 1
C C25 0.3778(4) 0.1433(4) 0.7931(3) 0.0148(8) Uani d 1
H H25 0.323712 0.065693 0.792743 0.018 Uiso calc 1
C C11 0.7758(4) 0.3025(4) -0.0153(3) 0.0155(8) Uani d 1
C C6 0.1536(4) 0.0613(4) 0.2665(3) 0.0186(8) Uani d 1
H H6 0.189454 -0.011585 0.270213 0.022 Uiso calc 1
C C9 0.6569(4) 0.3438(4) 0.1463(3) 0.0152(8) Uani d 1
H H9 0.635821 0.400468 0.206341 0.018 Uiso calc 1
C C22 0.5372(4) 0.3713(4) 0.7955(3) 0.0150(8) Uani d 1
H H22 0.591048 0.449034 0.796067 0.018 Uiso calc 1
C C17 1.1573(4) 0.3134(4) 0.6568(3) 0.0176(8) Uani d 1
H H17 1.239003 0.336432 0.695619 0.021 Uiso calc 1
C C2 0.1678(4) 0.2839(4) 0.3122(3) 0.0194(8) Uani d 1
H H2 0.213500 0.361512 0.347460 0.023 Uiso calc 1
C C26 0.4635(4) 0.1603(4) 0.7114(3) 0.0137(8) Uani d 1
H H26 0.467745 0.093534 0.653865 0.016 Uiso calc 1
C C18 1.1058(4) 0.1885(4) 0.6273(4) 0.0192(9) Uani d 1
H H18 1.151187 0.126474 0.647265 0.023 Uiso calc 1
C C13 0.6336(4) 0.1376(4) 0.0459(3) 0.0162(8) Uani d 1
H H13 0.596126 0.052405 0.037462 0.019 Uiso calc 1
C C4 -0.0152(4) 0.1618(5) 0.2050(4) 0.0301(11) Uani d 1
H H4 -0.095970 0.157034 0.166620 0.036 Uiso calc 1
C C3 0.0513(5) 0.2767(5) 0.2559(4) 0.0297(11) Uani d 1
H H3 0.016110 0.349761 0.251479 0.036 Uiso calc 1
C C5 0.0360(4) 0.0544(5) 0.2103(4) 0.0287(10) Uani d 1
H H5 -0.009541 -0.023486 0.175348 0.034 Uiso calc 1
H H2O7 0.578(6) 0.543(3) 0.420(5) 0.040(16) Uiso d 1
H H1O7 0.643(4) 0.457(5) 0.441(4) 0.026(14) Uiso d 1
H HN2 0.637(4) 0.127(3) 0.577(4) 0.017(11) Uiso d 1
H HN1 0.507(5) 0.310(3) 0.315(5) 0.030(15) Uiso d 1
loop_
_atom_site_aniso_label
_atom_site_aniso_U_11
_atom_site_aniso_U_22
_atom_site_aniso_U_33
_atom_site_aniso_U_12
_atom_site_aniso_U_13
_atom_site_aniso_U_23
I1 0.01479(19) 0.0317(2) 0.0166(2) -0.00216(12) 0.00650(12) 0.00403(13)
I2 0.0180(2) 0.0412(2) 0.0176(2) 0.00979(14) 0.00791(13) 0.00722(14)
S1 0.0087(4) 0.0085(4) 0.0127(5) -0.0003(3) 0.0025(3) 0.0011(3)
S2 0.0082(4) 0.0102(4) 0.0149(5) -0.0008(3) 0.0027(3) 0.0013(3)
O5 0.0111(13) 0.0200(14) 0.0142(14) 0.0009(10) 0.0017(10) 0.0072(11)
O7 0.0195(15) 0.0094(14) 0.0214(15) 0.0017(11) 0.0022(12) -0.0003(11)
O3 0.0157(13) 0.0102(13) 0.0189(14) -0.0015(10) 0.0041(11) -0.0020(10)
O2 0.0188(14) 0.0127(13) 0.0193(14) 0.0051(10) 0.0038(11) 0.0053(11)
O1 0.0148(14) 0.0138(13) 0.0116(14) -0.0010(10) 0.0021(11) -0.0011(10)
O6 0.0174(14) 0.0099(14) 0.0212(15) -0.0022(10) 0.0016(11) 0.0013(11)
O4 0.0148(14) 0.0160(14) 0.0175(14) -0.0010(10) 0.0057(11) -0.0047(11)
N1 0.0099(16) 0.0115(17) 0.0101(16) -0.0021(12) 0.0021(12) -0.0012(13)
N2 0.0104(15) 0.0081(16) 0.0185(17) 0.0000(12) 0.0048(12) 0.0043(13)
C15 0.0119(18) 0.0126(19) 0.0138(19) 0.0015(14) 0.0044(14) 0.0035(15)
C1 0.0090(18) 0.0163(19) 0.0113(18) -0.0009(14) 0.0050(14) 0.0012(14)
C14 0.0087(18) 0.0136(18) 0.0112(18) -0.0016(14) 0.0029(14) 0.0014(15)
C24 0.014(2) 0.027(2) 0.012(2) 0.0100(16) -0.0006(15) 0.0041(16)
C12 0.016(2) 0.020(2) 0.0141(19) 0.0016(16) 0.0046(15) -0.0032(16)
C10 0.015(2) 0.016(2) 0.014(2) -0.0032(15) 0.0059(15) 0.0028(15)
C20 0.0074(17) 0.0136(19) 0.0149(19) 0.0012(14) -0.0026(14) 0.0033(14)
C21 0.0065(17) 0.0140(18) 0.0140(19) 0.0022(14) -0.0023(14) 0.0019(14)
C8 0.0099(18) 0.0134(18) 0.0136(19) 0.0026(14) -0.0015(14) 0.0004(15)
C16 0.0136(19) 0.0151(19) 0.016(2) -0.0016(15) 0.0029(15) 0.0044(15)
C7 0.0085(17) 0.0123(19) 0.0131(19) 0.0029(14) -0.0016(14) -0.0010(15)
C19 0.0120(19) 0.0122(18) 0.022(2) 0.0012(14) 0.0077(15) 0.0030(15)
C23 0.016(2) 0.021(2) 0.014(2) 0.0039(15) -0.0012(15) -0.0030(15)
C25 0.0134(19) 0.0140(19) 0.018(2) 0.0022(15) 0.0025(15) 0.0066(15)
C11 0.0116(18) 0.022(2) 0.0141(19) 0.0011(15) 0.0025(15) 0.0065(16)
C6 0.015(2) 0.021(2) 0.017(2) -0.0025(15) 0.0013(15) 0.0016(16)
C9 0.0150(19) 0.016(2) 0.0139(19) 0.0038(15) 0.0050(15) -0.0016(15)
C22 0.0132(19) 0.0127(19) 0.017(2) 0.0001(14) -0.0033(15) -0.0005(15)
C17 0.0081(18) 0.027(2) 0.019(2) 0.0012(15) 0.0022(15) 0.0079(16)
C2 0.019(2) 0.021(2) 0.020(2) 0.0065(16) 0.0074(16) 0.0053(17)
C26 0.0114(18) 0.0141(19) 0.016(2) 0.0041(14) 0.0030(15) 0.0016(15)
C18 0.013(2) 0.022(2) 0.024(2) 0.0056(16) 0.0046(16) 0.0071(17)
C13 0.0110(18) 0.018(2) 0.017(2) -0.0016(14) 0.0012(15) -0.0022(15)
C4 0.013(2) 0.053(3) 0.023(2) 0.001(2) 0.0009(17) 0.009(2)
C3 0.023(2) 0.037(3) 0.035(3) 0.014(2) 0.003(2) 0.013(2)
C5 0.017(2) 0.040(3) 0.024(2) -0.0112(19) -0.0010(18) 0.0030(19)
loop_
_atom_type_symbol
_atom_type_description
_atom_type_scat_dispersion_real
_atom_type_scat_dispersion_imag
_atom_type_scat_source
C C 0.0181 0.0091 'International Tables Vol C Tables 4.2.6.8 and 6.1.1.4'
H H 0.0000 0.0000 'International Tables Vol C Tables 4.2.6.8 and 6.1.1.4'
N N 0.0311 0.0180 'International Tables Vol C Tables 4.2.6.8 and 6.1.1.4'
O O 0.0492 0.0322 'International Tables Vol C Tables 4.2.6.8 and 6.1.1.4'
S S 0.3331 0.5567 'International Tables Vol C Tables 4.2.6.8 and 6.1.1.4'
I I -0.3257 6.8362 'International Tables Vol C Tables 4.2.6.8 and 6.1.1.4'
loop_
_geom_angle_atom_site_label_1
_geom_angle_atom_site_label_2
_geom_angle_atom_site_label_3
_geom_angle
O1 S1 O2 118.27(17)
O1 S1 N1 104.13(17)
O2 S1 N1 110.25(17)
O1 S1 C1 109.10(17)
O2 S1 C1 108.84(17)
N1 S1 C1 105.46(17)
O4 S2 O5 120.03(17)
O4 S2 N2 103.98(16)
O5 S2 N2 109.06(16)
O4 S2 C14 109.29(17)
O5 S2 C14 108.55(17)
N2 S2 C14 104.88(17)
H2O7 O7 H1O7 105(6)
C7 N1 S1 121.4(3)
C7 N1 HN1 121(4)
S1 N1 HN1 117(4)
C20 N2 S2 124.3(3)
C20 N2 HN2 116(3)
S2 N2 HN2 119(3)
C16 C15 C14 118.9(4)
C16 C15 H15 120.6
C14 C15 H15 120.6
C6 C1 C2 121.6(4)
C6 C1 S1 120.2(3)
C2 C1 S1 118.3(3)
C19 C14 C15 121.6(4)
C19 C14 S2 118.6(3)
C15 C14 S2 119.8(3)
C23 C24 C25 120.5(4)
C23 C24 I2 119.4(3)
C25 C24 I2 120.0(3)
C13 C12 C11 119.1(4)
C13 C12 H12 120.4
C11 C12 H12 120.4
C9 C10 C11 119.5(4)
C9 C10 H10 120.2
C11 C10 H10 120.2
O6 C20 N2 121.1(3)
O6 C20 C21 122.6(3)
N2 C20 C21 116.3(3)
C22 C21 C26 119.1(4)
C22 C21 C20 116.8(3)
C26 C21 C20 124.1(3)
C9 C8 C13 118.5(4)
C9 C8 C7 125.7(3)
C13 C8 C7 115.8(3)
C15 C16 C17 120.1(4)
C15 C16 H16 119.9
C17 C16 H16 119.9
O3 C7 N1 120.8(3)
O3 C7 C8 122.0(3)
N1 C7 C8 117.2(3)
C14 C19 C18 119.3(4)
C14 C19 H19 120.3
C18 C19 H19 120.3
C22 C23 C24 120.3(4)
C22 C23 H23 119.9
C24 C23 H23 119.9
C26 C25 C24 118.7(4)
C26 C25 H25 120.7
C24 C25 H25 120.7
C10 C11 C12 120.9(4)
C10 C11 I1 121.1(3)
C12 C11 I1 118.0(3)
C1 C6 C5 119.3(4)
C1 C6 H6 120.3
C5 C6 H6 120.3
C10 C9 C8 120.6(4)
C10 C9 H9 119.7
C8 C9 H9 119.7
C23 C22 C21 120.1(4)
C23 C22 H22 120.0
C21 C22 H22 120.0
C18 C17 C16 120.6(4)
C18 C17 H17 119.7
C16 C17 H17 119.7
C3 C2 C1 118.9(4)
C3 C2 H2 120.5
C1 C2 H2 120.5
C25 C26 C21 121.4(4)
C25 C26 H26 119.3
C21 C26 H26 119.3
C19 C18 C17 119.5(4)
C19 C18 H18 120.3
C17 C18 H18 120.3
C12 C13 C8 121.3(4)
C12 C13 H13 119.3
C8 C13 H13 119.3
C5 C4 C3 120.5(4)
C5 C4 H4 119.8
C3 C4 H4 119.8
C2 C3 C4 119.9(4)
C2 C3 H3 120.0
C4 C3 H3 120.0
C6 C5 C4 119.8(4)
C6 C5 H5 120.1
C4 C5 H5 120.1
loop_
_geom_bond_atom_site_label_1
_geom_bond_atom_site_label_2
_geom_bond_distance
I1 C11 2.099(4)
I2 C24 2.094(4)
S1 O1 1.428(3)
S1 O2 1.432(3)
S1 N1 1.645(3)
S1 C1 1.766(4)
S2 O4 1.426(3)
S2 O5 1.427(3)
S2 N2 1.666(3)
S2 C14 1.761(4)
O7 H2O7 0.82(2)
O7 H1O7 0.83(2)
O3 C7 1.210(5)
O6 C20 1.220(5)
N1 C7 1.390(5)
N1 HN1 0.81(3)
N2 C20 1.386(5)
N2 HN2 0.84(3)
C15 C16 1.375(6)
C15 C14 1.394(5)
C15 H15 0.9500
C1 C6 1.375(6)
C1 C2 1.404(6)
C14 C19 1.383(5)
C24 C23 1.387(6)
C24 C25 1.398(6)
C12 C13 1.376(6)
C12 C11 1.389(6)
C12 H12 0.9500
C10 C9 1.384(6)
C10 C11 1.385(6)
C10 H10 0.9500
C20 C21 1.485(6)
C21 C22 1.395(6)
C21 C26 1.396(6)
C8 C9 1.396(6)
C8 C13 1.399(6)
C8 C7 1.497(6)
C16 C17 1.396(6)
C16 H16 0.9500
C19 C18 1.388(6)
C19 H19 0.9500
C23 C22 1.376(6)
C23 H23 0.9500
C25 C26 1.376(6)
C25 H25 0.9500
C6 C5 1.385(6)
C6 H6 0.9500
C9 H9 0.9500
C22 H22 0.9500
C17 C18 1.391(6)
C17 H17 0.9500
C2 C3 1.375(7)
C2 H2 0.9500
C26 H26 0.9500
C18 H18 0.9500
C13 H13 0.9500
C4 C5 1.392(7)
C4 C3 1.397(7)
C4 H4 0.9500
C3 H3 0.9500
C5 H5 0.9500
loop_
_geom_hbond_atom_site_label_D
_geom_hbond_atom_site_label_H
_geom_hbond_atom_site_label_A
_geom_hbond_site_symmetry_A
_geom_hbond_distance_DH
_geom_hbond_distance_HA
_geom_hbond_distance_DA
_geom_hbond_angle_DHA
_geom_hbond_publ_flag
N2 HN2 O2 2_656 0.84 2.12 2.9271 160 yes
N1 HN1 O7 . 0.81 2.01 2.7894 163 yes
O7 H2O7 O1 2_666 0.82 2.09 2.8507 154 yes
O7 H1O7 O5 . 0.83 2.32 2.8283 121 yes
O7 H1O7 O6 . 0.83 2.23 2.9898 152 yes
C9 H9 O7 . 0.95 2.37 3.2680 158 yes
C18 H18 O4 2_756 0.95 2.58 3.429(5) 149 yes
C26 H26 O2 2_656 0.95 2.59 3.376(5) 140 yes
C17 H17 Cg 1_455 0.95 2.88 3.7194 148 yes
loop_
_geom_torsion_atom_site_label_1
_geom_torsion_atom_site_label_2
_geom_torsion_atom_site_label_3
_geom_torsion_atom_site_label_4
_geom_torsion
O1 S1 N1 C7 174.5(3)
O2 S1 N1 C7 46.7(3)
C1 S1 N1 C7 -70.6(3)
O4 S2 N2 C20 -174.6(3)
O5 S2 N2 C20 -45.4(3)
C14 S2 N2 C20 70.7(3)
O1 S1 C1 C6 -146.8(3)
O2 S1 C1 C6 -16.4(4)
N1 S1 C1 C6 101.9(3)
O1 S1 C1 C2 34.0(4)
O2 S1 C1 C2 164.4(3)
N1 S1 C1 C2 -77.3(3)
C16 C15 C14 C19 1.5(6)
C16 C15 C14 S2 -178.5(3)
O4 S2 C14 C19 -18.8(3)
O5 S2 C14 C19 -151.4(3)
N2 S2 C14 C19 92.1(3)
O4 S2 C14 C15 161.2(3)
O5 S2 C14 C15 28.6(4)
N2 S2 C14 C15 -87.8(3)
S2 N2 C20 O6 4.8(5)
S2 N2 C20 C21 -175.2(2)
O6 C20 C21 C22 -15.9(5)
N2 C20 C21 C22 164.2(3)
O6 C20 C21 C26 162.1(3)
N2 C20 C21 C26 -17.9(5)
C14 C15 C16 C17 0.1(6)
S1 N1 C7 O3 3.4(5)
S1 N1 C7 C8 -177.6(3)
C9 C8 C7 O3 167.6(4)
C13 C8 C7 O3 -10.4(5)
C9 C8 C7 N1 -11.4(5)
C13 C8 C7 N1 170.6(3)
C15 C14 C19 C18 -1.7(6)
S2 C14 C19 C18 178.3(3)
C25 C24 C23 C22 1.0(6)
I2 C24 C23 C22 -177.8(3)
C23 C24 C25 C26 -0.7(6)
I2 C24 C25 C26 178.0(3)
C9 C10 C11 C12 -1.1(6)
C9 C10 C11 I1 176.9(3)
C13 C12 C11 C10 1.0(6)
C13 C12 C11 I1 -177.1(3)
C2 C1 C6 C5 -0.4(6)
S1 C1 C6 C5 -179.5(3)
C11 C10 C9 C8 -0.2(6)
C13 C8 C9 C10 1.4(6)
C7 C8 C9 C10 -176.6(4)
C24 C23 C22 C21 -0.9(6)
C26 C21 C22 C23 0.6(5)
C20 C21 C22 C23 178.6(3)
C15 C16 C17 C18 -1.5(6)
C6 C1 C2 C3 0.1(6)
S1 C1 C2 C3 179.2(3)
C24 C25 C26 C21 0.5(6)
C22 C21 C26 C25 -0.4(5)
C20 C21 C26 C25 -178.3(3)
C14 C19 C18 C17 0.3(6)
C16 C17 C18 C19 1.3(6)
C11 C12 C13 C8 0.3(6)
C9 C8 C13 C12 -1.5(6)
C7 C8 C13 C12 176.7(3)
C1 C2 C3 C4 0.4(7)
C5 C4 C3 C2 -0.5(7)
C1 C6 C5 C4 0.3(6)
C3 C4 C5 C6 0.2(7)

_cod_database_fobs_code 1545507
