#------------------------------------------------------------------------------
#$Date: 2017-09-12 07:07:21 +0300 (Tue, 12 Sep 2017) $
#$Revision: 200754 $
#$URL: file:///home/coder/svn-repositories/cod/cif/1/54/63/1546319.cif $
#------------------------------------------------------------------------------
#
# This file is available in the Crystallography Open Database (COD),
# http://www.crystallography.net/
#
# All data on this site have been placed in the public domain by the
# contributors.
#
data_1546319
loop_
_publ_author_name
'Al-Saffar, Firas M'
'Brown, Richard C. D.'
_publ_section_title
;
 A Two-Directional Synthesis of (+)-\b-Isosparteine.
;
_journal_issue                   13
_journal_name_full               'Organic letters'
_journal_page_first              3502
_journal_page_last               3504
_journal_paper_doi               10.1021/acs.orglett.7b01475
_journal_volume                  19
_journal_year                    2017
_chemical_absolute_configuration unk
_chemical_formula_moiety         'C20 H28 Cl N O4 S'
_chemical_formula_sum            'C20 H28 Cl N O4 S'
_chemical_formula_weight         413.94
_space_group_crystal_system      orthorhombic
_space_group_IT_number           19
_space_group_name_Hall           'P 2ac 2ab'
_space_group_name_H-M_alt        'P 21 21 21'
_symmetry_space_group_name_Hall  'P 2ac 2ab'
_symmetry_space_group_name_H-M   'P 21 21 21'
_atom_sites_solution_hydrogens   geom
_audit_creation_date             2015-06-23
_audit_creation_method
;
Olex2 1.2-alpha
(compiled 2015.06.08 svn.r3188 for OlexSys, GUI svn.r5059)
;
_cell_angle_alpha                90
_cell_angle_beta                 90
_cell_angle_gamma                90
_cell_formula_units_Z            4
_cell_length_a                   6.4385(7)
_cell_length_b                   17.461(2)
_cell_length_c                   19.3045(16)
_cell_measurement_reflns_used    3143
_cell_measurement_temperature    100(2)
_cell_measurement_theta_max      29.8930
_cell_measurement_theta_min      2.1530
_cell_volume                     2170.3(4)
_computing_cell_refinement
'CrysAlisPro, Agilent Technologies, Version 1.171.37.35 (release 13-08-2014 CrysAlis171 .NET) (compiled Aug 13 2014,18:06:01)'
_computing_data_collection
'CrystalClear-SM Expert 3.1 b27 (Rigaku, 2013)'
_computing_data_reduction
'CrysAlisPro, Agilent Technologies, Version 1.171.37.35 (release 13-08-2014 CrysAlis171 .NET) (compiled Aug 13 2014,18:06:01)'
_computing_molecular_graphics    'Olex2 (Dolomanov et al., 2009)'
_computing_publication_material  'Olex2 (Dolomanov et al., 2009)'
_computing_structure_refinement  'ShelXL (Sheldrick, 2015)'
_computing_structure_solution    'ShelXT (Sheldrick, 2015)'
_diffrn_ambient_temperature      100(2)
_diffrn_detector                 'CCD area detector'
_diffrn_detector_area_resol_mean 28.5714
_diffrn_detector_type            'Rigaku HG Saturn724+ (2x2 bin mode)'
_diffrn_measured_fraction_theta_full 0.995
_diffrn_measured_fraction_theta_max 0.993
_diffrn_measurement_details
;
#__ type_ start__ end____ width___ exp.time_
  1 omega -109.00   15.00   1.0000   20.0000
omega____ theta____ kappa____ phi______ frames
    -      -19.0000  -54.0000 -150.0000 124

#__ type_ start__ end____ width___ exp.time_
  2 omega  -49.00   20.00   1.0000   20.0000
omega____ theta____ kappa____ phi______ frames
    -      -19.0000   54.0000 -150.0000 69

#__ type_ start__ end____ width___ exp.time_
  3 omega   52.00   62.00   1.0000   20.0000
omega____ theta____ kappa____ phi______ frames
    -      -19.0000   72.0000 -150.0000 10

#__ type_ start__ end____ width___ exp.time_
  4 omega  -92.00  -64.00   1.0000   20.0000
omega____ theta____ kappa____ phi______ frames
    -      -19.0000  -72.0000   60.0000 28
;
_diffrn_measurement_device       'four-circle \k diffractometer'
_diffrn_measurement_device_type  'Rigaku AFC12 FRE-VHF'
_diffrn_measurement_method       'profile data from \w-scans'
_diffrn_measurement_specimen_support 'MiTeGen MicroMesh'
_diffrn_orient_matrix_UB_11      0.1044802000
_diffrn_orient_matrix_UB_12      -0.0083615000
_diffrn_orient_matrix_UB_13      -0.0088471000
_diffrn_orient_matrix_UB_21      0.0232019000
_diffrn_orient_matrix_UB_22      0.0396917000
_diffrn_orient_matrix_UB_23      -0.0004191000
_diffrn_orient_matrix_UB_31      0.0263002000
_diffrn_orient_matrix_UB_32      -0.0015866000
_diffrn_orient_matrix_UB_33      0.0356709000
_diffrn_radiation_collimation    0.3
_diffrn_radiation_monochromator  'Confocal mirrors, VHF Varimax'
_diffrn_radiation_probe          x-ray
_diffrn_radiation_type           MoK\a
_diffrn_radiation_wavelength     0.71073
_diffrn_reflns_av_R_equivalents  0.1294
_diffrn_reflns_av_unetI/netI     0.1638
_diffrn_reflns_Laue_measured_fraction_full 0.995
_diffrn_reflns_Laue_measured_fraction_max 0.993
_diffrn_reflns_limit_h_max       8
_diffrn_reflns_limit_h_min       -8
_diffrn_reflns_limit_k_max       23
_diffrn_reflns_limit_k_min       -23
_diffrn_reflns_limit_l_max       25
_diffrn_reflns_limit_l_min       -25
_diffrn_reflns_number            11375
_diffrn_reflns_point_group_measured_fraction_full 0.968
_diffrn_reflns_point_group_measured_fraction_max 0.953
_diffrn_reflns_theta_full        25.242
_diffrn_reflns_theta_max         28.699
_diffrn_reflns_theta_min         3.146
_diffrn_source                   'Rotating Anode'
_diffrn_source_current           55.0
_diffrn_source_power             2.475
_diffrn_source_target            Mo
_diffrn_source_type              'Rotating Anode'
_diffrn_source_voltage           45.0
_exptl_absorpt_coefficient_mu    0.296
_exptl_absorpt_correction_T_max  1.00000
_exptl_absorpt_correction_T_min  0.43954
_exptl_absorpt_correction_type   multi-scan
_exptl_absorpt_process_details
'CrysAlisPro, Agilent Technologies, Version 1.171.37.35 (release 13-08-2014 CrysAlis171 .NET) (compiled Aug 13 2014,18:06:01) Empirical absorption correction using spherical harmonics, implemented in SCALE3 ABSPACK scaling algorithm.'
_exptl_crystal_colour            'clear colourless'
_exptl_crystal_colour_lustre     clear
_exptl_crystal_colour_primary    colourless
_exptl_crystal_density_diffrn    1.267
_exptl_crystal_description       plate
_exptl_crystal_F_000             880
_exptl_crystal_preparation       'LDA, THF (-78degC)'
_exptl_crystal_recrystallization_method
'The material was recrystallised from chloroform by slow evaporation'
_exptl_crystal_size_max          0.13
_exptl_crystal_size_mid          0.09
_exptl_crystal_size_min          0.02
_refine_diff_density_max         1.366
_refine_diff_density_min         -0.620
_refine_diff_density_rms         0.196
_refine_ls_abs_structure_details
;
 Flack x determined using 620 quotients [(I+)-(I-)]/[(I+)+(I-)]
 (Parsons, Flack and Wagner, Acta Cryst. B69 (2013) 249-259).
;
_refine_ls_abs_structure_Flack   0.2(2)
_refine_ls_extinction_method     none
_refine_ls_goodness_of_fit_ref   1.066
_refine_ls_hydrogen_treatment    constr
_refine_ls_matrix_type           full
_refine_ls_number_parameters     247
_refine_ls_number_reflns         5336
_refine_ls_number_restraints     0
_refine_ls_restrained_S_all      1.066
_refine_ls_R_factor_all          0.1958
_refine_ls_R_factor_gt           0.1323
_refine_ls_shift/su_max          0.000
_refine_ls_shift/su_mean         0.000
_refine_ls_structure_factor_coef Fsqd
_refine_ls_weighting_details
'w=1/[\s^2^(Fo^2^)+(0.2000P)^2^] where P=(Fo^2^+2Fc^2^)/3'
_refine_ls_weighting_scheme      calc
_refine_ls_wR_factor_gt          0.3192
_refine_ls_wR_factor_ref         0.3642
_reflns_Friedel_coverage         0.681
_reflns_Friedel_fraction_full    0.932
_reflns_Friedel_fraction_max     0.899
_reflns_number_gt                2937
_reflns_number_total             5336
_reflns_threshold_expression     'I > 2\s(I)'
_cod_data_source_file            ol7b01475_si_005.cif
_cod_data_source_block           2015sot0035_r_100k
_cod_depositor_comments
'Adding full bibliography for 1546317--1546319.cif.'
_cod_database_code               1546319
_shelx_space_group_comment
;
The symmetry employed for this shelxl refinement is uniquely defined
by the following loop, which should always be used as a source of
symmetry information in preference to the above space-group names.
They are only intended as comments.
;
_diffrn_measurement_device_type2 'Rigaku AFC12 (Right)'
_reflns_odcompleteness_completeness 92.14
_reflns_odcompleteness_iscentric 1
_reflns_odcompleteness_theta     30.54
_olex2_refinement_description
;
1. Fixed Uiso
 At 1.2 times of:
  All C(H) groups, All C(H,H) groups
 At 1.5 times of:
  All C(H,H,H) groups
2.a Ternary CH refined with riding coordinates:
 C8(H8), C12(H12)
2.b Secondary CH2 refined with riding coordinates:
 C9(H9A,H9B), C10(H10A,H10B), C13(H13A,H13B), C14(H14A,H14B), C15(H15A,H15B),
 C16(H16A,H16B)
2.c Aromatic/amide H refined with riding coordinates:
 C1(H1), C2(H2), C3(H3), C4(H4), C5(H5)
2.d Idealised Me refined as rotating group:
 C18(H18A,H18B,H18C), C19(H19A,H19B,H19C), C20(H20A,H20B,H20C)
;
_shelx_res_file
;
    2015sot0035_r_100k.res created by SHELXL-2014/7

TITL 2015sot0035_r_100k_a.res in P2(1)2(1)2(1)
REM Old TITL 2015sot0035_R_100K in P212121 #19
REM SHELXT solution in P2(1)2(1)2(1)
REM R1 0.256, Rweak 0.135, Alpha 0.009, Orientation as input
REM Flack x = 0.152 ( 0.173 ) from Parsons' quotients
REM Formula found by SHELXT: C20 N2 O3 Cl2
CELL 0.71073 6.438524 17.461239 19.30451 90 90 90
ZERR 4 0.000716 0.002396 0.001626 0 0 0
LATT -1
SYMM 0.5-X,-Y,0.5+Z
SYMM -X,0.5+Y,0.5-Z
SYMM 0.5+X,0.5-Y,-Z
SFAC C H Cl N O S
UNIT 80 112 4 4 16 4

L.S. 4
PLAN  40
TEMP -173(2)
BOND $H
fmap 2
acta
SHEL 7 0.74
OMIT 4 0 3
OMIT 6 0 4
OMIT 6 1 8
OMIT -6 2 2
OMIT -5 1 4
OMIT 5 0 9
OMIT -6 2 4
OMIT 5 0 2
OMIT 6 2 4
OMIT -7 2 1
OMIT 7 2 1
OMIT -5 1 1
REM <olex2.extras>
REM <HklSrc "%.\\2015sot0035_R_100K.hkl">
REM </olex2.extras>

WGHT    0.200000
FVAR       0.45740
CL1   3   -0.077072    0.335530    0.050868    11.00000    0.05811    0.06290 =
         0.03546    0.00367   -0.01284   -0.00860
S1    6    0.824303    0.573222    0.243660    11.00000    0.03976    0.04371 =
         0.01801    0.00495   -0.00057   -0.00615
O1    5    0.344506    0.336380    0.389666    11.00000    0.03939    0.03812 =
         0.01682    0.00120    0.00189   -0.00672
O2    5    0.482223    0.454810    0.389406    11.00000    0.05415    0.03025 =
         0.02468   -0.00354    0.01144   -0.00641
O3    5    1.062239    0.459646    0.301129    11.00000    0.03070    0.05322 =
         0.03161   -0.00367    0.00389    0.00280
O4    5    0.670934    0.603760    0.193251    11.00000    0.06172    0.05423 =
         0.01964    0.01128   -0.00927   -0.01172
N1    4    0.741144    0.480047    0.261271    11.00000    0.04083    0.03892 =
         0.01522   -0.00584    0.00045   -0.00271
C1    1    0.131067    0.365542    0.487591    11.00000    0.04572    0.04030 =
         0.03083   -0.00254   -0.00853   -0.00638
AFIX  43
H1    2    0.022817    0.378841    0.456389    11.00000   -1.20000
AFIX   0
C2    1    0.098449    0.369191    0.559181    11.00000    0.06585    0.05079 =
         0.02488   -0.01188    0.01176   -0.01410
AFIX  43
H2    2   -0.032446    0.384341    0.577292    11.00000   -1.20000
AFIX   0
C3    1    0.263194    0.349994    0.603862    11.00000    0.07775    0.04019 =
         0.01914    0.00266    0.00921   -0.00762
AFIX  43
H3    2    0.244424    0.353204    0.652587    11.00000   -1.20000
AFIX   0
C4    1    0.450993    0.326641    0.577452    11.00000    0.07364    0.04113 =
         0.02266    0.00457   -0.00121   -0.00182
AFIX  43
H4    2    0.559969    0.312342    0.608004    11.00000   -1.20000
AFIX   0
C5    1    0.482530    0.323817    0.505704    11.00000    0.04619    0.03761 =
         0.02783    0.00150    0.00182   -0.00242
AFIX  43
H5    2    0.613107    0.309211    0.486981    11.00000   -1.20000
AFIX   0
C6    1    0.319220    0.342775    0.463129    11.00000    0.03536    0.03376 =
         0.02171    0.00670    0.00305   -0.00535
C7    1    0.435476    0.398608    0.359626    11.00000    0.03214    0.02274 =
         0.02556    0.00084   -0.00119    0.00321
C8    1    0.467728    0.381804    0.281809    11.00000    0.03612    0.02845 =
         0.02357   -0.00049   -0.00451   -0.00616
AFIX  13
H8    2    0.335035    0.361323    0.262275    11.00000   -1.20000
AFIX   0
C9    1    0.636675    0.320709    0.273830    11.00000    0.03267    0.03708 =
         0.02329    0.00028    0.00658   -0.00040
AFIX  23
H9A   2    0.595382    0.273731    0.299024    11.00000   -1.20000
H9B   2    0.653603    0.307554    0.224267    11.00000   -1.20000
AFIX   0
C10   1    0.840907    0.350521    0.302558    11.00000    0.03742    0.04051 =
         0.04048   -0.00363   -0.00678    0.00855
AFIX  23
H10A  2    0.840281    0.343079    0.353398    11.00000   -1.20000
H10B  2    0.954778    0.318808    0.283460    11.00000   -1.20000
AFIX   0
C11   1    0.889328    0.433224    0.287894    11.00000    0.03920    0.04149 =
         0.01581   -0.00697    0.00105    0.01082
C12   1    0.527041    0.455218    0.241846    11.00000    0.02523    0.04706 =
         0.01850    0.00064    0.00316    0.00255
AFIX  13
H12   2    0.427805    0.496721    0.255211    11.00000   -1.20000
AFIX   0
C13   1    0.508389    0.441740    0.162643    11.00000    0.03905    0.04197 =
         0.01664   -0.00186    0.00117   -0.00730
AFIX  23
H13A  2    0.576362    0.484708    0.138036    11.00000   -1.20000
H13B  2    0.583799    0.394207    0.150441    11.00000   -1.20000
AFIX   0
C14   1    0.283374    0.435003    0.137437    11.00000    0.03736    0.04054 =
         0.02063    0.00430    0.00060   -0.00592
AFIX  23
H14A  2    0.204619    0.480688    0.152683    11.00000   -1.20000
H14B  2    0.218430    0.389431    0.158924    11.00000   -1.20000
AFIX   0
C15   1    0.268777    0.428075    0.058154    11.00000    0.08042    0.04549 =
         0.01722    0.00875   -0.01326   -0.02179
AFIX  23
H15A  2    0.340744    0.472384    0.036998    11.00000   -1.20000
H15B  2    0.343033    0.381156    0.043473    11.00000   -1.20000
AFIX   0
C16   1    0.047919    0.424910    0.030355    11.00000    0.09380    0.05149 =
         0.02574    0.00626   -0.02674   -0.00673
AFIX  23
H16A  2    0.050591    0.431681   -0.020554    11.00000   -1.20000
H16B  2   -0.033506    0.467581    0.050424    11.00000   -1.20000
AFIX   0
C17   1    0.763932    0.627227    0.325652    11.00000    0.06383    0.02846 =
         0.02438    0.00254   -0.01286    0.00075
C18   1    0.534086    0.634121    0.336557    11.00000    0.03821    0.04676 =
         0.03655    0.00535    0.00691    0.00895
AFIX 137
H18A  2    0.466954    0.647695    0.292682    11.00000   -1.50000
H18B  2    0.506169    0.674052    0.370994    11.00000   -1.50000
H18C  2    0.478928    0.585122    0.353121    11.00000   -1.50000
AFIX   0
C19   1    0.877888    0.588866    0.387020    11.00000    0.05740    0.04981 =
         0.01071   -0.00261   -0.00303   -0.00583
AFIX 137
H19A  2    0.821051    0.537473    0.394561    11.00000   -1.50000
H19B  2    0.858418    0.619738    0.428915    11.00000   -1.50000
H19C  2    1.026425    0.585072    0.376482    11.00000   -1.50000
AFIX   0
C20   1    0.862762    0.705520    0.308383    11.00000    0.10824    0.03871 =
         0.03639    0.00883   -0.01253   -0.01969
AFIX 137
H20A  2    1.011845    0.698840    0.300123    11.00000   -1.50000
H20B  2    0.841952    0.740720    0.347309    11.00000   -1.50000
H20C  2    0.797204    0.726683    0.266759    11.00000   -1.50000
AFIX   0
HKLF 4

REM  2015sot0035_r_100k_a.res in P2(1)2(1)2(1)
REM R1 =  0.1323 for    2937 Fo > 4sig(Fo)  and  0.1958 for all    5336 data
REM    247 parameters refined using      0 restraints

END

WGHT      0.2000      0.0000

REM Highest difference peak  1.366,  deepest hole -0.620,  1-sigma level  0.196
Q1    1   0.8187  0.5165  0.2463  11.00000  0.05    1.37
Q2    1  -0.0677  0.3946  0.0490  11.00000  0.05    1.25
Q3    1   0.7053  0.5386  0.2508  11.00000  0.05    1.07
Q4    1   0.0688  0.3191  0.0480  11.00000  0.05    0.98
Q5    1   0.0641  0.3664  0.0485  11.00000  0.05    0.97
Q6    1  -0.0659  0.2709  0.0492  11.00000  0.05    0.94
Q7    1   0.9705  0.5902  0.2449  11.00000  0.05    0.93
Q8    1   0.8296  0.6362  0.2434  11.00000  0.05    0.92
Q9    1   0.9715  0.5473  0.2449  11.00000  0.05    0.92
Q10   1  -0.2326  0.3374  0.0494  11.00000  0.05    0.92
Q11   1   1.0482  0.3995  0.2959  11.00000  0.05    0.90
Q12   1  -0.1966  0.3744  0.0488  11.00000  0.05    0.88
Q13   1   0.6232  0.3770  0.2778  11.00000  0.05    0.84
Q14   1   0.5734  0.5207  0.2526  11.00000  0.05    0.79
Q15   1   1.1816  0.4310  0.2958  11.00000  0.05    0.77
Q16   1   0.7556  0.4185  0.2770  11.00000  0.05    0.72
Q17   1   0.6813  0.5995  0.2456  11.00000  0.05    0.71
Q18   1   0.8973  0.3937  0.2879  11.00000  0.05    0.69
Q19   1   0.6359  0.4790  0.2544  11.00000  0.05    0.63
Q20   1   0.4547  0.3319  0.2733  11.00000  0.05    0.62
Q21   1   0.7301  0.3579  0.2775  11.00000  0.05    0.59
Q22   1   0.5293  0.4254  0.2609  11.00000  0.05    0.58
Q23   1   0.6538  0.2611  0.2728  11.00000  0.05    0.55
Q24   1   0.7685  0.6598  0.3177  11.00000  0.05    0.53
Q25   1   0.3368  0.4322  0.3879  11.00000  0.05    0.53
Q26   1   0.1680  0.4551  0.0405  11.00000  0.05    0.52
Q27   1   0.7955  0.2960  0.2880  11.00000  0.05    0.52
Q28   1   1.1837  0.4981  0.2929  11.00000  0.05    0.52
Q29   1   0.3318  0.2756  0.4660  11.00000  0.05    0.50
Q30   1   0.5973  0.4763  0.3853  11.00000  0.05    0.49
Q31   1   1.1619  0.6412  0.2979  11.00000  0.05    0.48
Q32   1   0.5051  0.3922  0.3877  11.00000  0.05    0.48
Q33   1   0.1435  0.2824  0.4778  11.00000  0.05    0.48
Q34   1   0.3788  0.3950  0.2681  11.00000  0.05    0.45
Q35   1   0.0940  0.2993  0.5574  11.00000  0.05    0.45
Q36   1   0.4269  0.3745  0.2739  11.00000  0.05    0.44
Q37   1   0.2775  0.5045  0.1425  11.00000  0.05    0.43
Q38   1   0.4461  0.3987  0.5757  11.00000  0.05    0.43
Q39   1   0.5134  0.4978  0.3890  11.00000  0.05    0.42
Q40   1   0.6426  0.6652  0.3228  11.00000  0.05    0.42
;
_shelx_res_checksum              67026
_shelx_hkl_file
;
   0   0  -2   -0.80    0.86
   0   0   2 2207.35   20.85
   0   0  -3    3.14    2.68
   0   0  -3   12.03    5.35
   0   0   3    1.58    2.89
   0   0   3    1.04    4.25
   0   0   4 2741.18   33.63
   0   0   4 2780.74   50.49
   0   0  -4 3107.00   36.55
   0   0  -4 3222.79   48.05
   0   0  -5   -2.53    5.61
   0   0   5    1.21    3.58
   0   0  -5   -0.54    3.29
   0   0   5    1.69    6.54
   0   0   6 1250.81   40.83
   0   0   6 1173.40   28.11
   0   0  -6 1137.36   32.41
   0   0  -6 1260.89   27.71
   0   0   7   -2.83    7.41
   0   0  -7   -0.29    3.22
   0   0  -7   -0.04    4.93
   0   0   7   -2.10    4.35
   0   0   8   60.47    8.17
   0   0  -8   67.55    8.35
   0   0   8   69.73   13.88
   0   0  -8   61.78    9.24
   0   0  -9    0.32    5.84
   0   0  -9    5.30    4.93
   0   0   9    8.92    6.82
   0   0   9   -3.31   10.63
   0   0  10  421.51   21.49
   0   0 -10  407.74   19.13
   0   0 -10  433.80   24.36
   0   0  11   -1.25    5.18
   0   0 -11    1.68    4.21
   0   0 -11   -0.01    5.05
   0   0 -12  218.22   18.21
   0   0  12  197.18   16.57
   0   0  13   -1.61    5.51
   0   0 -13   -2.93    6.21
   0   0  14  669.58   31.02
   0   0 -14  820.16   37.50
   0   0  15    4.93    5.42
   0   0 -15   -5.39    6.57
   0   0  16  372.78   26.17
   0   0 -16  490.68   29.14
   0   0 -17   -7.05    6.15
   0   0  17    1.63    7.62
   0   0  18   48.84   11.58
   0   0 -18   53.71   10.22
   0   0  19    4.19    6.75
   0   0 -19   13.07    8.04
   0   0  20  468.26   30.88
   0   0 -20  498.55   30.55
   0   0  21   -2.46    8.74
   0   0 -21   -5.21    5.71
   0   0  22   62.12   13.73
   0   0  23   14.77    9.82
   0   0  24    7.05    8.08
   0   0  25   18.49   11.71
   0   1   2  408.76   11.32
   0  -1   2  130.83   10.51
   0  -1  -3    7.45    3.26
   0  -1   3   11.46    5.80
   0   1  -3    9.21    6.34
   0  -1   3    6.45    2.46
   0   1   3    7.86    3.08
   0  -1  -4 6060.69   52.52
   0   1   4 6436.77   57.14
   0   1   4 7344.92   59.59
   0  -1   4 5570.68   43.61
   0  -1  -4 6444.71   44.27
   0   1  -5  157.93   16.62
   0  -1   5  149.05    9.80
   0  -1   5  143.15   16.27
   0   1   5  141.70    9.77
   0   1   5  182.23   12.64
   0   1  -5  168.80    8.51
   0  -1  -5  140.55    9.90
   0  -1  -5  146.00    8.44
   0  -1   6  317.95   24.21
   0   1   6  628.65   24.16
   0   1  -6  402.73   24.36
   0  -1  -6  533.05   18.48
   0   1   6  539.20   19.25
   0   1  -6  536.55   16.47
   0  -1  -6  542.45   17.55
   0  -1   6  461.01   16.76
   0   1   7  397.11   17.83
   0  -1  -7  401.60   16.74
   0  -1   7  299.55   29.40
   0   1  -7  371.00   15.35
   0   1   7  420.48   22.05
   0   1  -7  351.43   23.77
   0  -1  -7  386.84   17.12
   0  -1   7  333.88   15.53
   0  -1  -8 2312.79   41.73
   0  -1   8 1968.64   40.12
   0   1  -8 2120.91   38.30
   0  -1   8 2621.29   86.53
   0   1  -8 1999.86   55.79
   0   1   8 2500.54   48.51
   0   1   8 2579.28   59.53
   0  -1  -8 2303.83   44.63
   0   1  -9 5109.38   86.92
   0   1  -9 5156.19   65.00
   0  -1   9 5107.84   67.16
   0  -1  -9 6132.89   72.56
   0   1   9 6691.22   84.50
   0  -1   9 9010.53  185.87
   0  -1  -9 6556.72   80.73
   0   1   9 8579.20  127.67
   0  -1 -10  780.57   28.23
   0   1 -10  712.34   33.98
   0  -1  10  625.01   25.78
   0  -1 -10  812.36   28.68
   0   1  10  874.67   31.97
   0   1 -10  668.55   23.44
   0   1 -11  182.38   12.92
   0  -1  11  183.80   14.30
   0   1  11  233.76   16.66
   0   1 -11  195.77   18.82
   0  -1 -11  239.71   16.31
   0   1 -12 1162.12   44.31
   0   1  12 1118.12   36.23
   0  -1  12  970.40   34.22
   0   1 -12  880.45   29.03
   0  -1 -12 1325.70   39.07
   0  -1 -13   91.20   11.09
   0   1  13   87.50   12.13
   0   1 -13   67.93   13.47
   0  -1  13   57.97    9.40
   0   1  14    9.86    8.19
   0   1 -14    5.87    7.34
   0  -1  14    5.21    5.58
   0  -1 -14    7.32    6.97
   0  -1 -15    9.74    6.21
   0   1 -15   12.12    8.95
   0   1  15    9.37    8.24
   0  -1  15    0.23    6.78
   0   1  16   33.25   10.97
   0  -1  16   28.67    9.32
   0   1 -16   31.98   10.29
   0  -1 -16   39.21    8.76
   0   1  17   12.96    7.69
   0   1 -17   14.62    9.10
   0  -1 -17   21.14    6.25
   0  -1  17   -1.91    6.71
   0   1 -18   46.70   11.74
   0  -1  18   27.89    9.72
   0  -1 -18   59.20   10.18
   0   1  18   37.88   10.10
   0   1  19   23.15    9.05
   0   1 -19   27.20   10.17
   0  -1 -19   33.95    9.82
   0  -1  19   14.57    6.78
   0   1  20  202.13   22.28
   0   1 -20  169.54   18.95
   0  -1  20  136.35   17.08
   0  -1 -20  188.33   18.48
   0   1  21    3.17    9.11
   0   1 -21    9.26    7.49
   0  -1  21    3.73    7.68
   0   1 -22  120.85   16.43
   0   1  22  132.78   18.94
   0  -1  22   88.39   14.26
   0   1  23   34.76   11.22
   0  -1  23   32.59   10.59
   0  -1  24   -2.32    9.25
   0   1  24   -1.75    8.27
   0   1  25   -8.02   10.00
   0  -2  -1  255.92    8.10
   0   2  -1  243.12   14.55
   0  -2  -2 3991.97   37.18
   0   2   2 4061.63   37.09
   0  -2   3  387.75   26.20
   0   2   3  695.60   18.07
   0   2  -3  341.44   22.13
   0  -2  -3  626.48   17.25
   0   2  -4   42.16   10.65
   0  -2   4   51.61   14.35
   0  -2  -4   77.35    7.85
   0   2   4   63.95    7.16
   0  -2   5 1481.99   25.05
   0   2   5 1803.12   29.53
   0  -2  -5 1643.61   18.46
   0   2   5 1638.77   32.75
   0  -2   5  870.35   45.26
   0  -2  -5 1681.90   32.05
   0   2  -5 1016.53   42.33
   0  -2  -6  576.14   13.15
   0  -2   6  447.63   15.43
   0   2  -6  483.49   27.86
   0  -2   6  455.44   36.27
   0  -2  -6  599.92   21.12
   0   2   6  689.96   22.49
   0   2   6  556.26   20.62
   0   2   7 1156.32   31.02
   0   2  -7  865.82   39.76
   0  -2   7  800.98   48.47
   0   2   7 1338.63   34.05
   0  -2   7 1008.22   26.60
   0  -2  -7 1224.45   31.44
   0  -2  -7 1160.44   21.98
   0  -2  -8 1666.34   29.85
   0  -2  -8 1607.04   37.91
   0  -2   8 1408.12   73.66
   0   2   8 1816.67   42.98
   0   2   8 1666.57   39.29
   0   2  -8 1432.45   51.57
   0  -2   8 1276.41   31.21
   0  -2  -9 1414.06   36.85
   0  -2  -9 1490.33   30.82
   0   2   9 1472.80   39.32
   0  -2 -10  580.51   20.70
   0   2 -10  440.10   30.81
   0  -2  10  391.43   19.62
   0   2  10  590.19   26.24
   0  -2 -10  581.31   25.52
   0   2 -11  804.61   38.79
   0  -2 -11  917.36   26.46
   0  -2 -12  117.29   10.50
   0  -2  12   87.17   10.62
   0   2 -12   89.34   14.79
   0  -2 -13 1819.22   42.46
   0   2  13 1894.61   53.70
   0   2  14  173.19   16.83
   0  -2 -14  174.57   13.69
   0  -2  14  114.17   13.19
   0   2 -14  154.04   18.90
   0   2  15   98.63   13.41
   0   2 -15   79.21   15.72
   0  -2  15   58.39   11.46
   0  -2 -15   85.86   10.46
   0   2  16   55.80   10.88
   0  -2 -16   66.08   10.34
   0   2 -16   43.25   12.41
   0  -2  16   35.38    9.11
   0  -2 -17  606.39   28.60
   0   2 -17  472.75   33.58
   0  -2  17  407.53   28.09
   0   2  17  607.01   33.25
   0   2 -18  130.08   18.85
   0   2  18  168.70   19.17
   0  -2 -18  145.26   14.35
   0   2 -19    2.09    8.82
   0  -2  19   -0.97    8.07
   0  -2 -19    2.20    4.70
   0   2  19    8.70    6.76
   0  -2  20   19.38    9.00
   0   2 -20   34.05   12.53
   0   2  20   38.17   11.29
   0   2 -21   19.30    8.98
   0  -2  21    9.35    7.48
   0   2  21   15.20    9.53
   0   2  22  127.88   18.70
   0   2 -22  107.67   16.98
   0  -2  22   91.22   14.67
   0  -2  23   35.28    9.86
   0   2  23   69.70   14.87
   0   2  24    5.27    7.22
   0   2  25    6.54    7.97
   0   2  26   14.30    7.44
   0   3  -1   54.57   11.70
   0  -3   2   35.68    3.34
   0   3   2   17.97    3.59
   0  -3  -2   26.74    4.40
   0   3  -2   25.05    9.33
   0   3   3  713.05   19.31
   0  -3  -3  712.26   19.98
   0  -3  -4 5136.22   56.07
   0   3   4 5157.13   57.60
   0  -3   4 3734.58   98.33
   0  -3  -5 1678.04   36.81
   0   3   5 1465.64   33.16
   0   3  -6  106.97   16.00
   0  -3  -6  104.96    4.45
   0   3   6  118.19   10.53
   0  -3   6  118.79   24.13
   0  -3  -6  135.14   11.25
   0   3   6   85.91    7.46
   0   3  -7 1936.71   61.01
   0  -3  -7 2102.64   22.64
   0   3   7 2206.33   42.24
   0   3   7 2276.51   39.47
   0  -3  -7 2396.99   46.44
   0  -3  -8  211.33    8.35
   0   3  -8  180.77   22.14
   0  -3   8  154.92   11.09
   0   3   8  213.37   12.92
   0  -3  -8  239.77   15.66
   0   3   8  230.16   15.57
   0  -3  -9 1864.86   28.32
   0   3   9 2028.79   45.62
   0   3  -9 1574.26   61.11
   0  -3  -9 1941.38   47.09
   0  -3   9 1281.62   34.12
   0   3   9 1663.36   41.72
   0   3  10  387.95   21.63
   0  -3 -10  339.41   12.65
   0   3 -10  339.28   28.94
   0   3  11   -6.19    4.80
   0   3 -11    3.58    8.18
   0  -3  11   -3.76    5.16
   0  -3 -11    4.06    3.00
   0   3 -12   36.74   11.88
   0   3  12   57.82    9.10
   0  -3 -12   60.61    6.34
   0  -3  12   45.42    9.94
   0   3 -13   20.01   11.25
   0  -3  13   13.69    6.05
   0  -3 -13   23.70    4.83
   0   3  13   21.56    6.81
   0   3  14  473.32   27.27
   0   3 -14  321.63   28.59
   0  -3 -14  413.23   18.76
   0  -3  14  287.55   19.73
   0  -3 -15   46.15    6.98
   0  -3  15   21.87    7.43
   0   3 -15   46.50   12.14
   0   3  15   55.56   11.45
   0  -3 -16    5.59    4.53
   0   3  16   18.28    8.59
   0   3 -16    4.94    9.37
   0  -3  16   -4.35    6.56
   0  -3  17    6.36    6.69
   0   3 -17   -1.41    7.10
   0   3  17   -8.80    7.93
   0  -3 -17    5.67    4.91
   0  -3  18    0.71    7.72
   0   3 -18   26.70   11.81
   0  -3 -18   14.76    5.11
   0   3  18   17.29    9.27
   0   3 -19   24.53   10.25
   0   3  19   41.51   12.07
   0  -3 -19   31.28    6.57
   0  -3  19   24.06    8.25
   0   3 -20   12.63    8.03
   0  -3  20   -1.54    6.98
   0   3  20    7.94    7.64
   0   3 -21  114.97   18.67
   0  -3  21  103.15   15.84
   0   3  21  162.40   20.32
   0   3 -22   43.07   11.18
   0  -3  22   47.61   10.85
   0   3  22   74.67   14.92
   0  -3  23   81.36   16.50
   0   3  23   64.69   14.31
   0   3 -23   66.48   14.18
   0   3  24    0.91    8.08
   0   3  25    8.19    7.72
   0   3  26    5.60    7.57
   0   4   0 9999.00  127.60
   0   4  -1  187.97   17.54
   0  -4  -2  545.11   17.64
   0  -4   2  610.52   15.46
   0  -4  -3  202.82   13.06
   0   4   3  189.74   10.83
   0   4  -3  229.74   10.78
   0  -4   3  226.13    8.94
   0   4  -4   20.01   11.06
   0   4  -4   52.16    5.05
   0  -4  -4   35.30    6.58
   0   4   4   35.69    6.26
   0   4  -5 1906.12   27.55
   0  -4  -5 1851.87   39.34
   0   4   6  209.67   14.44
   0  -4  -6  200.99   15.55
   0   4   7  216.32   16.12
   0  -4  -7  236.84   15.58
   0  -4  -8  572.49   24.98
   0   4  -8  313.15   29.09
   0  -4  -8  420.54    9.91
   0  -4   8  321.14   14.98
   0   4   8  347.84   13.90
   0   4   8  523.25   25.21
   0   4  -9  246.88   25.97
   0  -4   9  186.26   12.04
   0   4   9  424.00   23.67
   0   4   9  278.97   15.11
   0  -4  -9  364.70   10.68
   0   4 -10   10.35    9.96
   0  -4  10    8.39    4.33
   0  -4 -10    9.08    2.25
   0   4  10   14.14    6.20
   0   4  11   45.98    9.50
   0  -4  11   20.91    5.58
   0   4 -11   39.92   13.02
   0  -4 -11   38.25    4.42
   0   4  12  108.93   14.63
   0  -4 -12   86.61    7.00
   0   4 -12   72.30   15.40
   0  -4  12   52.59    8.45
   0  -4 -13   52.85    6.04
   0   4 -13   40.59   12.50
   0  -4  13   23.61    7.05
   0   4  13   55.77   11.02
   0   4 -14    4.50    7.89
   0  -4 -14    4.59    3.08
   0  -4  14    8.10    6.82
   0   4  14    8.82    7.72
   0  -4  15  465.03   25.54
   0   4 -15  562.90   38.49
   0   4 -16   10.90    9.45
   0   4  16    1.25    7.04
   0  -4 -16    6.76    4.43
   0  -4  16    8.60    6.10
   0   4 -17   22.23   11.31
   0  -4 -17   12.87    4.53
   0   4  17   20.47   10.23
   0  -4  17    0.18    6.75
   0   4 -18   83.65   16.81
   0  -4 -18   84.27    9.01
   0  -4  19    9.97    7.16
   0   4  19   35.49   10.46
   0   4 -19   16.74    8.65
   0  -4  20   14.21    7.88
   0   4 -20   18.98   10.59
   0   4  20   32.91   12.56
   0   4 -21    3.98    8.13
   0   4  21    8.71    7.55
   0  -4  21    2.68    7.85
   0   4 -22   11.42   10.45
   0  -4  22    8.11    7.40
   0   4  22   -0.28    6.63
   0   4 -23  -10.59   10.03
   0   4  23   -4.09    9.05
   0   4 -24    1.68    7.20
   0   4  24    8.94    8.30
   0   4  25   12.14    8.48
   0   5   0  -18.70   11.78
   0   5  -1  844.30   36.21
   0   5  -2   -4.82    7.95
   0  -5  -2    2.13    3.39
   0  -5   3  135.80    6.72
   0  -5  -3  123.22   10.35
   0   5  -4  268.90   13.24
   0   5  -4  219.04   23.17
   0   5  -5   61.88   15.56
   0   5  -5  115.68    7.51
   0   5   5   89.41    4.43
   0   5   5   66.46    9.39
   0  -5  -5  129.28   13.05
   0   5   6  446.54   20.07
   0  -5  -6  448.03   20.66
   0   5  -6  460.33   14.43
   0   5  -7  436.56   16.16
   0   5   7  418.60   21.80
   0   5  -8   95.83   19.28
   0   5   8  232.86   17.70
   0   5  -9  141.49   20.59
   0  -5   9  123.28   10.11
   0  -5  10    4.73    3.84
   0  -5 -10    4.63    1.61
   0   5 -10    9.40   10.31
   0   5  10    8.69    6.57
   0  -5 -11   25.25    3.30
   0   5 -11   50.16   15.89
   0  -5  11   38.20    6.55
   0  -5  12    7.40    5.82
   0  -5 -12   10.66    2.41
   0   5  12   14.32    7.01
   0   5 -12   26.60   12.30
   0   5 -13   17.02   10.19
   0  -5 -13   15.98    2.82
   0  -5  13   16.83    5.60
   0   5  14   16.61    9.15
   0  -5  14    1.16    5.35
   0  -5 -14    0.40    2.24
   0   5 -14   -1.33    8.20
   0   5 -15   12.57    9.73
   0  -5  15    5.52    5.49
   0  -5 -15   10.78    3.42
   0   5  15    9.55    6.81
   0  -5  16   21.04    8.14
   0   5 -16   24.41   12.82
   0  -5 -16   27.94    4.93
   0  -5  17   50.40    9.80
   0   5 -17   77.71   16.40
   0  -5  18   23.17    7.73
   0   5 -18   42.11   13.90
   0   5 -19   -0.10    8.52
   0   5  19   -6.24    8.12
   0  -5  19   -2.94    7.43
   0  -5  20  104.12   15.79
   0   5 -20  142.63   21.64
   0   5 -21   28.08   12.77
   0  -5  21   19.35    7.80
   0   5 -22   98.23   18.73
   0   5  22  134.51   20.11
   0   5 -23   15.42   10.25
   0   5  23   -0.36    8.02
   0   5  24  151.36   20.42
   0   5 -24  114.50   20.76
   0   6   0  217.57   20.72
   0   6   1 1353.62   50.89
   0   6  -1  999.84   43.36
   0   6  -2 1137.16   46.67
   0  -6  -2 1434.19   31.65
   0  -6  -3   41.44    7.97
   0  -6   3   26.92    3.75
   0   6  -3   23.43   12.38
   0   6  -4    5.33   10.58
   0  -6  -4    6.10    4.17
   0  -6   4    3.92    2.55
   0   6   5   96.15    5.71
   0   6  -5   63.13   18.02
   0  -6  -5   99.10   11.56
   0   6  -5   42.71    7.37
   0  -6  -6   48.93   10.05
   0   6   6   59.52    3.80
   0   6   6   34.19    7.40
   0   6  -6   40.03   16.32
   0   6  -6   46.73    5.26
   0   6  -7    0.95    2.76
   0   6   7    1.64    4.82
   0   6  -7   10.16   12.72
   0   6  -8  260.10   28.92
   0   6  -8  212.26   10.35
   0   6  -9   78.11   17.24
   0   6  -9   73.40    7.32
   0  -6  10   76.96    8.56
   0   6 -10  106.68    9.79
   0   6 -10   84.34   17.62
   0  -6  11    2.77    4.77
   0   6 -11    7.35    9.43
   0   6  11   11.13    6.36
   0   6 -12   67.56   18.22
   0  -6  12   43.76    7.25
   0  -6  13   11.10    6.16
   0   6 -13   12.16   11.40
   0   6  13    8.01    6.34
   0  -6  14   -1.51    6.15
   0   6 -14    8.26    9.73
   0  -6 -14    0.31    0.83
   0   6  14    6.88    5.94
   0  -6 -15   27.11    2.40
   0  -6  15   51.66    9.12
   0  -6  16   18.91    7.15
   0   6 -16   39.45   14.58
   0   6  16   24.54    7.05
   0   6 -17   32.13   12.56
   0  -6  17   29.79    7.03
   0   6 -18  321.68   32.04
   0  -6  18  220.46   18.96
   0   6  19   19.92    9.00
   0  -6  19    8.45    6.62
   0   6 -19   16.45    9.11
   0  -6  20    2.56    9.08
   0   6 -20   -8.56    9.05
   0   6  20    1.92    8.53
   0   6 -21   13.47    8.53
   0   6  21   27.71   10.16
   0   6  22   82.09   15.55
   0   6 -22   60.39   16.39
   0   6 -23  -13.66   11.26
   0   6 -24    0.66    8.34
   0   6 -25   -0.55    8.35
   0   7   0    1.36    8.68
   0   7  -1   70.86   14.17
   0   7   1   77.93   13.17
   0   7  -2   14.94   11.02
   0   7   2   31.95   12.22
   0  -7  -2   13.88    5.06
   0  -7   3   70.81    7.79
   0   7  -3   63.24   15.70
   0   7   3   95.30   14.65
   0  -7  -3   76.13   10.78
   0   7  -4  273.46   28.47
   0  -7   4  258.28   11.07
   0   7  -5  106.62   20.88
   0  -7  -5  200.49   17.59
   0   7   6   61.26    4.43
   0   7  -6   45.56   15.51
   0   7  -7   17.27   11.38
   0   7   7   10.82    3.45
   0   7  -7   11.76    5.26
   0   7  -8  127.58   21.67
   0   7  -8  102.82    8.72
   0   7  -9  713.92   48.15
   0   7  -9  655.01   21.75
   0   7 -10   63.54   16.97
   0   7 -10   57.56    7.15
   0   7 -11  191.62   13.38
   0  -7  11  202.60   14.32
   0  -7  12   20.23    5.66
   0   7  12   31.07    7.87
   0   7 -12   23.41   11.08
   0   7 -12   13.05    4.73
   0   7 -13    2.37   11.96
   0   7  13    3.58    6.10
   0  -7  13    0.95    4.95
   0  -7  14  323.23   21.83
   0   7 -14  337.33   33.09
   0   7 -15   95.20   20.41
   0  -7  15   77.02   11.58
   0  -7  16   24.92    7.73
   0   7  16   62.29   12.19
   0   7 -16   46.45   15.03
   0  -7  17   17.16    7.91
   0   7 -17   17.68   12.70
   0   7  17   33.56   10.88
   0   7  18  181.56   20.12
   0   7 -18  144.42   22.92
   0  -7  19   -6.16    6.46
   0   7 -19   -2.75    9.54
   0   7  19   -1.57    6.03
   0   7 -20   89.70   19.26
   0   7  20  136.04   18.55
   0   7 -21   60.15   16.70
   0   7 -22   15.38   12.96
   0   7 -23   21.05   12.74
   0   7 -24   47.07   15.69
   0   7 -25   14.26   11.39
   0   8   0  958.72   43.76
   0   8   1 1650.22   57.04
   0   8  -1 1483.51   56.25
   0  -8  -2    4.82    4.16
   0   8   2    2.88    8.77
   0   8  -2    6.91   12.16
   0  -8   3   73.64    8.28
   0   8   3   97.53   13.64
   0   8  -3   73.25   16.77
   0   8  -4   83.94   18.38
   0  -8   4  101.21    7.93
   0   8   4   94.60   12.62
   0   8   5  516.18   24.61
   0   8  -5  532.94   42.84
   0  -8   5  435.92   14.59
   0   8  -6  379.61   36.48
   0   8   6  321.50   16.78
   0   8   7    6.21    1.76
   0   8   7    6.43    3.87
   0   8  -8   84.87   10.94
   0   8  -8  214.88   28.16
   0   8  -9    1.27    3.90
   0   8  -9   16.65   12.36
   0   8  -9    7.27    3.09
   0   8 -10   63.78   18.34
   0   8 -10   26.75    5.51
   0   8 -11   61.99   18.54
   0   8 -11   27.01    5.88
   0   8  11   65.99   11.22
   0  -8  12   -0.36    4.75
   0   8  12   -1.24    5.35
   0   8 -12    0.20    4.23
   0   8 -12   -8.44   12.77
   0   8 -13   11.04   13.17
   0  -8  13   18.75    6.14
   0   8 -13   39.00    8.31
   0   8  13   18.74    7.89
   0  -8  14   39.90    8.54
   0   8 -14   59.73   17.84
   0   8  14   65.29   11.77
   0   8 -15  700.59   49.48
   0  -8  15  605.96   30.44
   0  -8  16   22.35    7.32
   0   8  16   54.10   12.17
   0   8 -16   28.98   13.57
   0   8  17    0.47    6.09
   0  -8  17    0.38    5.65
   0   8 -17    5.53    9.30
   0  -8  18    5.55    6.51
   0   8 -18   17.60   10.98
   0   8 -19   43.54   14.48
   0   8 -20   49.43   16.17
   0   8 -21   90.57   19.96
   0   8 -22   22.78   11.98
   0   8 -23   27.94   13.41
   0   8 -24   18.03   12.70
   0   8 -25   -6.33   11.58
   0   9   0    0.77    9.92
   0   9   1  251.52   23.70
   0   9  -1  267.17   26.59
   0  -9  -1  270.94   16.36
   0   9  -2   79.05   17.72
   0   9   2   58.54   11.66
   0   9   3    5.86    7.89
   0  -9   3    5.91    4.50
   0   9  -3    6.52   12.64
   0   9   4  117.78   14.50
   0  -9   4   80.44    7.82
   0   9  -4  113.48   22.52
   0   9  -5   17.94   10.93
   0   9   5   15.61    7.04
   0  -9   5   21.99    3.94
   0   9  -6   65.05   19.08
   0   9   6   83.80   10.43
   0   9  -7    6.70   12.14
   0   9   7    9.57    2.67
   0   9   7    3.80    4.10
   0   9  -8  208.28   28.65
   0   9   8  249.79    7.57
   0   9  -9   42.90   17.04
   0   9 -10   22.49   13.64
   0   9 -11   -4.96   10.80
   0   9 -11    2.45    3.01
   0   9 -12  252.02   17.63
   0   9 -12  574.84   49.00
   0   9 -13  305.56   35.85
   0  -9  13  173.88   14.02
   0  -9  14   40.07    7.91
   0   9 -14   73.63   19.11
   0  -9  15   10.70    5.70
   0   9 -15   11.64    9.78
   0  -9  16   26.20    7.80
   0   9 -16   46.54   16.15
   0   9 -17    4.70    8.98
   0  -9  17    4.69    6.10
   0   9 -18   46.72   15.46
   0  -9  18   51.95   13.28
   0   9 -19   28.97   14.53
   0   9 -20   34.99   14.72
   0   9 -21   -0.42    9.20
   0   9 -22    0.24   10.16
   0   9 -23   22.39   13.75
   0   9 -24   18.49   11.37
   0   9 -25    2.08   11.29
   0  10   0  763.07   44.74
   0  10   1   12.20   10.35
   0  10  -1    7.68   10.96
   0  10   2   71.52   14.90
   0  10  -2   84.57   19.19
   0  10   3  638.50   35.82
   0  10  -3  702.30   47.58
   0  10   4   13.27    9.32
   0  10  -4   -2.21   10.61
   0 -10   4    7.18    3.29
   0  10   5   76.68   12.85
   0 -10   5   41.45    5.75
   0  10  -5   62.32   19.15
   0  10  -6   81.06   21.64
   0  10   6   88.73   11.97
   0  10  -7  920.79   58.23
   0  10   7  925.60   19.71
   0  10   7  903.50   30.50
   0  10   8   -2.18    3.10
   0  10   8    2.91    1.79
   0  10  -9   76.95   20.24
   0  10 -10    5.00   10.92
   0  10 -11   13.10   11.51
   0  10 -12   -6.64   12.57
   0 -10  13  176.27   14.33
   0  10 -13  311.40   36.80
   0 -10  14   56.11    9.34
   0  10 -14  100.36   22.33
   0  10 -15    8.80   10.77
   0 -10  15    7.14    5.51
   0 -10  16    5.52    7.13
   0  10 -16    4.08   10.66
   0  10 -17  256.72   32.08
   0 -10  17  209.08   18.90
   0  10 -18   59.13   17.98
   0  10 -19   30.49   15.38
   0  10 -20   35.15   14.86
   0  10 -21   15.31   13.33
   0  10 -22    1.31    9.00
   0  10 -23   35.54   13.53
   0  10 -24   -4.90   11.35
   0  11   0   -8.40    9.48
   0  11  -1   47.60   15.62
   0  11   1   32.38   12.18
   0  11   2   58.34   14.40
   0  11  -2   79.26   19.37
   0  11  -3   53.92   19.16
   0  11   3   51.11   12.12
   0 -11   3   20.13    6.66
   0 -11   4    5.16    3.20
   0  11  -4   17.68   13.83
   0 -11   4    4.18    4.14
   0  11   4   28.08   10.63
   0 -11   5    5.44    3.64
   0  11  -5   -7.15   11.13
   0  11   5   19.97    9.51
   0  11  -6  206.10   30.52
   0  11   6  264.66   20.86
   0  11  -7   -0.99   11.02
   0  11   7   -1.37    5.21
   0  11   7    3.84    3.72
   0  11  -8    7.86   11.79
   0  11   8    7.50    4.65
   0  11   8   12.56    3.04
   0  11   9  219.41    7.50
   0  11  -9  252.12   33.52
   0  11 -10   25.79   15.76
   0  11 -11  159.79   27.86
   0  11 -12  125.77   27.00
   0  11 -13   -8.50   11.36
   0 -11  14   -0.51    4.94
   0  11 -14   -7.05   11.63
   0  11 -15   96.90   21.98
   0 -11  15   51.91    8.94
   0 -11  16   28.50    9.85
   0  11 -16   12.42   12.82
   0  11 -17   -4.24    9.92
   0  11 -18   -6.21   10.47
   0  11 -19   41.32   15.44
   0  11 -20   21.26   11.85
   0  11 -21    2.35   10.58
   0  11 -22    2.35   10.73
   0  11 -23    5.01    9.88
   0  11 -24  -19.85   13.58
   0  12   0  161.23   25.07
   0  12   1   16.65   13.49
   0  12  -1   21.49   13.24
   0  12   2  194.66   25.18
   0  12  -2  204.50   28.39
   0  12  -3  203.49   31.04
   0  12   3  181.13   22.84
   0 -12   4   11.89    5.50
   0  12   4   40.14   13.12
   0  12  -4   32.75   17.18
   0  12  -5   20.14   14.32
   0  12   5   32.27   11.35
   0 -12   5   13.93    4.27
   0  12  -6  257.77   32.74
   0  12   6  304.88   22.97
   0  12   7  345.86   21.72
   0  12  -7  279.35   34.02
   0  12   8   55.38    5.62
   0  12   8   73.69    9.45
   0  12  -8   84.90   20.28
   0  12  -9  109.08   23.50
   0  12   9   86.84    7.03
   0  12   9  107.97    6.24
   0  12 -10  189.62   31.01
   0  12 -11  120.07   25.38
   0  12 -12   36.14   17.32
   0  12 -13   49.44   19.32
   0  12 -14   36.37   14.83
   0 -12  14   17.65    6.52
   0 -12  15   28.26    8.96
   0  12 -15   -2.36    9.95
   0  12 -16   34.08   15.73
   0  12 -17    7.29   11.50
   0  12 -18   -4.35   11.64
   0  12 -19    1.27    9.93
   0  12 -20   23.10   11.41
   0  12 -21  -10.42   14.14
   0  12 -22    3.15   12.30
   0  12 -23    0.76   11.11
   0  13   0   14.31   11.85
   0  13   1    6.95   10.34
   0  13  -1   -9.04   12.49
   0  13  -2  107.72   23.78
   0  13   2   59.25   15.83
   0  13   3  216.31   26.09
   0  13  -3  209.05   29.44
   0  13   4   -0.75    8.04
   0 -13   4    1.76    5.41
   0 -13   5   12.27    5.13
   0  13   5   33.14   10.74
   0  13  -5   38.46   16.16
   0  13  -6   19.02   11.27
   0  13   6   23.44    9.16
   0 -13   6   16.60    4.66
   0  13  -7   60.56   18.75
   0  13   7   51.93   10.47
   0  13   8    4.05    4.21
   0  13  -8    9.30   16.05
   0  13   8    1.71    2.48
   0  13  -9   13.43   13.29
   0  13   9    4.86    3.01
   0  13 -10   13.60   14.56
   0  13 -11   48.03   19.23
   0  13 -12   36.50   16.16
   0  13 -13   63.18   22.58
   0  13 -14   21.62   14.00
   0  13 -15   -0.94   11.12
   0  13 -16   34.10   14.88
   0  13 -17  -11.16   10.48
   0  13 -18   16.92   13.03
   0  13 -19   58.31   17.53
   0  13 -20   15.76   12.87
   0  13 -21   33.15   16.41
   0  13 -22   14.68   10.32
   0  14   0   10.85   12.90
   0  14   1   18.52   13.05
   0  14  -1   -0.87   10.13
   0  14   2   20.59   11.79
   0  14  -2   23.82   14.09
   0 -14   3   36.79    8.80
   0  14  -3   43.06   17.69
   0  14   3   60.21   16.40
   0  14   4   28.10   11.06
   0 -14   4   18.29    6.74
   0 -14   4   13.37    5.08
   0  14   5   53.61   13.12
   0  14  -5   31.92   15.33
   0 -14   5   21.73    6.08
   0  14  -6    3.60   11.56
   0  14   6    0.14    6.79
   0 -14   6    4.24    3.79
   0  14   7  210.35   18.91
   0  14  -7  162.47   28.93
   0  14   8   18.10    6.05
   0  14  -8    5.56   12.39
   0  14   9   -3.31    3.32
   0  14  -9  -14.23   13.98
   0  14 -10   83.51   20.32
   0  14 -11   18.12   15.48
   0  14 -12   36.44   16.91
   0  14 -13   15.68   14.79
   0  14 -14   62.37   18.81
   0  14 -15   75.92   19.93
   0  14 -16  -12.39   12.54
   0  14 -17   15.70   14.16
   0  14 -18   30.44   16.40
   0  14 -19    6.67   11.76
   0  14 -20    6.46   12.69
   0  14 -21    9.97   11.00
   0  15   0    7.36   12.48
   0  15  -1   26.28   14.06
   0  15   1   11.64   10.79
   0  15   2   32.46   14.04
   0  15  -2   18.73   13.99
   0 -15   3   -6.74    6.38
   0  15  -3    2.73   12.62
   0  15   3    7.93    9.61
   0 -15   4    5.31    4.51
   0  15   4   -1.80    9.48
   0  15  -4   19.71   13.08
   0 -15   4    2.82    5.42
   0  15   5    1.20    7.95
   0  15  -5   13.05   13.58
   0 -15   5    1.84    4.93
   0  15  -6  140.52   28.34
   0  15   6  141.34   18.02
   0  15   7    2.99    5.78
   0  15  -7   11.10   13.25
   0  15  -8    4.01   13.66
   0  15   8   25.28    7.21
   0  15  -9   -0.42   12.26
   0  15 -10  109.98   27.03
   0  15 -11  -16.41   16.48
   0  15 -12   39.23   18.24
   0  15 -13    3.88   12.29
   0  15 -14   13.30   14.10
   0  15 -15   57.51   21.84
   0  15 -16   11.09   14.17
   0  15 -17   -3.01   10.31
   0  15 -18   22.93   17.60
   0  15 -19   -0.89   11.86
   0  15 -20   27.85   14.51
   0  16   0   -7.95   10.05
   0  16   1  245.94   30.44
   0  16  -1  220.37   30.71
   0  16  -2   48.68   18.24
   0  16   2   36.42   13.98
   0 -16   3    4.81    6.47
   0  16  -3    7.63   11.80
   0  16   3    3.94   11.16
   0 -16   4   10.77    4.50
   0  16  -4   49.55   18.42
   0  16   4   72.93   17.26
   0  16  -5    3.72   11.25
   0 -16   5   16.61    6.40
   0  16   5   18.51    9.99
   0  16   6    0.68    7.21
   0 -16   6    3.60    4.23
   0  16  -6   -0.48   13.28
   0  16  -7   61.49   19.82
   0  16   7   62.00   11.21
   0  16  -8   28.87   15.63
   0  16  -9   32.35   16.96
   0  16 -10   -2.89   12.34
   0  16 -11   10.68   13.59
   0  16 -12   68.34   22.19
   0  16 -13   16.58   13.14
   0  16 -14   68.36   20.31
   0  16 -15  109.73   26.69
   0  16 -16   18.97   13.72
   0  16 -17   15.94   14.13
   0  16 -18   21.93   13.80
   0  17   0   20.17   13.27
   0  17   1   37.14   15.89
   0  17  -1   29.43   17.00
   0  17  -2    8.79   11.11
   0  17   2   22.43   12.18
   0  17  -3   91.40   24.26
   0 -17   3   62.65   11.84
   0  17   3  127.23   21.79
   0 -17   4    5.14    5.41
   0  17   4   -4.65    9.66
   0  17  -4   -0.65   13.52
   0  17  -5   13.19   13.17
   0  17   5   24.09   10.97
   0 -17   5   25.20    7.32
   0  17  -6   -5.42   13.12
   0  17   6   12.89    8.34
   0  17  -7   77.84   23.07
   0  17  -8   29.48   19.48
   0  17  -9    8.16   11.96
   0  17 -10   -6.08   13.90
   0  17 -11   58.71   19.32
   0  17 -12   23.01   15.75
   0  17 -13  113.75   26.25
   0  17 -14   37.03   18.56
   0  17 -15   -3.36   11.92
   0  17 -16   10.59   12.56
   0  17 -17   33.99   17.88
   0  18   0   23.82   15.46
   0  18   1   37.01   16.19
   0  18  -1   22.62   15.39
   0  18  -2   33.30   16.24
   0  18   2   34.45   13.68
   0 -18   2    8.20    6.79
   0  18  -3  -10.72   13.45
   0 -18   3   -0.35    6.03
   0  18   3   20.97   12.29
   0  18  -4   14.02   13.25
   0  18   4   12.38    9.36
   0  18  -5   22.77   17.29
   0  18   5   -1.25    7.37
   0  18  -6  -12.08   14.89
   0  18  -7   15.32   13.77
   0  18  -8   34.85   18.51
   0  18  -9   -1.46   13.83
   0  18 -10  -20.31   15.60
   0  18 -11   20.17   14.16
   0  18 -12   30.96   16.97
   0  18 -13   53.57   20.18
   0  18 -14   13.24   14.58
   0  18 -15   47.32   17.94
   0  18 -16   -4.58   11.90
   0  19   0   12.93   14.31
   0  19  -1   -0.67   14.34
   0  19   1   38.80   16.52
   0  19   2   -8.00   10.24
   0  19  -2    0.15   11.12
   0 -19   2    0.90    6.18
   0  19  -3    8.34   13.04
   0 -19   3    2.95    5.80
   0  19   3   -8.85    9.85
   0  19   4   41.53   11.97
   0  19  -4    6.31   13.72
   0  19  -5   18.82   15.34
   0  19  -6  -13.97   15.24
   0  19  -7    5.76   14.70
   0  19  -8   12.14   14.00
   0  19  -9   77.70   20.31
   0  19 -10  -14.49   14.72
   0  19 -11   29.34   16.42
   0  19 -12    6.26   13.37
   0  19 -13   54.34   19.40
   0  19 -14    5.19   12.43
   0  20   0   46.67   15.18
   0  20  -1    2.32   10.42
   0  20   1   16.33   12.41
   0 -20   2    9.00    8.77
   0  20  -2    4.44   11.20
   0  20   2   -4.87    8.92
   0  20   3   55.18   15.41
   0  20  -3   61.79   19.11
   0  20  -4  101.32   23.36
   0  20  -5  -16.48   15.06
   0  20  -6   32.62   17.35
   0  20  -7    3.82   11.12
   0  20  -8   14.74   13.79
   0  20  -9   20.87   13.36
   0  20 -10   62.00   19.52
   0  20 -11   10.02   13.54
   0  20 -12   34.14   17.60
   0  20 -13   28.80   16.86
   0  21   0   -1.54    9.58
   0  21  -1   -5.77   12.03
   0  21   1  -12.44   10.85
   0 -21   1    7.59    7.82
   0  21   2   15.78   10.38
   0  21  -2   18.24   13.97
   0 -21   2   -2.20    6.86
   0  21  -3   27.49   15.24
   0  21  -4   27.98   16.72
   0  21  -5  -17.22   15.47
   0  21  -6   35.47   17.56
   0  21  -7   -2.98   11.05
   0  21  -8   16.32   15.54
   0  21  -9    7.83   12.93
   0  21 -10   -6.01   12.05
   0  21 -11    9.48   13.79
   0  22   0   17.29   11.95
   0 -22   1   10.24   10.91
   0  22  -1   26.86   15.10
   0  22  -2    2.98   12.22
   0 -22   2   20.42    9.96
   0  22  -3    5.45   10.47
   0  22  -4   14.23   11.36
   0  22  -5    3.17   11.62
   0  22  -6   14.36   13.92
   0  22  -7   -1.73   12.17
   0  22  -8  -18.28   15.60
   0  22  -9   -3.62   11.43
   0  22 -10   20.99   15.62
   0  23  -1    9.51   11.56
   0  23  -2   -1.18   11.46
   0  23  -3    2.59   10.58
   0  23  -4   23.79   14.62
   0  23  -5   -3.53   11.73
   0  23  -6   -1.54   12.67
   0  23  -7   -0.79   11.74
   0  23  -8   -2.16   11.72
   0  24  -2   55.11   18.53
   0  24  -3   17.47   14.20
   0  24  -4  -26.32   17.43
   0  24  -5   21.45   13.82
   0  24  -6   -5.14   12.99
  -1   0   0    0.86    2.33
  -1   0   0    1.32    3.14
   1   0   0    3.45    2.51
   1   0   0    0.09    2.61
   1   0   1  175.93    7.88
  -1   0   1  135.70    7.18
   1   0  -1  183.59    9.05
  -1   0   1  182.16   10.06
  -1   0  -1  149.98    7.74
   1   0  -2  665.79   15.78
  -1   0   2  646.20   15.52
  -1   0   3   42.71    5.29
   1   0  -3   42.44    5.42
   1   0  -4  225.34   11.27
  -1   0  -4  262.74    8.02
  -1   0   4  271.27   15.22
  -1   0   4  206.95   11.42
  -1   0   5 2629.66   44.82
  -1   0  -5 3062.32   32.00
  -1   0   5 3139.43   46.83
   1   0  -5 2511.08   41.68
   1   0  -6   53.48    7.99
  -1   0  -6   51.20    4.76
  -1   0   6   51.22    8.41
  -1   0   6   46.59    7.89
  -1   0   7 1144.67   34.57
   1   0  -7 1111.01   31.74
  -1   0   7 1165.65   33.49
  -1   0   8   32.89    9.34
   1   0   8   50.22    6.31
  -1   0  -8   48.28    6.07
  -1   0   8   33.34    8.64
   1   0  -8   38.06    8.06
  -1   0  -9  255.07   13.99
  -1   0   9  192.88   16.85
   1   0   9  270.97   14.07
  -1   0  -9  264.71   23.41
  -1   0   9  198.19   18.09
   1   0  -9  190.80   15.43
  -1   0 -10  208.82   20.32
  -1   0 -10  181.57   12.38
  -1   0  10  159.62   18.78
   1   0  10  219.63   14.01
   1   0 -10  152.93   14.62
  -1   0  10  109.97   13.37
  -1   0  11   66.15   11.52
  -1   0 -11  113.66   17.41
  -1   0  11   81.74   15.03
   1   0  11  112.27   10.90
   1   0 -11   75.69   11.21
  -1   0 -11   87.40    8.99
  -1   0 -12   63.13   13.62
  -1   0  12   40.92   10.09
  -1   0 -12   64.01    8.96
   1   0 -12   56.42   10.37
   1   0  12   66.02    9.15
  -1   0 -13   45.54   11.92
  -1   0  13   11.42    5.93
   1   0 -13   29.55    9.15
   1   0  13   36.50    7.75
  -1   0  14   11.95    9.36
  -1   0 -14   17.13    9.87
   1   0 -14   21.46    8.23
   1   0  14   12.42    6.61
  -1   0  15   55.23   12.40
   1   0  15  108.27   13.08
  -1   0 -15  123.89   17.52
   1   0 -15   72.51   12.24
  -1   0 -16   61.72   13.42
   1   0 -16   31.92    9.55
  -1   0  16   33.47   12.69
   1   0  16   57.91   10.51
  -1   0  17  134.07   17.71
   1   0  17  212.96   17.43
   1   0 -17  139.15   15.90
  -1   0 -17  230.96   22.10
   1   0  18   -0.23    5.49
  -1   0 -18    9.05    6.00
   1   0 -18  -10.92    7.88
  -1   0  18   11.73   10.81
  -1   0 -19   96.58   14.84
   1   0  19   89.07   12.74
  -1   0  19   54.17   13.44
   1   0 -19   60.98   11.55
   1   0 -20   31.76   10.11
  -1   0  20   29.28   11.29
   1   0  20   74.83   12.27
  -1   0 -20   64.36   13.11
   1   0 -21    9.64    6.71
   1   0  21   13.67    7.08
  -1   0  21   13.30    8.78
  -1   0  22   22.35   10.56
  -1   0  23    3.75   11.16
  -1   0  24   40.32   13.01
  -1   0  25   32.47   11.12
  -1   0  26    9.34    9.69
  -1   1  27   13.45   11.54
  -1   1  26   13.34   11.22
  -1   1  25   18.57   12.43
  -1   1  24   28.65   12.29
  -1   1  23    7.79   10.81
   1   1 -22   11.12    8.08
   1  -1  22   13.14    6.12
  -1   1  22    6.27    8.63
   1   1 -21    3.76    6.98
   1  -1  21    6.79    5.93
  -1   1  21    4.57    7.62
  -1   1  20    1.95    9.01
   1   1 -20   15.26    7.01
   1  -1  20   20.99    8.02
  -1  -1 -20   18.98    6.71
   1  -1  19   15.20    7.29
   1   1 -19   16.85    8.65
  -1  -1 -19   15.38    7.82
  -1   1  19   32.07   12.72
  -1  -1 -18  116.21   14.12
   1   1 -18   97.01   16.74
  -1   1  18   69.40   13.13
   1  -1  18  108.33   13.85
   1   1 -17  110.29   15.19
  -1   1  17  105.96   17.23
   1  -1  17  152.90   15.33
  -1   1  16  297.67   24.88
   1   1 -16  336.60   25.83
  -1  -1 -16  547.13   29.98
   1  -1  16  498.99   26.77
   1  -1  15  383.31   23.22
  -1   1  15  236.45   21.63
  -1  -1 -15  452.83   27.24
   1   1 -15  235.35   20.48
  -1  -1 -14 1146.06   43.22
   1   1 -14  625.34   32.16
  -1   1  14  599.95   32.59
   1  -1  14  986.62   34.88
   1   1 -13  232.15   20.00
  -1   1  13  221.65   19.94
   1  -1  13  340.26   19.65
  -1   1  13  363.27   32.73
   1   1 -12  276.78   21.43
   1  -1  12  504.44   22.97
  -1  -1 -12  439.30   20.93
  -1   1  12  431.91   32.22
  -1   1  12  301.65   22.80
  -1  -1 -12  568.34   31.69
  -1   1  11  339.01   26.98
  -1  -1 -11  491.67   29.99
  -1   1  11  273.54   20.99
   1   1 -11  266.61   19.75
  -1  -1 -11  386.58   19.00
   1  -1  11  438.31   20.17
   1   1 -10  215.75   17.69
  -1   1  10  250.07   20.43
   1  -1  10  334.75   16.52
  -1   1  10  248.77   19.15
  -1  -1 -10  308.34   16.53
  -1  -1  -9  231.78   13.32
   1   1  -9  139.33   14.34
  -1   1   9  196.08   16.22
  -1   1   9  194.58   15.61
  -1  -1  -9  291.41   22.45
   1  -1   9  247.22   13.44
  -1  -1  -8   28.34    5.43
   1  -1   8   34.39    5.65
  -1   1   8   19.01    7.96
  -1   1   8   24.44    6.94
   1   1  -8   24.28    6.77
  -1   1   7  130.51   13.18
  -1   1   7  111.48    9.93
   1   1  -7   88.68   10.81
  -1  -1  -7  125.53    8.41
   1  -1   7  120.66    7.84
  -1  -1  -6  989.46   21.20
  -1   1   6 1072.55   32.93
  -1  -1  -5 1183.08   22.88
  -1   1   5 1177.05   33.31
   1   1  -4 2403.68   42.73
  -1   1   4 2616.18   41.11
  -1  -1  -3  666.96   12.69
  -1   1   3  656.66   16.57
   1   1  -3  749.36   22.30
  -1   1   3  702.13   20.23
   1   1  -3  606.80   18.63
   1   1  -2 5221.28   48.23
  -1   1   2 4865.14   43.73
  -1  -1  -2 5176.04   37.57
   1   1  -2 4970.68   48.48
   1   1  -1  807.37   18.61
  -1  -1  -1  799.78   15.76
  -1   1   1  834.06   17.34
  -1  -1   0  372.14   11.26
  -1  -1   0  462.62   13.06
   1   1   0  362.17   11.46
   1  -1   0  418.46   11.31
   1  -1   0  204.21   10.04
  -1   1   0  315.25   10.25
  -1   1   0  305.54   11.87
  -1  -1   1  832.47   17.62
   1   1   1  799.96   16.87
   1   1   2 5277.49   35.73
  -1  -1   2 5329.00   50.97
  -1  -1   2 4765.63   50.59
   1  -1  -2 4798.25   44.05
   1  -1  -3  839.51   21.86
   1  -1  -3  787.95   19.67
  -1   1  -4 2154.28   21.06
   1  -1  -4 2142.41   30.51
   1  -1  -5 1046.84   29.13
  -1   1  -5  967.63   17.24
  -1  -1   5  860.14   28.29
   1  -1  -5  933.75   22.79
  -1  -1   6  787.54   29.63
   1  -1  -6  824.11   22.71
   1  -1  -6  976.46   29.71
  -1   1  -6  918.63   18.72
  -1  -1   6  891.18   26.90
  -1   1  -7  129.25    8.21
  -1  -1   7  101.01   10.35
  -1  -1   7  110.96   12.87
   1  -1  -7  115.71   11.78
   1  -1  -7  102.49    9.01
  -1  -1   8   14.07    5.99
  -1  -1   8   18.70    8.96
  -1   1  -8   25.03    4.73
   1  -1  -8   28.37    6.27
   1  -1  -8   21.65    7.38
   1   1   8   29.87    5.42
  -1  -1   9  143.73   14.17
  -1   1  -9  232.23   25.91
  -1   1  -9  227.78   12.76
  -1  -1   9  169.02   20.62
   1   1   9  236.29   13.19
   1  -1  -9  156.09   14.31
   1  -1  -9  175.34   13.55
  -1  -1  10  203.61   17.30
   1  -1 -10  207.01   14.90
   1   1  10  313.97   15.88
  -1   1 -10  276.52   25.86
  -1  -1  10  222.73   24.42
  -1   1 -10  298.72   15.69
   1  -1 -11  277.67   17.84
   1   1  11  365.84   18.35
  -1  -1  11  231.84   18.92
  -1   1 -11  456.44   34.03
  -1  -1  11  352.53   33.10
  -1   1 -11  362.95   16.97
   1   1  12  441.67   21.05
   1  -1 -12  349.54   20.90
  -1  -1  12  271.60   20.22
  -1   1 -12  509.20   38.12
  -1   1 -12  421.49   19.20
   1   1  13  314.36   18.71
  -1   1 -13  355.38   30.48
  -1   1 -13  274.85   16.01
   1  -1 -13  245.72   18.03
  -1  -1  13  199.23   18.44
  -1  -1  14  548.14   31.59
  -1   1 -14 1069.66   53.33
   1  -1 -14  659.38   29.88
   1   1  14  924.11   32.94
   1  -1 -15  278.94   21.24
  -1  -1  15  218.81   20.43
   1   1  15  369.83   21.98
  -1   1 -15  424.76   34.75
   1   1  16  484.76   25.62
   1  -1 -16  328.85   23.53
  -1   1 -16  508.51   36.88
  -1  -1  16  263.32   23.58
  -1   1 -17  157.62   20.68
   1   1  17  159.50   15.72
   1   1  18  120.72   14.70
   1  -1 -18   64.37   11.99
  -1  -1  18   71.38   13.57
  -1   1 -18  134.30   18.52
   1   1  19   18.71    7.40
  -1   1 -19    9.22    8.04
   1  -1 -19    4.09    5.49
  -1  -1  19    4.93    8.80
  -1   1 -20   26.90   10.36
   1   1  20   23.94    8.06
   1  -1 -20   18.00    7.16
  -1  -1  20   15.96   10.27
  -1  -1  21   -5.17    8.50
   1  -1 -21    2.58    5.92
  -1   1 -21    6.03    6.36
  -1  -1  22   14.96    9.88
  -1  -1  23    0.43    8.36
  -1  -1  24   22.83    9.68
  -1  -1  25   -8.95   12.20
  -1  -1  26   59.82   18.14
  -1   2  27    3.13   10.13
  -1   2  26    4.80   11.23
  -1   2  25   25.61   13.80
  -1   2  24   14.31    8.51
  -1   2  23   10.35   10.17
   1   2 -23   20.93    8.17
  -1   2  22   14.05    9.60
   1   2 -22    9.09    7.26
  -1   2  21   32.26   11.16
   1  -2  21   48.05   10.58
   1   2 -21   50.89   12.66
   1   2 -20   29.92   11.87
  -1   2  20   57.05   14.73
   1  -2  20   51.58    9.29
  -1   2  19  213.08   23.14
   1   2 -19  162.41   21.00
   1  -2  19  188.31   17.76
   1   2 -18    9.42    6.74
  -1  -2 -18   19.33    6.06
   1  -2  18   17.47    7.25
  -1   2  18   24.37   10.22
   1   2 -17   25.38    9.11
  -1  -2 -17   37.72    7.91
   1  -2  17   24.23    7.71
  -1   2  17   28.96   10.51
   1  -2  16   18.77    6.77
   1   2 -16   13.43    8.97
  -1   2  16   12.60    9.22
  -1  -2 -16   20.97    7.35
   1  -2  15   84.55   11.42
  -1   2  15   79.06   15.09
   1   2 -15   46.71   11.35
   1   2 -14   24.42    9.30
  -1   2  14   59.24   12.77
   1  -2  14   37.63    8.04
  -1   2  14   39.36   13.71
  -1  -2 -14   53.51    9.87
   1  -2  13  190.30   14.42
  -1   2  13  181.30   18.33
  -1   2  13  161.27   20.57
   1   2 -13  124.76   16.16
  -1   2  12  395.41   29.29
   1   2 -12  324.69   25.62
  -1   2  12  382.06   25.06
   1  -2  12  377.50   18.26
  -1   2  11  267.27   21.33
   1   2 -11  245.12   21.62
   1  -2  11  266.29   14.50
  -1   2  11  260.84   20.32
  -1  -2 -10  174.83   12.52
  -1   2  10  133.83   15.76
  -1   2  10  130.87   13.11
   1  -2  10  140.57   10.02
  -1   2   9   55.21   10.48
   1   2  -9   66.56   11.11
   1  -2   9   71.65    6.88
  -1   2   9   56.58    8.55
  -1  -2  -9   83.03    8.70
  -1  -2  -8 3809.02   50.63
  -1   2   8 3892.74   67.92
  -1   2   8 3639.47   53.97
   1  -2   8 3704.18   42.16
  -1   2   7  230.34   17.19
  -1   2   7  196.53   11.13
   1   2  -7  177.25   15.90
  -1  -2  -7  239.55   12.68
   1  -2   7  223.79    9.68
   1  -2   6  699.32   14.17
  -1   2   6  870.08   23.22
  -1   2   6  830.80   28.55
   1   2  -6  666.15   28.18
  -1  -2  -6  986.02   25.00
  -1   2   5 1139.99   31.04
  -1  -2  -5 1040.45   15.83
  -1  -2  -5 1105.31   22.85
  -1   2   5  986.63   20.89
  -1   2   4 1249.79   22.81
  -1  -2  -4 1449.80   18.08
  -1   2   4 1256.36   30.80
   1   2  -4 1488.07   29.83
   1   2  -4 1069.61   30.34
  -1  -2  -3  842.29   13.97
   1   2  -3  836.80   22.51
  -1   2   3  621.87   16.29
  -1   2   3  812.62   23.32
   1   2  -3  596.45   21.37
  -1   2   2  749.12   17.27
  -1   2   2  925.52   23.19
  -1  -2  -2  907.95   15.14
   1   2  -2  779.16   22.09
   1   2  -2  962.02   25.78
   1   2  -1 1291.18   24.16
  -1   2   1 1197.34   23.03
  -1   2   1 1407.72   25.38
   1   2  -1 1439.24   27.01
  -1  -2  -1 1340.01   19.90
   1  -2   1 1508.79   16.42
  -1   2   0  131.57    7.23
   1   2   0  144.35    7.66
   1  -2   0  132.53    6.79
   1  -2  -1 1267.00   25.30
  -1  -2   1 1311.83   26.33
  -1  -2   1 1275.58   24.60
  -1   2  -1 1251.86   17.14
   1  -2  -1 1305.05   22.57
  -1   2  -1 1269.93   16.44
  -1  -2   2  848.88   24.39
   1  -2  -2  765.59   19.47
   1  -2  -3  688.45   17.27
   1  -2  -3  663.80   21.25
  -1  -2   3  668.88   23.97
  -1  -2   3  819.36   23.18
   1   2   3  852.45   13.51
  -1  -2   4 1131.25   33.44
   1  -2  -4 1189.18   23.37
  -1   2  -5  741.51   13.14
   1  -2  -5 1027.28   29.72
  -1  -2   5  755.66   30.83
   1  -2  -5 1096.14   24.46
  -1  -2   6  606.52   30.04
  -1   2  -6  668.03   14.59
   1  -2  -7  183.16   14.00
  -1  -2   7  153.11   18.10
   1  -2  -7  182.71   10.93
  -1  -2   7  165.30   12.52
   1  -2  -8 3417.54   49.22
   1  -2  -8 3563.16   60.75
   1  -2  -9   45.74    6.69
  -1  -2   9   36.94    8.52
  -1   2  -9   68.24    6.47
  -1   2  -9   71.69   18.13
  -1  -2   9   58.63   15.29
  -1  -2  10  203.19   27.21
   1   2  10  167.77   12.37
   1  -2 -10  130.41   11.29
  -1  -2  10  107.89   12.47
  -1   2 -10  115.83   21.23
  -1   2 -10  155.46    9.96
   1  -2 -11  238.80   15.40
  -1   2 -11  298.68   29.05
   1   2  11  291.77   16.73
  -1   2 -11  294.40   14.42
   1   2  12  452.87   22.09
  -1   2 -12  508.59   40.10
  -1   2 -12  394.71   18.13
  -1  -2  12  280.47   21.54
   1  -2 -12  314.11   18.38
  -1   2 -13  160.26   11.84
  -1   2 -13  239.24   27.87
   1   2  13  219.39   16.10
  -1  -2  13  120.66   14.16
   1  -2 -13  160.08   13.70
  -1   2 -14   47.63   15.88
   1  -2 -14   24.26    6.82
   1   2  14   38.56    7.82
  -1  -2  14   11.73    7.04
   1  -2 -15   56.74    9.34
   1   2  15   84.60   11.35
  -1  -2  15   53.71   12.13
  -1   2 -15  102.65   19.92
   1  -2 -16    9.77    5.20
  -1   2 -16   22.80   10.23
   1   2  16   23.84    7.10
  -1  -2  16   -0.01    7.43
   1   2  17   31.05    8.44
   1  -2 -17   11.34    5.44
  -1   2 -17   17.23    8.92
  -1  -2  17   16.50    8.67
   1  -2 -18   17.58    6.48
  -1   2 -18   14.68    8.08
   1   2  18   32.92    8.57
  -1  -2  18    6.30    8.36
  -1  -2  19  115.76   17.04
   1  -2 -19  144.55   15.33
   1  -2 -20   38.71    9.30
  -1  -2  20   19.13    8.94
  -1  -2  21   33.23   13.15
  -1   2 -21   69.85   13.89
  -1   2 -22   15.65    8.43
  -1  -2  22   15.19    9.21
  -1  -2  23   19.43    8.62
  -1  -2  24   13.91   12.34
  -1  -2  25   11.05    8.65
  -1   3  27   17.45   12.35
  -1   3  26   35.51   13.37
  -1   3  25   -7.67    9.92
  -1   3  24  -18.42   11.13
  -1   3  23   33.67   12.07
   1   3 -23   36.15   11.26
   1   3 -22   28.24   10.81
  -1   3  22   15.99    8.84
   1  -3  21   51.71   11.67
   1   3 -21   28.88   12.33
   1  -3  20    5.42    6.51
  -1   3  20   -6.70    8.48
   1   3 -20    7.84    8.09
  -1   3  19  108.94   18.53
   1  -3  19   61.68   10.60
   1   3 -19   82.50   15.44
  -1  -3 -18   14.77    5.93
  -1   3  18    6.42    9.39
   1  -3  18    3.70    6.82
   1   3 -18    7.11    8.77
   1  -3  17  132.23   14.64
  -1   3  17  150.84   18.98
   1   3 -17  135.55   18.40
  -1   3  16   25.38    9.36
   1  -3  16   17.95    6.07
   1   3 -16   30.12   10.38
  -1  -3 -16   39.53    7.00
  -1   3  15  159.09   18.24
   1   3 -15  148.23   20.43
   1  -3  15  156.94   14.01
  -1   3  15  164.91   22.32
  -1   3  14  152.24   20.38
   1  -3  14  165.50   13.02
   1   3 -14  171.72   20.53
  -1   3  13  133.73   16.25
   1  -3  13   97.48   10.03
   1   3 -13   96.07   15.31
  -1   3  13   94.49   14.80
   1  -3  12  149.16   11.45
  -1   3  12  189.87   18.51
  -1   3  12  182.31   18.20
   1   3 -12  140.20   17.93
   1  -3  11  258.57   14.34
  -1   3  11  295.70   19.08
   1   3 -11  243.11   21.57
   1   3 -10   65.77   12.07
   1  -3  10   73.30    8.37
  -1   3  10   80.62   12.48
  -1   3  10   53.49    8.25
   1  -3   9  360.51   15.09
  -1  -3  -9  444.31   20.05
  -1   3   9  414.81   24.30
  -1   3   9  376.75   17.73
  -1   3   8 1809.00   46.11
  -1  -3  -8 1856.04   35.31
  -1  -3  -8 2135.52   44.96
   1   3  -8 1384.21   46.47
  -1   3   8 1570.91   32.26
   1  -3   8 1414.79   25.91
   1  -3   7   92.17    6.21
  -1   3   7  124.81   12.75
  -1  -3  -7  107.27    4.67
  -1   3   7  132.54    9.38
   1   3  -7  100.77   14.02
  -1  -3  -7  132.44   10.20
   1   3  -6 1321.34   33.47
  -1  -3  -6 1386.48   31.90
  -1  -3  -6 1152.56   15.00
  -1   3   6 1080.32   21.88
  -1   3   6 1174.45   35.17
   1   3  -6  978.73   36.32
  -1   3   5  154.16    8.36
  -1   3   5  172.80   12.95
   1   3  -5  203.87   12.25
   1   3  -5  132.26   13.27
  -1  -3  -5  169.81    5.78
  -1  -3  -5  164.21    9.81
   1   3  -4 1480.25   31.13
  -1  -3  -4 1335.81   16.37
  -1   3   4 1338.84   23.99
  -1   3   4 1466.50   33.84
   1   3  -3    6.09    5.23
  -1   3   3   -2.69    2.96
  -1   3   3    2.41    4.39
   1   3  -3    0.51    3.96
  -1  -3  -3    2.47    1.92
  -1   3   2  342.94   14.74
  -1   3   2  321.68   13.10
  -1   3   1 2464.74   38.84
   1   3  -1 2763.21   40.53
  -1  -3  -1 2777.83   34.02
  -1   3   1 2651.62   35.27
   1  -3   1 2562.84   23.21
   1  -3   1 2754.31   28.61
  -1   3   0    1.44    2.89
   1   3   0    3.60    3.73
  -1  -3   0    0.88    3.44
   1  -3   0    3.82    3.29
  -1  -3   1 2830.98   39.17
   1  -3  -1 2884.94   38.07
   1   3   1 2927.15   32.07
  -1  -3   1 2824.65   45.21
  -1  -3   2  364.70   18.87
   1  -3  -2  327.17   14.54
  -1  -3   2  484.00   17.32
   1  -3  -2  357.39   15.46
   1   3   2  433.52   11.17
  -1  -3   3   11.26    6.97
  -1  -3   3    8.15    3.67
   1  -3  -3    0.77    2.88
   1  -3  -3    3.51    4.44
   1   3   3    4.32    2.00
   1  -3  -4 1221.65   25.17
   1   3   4 1449.81   17.07
  -1  -3   4 1074.60   37.68
   1  -3  -4 1569.35   38.42
   1  -3  -5  165.88    9.21
  -1  -3   5  170.97   18.00
  -1  -3   6  909.13   43.11
   1  -3  -6 1128.12   24.85
  -1  -3   7  113.10   18.58
   1  -3  -7  141.32   13.49
   1  -3  -7  118.81    8.71
  -1  -3   8 1425.06   63.49
   1  -3  -8 1512.60   31.41
   1  -3  -9  328.15   14.74
  -1  -3   9  281.34   17.77
  -1  -3  10   49.89    8.05
   1  -3 -10   65.85    7.40
   1  -3 -11  252.86   14.71
  -1   3 -11  265.41   28.79
  -1  -3  12  117.95   12.86
   1  -3 -12  156.40   12.25
  -1   3 -12  186.55   25.31
  -1  -3  13   94.35   14.35
   1  -3 -13  119.80   11.91
   1   3  13  147.20   13.74
  -1   3 -13  143.35   23.21
   1   3  14  249.41   17.83
  -1   3 -14  270.84   30.41
   1  -3 -14  183.76   14.34
  -1  -3  14  131.48   15.79
   1  -3 -15  128.84   12.63
  -1  -3  15  110.29   14.86
  -1   3 -15  205.91   27.60
   1   3  15  218.90   17.56
  -1   3 -16   38.59   13.35
  -1  -3  16   24.09    7.94
   1  -3 -16    8.22    5.09
  -1  -3  17  117.68   16.32
   1  -3 -17  119.42   12.89
  -1  -3  18    2.15    7.26
   1  -3 -18   -0.34    4.67
  -1   3 -18   -2.19    8.92
   1  -3 -19   69.71   10.47
  -1  -3  19   43.70   12.50
  -1  -3  20    6.03    8.04
  -1   3 -20    6.76    9.75
  -1  -3  21    6.76    8.37
  -1   3 -21   34.04   11.26
  -1   3 -22   34.31   12.55
  -1  -3  22   16.66   10.30
  -1  -3  23   17.41    9.73
  -1  -3  24    0.46    7.88
  -1   4  27   -6.49    9.47
  -1   4  26    8.40   11.98
  -1   4  25   13.29   13.10
  -1   4  24    6.08    9.33
   1   4 -24    4.61    7.79
  -1   4  23   31.83   12.70
   1   4 -23   32.58   11.07
   1   4 -22   21.10   10.22
  -1   4  22   28.32   10.50
  -1   4  21  117.42   18.94
   1   4 -21   91.09   17.04
   1   4 -20  122.41   18.75
  -1   4  20  149.59   19.31
   1  -4  20  102.59   12.71
  -1   4  19   -2.87   10.06
   1   4 -19   -0.55    7.63
   1  -4  19   11.33    6.21
  -1   4  18   47.12   12.86
   1   4 -18   61.62   14.62
   1  -4  18   44.26    9.13
   1   4 -17   87.03   17.08
   1  -4  17   71.25   10.11
  -1   4  17   94.55   15.79
   1   4 -16   76.77   16.57
   1  -4  16   47.28    7.81
  -1   4  16   78.83   15.96
  -1  -4 -15  157.80    9.93
   1   4 -15   88.71   15.39
  -1   4  15   44.37   10.92
   1  -4  15   86.48   10.32
  -1   4  15  116.15   16.73
  -1   4  14  214.15   21.35
   1  -4  14  182.60   13.53
  -1   4  14  156.24   17.50
   1   4 -14  187.87   22.00
  -1   4  13   51.95   10.37
  -1  -4 -13   90.44    7.77
   1   4 -13   61.53   13.15
  -1   4  13   71.83   12.32
   1  -4  13   68.90    9.49
  -1   4  12   29.40    9.32
  -1   4  12   26.35    6.97
  -1  -4 -12   35.48    5.01
   1   4 -12   23.93    8.73
   1  -4  12   19.84    4.71
  -1   4  11  169.02   13.56
   1  -4  11  147.79    9.70
   1   4 -11  167.55   20.07
  -1   4  10 1696.17   37.13
   1   4 -10 1452.22   51.77
  -1  -4 -10 1599.25   19.09
   1  -4  10 1439.18   29.55
   1   4  -9  124.53   16.15
  -1  -4  -9  131.42    6.86
  -1   4   9  139.86   10.32
  -1  -4  -9  151.96    5.50
  -1   4   9  167.67   16.80
   1  -4   9  120.39    8.06
   1   4  -8  221.21   19.98
   1   4  -8  282.18   17.31
  -1   4   8  292.06   13.40
  -1  -4  -8  311.94   17.01
   1  -4   8  188.06    8.33
  -1   4   8  354.50   21.66
  -1   4   7  249.33   11.21
   1   4  -7  215.99   19.34
  -1  -4  -7  311.91   16.80
  -1   4   7  185.82   16.30
   1   4  -7  266.31   15.30
   1  -4   7  154.68    6.63
   1   4  -6  508.04   27.55
  -1  -4  -6  635.57   22.73
  -1   4   6  579.34   15.82
   1   4  -6  539.87   20.37
  -1   4   6  624.44   26.68
  -1  -4  -5  353.14   15.27
   1   4  -5  437.72   17.74
  -1  -4  -5  279.80    7.86
   1   4  -5  335.10   22.10
  -1   4   5  339.16   19.57
  -1   4   5  416.12   13.82
  -1   4   4  360.74   18.16
   1   4  -4  361.57   16.42
  -1  -4  -4  339.39   10.29
  -1   4   3  144.41    9.33
  -1   4   3  126.82   12.15
   1   4  -3  138.31   13.50
   1   4  -2   41.60    8.54
   1  -4   2   42.43    3.81
  -1  -4  -2   44.60    5.54
  -1   4   2   37.44    6.59
  -1   4   2   46.46    6.55
  -1  -4  -1 1661.55   33.57
  -1   4   1 1296.64   25.26
   1  -4   1 1443.62   22.49
   1   4  -1 1510.19   33.58
   1   4   0  148.91   10.81
   1  -4   0  129.91    8.32
  -1  -4   0  151.58   11.99
   1   4   1 1671.66   27.62
  -1  -4   1 1608.89   39.78
  -1  -4   2   53.58   10.68
   1  -4  -2   36.75    6.30
   1   4   2   49.75    4.67
  -1  -4   3  169.71   11.02
  -1  -4   3  168.91   17.89
   1   4   3  203.44    7.47
   1  -4  -4  298.96   14.55
   1  -4  -4  379.50   18.92
  -1  -4   4  339.81   25.81
  -1  -4   4  348.64   15.06
   1  -4  -5  297.95   11.70
  -1  -4   5  370.09   29.56
   1  -4  -5  337.41   19.89
   1  -4  -6  531.64   17.71
  -1  -4   6  455.79   35.23
   1  -4  -7  203.23   18.90
   1  -4  -7  198.35   10.98
  -1  -4   7  197.34   24.81
   1  -4  -8  253.44   12.60
  -1   4  -9  182.53   28.13
   1  -4  -9  140.40    9.93
  -1   4 -10 1668.41   71.49
   1  -4 -10 1485.86   31.39
  -1  -4  11  147.16   15.00
   1  -4 -11  174.44   12.06
  -1  -4  12   20.90    6.36
  -1   4 -12   11.81   13.33
   1  -4 -12   27.56    6.35
   1  -4 -13   58.75    9.09
  -1  -4  13   42.19    9.19
  -1   4 -13   69.27   18.46
  -1   4 -14  238.85   30.03
   1  -4 -14  206.22   15.00
  -1  -4  15   63.54   11.96
   1  -4 -15   99.69   11.02
  -1   4 -15  108.88   21.58
   1  -4 -16   64.57    9.57
  -1  -4  16   30.48    8.65
  -1   4 -16   86.19   22.38
  -1  -4  17   39.12   10.49
   1  -4 -17   65.41    9.56
  -1   4 -18   55.44   15.91
   1  -4 -18   49.59    9.00
  -1  -4  18   45.27   10.63
  -1   4 -19   -2.84    8.53
  -1  -4  19    8.38    7.33
  -1   4 -20  150.78   23.71
  -1  -4  20   69.99   14.78
  -1   4 -21  112.50   19.71
  -1  -4  21   68.69   12.93
  -1  -4  22   23.44   10.52
  -1   4 -22   29.86   12.36
  -1   4 -23   44.82   13.76
  -1  -4  23   33.25   12.84
  -1  -4  24   40.76   14.07
  -1   5  26   16.77   10.45
   1   5 -25   15.56   11.50
  -1   5  25   16.05   11.07
   1   5 -24   31.28   13.62
  -1   5  24    4.34    9.06
   1   5 -23   14.44   11.21
  -1   5  23    3.27    9.56
  -1   5  22   78.11   16.32
   1   5 -22   48.46   12.73
   1   5 -21   49.42   13.19
  -1   5  21   43.53   12.48
   1   5 -20    8.76    7.90
  -1   5  20   -5.19    8.88
   1  -5  19   67.73   10.54
   1   5 -19  105.11   18.25
  -1   5  18   44.03   11.38
   1  -5  18   32.30    8.38
   1   5 -18   47.16   13.27
   1   5 -17   95.18   17.84
  -1   5  17  120.46   16.86
   1  -5  17   80.32   10.71
  -1   5  16  154.83   19.15
   1  -5  16  107.79   11.47
   1   5 -16  120.16   18.62
  -1   5  15  113.19   17.12
   1  -5  15   68.21    8.83
  -1  -5 -15   73.48    4.22
  -1   5  15   43.23   10.84
  -1  -5 -15   98.02    5.18
   1   5 -15   75.68   15.88
   1  -5  14  216.84   14.26
  -1  -5 -14  228.07    6.78
   1   5 -14  247.99   25.94
  -1   5  14  195.66   18.55
  -1  -5 -14  246.70    7.24
  -1   5  13   60.73   11.02
   1   5 -13   90.01   16.51
   1  -5  13   68.94    7.80
   1   5 -12  437.18   32.13
   1  -5  12  445.25   18.53
  -1   5  12  436.44   21.23
   1   5 -11  169.89   19.94
  -1   5  11  148.59   11.64
   1  -5  11  144.08    9.67
   1   5 -10   99.45   15.39
  -1   5  10  106.68    8.91
  -1   5  10  125.84   15.59
   1  -5  10   84.76    6.99
  -1   5   9    5.67    3.01
   1   5  -9    2.50    6.95
  -1   5   9    3.25    5.40
   1   5  -9    1.88    4.51
   1  -5   9    5.41    2.97
  -1   5   8    2.63    6.26
   1  -5   8    6.85    2.81
   1   5  -8    6.29    3.16
  -1   5   8    7.89    2.98
   1   5  -8    6.30    7.44
   1  -5   7   48.73    4.33
   1   5  -7   70.23    8.16
   1   5  -7   46.73   12.21
  -1  -5  -7   81.51   10.01
  -1   5   7   76.81    6.43
  -1   5   7   89.53   11.29
  -1   5   6 1247.36   24.20
   1   5  -6 1141.74   31.49
  -1  -5  -6 1180.11   32.23
   1   5  -5  273.99   14.64
  -1   5   5  382.20   13.78
   1   5  -5  292.38   21.81
  -1   5   5  329.53   19.47
  -1  -5  -5  255.59   10.53
  -1  -5  -5  346.47   15.88
  -1   5   4   52.41    6.21
   1   5  -4   39.51    9.64
  -1   5   4   54.60    9.10
  -1  -5  -4   59.32    7.05
   1   5  -4   20.78    6.05
   1  -5   4   30.95    2.62
  -1   5   3  219.20   10.89
  -1  -5  -3  342.45   16.67
   1   5  -3  243.24   19.56
   1  -5   3  225.46    7.60
  -1   5   3  303.00   16.02
   1  -5   2  218.95    9.10
  -1   5   2  189.95   11.69
   1   5  -1 1044.65   31.22
  -1  -5  -1 1104.82   34.87
  -1   5   1  869.24   22.49
   1  -5   1  959.30   21.58
   1  -5   0   -3.14    3.64
   1   5   0    5.24    5.18
  -1   5   0   -0.73    2.82
  -1  -5   0   -7.97    6.67
  -1  -5   1 1105.01   42.45
   1   5   1 1104.74   26.81
   1   5   2  300.08   12.26
  -1  -5   2  239.03   13.87
  -1  -5   2  254.65   22.94
   1  -5  -2  269.62   15.22
   1   5   3  328.48   10.21
  -1  -5   3  294.80   25.50
   1  -5  -3  304.27   16.82
  -1  -5   3  262.71   14.80
  -1  -5   4   48.76    6.42
   1   5   4   66.42    4.34
  -1  -5   4   51.63   13.87
   1  -5  -4   40.80    7.95
  -1  -5   5  350.04   17.04
  -1  -5   5  345.91   32.16
   1  -5  -5  421.54   23.43
  -1  -5   6 1036.47   56.27
   1  -5  -6 1066.58   27.53
   1  -5  -7   58.43    6.04
  -1   5  -8    9.82   15.77
   1  -5  -8    4.08    3.83
  -1   5  -9    1.03   12.08
   1  -5  -9    0.62    3.86
  -1   5 -10  116.46   23.17
   1  -5 -10   92.96    8.00
  -1   5 -11  174.13   26.01
   1  -5 -11  142.37   10.10
  -1  -5  11  108.62   12.09
  -1   5 -12  473.90   42.51
   1  -5 -12  460.46   18.92
  -1  -5  13   48.09    8.89
   1  -5 -13   78.27    8.06
  -1   5 -13   93.17   22.30
  -1  -5  14  138.84   15.04
   1  -5 -14  216.02   14.43
  -1   5 -15   91.63   20.32
   1  -5 -15   79.30    9.47
  -1  -5  15   73.12   13.45
   1  -5 -16  111.15   10.83
  -1  -5  16   97.36   13.62
   1  -5 -17   44.36    7.29
  -1  -5  17   87.28   13.58
  -1  -5  18   24.14    9.34
  -1   5 -18   45.18   16.48
  -1   5 -19  105.04   20.97
  -1  -5  19   75.26   14.33
  -1  -5  20   12.45    7.57
  -1   5 -20    8.78    9.43
  -1  -5  21   32.58    9.69
  -1   5 -21   55.12   17.13
  -1   5 -22   53.72   15.62
  -1  -5  22   47.11   12.58
  -1  -5  23    8.24    8.04
  -1   5 -23   21.02   12.87
  -1   5 -24   27.31   12.06
  -1   6  26   -9.77   11.48
  -1   6  25   21.01   10.60
   1   6 -25   28.51   13.71
  -1   6  24   29.11   12.41
   1   6 -24   59.08   16.01
   1   6 -23   44.18   12.83
  -1   6  23   57.50   15.55
  -1   6  22   74.26   16.71
   1   6 -22   57.83   15.62
   1   6 -21   -5.79    9.44
  -1   6  21   -5.93    9.61
   1   6 -20  126.37   20.46
  -1   6  20  197.32   25.07
  -1   6  19   -2.72   10.11
   1   6 -19   -3.49    9.18
   1   6 -18   87.42   16.85
   1  -6  18   76.20   10.11
   1   6 -17   98.45   19.38
  -1   6  17  109.39   17.87
   1   6 -16   75.56   17.13
   1  -6  16   54.60    8.74
  -1   6  16   82.77   15.57
  -1   6  15   57.50   12.29
  -1   6  15  100.34   15.74
   1  -6  15   74.54    9.27
   1   6 -15   88.36   17.46
   1  -6  14  242.11   14.36
   1   6 -14  260.05   27.44
  -1   6  14  220.94   18.25
   1   6 -13  260.39   26.85
  -1   6  13  232.61   16.28
   1  -6  13  243.76   14.08
  -1   6  12  162.91   11.80
   1   6 -12  193.76   23.25
   1  -6  12  179.95   11.04
   1   6 -11  173.57   21.90
   1  -6  11  164.85   10.12
  -1   6  11  166.52   10.99
   1  -6  10   39.43    5.20
  -1   6  10   26.82    4.31
   1   6 -10   26.68    8.81
  -1   6   9   76.34    6.09
   1   6  -9   85.74   15.08
   1   6  -9   55.45    8.08
  -1   6   9   77.74   12.36
   1  -6   9   63.25    5.51
  -1   6   8  280.58   11.14
   1   6  -8  212.80   14.45
   1  -6   8  176.75    7.68
   1   6  -8  251.75   23.07
   1   6  -7  604.39   34.30
  -1   6   7  668.49   17.09
   1   6  -6   13.05    8.34
   1   6  -6    9.08    4.34
  -1   6   6   21.87    4.26
  -1   6   6   16.82    7.78
  -1   6   5   13.05    6.84
  -1   6   5   20.34    4.44
  -1  -6  -5   24.06    5.33
  -1  -6  -5   11.89    4.29
   1   6  -5    9.45    5.11
   1   6  -5   25.88    9.55
   1   6  -4  802.96   35.76
  -1  -6  -4  832.49   26.71
  -1   6   4  729.80   19.74
   1   6  -3  341.58   23.29
  -1   6   3  357.07   17.64
  -1   6   3  413.57   19.08
   1  -6   3  345.05   11.82
  -1  -6  -3  419.76   22.47
   1  -6   2   65.54    5.96
  -1   6   2   67.91    8.01
  -1  -6  -2   93.98   12.98
   1   6  -2   70.51   11.18
  -1  -6  -1  360.22   24.41
   1   6  -1  337.35   20.08
   1  -6   1  333.34   14.91
  -1  -6   0 1030.41   43.31
   1   6   0 1010.55   30.66
   1  -6   0  946.90   25.01
   1  -6  -1  323.14   16.31
  -1  -6   1  358.42   28.20
   1   6   1  351.36   17.02
   1   6   2   88.80    8.00
  -1  -6   2   88.38   17.36
   1  -6  -2   79.66    9.33
  -1  -6   3  431.82   35.43
   1   6   3  439.76   14.36
   1  -6  -3  358.61   19.65
   1   6   4 1023.53   17.22
   1  -6  -4  982.23   33.58
  -1  -6   4  966.67   53.81
  -1  -6   5   20.77    5.37
   1   6   5   31.77    2.96
   1  -6  -5   30.86    8.12
  -1  -6   5   42.93   16.14
  -1   6  -6   18.26    3.68
  -1   6  -7  486.45   11.93
  -1   6  -8  346.12   43.85
  -1   6  -9   85.70   20.31
   1  -6  -9   90.46    8.83
  -1   6 -10   38.53   15.46
   1  -6 -10   30.51    4.69
  -1   6 -11  188.45   27.72
   1  -6 -11  148.77    9.32
   1  -6 -12  186.08   12.01
  -1   6 -12  208.45   31.00
   1  -6 -13  260.16   14.55
  -1   6 -13  244.79   34.24
  -1  -6  13  214.73   19.70
   1  -6 -14  251.05   14.06
  -1  -6  14  174.59   16.62
  -1  -6  15   51.24   10.77
   1  -6 -15   67.89    8.00
   1  -6 -16   46.93    6.86
  -1  -6  16   55.85   13.08
  -1   6 -16   46.30   15.51
   1  -6 -17   39.33    6.27
  -1  -6  17   44.89   10.89
  -1   6 -18  124.21   25.84
  -1  -6  18   69.78   13.28
  -1   6 -19    0.49    9.54
  -1  -6  19    4.57    9.16
  -1   6 -20  198.45   28.37
  -1  -6  20   71.47   14.29
  -1   6 -21    0.09    8.92
  -1  -6  21   12.19    9.12
  -1   6 -22   79.78   19.36
  -1  -6  22   27.76   10.78
  -1   6 -23   62.42   17.61
  -1   6 -24   44.71   15.25
   1   7 -25   -4.30    9.53
  -1   7  25   11.10    8.61
   1   7 -24   -8.88    8.79
  -1   7  24    3.62    8.49
   1   7 -23   39.62   13.63
  -1   7  23   56.93   15.19
   1   7 -22   34.61   12.54
  -1   7  22   66.20   16.04
   1   7 -21   14.28   11.11
  -1   7  21   25.19   12.84
   1   7 -20   48.12   13.90
  -1   7  20   42.45   13.69
   1   7 -19   53.52   14.66
  -1   7  19  119.32   20.49
  -1   7  18   45.16   12.85
   1   7 -18   21.40   10.86
  -1   7  17   -6.37    8.63
   1   7 -17   -6.65    9.44
   1  -7  17    9.19    6.35
   1  -7  16  178.28   13.54
   1   7 -16  267.85   30.71
   1   7 -15    8.42    8.41
  -1   7  15   14.79    9.69
   1  -7  15    3.24    4.61
  -1   7  14  111.80   11.96
   1  -7  14  135.09   10.67
  -1   7  13    3.87    3.61
  -1   7  13    6.94    7.68
   1   7 -13   -2.40    8.47
   1  -7  13    6.56    4.35
   1  -7  12   43.73    6.11
  -1   7  12   30.23    5.38
   1  -7  11   45.08    5.50
  -1   7  11   38.32    5.38
   1   7 -11   49.29   14.18
   1  -7  10   32.41    4.42
   1   7 -10   43.26   11.91
  -1   7  10   37.32    5.43
  -1   7  10   42.53   10.05
  -1   7   9   38.00    4.30
   1   7  -9   14.02    5.11
   1   7  -9   48.12   12.33
   1  -7   9   27.41    3.95
  -1   7   9   32.10   10.08
   1   7  -8  406.91   31.42
  -1   7   8  436.01   13.59
  -1   7   7   51.27   11.27
   1   7  -7   38.72   12.15
  -1   7   7   61.68    5.88
   1   7  -6  304.17   26.19
  -1   7   6  317.30   13.21
  -1   7   5  129.59    9.74
   1   7  -5  134.58   17.87
  -1   7   5   90.93   13.39
   1   7  -4  753.30   36.31
  -1   7   4  786.23   25.11
   1  -7   3  445.02   15.60
  -1  -7  -3  413.57   24.23
  -1   7   3  364.97   19.64
   1  -7   3  331.83   11.98
   1   7  -3  467.75   28.37
   1   7  -2  109.23   14.40
   1  -7   2  105.53    8.63
  -1  -7  -2  108.74   13.84
  -1   7   2   78.51    8.47
  -1  -7  -1  519.02   30.93
   1   7  -1  500.71   25.78
   1  -7   1  517.97   18.81
  -1  -7   0  310.79   26.86
   1   7   0  304.54   19.12
   1  -7   0  307.37   15.88
   1  -7  -1  527.46   21.66
  -1  -7   1  582.90   38.07
   1   7   1  572.23   23.96
  -1  -7   2   74.13   10.05
   1  -7  -2  122.50   12.71
  -1  -7   2  115.39   18.67
   1   7   2  119.34   10.44
  -1  -7   3  433.08   20.44
   1   7   3  555.98   18.74
   1  -7  -3  481.74   23.30
  -1  -7   3  353.57   17.36
  -1  -7   3  438.48   37.85
   1   7   4  911.82   19.41
   1  -7  -4  951.51   35.17
  -1  -7   5   87.34    8.32
   1   7   5  145.35    6.59
   1   7   6  342.87    7.86
  -1   7  -8  344.98   11.02
  -1   7  -8  384.89   43.78
  -1   7  -9   33.75   13.91
  -1   7  -9   26.83    3.34
  -1   7 -10   40.86   16.91
  -1   7 -10   51.07    6.37
  -1   7 -11   47.04   16.31
  -1   7 -12   61.11   20.81
  -1  -7  13    6.97    6.08
  -1   7 -13   -3.80   12.93
  -1  -7  14  120.49   13.62
   1  -7 -14  121.34    9.86
  -1  -7  15    5.83    6.46
  -1   7 -15   15.17   13.79
   1  -7 -15    5.28    3.90
  -1  -7  16  153.17   17.29
   1  -7 -16   72.80    6.91
  -1  -7  17    1.19    7.50
  -1   7 -17   -2.77   11.56
  -1  -7  18   10.89    8.00
  -1   7 -18   14.63   12.22
  -1   7 -19   92.92   22.07
  -1  -7  19   48.39   11.59
  -1   7 -20   14.94   12.89
  -1  -7  20   24.03   10.97
  -1  -7  21   -7.41    9.44
  -1   7 -21   12.88   12.93
  -1   7 -22   69.23   17.74
  -1   7 -23   21.37   13.65
  -1   7 -24   21.28   12.34
  -1   7 -25    7.14   11.04
   1   8 -25    2.55    9.06
   1   8 -24   27.62   13.09
  -1   8  24   26.74   12.23
   1   8 -23   17.36   10.99
  -1   8  23   -1.78    8.78
  -1   8  22   28.48   11.47
   1   8 -22   25.10   11.93
   1   8 -21    4.97   10.12
  -1   8  21    6.45    8.74
   1   8 -20   52.76   14.71
  -1   8  20   76.00   16.52
  -1   8  19   71.93   16.83
   1   8 -19   46.08   14.93
  -1   8  18   32.09   12.66
   1   8 -18   26.23   13.39
  -1   8  17   29.10   12.57
   1   8 -17   16.79   13.01
   1   8 -16  248.56   28.36
   1  -8  16  165.25   12.21
   1   8 -15    6.56    9.07
  -1   8  15   20.21    9.75
   1  -8  15    0.96    4.53
   1   8 -14   48.40   13.30
   1  -8  14   35.30    5.79
  -1   8  13   52.69    6.33
   1   8 -13   98.67   18.59
   1  -8  13   86.83    7.95
   1  -8  12   43.65    5.82
  -1   8  12   72.23   15.41
   1   8 -12   58.76   14.46
  -1   8  12   40.81    5.50
  -1   8  11   -0.14    7.33
  -1   8  11    4.42    2.75
   1  -8  11    2.59    3.26
   1   8 -11    6.81    9.69
   1   8 -10  102.50   18.32
   1  -8  10   83.89    6.26
  -1   8  10  124.78    7.94
   1   8  -9    9.01    4.50
  -1   8   9   14.52    3.28
   1   8  -9   21.84   10.01
  -1   8   8  247.61   11.74
   1   8  -8  186.32   22.97
  -1   8   8  209.21   20.05
  -1   8   7  184.07   18.13
  -1   8   7  156.85    9.64
  -1   8   6   30.35    5.50
  -1   8   6   16.73    7.73
   1   8  -6   27.99   11.02
  -1   8   5  326.63   19.99
   1   8  -5  317.86   25.24
   1  -8   4   12.36    3.73
  -1   8   4    8.19    5.48
  -1   8   4    7.30    4.52
   1   8  -4    7.30    8.61
   1   8  -3   51.97   11.73
   1  -8   3   60.90    6.93
  -1   8   3   54.70    7.85
   1   8  -2   29.87   10.48
  -1  -8  -2   23.82   10.70
   1  -8   2   24.01    5.15
   1   8  -1  768.30   34.11
  -1  -8  -1  679.13   38.19
   1  -8   1  701.38   22.75
  -1  -8   0  156.73   21.39
   1   8   0  162.14   15.92
   1  -8   0  157.28   12.69
  -1  -8   1  711.01   43.20
   1   8   1  773.08   29.59
   1  -8  -1  782.97   28.11
   1  -8  -2   28.23    7.35
  -1  -8   2   23.96   12.53
   1   8   2   23.58    6.45
   1  -8  -3   58.39   10.19
  -1  -8   3   36.36    8.16
   1   8   3   62.39    7.85
  -1  -8   3   80.00   20.26
  -1  -8   4    6.81    5.50
   1   8   4   15.04    4.24
  -1  -8   5  194.13   13.41
   1   8   5  384.63   12.72
  -1  -8   6   19.25    5.91
   1   8   6   29.08    2.99
  -1   8  -7  165.27   34.27
  -1   8  -8  149.86   26.76
  -1   8  -9   16.55   14.70
  -1   8  -9    7.51    4.06
  -1   8 -10   99.46    7.43
  -1   8 -10   86.15   21.66
  -1   8 -11    7.22    3.16
  -1   8 -11   14.41   13.08
  -1   8 -12  105.64   24.68
  -1   8 -12   44.79    5.69
  -1   8 -13  139.76   27.87
  -1   8 -13   78.73    8.16
  -1  -8  14   41.00    9.07
  -1   8 -14   72.32   21.31
  -1   8 -15   -3.09   12.32
  -1  -8  15   -5.57    7.38
  -1   8 -16  285.56   37.17
  -1  -8  16  149.94   16.96
  -1   8 -17   24.44   17.69
  -1  -8  17   13.67    8.20
  -1  -8  18   10.19    6.99
  -1   8 -18   12.89   12.92
  -1   8 -19   43.48   16.10
  -1  -8  19   28.50   10.34
  -1   8 -20   52.44   17.91
  -1  -8  20   46.70   12.53
  -1   8 -21    0.36   10.13
  -1   8 -22   10.90   11.55
  -1   8 -23   -0.89    9.69
  -1   8 -24   55.60   18.35
  -1   8 -25   14.92   11.98
   1   9 -25   14.60   11.12
   1   9 -24   24.72   12.33
  -1   9  24   23.02   11.43
  -1   9  23    5.01    8.85
   1   9 -23   13.11   10.10
  -1   9  22  -15.25   11.33
   1   9 -22  -11.41   12.98
  -1   9  21  104.94   20.54
   1   9 -21   70.76   19.09
   1   9 -20    7.66   10.46
  -1   9  20   10.06    7.81
  -1   9  19   76.72   16.07
   1   9 -19   65.42   17.28
  -1   9  18    7.63    9.06
   1   9 -18   11.96    9.81
  -1   9  17  252.48   25.32
   1   9 -17  170.59   24.75
  -1   9  16   16.40    8.67
   1   9 -16    1.13    8.25
   1  -9  15  100.84    9.20
   1   9 -15  153.50   23.17
  -1   9  14   46.86   12.90
   1  -9  14   20.22    4.89
   1   9 -14   28.34   11.66
   1  -9  13   70.85    7.34
  -1   9  13   98.27   16.99
   1   9 -13  110.81   20.06
   1  -9  12   50.23    6.21
  -1   9  12   40.65    4.96
   1  -9  11   49.09    5.58
   1   9 -11   67.17   14.92
  -1   9  11   62.11    5.94
   1   9 -10  174.44   24.07
  -1   9  10  153.80    8.32
  -1   9   9   65.64   11.89
  -1   9   9   40.38    4.50
   1   9  -9   45.74   13.30
   1   9  -8   30.19   12.32
  -1   9   8   45.61    9.63
  -1   9   8   32.13    4.54
  -1   9   7  250.59   18.36
   1   9  -7  196.62   22.72
  -1   9   7  233.05   12.16
  -1   9   6   60.64    9.84
  -1   9   6   75.57    7.92
   1   9  -6   73.80   15.59
  -1   9   5  293.36   16.03
  -1   9   5  260.68   17.53
   1   9  -5  307.78   27.10
   1  -9   4  399.90   16.02
   1   9  -4  461.68   32.19
   1  -9   3  416.78   18.27
   1   9  -3  410.62   29.60
   1  -9   2   29.88    6.49
   1   9  -2   16.36    8.14
   1   9  -1 1008.70   40.02
   1  -9   1  930.76   29.35
   1  -9   0   94.00   10.49
  -1  -9   0  107.35   22.59
   1   9   0   85.78   12.83
  -1  -9   1 1003.59   59.39
   1   9   1 1021.37   35.88
   1  -9  -1  982.02   34.12
   1  -9  -2   20.95    6.19
   1   9   2   26.79    7.05
   1   9   3  477.49   21.08
  -1  -9   3  285.13   18.24
   1   9   4  530.57   19.69
  -1  -9   4  288.51   18.05
  -1  -9   5  206.55   14.44
   1   9   5  366.18   13.58
   1   9   6   76.36    5.34
  -1  -9   6   42.27    6.80
  -1   9  -6   48.16   25.14
   1   9   7  220.58    6.37
  -1   9  -7  151.48   29.57
  -1   9  -8    9.69   11.50
  -1   9  -9   30.30   16.91
  -1   9 -10  140.63   26.74
  -1   9 -11   90.29   23.17
  -1   9 -11   20.53    6.53
  -1   9 -12   72.80   22.40
  -1   9 -12   28.69    4.78
  -1   9 -13   68.48   24.73
  -1  -9  14   11.61    7.39
  -1   9 -14   17.53   14.05
  -1  -9  15   86.38   13.20
  -1   9 -15  162.25   30.01
  -1   9 -16   26.22   13.50
  -1  -9  16   14.99    8.02
  -1  -9  17   74.91   12.21
  -1   9 -17  226.11   33.97
  -1   9 -18   12.36   13.04
  -1  -9  18   13.52    8.56
  -1   9 -19   57.08   16.91
  -1  -9  19   27.22   10.10
  -1   9 -20   17.85   12.61
  -1  -9  20   33.68   13.37
  -1   9 -21   81.25   20.43
  -1   9 -22   -4.09   11.22
  -1   9 -23  -21.62   15.08
  -1   9 -24   13.62   11.05
  -1   9 -25    5.54    9.50
   1  10 -24    7.43    8.69
   1  10 -23   39.44   14.66
   1  10 -22    5.85   10.77
  -1  10  22    6.13    8.00
   1  10 -21   16.86   12.14
  -1  10  21   13.60   10.67
  -1  10  20    2.33    8.02
   1  10 -20   -3.10   11.01
  -1  10  19   58.83   14.00
   1  10 -19   71.75   18.38
   1  10 -18   11.39   10.81
   1  10 -17    8.43    8.46
  -1  10  17   30.50   11.11
  -1  10  16  134.09   18.12
   1  10 -16   92.84   18.12
  -1  10  15   15.01    9.47
   1  10 -15   18.02   10.74
   1  10 -14   -1.59    8.77
  -1  10  14   -2.62    6.24
   1 -10  14   -3.97    4.11
   1  10 -13  231.03   27.57
  -1  10  13  285.90   24.02
   1  10 -12  233.37   27.28
  -1  10  12  297.43   23.88
   1 -10  12  135.41    9.47
  -1  10  12  118.33    7.43
  -1  10  11    7.30    6.77
  -1  10  11    4.73    2.39
   1  10 -11   14.26   11.20
   1 -10  11    6.04    3.46
   1  10 -10   42.36   14.58
  -1  10  10   27.66    3.99
  -1  10  10   57.68   11.60
  -1  10   9   12.00    3.30
  -1  10   9   11.29    6.27
   1  10  -9   14.37   11.10
  -1  10   8   80.19   11.96
   1  10  -8   69.18   14.60
  -1  10   8   75.64    7.39
  -1  10   7  119.02   13.33
  -1  10   7  144.98   10.45
   1  10  -7  131.79   19.99
  -1  10   6   15.45    4.32
   1  10  -6    3.97    7.59
   1 -10   5  142.45   10.07
  -1  10   5  198.67   16.38
   1  10  -5  192.50   22.39
   1  10  -4   90.57   15.54
   1 -10   4   80.60    8.67
   1  10  -3   94.06   15.70
   1 -10   3   90.29   10.37
   1 -10   2    9.47    5.58
   1  10  -2   14.69    8.87
   1 -10   1   11.66    5.90
   1  10  -1   19.75    8.86
   1 -10   0   80.73   10.64
   1  10   0  103.72   14.01
   1 -10  -1   74.64   13.84
   1  10   1    8.96    5.94
   1  10   2   20.93    7.71
   1  10   3  105.04   11.14
  -1 -10   3   41.11    9.16
   1  10   4  111.21   10.73
  -1 -10   4   47.40    7.78
  -1  10  -5  191.17   36.60
   1  10   5  239.14   13.24
  -1  10  -6   37.10   22.12
  -1 -10   6   13.48    5.12
   1  10   6   21.63    3.77
  -1  10  -7  122.55   25.33
   1  10   7  145.58    6.51
  -1  10  -8   61.52   20.43
  -1  10  -9    6.51   11.11
  -1  10 -10   49.49   19.42
  -1  10 -11  -22.27   15.51
  -1  10 -12  236.48   35.43
  -1  10 -13  183.64   32.02
  -1  10 -14    1.17   12.09
  -1 -10  15    7.93    7.12
  -1  10 -15   -2.34   12.42
  -1  10 -16   95.39   24.91
  -1 -10  16   60.82   12.08
  -1  10 -17   39.03   19.27
  -1 -10  17   11.06    6.83
  -1 -10  18   18.50    9.25
  -1  10 -18   16.70   14.13
  -1  10 -19   36.37   14.31
  -1 -10  19   51.32   13.46
  -1  10 -20   15.96   12.50
  -1  10 -21   -9.42   13.16
  -1  10 -22   17.77   11.77
  -1  10 -23   43.91   16.02
  -1  10 -24    2.07   10.04
   1  11 -23   23.88   13.67
   1  11 -22   16.74   10.75
   1  11 -21   28.48   12.34
   1  11 -20   12.84   10.24
  -1  11  19   16.48    9.51
   1  11 -19   14.39   11.97
   1  11 -18   -4.44   11.29
  -1  11  18   20.14    8.80
  -1  11  17   25.93   11.40
   1  11 -17    5.91    9.37
  -1  11  16   68.85   14.43
   1  11 -16   71.80   18.14
  -1  11  15   78.89   14.25
   1  11 -15   51.54   15.95
  -1  11  14   63.99   13.01
   1  11 -14   36.04   14.27
   1 -11  13   82.75    8.66
   1  11 -13   90.34   18.50
   1 -11  12    6.11    3.71
  -1  11  12   18.60    8.66
   1  11 -12   10.62    8.88
  -1  11  11  121.26   15.18
   1  11 -11  133.91   21.09
  -1  11  11   72.54    5.71
   1  11 -10    4.72    8.94
  -1  11  10    2.39    2.49
  -1  11  10    2.29    6.60
  -1  11   9  404.92   15.62
  -1  11   9  362.77   25.35
  -1  11   8  101.42    8.41
   1  11  -8  100.52   19.74
  -1  11   7  378.84   18.94
   1  11  -7  308.61   29.94
   1  11  -6   34.01   13.30
  -1  11   6   35.39    6.51
   1  11  -5  278.31   27.41
   1 -11   5  223.84   13.91
   1  11  -4  435.20   32.75
   1 -11   4  394.67   20.25
   1  11  -3   78.58   14.96
   1 -11   3   71.71   10.33
   1 -11   2   14.15    6.41
   1  11  -2   24.42    9.74
   1  11  -1  139.89   17.42
   1 -11   1  129.32   13.32
   1  11   0  122.53   15.70
   1  11   1  134.39   15.38
   1  11   2   21.89    7.70
  -1 -11   3   33.17    7.71
   1  11   3   75.91   10.97
   1  11   4  503.19   22.44
  -1  11  -4  416.88   54.31
  -1  11  -5  246.65   41.23
   1  11   5  329.04   16.30
   1  11   6   51.40    5.96
  -1 -11   6   16.12    5.27
  -1  11  -6   42.05   19.21
  -1 -11   7  266.09   19.33
  -1  11  -7  296.31   37.46
   1  11   8   82.58    4.01
  -1  11  -8   77.82   22.65
  -1  11  -9  267.62   36.28
  -1  11 -10   -9.51   13.96
  -1  11 -11  103.59   25.22
  -1  11 -12    0.25   13.01
  -1  11 -13  132.86   27.89
  -1  11 -14   37.43   18.99
  -1 -11  15   35.45    8.71
  -1  11 -15   41.53   19.55
  -1 -11  16   47.51   10.48
  -1  11 -16   50.94   18.69
  -1  11 -17   34.27   19.61
  -1 -11  17   11.70    7.21
  -1 -11  18   11.10    7.45
  -1  11 -18   36.07   18.02
  -1  11 -19    5.51   11.70
  -1  11 -20  -20.54   15.47
  -1  11 -21   10.77   12.19
  -1  11 -22    4.59   10.21
  -1  11 -23   -4.14   11.97
  -1  11 -24   11.38   11.48
   1  12 -22    6.13   10.26
   1  12 -21    5.10   10.60
   1  12 -20   12.43   11.32
   1  12 -19   -9.39   10.97
   1  12 -18    1.75    9.56
   1  12 -17    4.73   11.05
   1  12 -16   94.72   20.54
   1  12 -15   58.67   15.85
   1  12 -14   89.89   19.19
   1  12 -13   23.48   12.26
   1  12 -12   24.49   11.68
   1 -12  12    6.37    3.36
   1  12 -11   87.71   18.99
   1  12 -10   22.11   12.81
   1  12  -9   58.75   15.34
  -1  12   9   35.44    5.64
  -1  12   8   16.47    4.44
   1  12  -8   21.71   11.93
   1  12  -7    0.02    9.22
  -1  12   7   11.29    4.86
   1 -12   6   22.98    6.02
   1  12  -6   20.77    8.40
  -1  12   6   15.29    5.73
   1  12  -5  180.05   23.31
   1 -12   5  171.31   13.94
   1 -12   4   10.98    6.19
   1  12  -4   14.20   10.20
   1 -12   4    6.14    3.96
   1 -12   4    3.77    1.96
   1 -12   3   67.81   10.58
   1  12  -3   76.18   15.45
   1  12  -2   49.07   12.74
   1  12  -1  129.15   17.50
   1  12   0   76.71   14.21
   1  12   1  123.90   15.78
   1  12   2   47.45   10.45
  -1  12  -3   69.21   25.64
   1  12   3   81.79   11.66
  -1 -12   3   26.34    8.33
   1  12   4    9.35    4.55
  -1  12  -4   -8.16   14.97
  -1 -12   4    3.48    3.98
  -1  12  -5  137.97   28.21
  -1 -12   5  102.32   11.75
   1  12   6   32.61    5.94
  -1 -12   6   14.21    6.95
  -1  12  -6    5.59   13.06
  -1 -12   7    8.85    5.98
   1  12   7    6.20    2.87
  -1  12  -7    1.13   12.22
  -1  12  -8   34.57   17.37
   1  12   8   20.04    2.72
  -1  12  -9   29.37   16.93
  -1  12 -10   21.82   18.77
  -1  12 -11   75.42   23.76
  -1  12 -12   13.30   14.76
  -1  12 -13   12.84   13.82
  -1  12 -14   89.04   28.10
  -1  12 -15   72.07   20.36
  -1 -12  16   39.01    9.62
  -1  12 -16  110.59   28.91
  -1 -12  17    2.56    7.15
  -1  12 -17   28.54   18.75
  -1  12 -18   22.67   13.39
  -1  12 -19    6.75   11.98
  -1  12 -20   30.80   15.64
  -1  12 -21   21.28   13.15
  -1  12 -22    6.05   11.08
  -1  12 -23   26.17   15.80
   1  13 -21   38.12   15.55
   1  13 -20   -0.36   10.57
   1  13 -19    4.24   10.31
   1  13 -18   16.59   13.20
   1  13 -17    7.15   11.52
   1  13 -16   58.99   16.24
   1  13 -15    0.67   10.11
   1  13 -14  -17.21   13.20
   1  13 -13    7.81   11.17
   1  13 -12   47.67   15.38
   1  13 -11   97.30   19.14
   1  13 -10   52.02   16.71
   1  13  -9   65.23   16.76
   1  13  -8   55.78   16.49
   1  13  -7   20.15   10.52
   1 -13   7   22.86    5.87
  -1  13   7   21.93    5.45
   1 -13   6   25.26    6.74
   1  13  -6   40.22   12.39
   1 -13   5   67.35   10.70
   1 -13   5   35.33    3.86
   1  13  -5   86.42   17.52
   1 -13   4   51.00    5.07
   1 -13   4   61.13    8.27
   1  13  -3   48.32   14.08
   1  13  -2  186.86   21.79
   1  13  -1   54.16   12.01
   1  13   0   -0.95    7.09
   1  13   1   55.52   12.11
  -1  13  -1   62.36   27.55
   1  13   2  185.51   18.50
  -1  13  -2  147.67   31.87
  -1  13  -3   38.94   20.53
  -1 -13   3   24.19    7.41
   1  13   3   60.53   11.21
  -1  13  -4  108.29   25.42
  -1 -13   4   58.05    8.94
   1  13   5   77.56    9.86
  -1  13  -5   65.79   21.89
  -1 -13   5   41.61    8.40
   1  13   6   61.27    8.13
  -1  13  -6   31.64   17.92
  -1 -13   6   27.31    7.18
  -1  13  -7   14.80   16.25
  -1 -13   7   24.15    7.26
   1  13   7   34.25    4.86
  -1  13  -8   40.07   19.22
   1  13   8   43.22    4.47
  -1  13  -9   79.35   23.61
  -1  13 -10   62.54   22.02
  -1  13 -11   63.15   23.07
  -1  13 -12   27.19   17.66
  -1  13 -13    1.12   12.58
  -1  13 -14   26.18   19.28
  -1  13 -15    5.50   13.19
  -1 -13  16   38.32   10.05
  -1  13 -16   57.39   23.42
  -1  13 -17    8.71   15.45
  -1  13 -18   21.25   18.23
  -1  13 -19   31.71   15.82
  -1  13 -20   19.52   14.97
  -1  13 -21   27.78   15.96
  -1  13 -22  -21.30   15.79
   1  14 -20   21.12   11.04
   1  14 -19    1.20   10.69
   1  14 -18   39.79   16.75
   1  14 -17   12.80   11.61
   1  14 -16   21.50   12.10
   1  14 -15   -2.16    9.54
   1  14 -14  121.11   23.00
   1  14 -13   48.15   15.89
   1  14 -12   24.36   12.94
   1  14 -11   42.61   15.41
  -1  14  10   11.73    7.05
   1  14 -10   44.81   15.66
  -1  14   9   39.18   14.38
   1  14  -9   65.39   17.67
   1  14  -8   20.13   10.70
   1  14  -7   93.70   18.80
   1  14  -6    8.11    9.53
   1 -14   5   62.04    5.42
   1  14  -5  126.00   20.54
   1 -14   4    3.63    2.64
   1 -14   4    2.43    4.34
   1  14  -3  121.97   19.20
  -1  14   3  137.27   30.70
  -1  14   2   98.72   27.98
   1  14  -2  116.71   18.16
  -1  14   1  160.59   33.76
   1  14  -1  109.32   17.52
  -1  14   0   25.06   16.77
   1  14   0   14.21    8.49
   1  14   1  129.88   17.45
  -1  14  -1  108.58   28.63
  -1  14  -2   73.06   22.34
   1  14   2   94.69   14.07
  -1  14  -3   74.02   22.96
  -1 -14   3   45.93   10.24
  -1  14  -4   15.18   15.65
   1  14   4   21.12    7.15
  -1 -14   4    7.45    5.26
  -1  14  -5   87.83   23.07
  -1 -14   5   77.76   11.86
  -1 -14   6   -4.72    4.78
   1  14   6    1.37    4.17
  -1  14  -7   79.13   24.68
   1  14   7   93.56    8.29
  -1 -14   7   46.08    8.57
   1  14   8   22.26    3.60
  -1  14  -8   13.28   14.02
  -1  14  -9   42.60   21.03
  -1  14 -10   26.23   19.06
  -1  14 -11   22.98   14.48
  -1  14 -12   -0.35   15.73
  -1  14 -13   18.00   15.38
  -1  14 -14  113.25   26.90
  -1  14 -15   17.26   17.51
  -1  14 -16   14.08   13.55
  -1  14 -17    9.52   14.77
  -1  14 -18   22.59   15.30
  -1  14 -19   31.68   18.31
  -1  14 -20   18.64   13.18
   1  15 -19   16.56   15.38
   1  15 -18    2.07   10.48
   1  15 -17    6.02   10.12
   1  15 -16   11.23   10.90
   1  15 -15   17.91   11.72
   1  15 -14   33.21   15.28
   1  15 -13   -5.52   10.35
   1  15 -12   25.09   13.60
   1  15 -11   21.65   12.35
   1  15 -10   16.45   12.78
  -1  15   9   43.21   12.30
   1  15  -9   53.06   16.80
  -1  15   8   31.88   13.07
   1  15  -8   67.11   16.90
   1  15  -7    9.15    9.04
  -1  15   7   -1.23   11.96
   1  15  -6    4.89    8.36
  -1  15   6    9.77   12.52
  -1  15   5   39.13   15.72
   1 -15   5   17.61    3.02
   1  15  -5   38.75   12.66
   1 -15   4    6.58    3.02
   1  15  -4    1.37    9.62
  -1  15   4   -3.51   13.68
   1  15  -3   12.81    9.27
   1 -15   3    5.48    5.51
  -1  15   3  -10.40   14.73
   1  15  -2   87.47   17.75
  -1  15   2  100.10   23.39
   1  15  -1  131.86   18.94
  -1  15   1  102.39   22.50
   1  15   0   13.86    8.81
  -1  15   0    7.36   15.37
  -1  15  -1  135.66   28.32
   1  15   1  152.45   18.77
  -1 -15   2   38.87   10.81
  -1  15  -2   68.75   23.84
   1  15   2   90.89   14.14
  -1 -15   3    8.95    7.41
   1  15   3   23.40    8.17
  -1  15  -3    9.32   13.95
  -1 -15   4    3.51    4.38
  -1  15  -4   -3.49   12.34
   1  15   4    9.44    5.57
   1  15   5   63.04    9.74
  -1  15  -5   33.98   18.54
  -1 -15   5   20.99    7.78
  -1 -15   6   12.95    6.54
   1  15   6    4.97    4.61
  -1 -15   7    5.02    5.22
  -1  15  -7   12.92   16.39
   1  15   7    4.65    3.63
  -1  15  -8   73.52   26.20
  -1  15  -9   53.34   21.69
  -1  15 -10   -2.50   13.92
  -1  15 -11   20.63   18.20
  -1  15 -12   47.69   21.68
  -1  15 -13    1.49   16.00
  -1  15 -14   28.47   17.13
  -1  15 -15   47.92   21.07
  -1  15 -16   -6.19   17.00
  -1  15 -17   -4.11   13.01
  -1  15 -18   18.50   16.15
  -1  15 -19   19.21   12.33
   1  16 -18   24.12   14.46
   1  16 -17   13.70   13.93
   1  16 -16   30.78   13.70
   1  16 -15    6.43    9.77
   1  16 -14   42.24   15.65
   1  16 -13   32.85   15.12
   1  16 -12   29.72   14.12
   1  16 -11   39.71   13.62
   1  16 -10   14.32   10.78
   1  16  -9   -0.66    9.47
  -1  16   8   54.75   14.86
   1  16  -8   74.20   18.20
  -1  16   7   13.55   10.55
   1  16  -7   30.67   11.37
   1  16  -6    3.24    9.88
  -1  16   6   22.64   11.99
  -1  16   5   -9.62   12.97
   1  16  -5    9.68   10.35
   1  16  -4   24.51   14.31
   1 -16   4   27.58    5.94
  -1  16   4    5.67   13.80
   1  16  -3    4.42    7.93
   1 -16   3   -0.76    5.25
  -1  16   2   15.37   15.03
   1  16  -2   44.93   13.58
  -1  16   1   12.58   15.20
   1  16  -1   11.63    8.22
   1  16   0   68.86   14.96
  -1  16   0   60.52   19.31
  -1  16  -1   -5.84   14.62
   1  16   1   12.11    8.31
  -1  16  -2   39.38   18.44
   1  16   2   36.84   11.20
  -1 -16   2   14.18    8.03
  -1 -16   3  -13.20    8.11
  -1  16  -3   -6.13   13.24
   1  16   3   -5.69    5.52
  -1 -16   4   11.34    7.43
  -1  16  -4   16.65   15.82
   1  16   4    5.36    5.42
  -1 -16   5    6.03    6.73
   1  16   5    7.16    4.95
  -1 -16   6   15.71    7.08
  -1  16  -6   32.67   18.65
   1  16   6   25.18    7.66
  -1  16  -7   16.37   16.71
  -1 -16   7   20.59    7.09
  -1  16  -8   46.69   23.30
  -1  16  -9   12.57   16.24
  -1  16 -10   -1.72   14.25
  -1  16 -11   77.12   26.38
  -1  16 -12   13.49   14.64
  -1  16 -13    3.00   16.43
  -1  16 -14   28.05   17.67
  -1  16 -15    1.96   13.85
  -1  16 -16   47.90   23.15
  -1  16 -17    6.18   16.75
  -1  16 -18   65.85   28.24
   1  17 -17    5.84    9.76
   1  17 -16   48.08   17.09
   1  17 -15   16.15   13.86
   1  17 -14   10.38   11.91
   1  17 -13   25.84   14.40
   1  17 -12   19.26   11.50
   1  17 -11   79.62   20.15
   1  17 -10   17.40   13.36
   1  17  -9   32.82   14.62
   1  17  -8    0.91    8.83
  -1  17   7   17.07   10.76
   1  17  -7   41.45   16.08
  -1  17   6   -5.65   13.06
   1  17  -6   -0.70   10.61
  -1  17   5   65.37   18.08
   1  17  -5   30.06   11.21
   1  17  -4    5.53    9.15
  -1  17   4   -2.69   10.94
   1  17  -3   15.72   11.29
   1 -17   3   -6.82    6.65
  -1  17   3   20.66   14.48
   1  17  -2   57.44   15.63
  -1  17   2   52.26   18.56
  -1  17   1   34.30   17.50
   1  17  -1   49.51   14.79
   1  17   0   15.16    9.92
  -1  17   0   11.22   14.53
   1  17   1   40.65   12.35
  -1  17  -1   34.60   16.66
   1  17   2   91.75   15.21
  -1  17  -2   57.73   22.71
   1  17   3    5.13    6.04
  -1 -17   3    1.81    6.11
  -1  17  -3   -0.40   15.13
  -1 -17   4    5.16    7.02
  -1  17  -4    3.81   15.23
   1  17   4   18.40    6.94
  -1  17  -5   33.67   14.84
  -1 -17   5   14.33    7.37
   1  17   5   31.85    8.31
   1  17   6   39.85    9.36
  -1 -17   6   -0.84    5.90
  -1  17  -6   12.25   18.34
  -1  17  -7   48.65   24.06
  -1 -17   7   19.80    7.43
  -1  17  -8  -17.70   18.43
  -1  17  -9   54.45   22.68
  -1  17 -10  -11.85   15.31
  -1  17 -11   75.08   25.26
  -1  17 -12  -15.67   14.33
  -1  17 -13   29.07   16.55
  -1  17 -14    4.10   19.26
  -1  17 -15   -5.43   15.49
  -1  17 -16   16.21   18.99
  -1  17 -17   19.44   18.23
   1  18 -16   22.68   13.68
   1  18 -15   16.71   13.35
   1  18 -14   22.35   14.52
   1  18 -13   33.22   14.91
   1  18 -12   -7.51   12.96
   1  18 -11   71.20   19.06
   1  18 -10  -12.16   12.19
   1  18  -9   39.87   15.81
   1  18  -8   12.96   10.95
   1  18  -7   18.18   10.97
  -1  18   6   -0.36   11.19
   1  18  -6   -5.36    9.55
  -1  18   5   44.79   15.91
   1  18  -5    5.70   10.38
  -1  18   4   49.23   19.01
   1  18  -4   33.36   12.94
  -1  18   3    2.04   15.29
   1  18  -3   33.41   13.75
   1 -18   3   16.86    7.55
   1  18  -2   48.95   14.42
  -1  18   2   46.29   19.04
   1  18  -1   60.95   14.54
  -1  18   1   42.64   19.66
   1  18   0    7.55    8.02
  -1  18   0   -0.66   13.63
  -1  18  -1   34.77   17.64
   1  18   1   41.69   11.52
   1  18   2   52.78   12.39
  -1 -18   2   18.19    9.17
  -1  18  -2   44.73   18.86
  -1 -18   3   20.60    9.46
  -1  18  -3    8.33   15.49
   1  18   3   32.28   10.16
   1  18   4   37.78    9.65
  -1 -18   4   25.65    9.07
  -1  18  -4   29.99   18.06
   1  18   5   46.91   10.47
  -1  18  -5   17.12   16.82
  -1 -18   5   17.23    8.58
  -1 -18   6   42.84    9.78
  -1  18  -6    5.72   15.58
  -1  18  -7   22.45   18.79
  -1  18  -8    2.20   16.56
  -1  18  -9   52.18   23.04
  -1  18 -10  -18.62   17.59
  -1  18 -11  107.83   30.08
  -1  18 -12   17.70   19.34
  -1  18 -13   13.22   16.06
  -1  18 -14   26.36   17.89
  -1  18 -15    0.46   14.23
  -1  18 -16   20.93   16.17
   1  19 -14   29.62   15.82
   1  19 -13   19.66   12.89
   1  19 -12   22.33   13.42
   1  19 -11   20.95   13.17
   1  19 -10    5.76   11.53
   1  19  -9  -10.78   14.05
   1  19  -8   66.98   18.64
   1  19  -7   15.55   10.02
   1  19  -6   62.51   18.34
   1  19  -5   40.45   15.43
  -1  19   5   33.82   15.95
  -1  19   4   22.65   14.52
   1  19  -4  -15.70   11.59
   1  19  -3    3.78    8.91
   1 -19   3    3.10    5.79
   1  19  -2   53.26   15.20
   1 -19   2   28.41    9.30
  -1  19   1   30.87   18.58
   1  19  -1   14.34    9.99
  -1  19   0   23.22   18.66
   1  19   0   33.00   11.88
  -1 -19   1   16.25    9.94
  -1  19  -1   41.58   19.63
   1  19   1   22.12    9.66
  -1  19  -2   39.50   20.71
   1  19   2   29.63    9.52
  -1 -19   2   12.54    9.43
   1  19   3   20.56    8.82
  -1  19  -3   18.05   16.65
  -1 -19   3    1.68    6.87
  -1 -19   3    5.82    5.89
  -1  19  -4   -0.11   15.20
  -1 -19   4   78.73   15.06
  -1  19  -5   38.57   20.84
  -1  19  -6   73.26   24.00
  -1  19  -7   27.48   19.48
  -1  19  -8  104.66   29.70
  -1  19  -9   60.14   25.54
  -1  19 -10    8.09   14.09
  -1  19 -11   28.16   18.25
  -1  19 -12    6.11   14.58
  -1  19 -13   23.87   22.20
  -1  19 -14   45.51   21.13
   1  20 -13   15.09   11.33
   1  20 -12   -5.14   12.69
   1  20 -11   -0.46   10.98
   1  20 -10    9.74   11.86
   1  20  -9   26.92   12.80
   1  20  -8   40.19   14.74
   1  20  -7   26.26   14.46
   1  20  -6   38.59   14.35
   1  20  -5   22.22   12.64
  -1  20   4   27.27   15.33
   1  20  -4   -8.69   10.36
   1  20  -3    2.59    9.49
  -1  20   3    4.60   13.36
  -1  20   2    3.75   14.41
   1 -20   2   36.04   11.82
   1  20  -2   26.25   10.38
   1  20  -1   21.67   10.99
  -1  20   1   15.38   14.05
   1  20   0    0.83    7.49
  -1  20   0  -18.16   17.92
  -1  20  -1   -5.76   15.31
   1  20   1    7.22    7.03
  -1 -20   1   -4.63    8.36
  -1  20  -2   14.59   16.24
  -1 -20   2   -1.77    7.55
   1  20   2    9.62    8.64
  -1  20  -3    3.98   14.96
  -1  20  -4    3.17   15.25
  -1  20  -5    7.74   15.09
  -1  20  -6   22.04   16.76
  -1  20  -7    9.28   17.52
  -1  20  -8   35.83   23.75
  -1  20  -9   32.86   20.27
  -1  20 -10   -3.81   16.89
  -1  20 -11    5.31   16.13
  -1  20 -12   17.42   19.82
  -1  20 -13   -3.35   17.54
   1  21 -11    5.89   11.49
   1  21 -10   35.17   15.77
   1  21  -9    5.55    9.69
   1  21  -8   21.08   14.02
   1  21  -7   27.56   13.67
   1  21  -6   19.72   10.99
   1  21  -5   23.80   12.61
   1  21  -4   36.03   14.08
   1  21  -3   10.08   10.45
  -1  21   3   91.67   23.37
  -1  21   2   41.33   18.57
   1  21  -2   17.84   11.04
  -1  21   1    4.29   14.52
   1  21  -1   16.00   10.85
  -1  21   0   12.24   13.43
  -1 -21   0   -0.92    7.99
   1  21   0   21.77   10.89
  -1  21  -1   21.62   16.94
  -1 -21   1    7.49    9.17
   1  21   1   25.84   10.34
  -1 -21   2   15.08    9.48
  -1  21  -2   18.24   15.33
  -1  21  -3    7.83   13.52
  -1  21  -4   37.22   20.43
  -1  21  -5   12.24   18.51
  -1  21  -6    3.33   16.91
  -1  21  -7   31.28   20.05
  -1  21  -8   18.74   16.71
  -1  21  -9   18.09   15.64
  -1  21 -10   28.84   22.52
  -1  21 -11  -12.83   16.70
   1  22 -10   18.74   12.74
   1  22  -9   17.68   13.21
   1  22  -8   -5.89   10.54
   1  22  -7   27.10   13.95
   1  22  -6   -2.29   11.05
   1  22  -5   24.77   13.83
   1  22  -4   14.88   12.50
   1  22  -3   16.20   11.71
   1  22  -2   23.25   12.57
  -1  22   1   18.41   15.46
   1  22  -1   29.00   12.96
  -1 -22   0    8.15   10.92
   1  22   0   36.05   13.13
  -1 -22   1    2.73    8.72
  -1  22  -1   18.93   17.75
  -1  22  -2   29.44   19.57
  -1  22  -3   40.94   21.15
  -1  22  -4   27.85   20.08
  -1  22  -5   16.18   18.66
  -1  22  -6   21.65   17.96
  -1  22  -7  -20.36   21.78
  -1  22  -8   20.14   20.19
  -1  22  -9   24.71   20.69
   1  23  -8    6.04   10.17
   1  23  -7   22.89   14.25
   1  23  -6   24.98   13.79
   1  23  -5   24.93   13.19
   1  23  -4   37.87   14.98
   1  23  -3   54.14   16.43
   1  23  -2    1.17    9.04
  -1 -23  -1   25.84   12.62
  -1 -23   0    0.46    9.18
  -1  23   0  -10.25   15.79
  -1  23  -1   -6.56   16.19
  -1 -23   1   16.78   10.82
  -1  23  -2   20.56   19.26
  -1  23  -3   12.66   16.61
  -1  23  -4   -1.88   15.15
  -1  23  -5   28.06   17.53
  -1  23  -6   44.93   24.03
  -1  23  -7   39.02   21.79
   1  24  -6   13.83   13.52
   1  24  -5    5.76   12.89
   1  24  -4  -19.04   12.65
   1  24  -3   36.64   14.42
  -1 -24  -1   15.30   12.63
  -1 -24   0    2.23   10.02
  -1  24  -2   37.54   22.65
  -1  24  -3    1.25   14.93
  -1  24  -4   12.17   17.11
  -1  24  -5   -1.44   16.45
   2   0   0  456.09   18.33
  -2   0   0  437.78   16.73
   2   0  -1   30.45    7.19
  -2   0   1   30.55    5.97
  -2   0   1   10.59    5.34
  -2   0  -1   28.95    5.92
   2   0   1   33.64    7.12
   2   0  -1   34.75    7.16
  -2   0   2  564.85   22.96
   2   0  -2  580.25   22.26
  -2   0   2  480.90   17.67
  -2   0  -2  519.14   17.97
   2   0  -2  630.15   22.36
   2   0   2  594.47   20.22
  -2   0   3 1356.19   30.39
  -2   0  -3 1371.95   31.26
   2   0  -4   14.43    6.27
  -2   0  -4    9.80    3.92
   2   0  -4   26.07    6.65
  -2   0   4   13.92    4.50
  -2   0  -5   14.03    4.85
   2   0  -5   26.57    6.81
  -2   0   5   23.30    4.94
  -2   0  -6  207.50   14.27
   2   0  -6  220.93   16.03
  -2   0   6  235.55   17.19
  -2   0   6  196.89   15.56
  -2   0  -7   57.50    5.08
  -2   0   7   87.20   12.66
   2   0  -7   93.29   12.10
  -2   0   7   73.39   10.36
   2   0  -8  109.33   12.14
  -2   0   8   93.08   12.39
  -2   0  -8  101.84    7.78
  -2   0   8  121.51   14.74
   2   0  -9  436.02   23.46
  -2   0  -9  455.15   17.93
  -2   0   9  422.37   25.77
  -2   0 -10   33.29    5.69
   2   0 -10   21.22    6.86
  -2   0  10   20.16    7.68
   2   0 -11  363.95   23.28
  -2   0 -11  409.25   18.07
  -2   0  11  433.42   29.10
   2   0 -12  115.37   14.39
  -2   0  12  129.89   18.73
  -2   0 -12  111.44   10.64
   2   0 -13  299.58   22.90
  -2   0  13  302.19   25.61
   2   0 -14  140.41   16.44
  -2   0  14  178.13   20.31
  -2   0 -15   13.24   10.40
   2   0 -15   16.84    8.23
   2   0 -16   98.79   15.22
  -2   0 -16  148.56   23.70
  -2   0  16  134.28   19.04
   2   0 -17  204.73   21.19
  -2   0  17  200.94   22.56
   2   0 -18   98.47   14.53
  -2   0  18  108.38   18.16
   2   0 -19  -10.75    7.68
  -2   0  19   19.38   11.28
  -2   0 -19   17.69   12.04
  -2   0  20   12.97   12.82
   2   0 -20    0.87    6.36
  -2   0 -20   -0.08    6.39
   2   0 -21   69.15   13.23
  -2   0  21   89.18   18.11
  -2   0  22   -0.19   11.70
   2   0 -22  -13.62    7.12
  -2   0  23   -0.24   11.25
  -2   0  24   14.57    9.72
  -2   0  25   -0.91   11.98
  -2   0  26    0.86   12.45
  -2   0  27   14.37   12.65
  -2   1  26   22.29   13.07
  -2   1  25   12.94   12.55
  -2   1  24   15.50   12.74
  -2   1  23   -3.27    8.50
   2   1 -23    9.87    8.98
  -2   1  22   23.26   10.62
   2   1 -22   31.66    9.98
   2   1 -21   52.76   13.65
  -2   1  21   54.53   19.77
  -2   1  20   31.52   11.67
   2   1 -20   25.27    9.24
  -2   1  19    9.90   10.14
   2   1 -19   10.37    7.08
  -2  -1 -19   27.22   10.10
   2   1 -18   28.18    8.69
  -2  -1 -18   33.21   11.40
  -2   1  18   24.11   16.05
   2   1 -17   32.26   10.44
  -2  -1 -17   29.81   12.43
   2   1 -16   27.86    8.73
  -2   1  16   34.12   13.38
   2   1 -15  405.27   28.78
  -2   1  15  364.99   29.34
   2   1 -14   69.77   12.94
  -2  -1 -14   71.76   16.11
  -2   1  14   96.95   17.80
   2   1 -13  132.53   15.85
  -2  -1 -13  221.94   27.53
  -2   1  13  185.48   21.56
   2   1 -12  264.36   21.50
  -2   1  12  286.13   23.84
  -2  -1 -12  295.67   17.22
   2   1 -11  126.29   15.05
  -2  -1 -11  129.49   11.15
   2   1 -10   38.27    9.49
  -2  -1 -10   44.71    6.26
   2   1  -9  296.18   20.50
  -2   1   9  354.32   26.22
  -2   1   9  314.65   21.09
  -2  -1  -8  429.40   16.15
  -2   1   8  448.70   26.18
   2   1  -8  449.87   23.32
  -2   1   8  372.07   19.75
   2   1  -7  346.78   20.58
  -2   1   7  335.16   19.38
  -2   1   7  376.89   22.14
  -2  -1  -7  336.02   15.20
   2   1  -6  194.24   17.05
   2   1  -6  216.02   15.80
  -2   1   6  176.94   12.82
  -2  -1  -6  166.25    9.43
  -2   1   6  215.18   17.42
  -2   1   5  283.33   15.40
   2   1  -5  330.15   19.90
   2   1  -5  369.43   20.44
  -2   1   5  398.97   21.17
  -2  -1  -5  324.55   15.24
   2   1  -4  502.59   23.21
  -2  -1  -4  449.38   15.97
  -2   1   4  496.43   19.22
  -2   1   4  509.30   23.22
   2   1  -4  517.62   22.70
  -2   1   3  160.42   10.89
  -2  -1  -3  160.50   10.00
   2   1  -2  644.38   25.33
  -2  -1  -2  609.23   19.07
  -2   1   2  675.21   22.72
   2   1  -2  608.41   22.47
  -2  -1  -1  579.68   19.03
  -2  -1  -1  764.45   21.78
   2   1  -1  587.17   20.04
   2   1  -1  614.67   21.99
  -2   1   1  502.37   18.28
  -2   1   1  649.84   22.23
   2  -1   1  485.80   20.48
   2   1   0  164.54   11.41
  -2   1   0  142.24   10.68
  -2  -1   0  159.58   10.54
  -2  -1   0   98.64    8.73
   2  -1   0  142.68   10.63
  -2   1   0  132.02   10.14
   2  -1   0  117.23   10.67
   2   1   1  449.62   19.73
  -2   1  -1  452.30   17.62
   2  -1  -1  576.62   21.05
  -2  -1   1  501.59   18.52
  -2   1  -1  730.62   22.74
  -2  -1   1  630.44   23.33
   2  -1  -1  603.12   21.89
   2  -1  -2  704.30   23.67
   2  -1  -2  507.92   19.47
  -2   1  -2  871.10   18.02
  -2  -1   2  604.57   21.09
   2   1   2  831.95   25.33
  -2   1  -2  519.21   20.28
  -2  -1   2  737.91   23.49
  -2  -1   3  169.91   12.47
   2  -1  -3  146.96   12.95
  -2  -1   3  231.87   15.17
   2   1   3  187.12   11.20
   2  -1  -3  206.01   14.38
  -2   1  -3  133.66    9.88
  -2  -1   4  437.33   19.34
  -2   1  -4  453.74   21.14
   2  -1  -5  388.93   19.36
  -2  -1   5  347.44   19.39
  -2  -1   6  175.21   15.19
   2  -1  -6  229.96   15.81
   2  -1  -7  343.64   19.18
  -2  -1   7  346.24   22.34
   2  -1  -8  444.66   21.42
  -2  -1   8  456.14   24.79
  -2  -1   9  279.61   21.12
   2  -1  -9  280.95   18.93
  -2   1  -9  248.36   12.54
   2  -1 -10   44.56    8.58
  -2   1 -10   33.48    5.38
  -2  -1  10   43.15    8.64
  -2  -1  11  110.54   14.37
  -2   1 -11  119.86    9.90
   2  -1 -11  148.46   14.89
  -2   1 -12  287.84   15.80
   2  -1 -12  296.65   21.43
  -2   1 -13  186.46   13.54
   2  -1 -13  167.56   17.34
  -2  -1  13  163.49   19.07
   2  -1 -14   70.68   12.62
  -2   1 -14  103.22   19.23
  -2  -1  14   62.15   14.43
  -2   1 -14   97.93   11.08
   2  -1 -15  372.54   25.80
  -2  -1  15  385.60   28.89
  -2   1 -16   74.00   17.65
   2  -1 -16   34.42   10.00
  -2  -1  16   75.85   15.02
   2  -1 -17   30.15   10.67
  -2  -1  17   15.58   10.82
  -2   1 -17    3.65    7.68
  -2   1 -18   40.30   13.15
   2  -1 -18   17.72    7.04
  -2  -1  18   20.14    9.34
  -2   1 -19   15.77   11.19
   2  -1 -19   17.94    8.31
  -2  -1  19   30.94   13.38
   2  -1 -20   19.73    8.46
  -2  -1  20   17.39   11.41
   2  -1 -21   19.80    8.88
  -2  -1  21   58.02   15.93
  -2  -1  22   16.55   10.68
  -2  -1  23   37.10   13.27
  -2  -1  24   16.03   13.91
  -2  -1  25   20.25   10.42
  -2  -1  26   36.73   14.95
  -2   2  26   13.22   12.85
  -2   2  25   26.90   15.22
  -2   2  24   59.56   18.17
   2   2 -23   18.99   10.84
  -2   2  23    6.31    9.73
  -2   2  22   21.89   12.38
   2   2 -22   20.19   10.10
   2   2 -21   25.34    9.90
  -2   2  21   39.21   14.87
   2   2 -20   11.39    8.72
  -2   2  20   12.11   11.34
   2   2 -19   56.95   12.19
  -2   2  19   64.15   15.54
  -2   2  18    6.47    9.14
  -2  -2 -18    8.88    6.49
   2   2 -18    7.49    6.85
  -2  -2 -17   23.69    9.76
   2   2 -17   14.00    7.61
  -2   2  17   32.15   11.68
   2   2 -16   64.71   12.77
  -2   2  16   78.79   15.71
  -2  -2 -15  166.91   21.52
  -2   2  15  163.30   22.80
   2   2 -14  136.18   15.85
  -2   2  14  172.03   21.11
  -2  -2 -13   58.91   13.41
  -2   2  13   49.20   12.84
   2   2 -13   40.23    9.39
   2   2 -12   31.50    9.35
  -2   2  12  112.56   17.59
  -2   2  11   66.08   12.59
  -2  -2 -11   55.07    7.27
   2   2 -11   41.79    8.80
  -2   2  10  330.57   24.32
   2   2 -10  314.89   21.30
  -2   2  10  348.53   22.20
  -2  -2 -10  322.37   16.03
  -2   2   9   24.59   11.20
  -2   2   9   12.61    5.39
  -2  -2  -9    5.00    2.42
  -2  -2  -9    2.28    3.33
   2   2  -9   17.05    7.25
  -2   2   8   23.97    6.45
  -2  -2  -8   17.95    3.99
   2   2  -8   10.05    6.45
  -2  -2  -8   12.31    3.71
  -2   2   7   11.41    5.02
   2   2  -7    2.29    6.38
  -2  -2  -7    8.67    3.96
  -2   2   7   14.20    8.77
   2   2  -6  343.92   21.03
  -2   2   6  268.51   14.59
   2   2  -6  271.00   18.36
  -2   2   6  327.63   21.09
  -2  -2  -6  280.37   12.27
  -2   2   5   78.59    8.55
   2   2  -5   74.02    9.68
  -2   2   5   52.75   11.30
   2   2  -5   77.19   11.09
  -2  -2  -5   77.81    6.97
   2   2  -4  394.60   20.15
  -2  -2  -4  403.26   14.93
  -2   2   4  415.65   20.35
   2   2  -4  422.16   20.50
   2   2  -3  301.32   16.96
   2   2  -3  272.96   19.38
  -2   2   3  304.51   15.55
  -2   2   3  317.34   19.40
  -2  -2  -3  312.22   13.40
   2   2  -2   27.08    5.78
  -2  -2  -2   27.88    4.87
   2   2  -2   17.84    5.88
  -2   2   2   25.64    6.77
  -2   2   2   20.99    5.34
  -2   2   1  575.14   20.68
   2   2  -1  695.13   23.13
  -2  -2  -1  585.76   18.55
  -2   2   1  716.38   22.30
   2  -2   1  790.11   15.88
   2   2   0   -5.05    4.19
  -2   2   0   -1.94    3.75
  -2  -2   0    0.96    3.95
   2  -2   0    1.92    5.38
  -2   2   0    1.67    3.74
   2  -2   0   -0.67    3.42
  -2  -2   0    1.89    3.04
  -2  -2   1  650.99   20.82
   2  -2  -1  649.06   21.91
  -2   2  -1  703.32   19.28
  -2   2  -1  562.24   20.71
   2   2   1  648.08   22.69
   2  -2  -1  573.00   20.65
   2   2   2   36.14    5.94
   2  -2  -2   13.17    5.65
  -2  -2   2   25.47    5.59
  -2  -2   2    9.69    6.00
   2  -2  -2   27.34    6.35
  -2   2  -2   25.19    5.47
  -2   2  -2   19.08    5.58
   2   2   3  423.18   17.61
   2  -2  -3  305.29   16.50
  -2  -2   3  329.03   18.61
  -2   2  -3  419.23   10.93
  -2   2  -3  303.44   18.62
  -2  -2   3  336.45   18.27
  -2  -2   4  341.30   18.61
   2  -2  -4  392.39   19.19
  -2  -2   5   80.87   10.43
   2  -2  -5   89.97   10.59
  -2  -2   6  268.14   19.93
   2  -2  -6  258.73   16.64
  -2  -2   7   19.05    8.99
  -2   2  -7    0.28    1.81
   2  -2  -7   12.93    6.51
   2  -2  -8   23.45    7.09
  -2   2  -8   15.03    3.33
  -2  -2   9   11.71    6.25
   2  -2  -9   24.53    7.99
  -2   2  -9   13.61    3.53
   2  -2 -10  342.33   20.35
  -2   2 -10  343.21   13.94
   2  -2 -11   49.50    8.50
  -2   2 -11   60.48    6.97
  -2  -2  11   48.89    9.78
  -2   2 -12  124.70   10.58
   2  -2 -12   93.34   11.98
  -2  -2  12   83.41   12.85
  -2   2 -13   61.22    7.94
   2  -2 -13   45.62    9.12
  -2  -2  13   43.22   11.27
  -2   2 -14  194.49   28.12
   2  -2 -14  146.47   15.22
  -2  -2  14  141.35   18.13
  -2   2 -14  192.63   13.18
  -2  -2  15  112.11   17.88
  -2   2 -15  134.36   23.88
   2  -2 -15  114.46   14.29
  -2   2 -15   78.93    9.72
   2  -2 -16   70.34   11.02
  -2  -2  16   57.94   14.26
  -2  -2  17   12.68    9.25
  -2   2 -17   37.31   15.61
   2  -2 -17   18.88    7.91
   2  -2 -18    6.61    6.46
  -2   2 -18   10.71   11.05
  -2  -2  18    0.45    8.96
  -2   2 -19   83.62   20.39
   2  -2 -19   62.86   11.13
  -2  -2  19   63.11   15.79
   2  -2 -20    5.93    6.88
  -2   2 -20   23.06   11.97
  -2  -2  20    6.55    8.35
   2  -2 -21   15.44    8.13
  -2   2 -21   35.45   12.98
  -2  -2  21   27.50   11.78
  -2  -2  22   20.42   13.22
  -2  -2  23   17.68   12.60
  -2  -2  24   22.10   11.20
  -2  -2  25   27.96   16.80
  -2  -2  26    0.19    9.97
  -2   3  26    4.18   10.25
  -2   3  25   57.68   16.41
  -2   3  24   25.06   13.86
   2   3 -24   17.20   10.98
   2   3 -23   28.96    9.77
  -2   3  23   31.19   14.80
   2   3 -22   54.99   14.46
  -2   3  22   64.43   16.91
  -2   3  21   31.59   12.04
   2   3 -21   29.02   11.39
  -2   3  20    2.26    9.29
   2   3 -20    7.09    9.45
   2   3 -19   73.09   15.44
  -2   3  19   74.62   16.68
  -2   3  18    6.04   11.56
   2   3 -18   11.35    7.75
  -2  -3 -17   61.06   10.96
   2   3 -17   42.64   12.15
  -2   3  17   50.46   13.85
  -2  -3 -16   96.09   14.11
   2   3 -16   57.81   11.67
  -2   3  16   73.32   15.30
  -2   3  15  443.93   32.72
   2   3 -15  427.30   30.14
  -2   3  14  399.87   30.23
  -2  -3 -14  469.25   19.82
   2   3 -14  393.67   29.89
  -2  -3 -13  251.87   20.18
  -2  -3 -13  214.26   12.45
  -2   3  13  189.71   20.92
   2   3 -13  212.17   21.63
  -2  -3 -12  277.72   12.59
  -2   3  12  328.53   26.50
   2   3 -12  314.25   25.60
  -2  -3 -11   19.95    3.53
   2   3 -11   20.64    8.51
  -2   3  11   35.73   10.56
  -2  -3 -10  170.40   10.03
   2   3 -10  143.98   16.98
  -2   3  10  141.11   18.44
  -2   3  10  120.18   11.95
  -2  -3  -9   14.53    4.31
  -2  -3  -9   18.53    4.04
  -2   3   9   16.25    6.10
   2   3  -9   13.39    6.55
  -2   3   9    9.06    7.04
  -2  -3  -8  436.34   14.44
  -2  -3  -8  345.30   15.64
  -2   3   8  431.68   26.30
   2   3  -8  423.27   24.76
  -2   3   8  372.98   18.26
  -2   3   7  240.52   14.21
  -2  -3  -7  276.32   11.67
   2   3  -7  263.16   18.75
  -2   3   7  271.03   20.92
   2   3  -6  316.76   19.33
  -2   3   6  356.30   17.17
   2   3  -6  351.12   20.64
   2   3  -5  238.11   17.47
   2   3  -5  197.34   15.52
  -2   3   5  251.24   19.49
  -2   3   5  192.79   12.03
  -2  -3  -5  246.23   11.44
  -2  -3  -4  726.79   19.06
   2   3  -4  697.35   27.64
  -2   3   4  655.76   22.75
   2   3  -3  460.54   21.45
  -2  -3  -3  505.31   16.18
   2   3  -3  524.50   22.51
  -2   3   3  456.50   19.19
  -2   3   2  185.69   11.90
   2   3  -2  283.32   15.94
   2   3  -2  268.58   16.39
  -2  -3  -2  219.26   11.30
  -2   3   2  253.10   14.74
  -2  -3  -1  251.43   12.58
  -2   3   1  218.34   13.73
  -2   3   1  253.51   13.76
  -2   3   0    5.51    3.69
   2  -3   0    3.36    3.32
  -2  -3   0    0.54    4.23
  -2  -3   0    6.13    3.21
  -2   3   0    3.14    3.80
   2   3   0    0.87    3.51
   2   3   1  345.73   16.02
   2  -3  -1  297.58   18.70
  -2  -3   1  218.30   14.84
   2  -3  -1  231.16   13.31
  -2   3  -1  271.84   12.51
  -2   3  -1  162.20   11.69
  -2  -3   1  281.03   15.96
  -2  -3   2  247.04   16.84
  -2   3  -2  202.60   16.66
  -2   3  -2  193.98    8.80
  -2   3  -2  234.34   10.14
   2  -3  -2  211.94   13.44
  -2  -3   2  263.61   16.00
  -2  -3   3  529.69   24.60
  -2  -3   3  502.77   22.71
  -2   3  -3  617.87   17.81
   2  -3  -3  425.30   19.56
   2   3   3  638.61   19.56
  -2  -3   4  760.02   29.03
   2  -3  -4  757.94   27.53
  -2  -3   4  746.61   31.21
  -2  -3   5  247.90   19.80
   2  -3  -5  219.87   14.74
   2  -3  -5  203.63   16.11
   2  -3  -6  375.23   22.68
  -2  -3   6  397.98   25.93
   2  -3  -6  349.68   18.92
   2  -3  -7  266.69   17.17
  -2   3  -7  148.00    5.46
   2  -3  -8  436.49   21.84
  -2   3  -8  296.40    8.99
  -2   3  -9   12.40    2.55
   2  -3  -9   18.83    5.94
  -2  -3  10  102.16   13.14
  -2   3 -10  126.05    7.24
   2  -3 -10  136.88   13.61
  -2   3 -11   24.26    4.04
   2  -3 -11   27.00    7.68
  -2  -3  11   16.38    7.91
   2  -3 -12  329.16   21.83
  -2  -3  12  243.61   19.42
  -2  -3  13  133.86   15.14
   2  -3 -13  199.51   17.43
   2  -3 -14  395.13   25.29
  -2  -3  14  285.14   22.72
   2  -3 -15  455.42   27.55
  -2   3 -15  524.13   43.47
  -2  -3  15  445.75   32.48
  -2   3 -16   84.16   21.42
  -2  -3  16   45.93   12.33
   2  -3 -16   57.45   10.37
   2  -3 -17   32.87    9.29
  -2   3 -17   43.22   16.00
  -2  -3  17   37.20   10.88
  -2   3 -18   15.61   14.22
   2  -3 -18   12.95    7.42
  -2  -3  18    5.98    9.62
  -2   3 -19   82.20   20.56
   2  -3 -19   67.88   12.98
  -2  -3  19   53.59   12.39
   2  -3 -20   10.55    8.02
  -2   3 -20   22.90   15.56
  -2  -3  20    5.79    8.81
  -2   3 -21   52.56   15.86
  -2  -3  21   20.01   10.21
  -2   3 -22   87.99   18.81
  -2  -3  22   31.20   10.53
  -2  -3  23   30.11   13.14
  -2  -3  24    2.81   10.63
  -2  -3  25   66.63   18.04
  -2  -3  26   60.15   19.94
  -2   4  25   23.72   13.48
  -2   4  24   -2.27    8.49
   2   4 -24   -7.08    8.95
   2   4 -23   74.13   14.78
  -2   4  23   81.75   18.04
  -2   4  22   24.70   11.92
   2   4 -22   35.39   13.49
  -2   4  21   27.68   11.71
   2   4 -21    3.17    7.53
  -2   4  20   16.27    9.20
   2   4 -20   28.65   10.65
   2   4 -19    5.94    8.31
  -2   4  19    8.26    8.13
  -2   4  18   17.83   10.90
   2   4 -18   36.66   11.01
  -2   4  17   96.84   18.20
   2   4 -17   85.65   16.36
  -2   4  16   33.19   11.79
   2   4 -16   55.99   13.03
  -2  -4 -16   62.00    8.75
   2   4 -15  -11.13   11.07
  -2   4  15   -4.52    9.24
  -2  -4 -15    3.32    5.71
   2   4 -14  202.24   22.42
  -2  -4 -14  250.03   12.03
  -2   4  14  222.98   23.11
  -2  -4 -13  407.70   14.52
   2   4 -13  364.04   28.86
  -2   4  13  405.01   30.32
  -2   4  12  403.95   28.85
   2   4 -12  333.57   26.94
  -2  -4 -12  358.79   12.73
  -2   4  11   39.64    7.24
  -2   4  11   61.66   12.23
   2   4 -11   50.73   11.40
  -2  -4 -11   59.34    5.46
  -2   4  10  171.25   14.29
   2   4 -10  193.63   19.71
  -2  -4 -10  227.25   10.04
  -2   4  10  220.25   21.99
  -2  -4  -9  181.70    8.91
  -2   4   9  158.60   18.71
   2   4  -9  170.17   18.35
  -2  -4  -8    1.61    2.27
   2   4  -8   -4.05    6.66
  -2   4   8    2.29    3.27
   2   4  -7  101.85   14.00
  -2   4   7   77.02    8.51
  -2   4   7   74.67   14.04
  -2  -4  -7  100.28    6.86
  -2  -4  -6  420.31   13.09
  -2   4   6  370.36   16.85
   2   4  -6  511.92   30.01
  -2   4   6  522.46   27.44
   2   4  -6  440.34   23.26
   2   4  -5   16.57    6.23
  -2   4   5   13.09    4.99
   2   4  -5   22.09    8.38
  -2  -4  -5   16.34    3.44
  -2   4   5   15.79    7.24
   2   4  -4   96.41   12.33
  -2  -4  -4   99.94    7.69
  -2   4   4  101.95   11.83
  -2   4   4   77.13    8.69
   2   4  -4   78.33   10.34
  -2   4   3  656.46   23.06
  -2  -4  -3  863.59   22.69
   2   4  -3  637.83   28.40
   2   4  -3  943.85   31.29
  -2   4   3  882.00   29.39
  -2  -4  -2   31.46    5.46
   2   4  -2   32.08    7.62
  -2   4   2   23.74    5.76
  -2   4   2   32.22    6.68
  -2   4   1  908.77   26.39
   2   4  -1  918.32   27.47
  -2  -4  -1  961.15   28.58
  -2  -4   0    4.56    4.20
   2  -4   0    0.89    2.96
  -2   4   0    3.98    3.97
   2   4   0   -0.01    3.63
  -2   4   0   -2.14    4.05
   2   4   1  930.22   23.89
  -2  -4   1  855.02   28.22
  -2   4  -1  852.58   21.22
   2  -4  -1  870.65   24.73
  -2  -4   2   16.40    6.78
   2   4   2   37.00    6.23
  -2  -4   2   36.71    7.36
   2  -4  -2   38.73    7.18
  -2   4  -2   39.49    4.87
   2  -4  -3  791.70   29.30
  -2  -4   3  869.82   33.10
  -2   4  -3  718.88   16.11
  -2  -4   3  720.79   28.03
  -2   4  -3  690.06   14.35
   2  -4  -3  819.54   28.27
   2  -4  -4   69.36   10.47
   2   4   4  122.26    8.73
  -2  -4   4   85.61    9.99
  -2  -4   4   98.97   13.10
  -2   4  -4   98.89    6.71
   2  -4  -4   72.51    8.45
  -2  -4   5   14.03    6.75
   2   4   5   22.52    3.80
   2  -4  -5   18.38    6.16
   2  -4  -5   12.26    5.73
  -2  -4   5   21.19    8.08
   2  -4  -6  411.20   21.80
   2  -4  -7   79.87    9.64
   2  -4  -8   -4.13    5.50
   2  -4  -9  168.64   14.04
   2  -4 -10  217.08   16.45
   2  -4 -11   57.78    9.39
  -2  -4  11   41.25    9.43
  -2  -4  12  264.14   21.28
   2  -4 -12  325.83   20.74
  -2  -4  13  285.35   22.23
   2  -4 -13  332.17   21.09
  -2   4 -14  266.60   34.09
   2  -4 -14  212.73   17.68
   2  -4 -15   -0.23    5.66
  -2   4 -15    8.24   11.85
  -2  -4  15    4.62    8.05
  -2  -4  16   46.62   12.75
   2  -4 -16   43.62    9.18
  -2   4 -16   53.84   19.90
   2  -4 -17   88.26   12.33
  -2  -4  17   74.53   14.02
   2  -4 -18   33.47    8.88
  -2   4 -18   48.29   17.47
  -2  -4  18   25.24   10.22
   2  -4 -19   18.92    7.99
  -2  -4  19    7.16    8.58
  -2   4 -19   27.84   16.83
  -2  -4  20    7.09    8.88
  -2   4 -20   33.67   16.16
  -2   4 -21    9.13   11.42
  -2  -4  21   -4.38    9.01
  -2   4 -22   33.77   12.97
  -2  -4  22   18.88   11.35
  -2  -4  23   58.82   14.22
  -2  -4  24    5.84    9.36
  -2  -4  25   -2.90   10.19
  -2   5  25    9.50   11.67
   2   5 -25    5.00    9.08
  -2   5  24   10.73   10.60
   2   5 -24    7.72    8.47
  -2   5  23   -1.62    8.59
   2   5 -23   13.02   10.02
   2   5 -22   33.91   12.14
  -2   5  22   64.41   16.26
  -2   5  21  -17.33   12.04
   2   5 -21   -2.85    8.40
   2   5 -20  121.49   18.95
  -2   5  20  126.01   22.91
   2   5 -19  155.00   22.54
  -2   5  19  130.87   20.89
  -2   5  18   29.37   10.77
   2   5 -18   20.12   11.71
   2   5 -17    9.43   10.37
  -2   5  17    9.41    8.97
  -2   5  16   46.39   13.02
   2   5 -16   34.77   12.12
  -2   5  15   49.97   13.87
  -2  -5 -15   57.28    5.70
   2   5 -15   47.29   11.14
  -2  -5 -14  306.16   14.17
  -2   5  14  289.29   27.04
   2   5 -14  253.29   25.26
  -2  -5 -13  566.99   21.59
  -2   5  13  534.46   34.28
  -2  -5 -13  458.72   12.56
   2   5 -13  428.88   30.95
  -2  -5 -12  154.16   12.43
  -2  -5 -12  128.02    7.04
   2   5 -12  131.59   17.35
  -2   5  12  132.39   13.63
  -2   5  12  152.25   17.73
  -2  -5 -11   80.75    5.35
   2   5 -11  108.08   15.99
  -2   5  11  101.26   15.05
  -2   5  11   65.62    8.28
  -2  -5 -10  113.10    6.10
   2   5 -10  131.59   17.96
  -2   5  10   93.84    9.41
  -2   5   9   91.17    8.74
  -2  -5  -9  114.71    6.72
  -2   5   9  124.25   15.23
   2   5  -9  118.07   17.02
  -2  -5  -8   21.55    3.23
   2   5  -8   18.57    7.75
  -2   5   8   22.03    4.93
  -2   5   8   25.30    8.69
  -2  -5  -7  445.04   13.22
  -2   5   7  470.32   28.58
   2   5  -7  479.56   27.53
  -2  -5  -6  210.20    9.95
  -2   5   6  195.56   13.56
  -2   5   6  224.15   18.75
   2   5  -6  190.23   17.40
   2   5  -5  320.70   22.77
  -2  -5  -5  313.84   12.72
  -2   5   5  369.84   22.25
  -2   5   4   17.72    5.19
   2   5  -4   33.20    8.56
  -2  -5  -4   29.46    5.57
  -2   5   4   31.01    7.88
   2   5  -4   22.04    7.88
   2   5  -3  224.76   17.71
  -2   5   3  170.37   12.73
  -2   5   3  217.72   15.79
  -2  -5  -3  212.14   12.21
   2   5  -2  325.06   18.89
  -2  -5  -2  306.74   15.83
  -2   5   2  300.39   17.33
   2   5  -1  582.84   23.98
   2  -5   1  407.51   14.09
   2  -5   1  468.39   15.99
  -2  -5  -1  502.20   21.43
  -2   5   1  448.87   18.72
  -2   5   1  349.33   17.80
   2   5   0 1729.12   36.21
  -2   5   0 1469.46   43.23
   2  -5   0 1514.33   31.29
  -2  -5   0 1721.86   43.39
  -2   5   0 1514.42   32.06
   2   5   1  542.43   19.59
  -2  -5   1  512.43   24.60
  -2   5  -1  458.12   15.98
  -2  -5   1  518.88   23.13
   2  -5  -1  518.31   20.06
  -2  -5   2  317.55   21.65
   2   5   2  337.55   15.04
   2  -5  -2  290.11   16.49
  -2   5  -2  274.75   10.98
   2   5   3  260.89   13.13
  -2  -5   3  198.78   17.92
   2  -5  -3  218.47   15.30
  -2  -5   3  162.59   14.85
  -2   5  -3  147.11    6.76
  -2  -5   4   20.93    7.75
   2  -5  -4   21.08    7.81
  -2  -5   4   21.42    8.57
   2   5   4   39.26    5.68
   2  -5  -4   15.51    7.01
  -2   5  -5  200.88    7.31
  -2  -5   5  243.73   17.13
   2  -5  -5  262.74   20.11
   2   5   6  257.69   10.69
   2  -5  -6  133.93   11.34
   2  -5  -7  329.93   16.83
   2  -5  -8   13.12    5.50
   2  -5  -9  117.61   12.59
   2  -5 -10  113.06   11.93
   2  -5 -11   81.94   10.10
  -2  -5  12   92.06   13.19
   2  -5 -12  116.23   12.16
  -2  -5  13  388.02   26.39
   2  -5 -13  432.69   23.64
   2  -5 -14  236.65   18.46
  -2   5 -14  244.27   34.15
  -2  -5  14  205.20   19.54
  -2  -5  15   31.74    9.92
  -2   5 -15   58.72   18.55
   2  -5 -15   31.48    7.31
  -2  -5  16   34.78    9.79
  -2   5 -16   34.63   15.11
   2  -5 -16   29.31    8.17
  -2   5 -17   25.96   17.04
  -2  -5  17   12.43    8.76
   2  -5 -17    3.81    5.57
  -2   5 -18   28.82   15.77
   2  -5 -18   24.22    8.12
  -2  -5  18   12.71    8.63
  -2   5 -19  179.51   30.32
  -2  -5  19  106.26   16.93
  -2   5 -20  136.74   26.44
  -2  -5  20   80.90   15.48
  -2   5 -21    0.51   11.95
  -2  -5  21  -11.51   11.59
  -2   5 -22   69.04   19.58
  -2  -5  22   30.38   11.34
  -2   5 -23   -4.62   10.03
  -2  -5  23   12.59   10.64
  -2  -5  24   11.01   11.23
   2   6 -25   41.66   15.04
  -2   6  25   25.74   13.36
  -2   6  24    7.59   10.00
   2   6 -24   16.12   10.08
  -2   6  23   55.39   16.48
   2   6 -23   52.10   14.03
  -2   6  22   19.41   11.06
   2   6 -22   -2.77    8.19
  -2   6  21   29.57   11.57
   2   6 -21   47.21   13.44
  -2   6  20    4.43   10.08
   2   6 -20   25.10   11.34
   2   6 -19   78.71   16.76
  -2   6  19   68.34   16.88
  -2   6  18    2.42    9.38
   2   6 -18   13.67    8.61
   2   6 -17   12.02    9.93
  -2   6  17   14.66   10.73
   2   6 -16  172.41   21.84
  -2   6  16  219.25   24.17
  -2   6  15   49.94   11.45
   2   6 -15   60.40   14.35
  -2   6  14   43.80   11.80
   2   6 -14   44.51   13.04
   2   6 -13   49.10   12.29
  -2   6  13   55.10   14.06
  -2   6  12   17.12    5.45
   2   6 -12   22.63    9.08
  -2   6  11   36.43    6.53
  -2   6  11   61.16   14.30
   2   6 -11   62.51   13.50
  -2   6  10   90.64    9.45
  -2  -6 -10   82.10    4.77
  -2   6   9   67.49    7.83
   2   6  -9   81.06   13.00
  -2  -6  -9   67.28    4.92
  -2   6   9   69.74   13.65
  -2   6   8   39.79    5.98
   2   6  -8   38.79    9.97
  -2   6   8   33.82   11.48
  -2  -6  -8   40.45    4.61
  -2   6   7   24.88    8.62
  -2   6   7   18.99    4.63
  -2  -6  -7   24.04    4.08
   2   6  -7   32.80    9.43
  -2  -6  -6   53.68    5.93
  -2   6   6   39.02    6.13
   2   6  -6   48.28    9.67
  -2   6   6   57.80   10.63
  -2  -6  -5  106.03    9.23
  -2   6   5   70.75    8.54
   2   6  -5   98.09   13.39
  -2   6   5   79.28   11.52
  -2  -6  -4  187.81   12.72
   2   6  -4  189.70   16.34
  -2   6   4  166.27   14.57
  -2   6   3   11.32    6.40
  -2   6   3   10.66    5.80
   2   6  -3    4.75    6.47
  -2  -6  -3    5.81    4.61
   2  -6   2  115.78    8.48
  -2  -6  -2  113.78   11.85
  -2   6   2   62.73    8.11
  -2   6   2  115.23   11.38
   2  -6   2   63.24    5.42
   2   6  -2  125.18   14.71
  -2   6   1  125.95   14.45
   2  -6   1  131.88    8.90
   2  -6   1  144.52    9.82
  -2   6   1  155.83   12.45
  -2  -6  -1  142.38   13.60
   2   6  -1  160.19   12.97
   2   6   0   61.26    8.95
  -2  -6   0   72.36   10.69
   2  -6   0   71.14    8.63
  -2   6   0   60.90    7.26
   2   6   1  139.37   11.40
  -2  -6   1  169.21   16.85
   2  -6  -1  140.74   11.71
  -2  -6   1  130.99   13.78
  -2   6  -1  145.17   10.08
   2   6   2  119.29    9.57
  -2  -6   2  109.86   14.56
  -2  -6   2   84.41   11.11
   2  -6  -2  105.24   11.25
  -2   6  -2   80.71    6.21
   2   6   3   11.16    3.87
  -2  -6   3    3.59    6.70
  -2   6  -3    5.44    2.02
  -2  -6   3    6.11    6.68
   2  -6  -3   15.43    6.50
   2  -6  -4  158.53   15.13
  -2  -6   4  103.18   12.32
  -2  -6   5   51.00    8.09
   2   6   5  117.94    8.19
   2   6   6   77.25    6.93
  -2  -6   6   38.55    8.66
   2  -6  -7   34.68    8.95
   2  -6  -8   44.67    7.87
   2  -6  -9   64.54    8.32
   2  -6 -10   74.56    8.94
   2  -6 -11   43.52    8.52
   2  -6 -12   22.96    6.99
   2  -6 -13   40.56    8.46
  -2  -6  13   49.10   10.86
  -2   6 -13   49.40   22.47
   2  -6 -14   33.21    7.37
  -2  -6  14   29.34    8.35
  -2   6 -14   30.43   16.03
   2  -6 -15   37.01    8.76
  -2   6 -15   44.07   17.97
  -2  -6  15   29.19    9.89
   2  -6 -16  145.90   14.16
  -2  -6  16  130.77   16.23
   2  -6 -17   -0.39    5.13
  -2   6 -17    3.44   13.40
  -2  -6  17   18.84    9.10
  -2   6 -18   40.60   18.60
  -2  -6  18    9.77    9.94
  -2  -6  19   51.72   14.33
  -2   6 -19   51.64   19.09
  -2  -6  20   15.29    7.92
  -2   6 -20   49.58   18.97
  -2   6 -21   32.04   16.44
  -2  -6  21   29.42   11.29
  -2   6 -22    8.93   12.03
  -2  -6  22   -8.85    9.45
  -2   6 -23   48.22   16.50
  -2  -6  23   30.80   10.54
  -2  -6  24   23.41   13.21
   2   7 -25   18.10   11.97
  -2   7  24   -0.23    9.92
   2   7 -24   -0.26    8.27
  -2   7  23    8.93   11.84
   2   7 -23    7.02   10.28
  -2   7  22   50.41   15.05
   2   7 -22   48.88   13.61
  -2   7  21   10.26   10.57
   2   7 -21   41.21   14.66
  -2   7  20   40.63   14.50
   2   7 -20   40.96   13.22
  -2   7  19    4.03    8.82
   2   7 -19    3.38    8.01
   2   7 -18  114.49   19.42
  -2   7  18  133.56   22.07
   2   7 -17   86.43   16.70
  -2   7  17   83.30   18.03
  -2   7  16    8.52    9.02
   2   7 -16   18.23    9.43
   2   7 -15   72.21   14.11
  -2   7  15  109.03   20.13
   2   7 -14  101.67   17.65
  -2   7  14  124.78   19.09
  -2   7  13  132.96   19.40
   2   7 -13   98.64   16.27
  -2   7  12   27.42    5.60
   2   7 -12   56.31   13.17
  -2   7  12   40.86   12.07
   2   7 -11  296.05   27.43
  -2   7  11  334.07   25.81
  -2   7  10   40.46    5.99
  -2   7  10   45.49   12.12
   2   7 -10   65.62   14.71
  -2   7   9  103.85    9.80
   2   7  -9  140.83   19.76
  -2   7   9  142.09   17.29
  -2   7   8    6.67    3.77
  -2   7   8   14.37    7.99
   2   7  -8    8.76    8.72
  -2  -7  -8    4.47    2.48
  -2  -7  -7  302.99   14.06
  -2   7   7  287.63   16.22
   2   7  -7  349.83   27.44
  -2   7   7  349.45   23.65
  -2   7   6  111.05   10.42
  -2  -7  -6  139.29   10.78
   2   7  -6  154.22   17.31
  -2   7   6  156.92   15.97
   2   7  -5   14.63    6.88
  -2   7   5   14.37    5.10
  -2  -7  -5   23.33    5.64
  -2   7   5   10.93    7.38
  -2   7   4   70.71    9.74
   2   7  -4   98.97   12.99
  -2   7   4   88.94   11.60
  -2  -7  -4   95.71   10.06
   2  -7   4   79.83    5.44
  -2  -7  -3  375.18   20.43
   2  -7   3  357.12   13.20
   2   7  -3  381.83   23.82
  -2   7   3  337.90   19.83
   2  -7   2  703.50   15.47
   2  -7   2 1017.10   24.78
  -2   7   2  821.29   31.23
  -2  -7  -2 1043.53   36.96
   2   7  -2  924.81   33.59
  -2   7   2 1024.05   31.89
  -2  -7  -1   79.30   11.65
   2  -7   1  105.60    9.92
  -2   7   1   73.73   11.47
   2   7  -1  101.14   12.71
  -2   7   1   91.46    9.59
   2   7   0   66.99    9.47
   2  -7   0   74.43    9.54
  -2  -7   0   67.52   12.02
  -2   7   0   47.88    6.51
  -2   7  -1   80.71    7.49
   2   7   1   97.51   10.12
  -2  -7   1   92.05   14.13
   2  -7  -1  104.39   11.70
  -2   7  -2  679.20   16.58
   2   7   2 1119.49   28.76
  -2  -7   2  992.16   44.73
  -2  -7   2  736.70   30.41
   2  -7  -2 1222.52   39.90
   2   7   3  428.86   16.55
   2  -7  -3  435.00   25.28
   2   7   4  112.62    8.19
  -2  -7   4   61.78   10.20
   2   7   5   32.89    5.08
  -2  -7   5    3.97    5.25
  -2  -7   6   88.28   11.19
   2   7   6  179.03    9.37
   2   7   7  344.48   11.28
   2  -7 -10   64.98   10.97
   2  -7 -11  268.23   19.57
  -2   7 -12   85.24   33.57
   2  -7 -12   35.24    7.32
  -2   7 -13   55.23   20.64
   2  -7 -13   67.04    9.14
  -2   7 -14   63.01   22.00
  -2  -7  14   64.60   12.69
   2  -7 -14   58.66    9.10
  -2   7 -15   35.07   21.47
  -2  -7  15   53.89   11.59
   2  -7 -15   51.01    8.36
   2  -7 -16    3.15    5.81
  -2   7 -16    5.93   13.69
  -2  -7  16    7.28    7.74
  -2   7 -17   62.51   23.33
  -2  -7  17   58.14   12.59
  -2   7 -18  142.68   30.09
  -2  -7  18   74.24   14.44
  -2   7 -19  -11.14   14.99
  -2  -7  19   -6.15    9.70
  -2   7 -20   66.73   21.48
  -2  -7  20   22.78   10.79
  -2   7 -21   33.12   15.16
  -2  -7  21   -5.10    9.15
  -2   7 -22   30.88   18.64
  -2  -7  22   26.83   11.35
  -2   7 -23    8.21   11.19
  -2  -7  23    4.31    8.85
  -2   7 -24   14.20   12.49
   2   8 -25   -6.49    9.41
   2   8 -24   24.24   13.23
   2   8 -23    1.61    9.11
  -2   8  23   13.40   13.52
  -2   8  22    9.74   11.65
   2   8 -22   16.15   12.78
   2   8 -21   89.77   19.13
  -2   8  21   95.40   20.58
  -2   8  20   15.46   11.65
   2   8 -20    0.06    8.04
  -2   8  19   60.35   16.34
   2   8 -19   23.67   12.10
  -2   8  18   10.68    9.15
   2   8 -18   14.85    7.89
  -2   8  17   60.77   14.81
   2   8 -17   79.71   16.58
  -2   8  16    1.91    7.56
   2   8 -16   13.47   10.52
   2   8 -15   24.28   10.34
  -2   8  15   18.00   10.61
   2   8 -14   52.55   14.55
  -2   8  14   53.48   13.90
   2   8 -13   26.73   11.77
  -2   8  13   39.55   12.45
   2   8 -12  230.24   26.46
  -2   8  12  270.37   26.29
  -2   8  11   53.12    7.16
   2   8 -11  100.53   19.19
  -2   8  11   86.38   16.24
  -2   8  10   45.50    6.43
   2   8 -10   85.60   16.15
  -2   8  10  102.93   16.73
   2   8  -9   22.99   10.35
  -2   8   9   23.62    5.01
  -2   8   9   45.52   12.76
  -2   8   8   38.57    6.34
  -2  -8  -8   28.59    5.99
   2   8  -8   44.44   12.19
  -2   8   8   58.55   12.96
   2   8  -7   27.47    8.73
  -2   8   7   34.38   10.39
  -2  -8  -7   29.71    6.26
  -2   8   7   17.25    4.97
  -2  -8  -6  203.32   16.29
   2   8  -6  172.36   19.80
  -2   8   6  180.04   17.37
  -2   8   6  138.27   11.88
   2   8  -5    5.00    6.60
  -2   8   5    5.74    6.38
  -2   8   5    6.23    3.67
   2  -8   5   13.78    2.40
  -2  -8  -5   22.21    7.16
  -2   8   4   59.54    8.78
  -2  -8  -4   79.38   12.01
   2  -8   4   68.31    6.14
   2   8  -4   71.75   12.08
  -2   8   4   56.76    9.37
  -2  -8  -3  288.78   22.21
   2   8  -3  256.73   19.39
   2  -8   3  299.29   14.10
  -2   8   3  242.23   16.43
  -2  -8  -2   82.59   13.46
   2  -8   2   87.28    8.94
  -2   8   2   79.00    9.14
   2  -8   2   55.75    5.23
   2   8  -2   87.56   11.52
  -2   8   1   60.22    8.53
  -2  -8  -1   72.59   12.93
   2  -8   1   62.30    8.17
   2   8  -1   51.39    9.16
  -2   8   0  127.31   10.41
  -2  -8   0  145.25   20.14
   2  -8   0  158.10   13.60
   2   8   0  148.24   14.13
  -2   8  -1   43.32    5.46
   2  -8  -1   61.46    9.88
   2   8   1   59.32    8.22
   2   8   2   83.83    8.67
   2  -8  -2   73.16   10.81
   2   8   3  285.21   14.31
  -2  -8   3  119.12   12.13
   2   8   4   80.34    7.91
  -2  -8   4   44.66    9.35
   2   8   5   23.09    4.50
  -2  -8   5   13.17    6.42
  -2  -8   6  105.29   12.65
   2   8   6  212.91   10.06
   2   8   7   30.97    4.08
  -2  -8   7   18.41    7.67
  -2   8 -11   33.99    3.64
  -2   8 -12  203.68   37.91
  -2   8 -13   34.04   17.56
  -2   8 -14   27.44   18.09
  -2   8 -15    5.79   13.75
  -2  -8  15   13.58    8.91
  -2   8 -16    9.55   14.61
  -2  -8  16    1.97    7.90
  -2  -8  17   31.02    9.42
  -2   8 -17   48.59   21.95
  -2   8 -18   26.87   16.55
  -2  -8  18    0.98    7.11
  -2  -8  19    6.38    8.74
  -2   8 -19   29.81   17.34
  -2   8 -20  -23.16   15.53
  -2  -8  20    4.61    8.81
  -2   8 -21   82.11   24.78
  -2  -8  21   48.50   13.36
  -2  -8  22   16.51   12.46
  -2   8 -22  -16.28   13.58
  -2   8 -23   33.85   16.25
  -2   8 -24   40.34   13.95
   2   9 -24    9.10    9.62
  -2   9  23   10.53   12.40
   2   9 -23   10.46   13.48
  -2   9  22   35.98   14.87
   2   9 -22   36.54   15.54
  -2   9  21   62.40   17.50
   2   9 -21   28.23   12.66
  -2   9  20   -6.41    9.51
   2   9 -20    6.90    9.96
  -2   9  19   18.57   11.15
   2   9 -19   13.46    9.43
   2   9 -18   37.57   13.41
  -2   9  18   32.00   12.44
  -2   9  17   -4.40    8.92
   2   9 -17    9.37   11.49
   2   9 -16   -1.06    8.59
  -2   9  16  -13.52   10.47
   2   9 -15  107.03   19.46
  -2   9  15  141.01   21.57
  -2   9  14  184.11   22.52
   2   9 -14  155.82   23.50
   2   9 -13   34.44   12.60
  -2   9  13   32.31   11.26
   2   9 -12   20.65   11.39
  -2   9  12   17.79    9.08
  -2   9  11  -11.88    8.63
  -2   9  11   -0.94    3.63
   2   9 -10   17.50    8.37
  -2   9  10   24.85    9.95
  -2   9  10   18.77    5.16
   2   9  -9   23.71   10.62
  -2   9   9   16.29    4.56
  -2   9   9   20.49    8.71
   2   9  -8  155.70   20.47
  -2   9   8  118.12   10.66
  -2   9   8  154.70   16.56
   2   9  -7    7.12    6.57
  -2   9   7    2.55    5.18
  -2  -9  -7    6.22    5.43
  -2   9   7    9.30    4.84
  -2   9   6  185.04   14.78
  -2  -9  -6  234.57   19.97
   2   9  -6  219.80   22.39
  -2   9   6  234.45   19.54
  -2  -9  -5  113.76   15.23
   2  -9   5  103.57    7.16
   2   9  -5  120.74   16.12
  -2   9   5  123.61   14.35
  -2  -9  -4   47.24   11.48
   2   9  -4   42.96   11.01
   2  -9   4   35.93    5.22
  -2   9   4   34.39    9.16
  -2   9   3   36.29    7.81
  -2  -9  -3   57.47   12.73
   2  -9   3   48.29    6.55
   2   9  -3   48.09   11.22
  -2   9   2   87.98   10.71
  -2  -9  -2   99.25   16.11
   2  -9   2  112.76   10.42
   2   9  -2  113.90   14.25
  -2   9   1   72.34    8.54
  -2  -9  -1  109.44   17.25
   2  -9   1  102.02   10.81
   2   9  -1   92.81   12.09
  -2   9   0   68.00    7.30
   2   9   0   88.33   11.10
   2  -9  -1  101.85   12.54
   2   9   1  130.16   12.99
  -2  -9   2   60.77   10.34
   2   9   2  110.67   10.82
  -2  -9   3   16.83    6.59
   2   9   3   44.46    7.16
   2   9   4   46.51    6.21
  -2  -9   4   23.70    7.59
   2   9   5  147.67    9.66
  -2  -9   5   66.25   10.67
  -2  -9   6  141.75   13.81
   2   9   6  326.44   13.63
  -2  -9   7    0.58    6.34
   2   9   7   11.11    3.08
   2   9   8  109.82    5.85
  -2   9 -11   47.79   26.11
  -2   9 -12   13.26   16.49
  -2   9 -13   28.90   17.17
  -2   9 -14  119.02   27.68
  -2   9 -15   92.95   25.68
  -2  -9  15   63.06   13.67
  -2   9 -16    2.85   14.03
  -2  -9  16    5.92    7.29
  -2   9 -17    9.61   15.38
  -2  -9  17    1.74    6.82
  -2   9 -18   13.52   14.69
  -2  -9  18    7.51    7.30
  -2  -9  19   13.36    9.54
  -2   9 -19    7.99   15.73
  -2  -9  20    5.44    8.98
  -2   9 -20   -0.57   13.66
  -2   9 -21   38.82   21.68
  -2  -9  21   32.04   12.78
  -2   9 -22   47.83   20.26
  -2   9 -23    4.70   10.67
  -2   9 -24  -10.15   11.98
   2  10 -23    1.05    9.72
  -2  10  22   30.29   13.93
   2  10 -22   28.85   12.96
  -2  10  21   19.46   10.87
   2  10 -21   19.34    9.63
  -2  10  20   20.22   12.22
   2  10 -20    3.59   10.84
   2  10 -19   32.91   13.21
  -2  10  19   34.24   15.49
   2  10 -18   -0.95    7.78
  -2  10  18   15.15    9.77
   2  10 -17   14.25   13.72
  -2  10  17    6.69   11.12
   2  10 -16   14.83   10.45
  -2  10  16    9.99   12.17
  -2  10  15  125.84   20.14
   2  10 -15  104.73   20.97
  -2  10  14   63.69   16.33
   2  10 -14   69.93   16.58
   2  10 -13   57.07   15.51
  -2  10  13   57.18   14.38
  -2  10  12  119.77   18.67
   2  10 -12  128.07   20.25
  -2  10  11  125.99   18.69
   2  10 -11  123.92   19.63
   2  10 -10   42.34   12.97
  -2  10  10   38.89   11.65
  -2  10  10   22.29    4.91
  -2  10   9  166.31   13.22
   2  10  -9  171.70   21.75
  -2  10   9  189.53   20.24
  -2  10   8   44.75   11.95
   2  10  -8   56.28   13.51
   2  10  -7   10.73    8.03
   2 -10   7    8.01    1.81
  -2  10   7   -5.56    7.28
   2  10  -6    4.80    8.35
  -2  10   6    7.99    7.40
  -2 -10  -6    5.32    7.67
   2 -10   6    1.24    2.13
  -2  10   5  146.50   16.56
  -2 -10  -5  126.51   16.52
   2 -10   5  155.85    9.79
   2  10  -5  182.59   20.17
  -2  10   4  128.92   14.31
  -2 -10  -4  132.39   19.53
   2  10  -4  140.42   17.84
   2 -10   4  150.25   11.18
  -2  10   3   79.19   10.58
  -2 -10  -3   97.88   17.18
   2  10  -3   97.27   14.24
   2 -10   3   99.09    9.86
  -2  10   2   30.50    6.75
  -2 -10  -2   48.91   13.60
   2  10  -2   61.07   12.35
   2 -10   2   46.68    8.02
   2 -10   1   69.46   10.14
   2  10  -1   56.67   10.48
   2 -10   0   51.80    9.73
   2  10   0   51.37    9.80
   2  10   1   66.21    9.48
  -2 -10   2    9.12    5.73
   2  10   2   48.86    8.86
  -2 -10   3   51.70    9.31
  -2 -10   3   40.66    8.81
   2  10   4  154.94   11.72
  -2 -10   4   61.37   10.96
   2  10   5  186.61   11.17
  -2 -10   5   96.76   12.51
   2  10   6    2.40    2.75
  -2 -10   6    1.82    5.44
   2  10   7    7.70    2.83
  -2 -10   7   -0.95    5.47
   2  10   8   42.11    4.44
  -2  10 -11   89.22   28.50
  -2  10 -12   55.23   21.03
  -2  10 -13   54.03   21.49
  -2  10 -14   30.58   15.68
  -2  10 -15   70.33   23.87
  -2 -10  16    5.87    7.63
  -2  10 -16   14.81   17.09
  -2  10 -17   18.87   19.27
  -2 -10  17    5.57    6.49
  -2  10 -18   -6.08   16.32
  -2 -10  18    5.11    6.68
  -2  10 -19   64.91   24.94
  -2 -10  19   22.96   10.54
  -2  10 -20   37.09   21.99
  -2 -10  20    5.99    8.70
  -2  10 -21   55.52   22.98
  -2  10 -22   11.51   13.38
  -2  10 -23   13.85   13.03
  -2  10 -24   50.74   18.74
  -2  11  22   15.22   11.99
   2  11 -22   -0.22    8.73
   2  11 -21   30.62   13.72
  -2  11  21   24.51   12.55
   2  11 -20    5.80    9.00
  -2  11  20   36.52   12.85
  -2  11  19    3.09    8.25
   2  11 -19   30.24   12.97
  -2  11  18   87.65   17.99
   2  11 -18   76.66   16.74
   2  11 -17   -0.49    8.85
  -2  11  17    4.27    8.75
   2  11 -16    6.54    9.42
  -2  11  16   -9.79    9.48
  -2  11  15  118.27   19.75
   2  11 -15   77.48   18.53
   2  11 -14   -2.59    8.11
  -2  11  14    3.26    8.40
   2  11 -13   33.00   12.19
  -2  11  13   44.60   14.35
  -2  11  12  247.21   25.59
   2  11 -12  180.47   25.47
   2  11 -11   20.34   10.32
  -2  11  11   11.53    8.64
   2  11 -10   33.05   11.90
  -2  11  10   26.40   10.50
   2  11  -9   24.10    9.56
  -2  11   9   74.22   13.79
   2  11  -8  190.80   22.27
  -2  11   8  189.30   20.12
   2  11  -7   10.91    9.50
  -2  11   7   19.56    9.09
   2 -11   7    7.31    2.61
   2  11  -6   10.95    9.09
  -2  11   6    2.09    5.52
   2 -11   6    7.57    3.70
   2  11  -5    2.99    6.73
  -2  11   5    3.95    4.91
  -2 -11  -5   11.68   11.02
   2 -11   5   16.88    4.89
  -2  11   4   81.08   10.87
  -2 -11  -4   95.34   17.22
   2  11  -4  101.68   15.45
   2 -11   4  111.12   10.35
   2  11  -3   11.69    8.57
  -2  11   3    1.04    4.38
   2 -11   3    9.01    2.09
  -2 -11  -3   -4.88    7.91
   2 -11   3   15.62    6.06
   2 -11   2  202.53   15.93
   2  11  -2  231.87   21.54
   2  11  -1  121.00   15.65
   2 -11   1  102.19   12.66
   2  11   0  138.23   14.30
   2  11   1  100.91   12.67
  -2 -11   2   80.83   12.73
   2  11   2  224.36   16.52
   2  11   3   12.15    5.41
  -2 -11   3    4.48    6.43
   2  11   4  116.92   11.03
  -2 -11   4   51.92   10.56
  -2 -11   5   14.30    6.77
   2  11   5   13.30    4.12
  -2 -11   6    4.92    5.95
   2  11   6    7.64    3.80
  -2 -11   7    5.61    7.37
   2  11   7   18.96    3.98
   2  11   8  193.59    8.69
  -2  11 -10   52.67   28.85
  -2  11 -11   45.91   25.91
  -2  11 -12  132.08   29.20
  -2  11 -13   38.00   19.66
  -2  11 -14    3.42   17.06
  -2  11 -15   88.50   25.86
  -2  11 -16   11.57   20.20
  -2 -11  16    5.13    6.49
  -2  11 -17   15.41   19.63
  -2 -11  17   -1.30    7.91
  -2 -11  18   21.92   10.31
  -2  11 -18   49.14   20.34
  -2 -11  19   10.24    7.89
  -2  11 -19   19.27   13.67
  -2  11 -20   38.30   20.89
  -2 -11  20   57.60   17.10
  -2  11 -21   23.74   19.22
  -2  11 -22   28.83   18.25
  -2  11 -23  -13.33   13.63
  -2  12  21   57.12   16.37
   2  12 -21   41.22   13.63
   2  12 -20   34.90   13.76
  -2  12  20   16.08   11.24
   2  12 -19   15.73   11.54
  -2  12  19    1.73    8.12
   2  12 -18    4.08    9.78
  -2  12  18   -3.58    9.68
   2  12 -17   23.44   14.37
  -2  12  17   28.46   12.25
   2  12 -16    9.48   10.78
  -2  12  16    8.25    9.29
   2  12 -15   14.72   11.03
  -2  12  15    4.51    7.50
  -2  12  14   38.93   12.51
   2  12 -14    9.87    9.20
  -2  12  13  133.70   19.41
   2  12 -13  139.51   21.49
   2  12 -12    6.42    9.58
  -2  12  12   14.12    8.83
  -2  12  11   82.56   14.73
   2  12 -11   95.30   18.59
   2  12 -10   17.95   10.22
  -2  12  10  -15.25    7.83
   2  12  -9   28.85   13.23
  -2  12   9   29.26   10.16
   2  12  -8  141.50   20.31
  -2  12   8  127.57   15.94
  -2  12   7  100.84   14.22
   2 -12   7   96.60    7.84
  -2  12   6  156.58   15.87
   2 -12   6  153.61   11.09
   2  12  -6  190.45   22.53
   2 -12   5   63.30    8.24
  -2  12   5   49.14    9.41
   2  12  -5   63.08   13.10
   2 -12   4   37.24    7.72
   2  12  -4   41.65   11.57
   2  12  -3   24.26    9.11
   2 -12   3   24.41    7.36
   2  12  -2  225.37   21.38
   2 -12   2  229.53   18.79
   2  12  -1   45.44   11.12
   2  12   0  130.67   14.90
   2  12   1   36.53    8.25
   2  12   2  222.59   16.74
  -2 -12   2  102.83   14.41
  -2 -12   3   18.17    7.98
   2  12   3   38.30    8.47
  -2 -12   4   15.53    7.72
   2  12   4   32.93    6.25
   2  12   5   62.96    7.70
  -2 -12   5   37.66    9.39
   2  12   6  206.80   12.07
  -2 -12   6  103.56   13.36
   2  12   7  153.00    9.19
  -2 -12   7   88.91   12.59
   2  12   8  138.00    8.07
  -2 -12   8   98.67   13.40
  -2  12  -9   55.70   31.66
  -2  12 -10   -2.94   16.53
  -2  12 -11   69.96   24.23
  -2  12 -12   -8.70   14.49
  -2  12 -13  111.13   28.95
  -2  12 -14   10.41   16.48
  -2  12 -15   41.39   21.90
  -2  12 -16  -17.46   18.33
  -2  12 -17    4.32   14.45
  -2 -12  17   10.73    8.43
  -2  12 -18    4.26   13.42
  -2 -12  18   13.67    8.43
  -2  12 -19    2.12   14.32
  -2 -12  19   31.55   11.25
  -2  12 -20  -13.56   16.61
  -2  12 -21   41.79   20.74
  -2  12 -22    7.08   14.89
   2  13 -20   20.78   12.05
  -2  13  20   14.40    9.08
   2  13 -19   13.39   10.19
  -2  13  19    9.96    9.23
  -2  13  18   23.47   11.42
   2  13 -18   55.23   16.71
   2  13 -17    7.83   10.65
  -2  13  17    2.91    9.32
   2  13 -16   37.46   14.39
  -2  13  16   67.60   16.00
  -2  13  15   86.63   16.63
   2  13 -15   94.79   19.46
   2  13 -14   36.40   14.16
  -2  13  14   30.17   10.86
  -2  13  13   63.04   13.60
   2  13 -13   52.31   14.43
   2  13 -12   13.46    9.54
  -2  13  12   25.06   10.24
   2  13 -11   33.07   13.26
  -2  13  11   22.98   10.60
   2  13 -10   22.94   10.83
  -2  13  10   12.30    8.08
  -2  13   9   15.31    8.87
   2  13  -9   19.24   11.42
  -2  13   8   11.35    7.08
   2  13  -8   30.32   12.59
   2  13  -7   54.90   13.59
   2 -13   6   26.86    6.84
   2  13  -6   20.14   10.04
   2  13  -5  135.73   19.07
   2 -13   5  125.48   12.45
   2  13  -4   -3.61    7.28
   2 -13   4    3.95    5.55
   2  13  -3   37.38   11.14
   2 -13   3   24.14    8.31
   2  13  -2   75.18   13.07
   2  13  -1  311.65   25.11
   2  13   0  219.44   21.07
   2  13   1  249.98   19.52
   2  13   2   67.93   10.03
  -2 -13   2   21.55    8.56
  -2 -13   3   10.35    7.53
   2  13   3   32.55    7.87
   2  13   4    8.58    4.44
  -2 -13   4    5.46    6.49
   2  13   5  164.04   12.44
  -2 -13   5   60.49   11.55
   2  13   6   23.83    4.99
  -2 -13   6   16.96    7.90
   2  13   7   51.51    5.99
  -2 -13   7   36.67    9.84
  -2  13  -8   19.70   24.05
  -2 -13   8   20.95    8.26
   2  13   8   21.89    3.95
  -2  13  -9  -22.56   19.65
  -2  13 -10   14.52   18.22
  -2  13 -11   30.09   18.32
  -2  13 -12   23.31   18.49
  -2  13 -13   56.74   22.78
  -2  13 -14    8.65   14.81
  -2  13 -15   52.86   20.61
  -2  13 -16   99.04   30.69
  -2 -13  17    1.62    6.95
  -2  13 -17   15.40   14.94
  -2  13 -18   47.53   21.37
  -2 -13  18   47.11   13.19
  -2  13 -19    6.38   15.33
  -2  13 -20    5.83   13.86
  -2  13 -21    8.57   14.97
   2  14 -19    7.55   10.76
   2  14 -18   21.80   13.52
   2  14 -17   32.95   14.65
  -2  14  16   49.77   14.50
   2  14 -16   66.77   17.56
   2  14 -15   -4.86   11.59
  -2  14  15   -3.37    9.91
   2  14 -14   13.17   11.18
  -2  14  14    4.92    7.07
   2  14 -13   39.13   12.41
  -2  14  13   39.29   12.69
   2  14 -12   66.64   16.61
   2  14 -11   10.88    9.53
   2  14 -10   -0.79    7.83
   2  14  -9    7.19   10.56
   2  14  -8   36.88   11.81
   2  14  -7   27.32   11.21
   2  14  -6   82.00   17.37
   2  14  -5   26.02    9.00
   2  14  -4   28.97   10.59
   2  14  -3   28.89   10.48
   2  14  -2    5.84    6.70
   2  14  -1   53.01   11.78
   2  14   0  348.10   26.64
   2  14   1   54.67    9.85
   2  14   2   -8.61    6.63
  -2 -14   2    7.14    6.17
  -2 -14   3    9.01    7.08
   2  14   3   26.14    7.49
  -2 -14   4   19.26    7.89
   2  14   4   48.33    9.15
  -2 -14   5   11.20    5.94
   2  14   5   28.05    6.16
   2  14   6   76.71    8.31
  -2 -14   6   29.92    9.34
   2  14   7   42.87    6.49
  -2  14  -7   10.85   21.00
  -2 -14   7   23.71    8.92
  -2  14  -8    5.94   20.24
  -2 -14   8   42.17   11.66
  -2  14  -9    6.76   17.66
  -2  14 -10    3.76   14.79
  -2  14 -11    6.16   15.29
  -2  14 -12   36.77   17.99
  -2  14 -13   54.71   24.48
  -2  14 -14   26.39   21.40
  -2  14 -15  -10.36   18.15
  -2  14 -16   78.21   28.77
  -2  14 -17   40.29   22.69
  -2  14 -18  -11.45   20.09
  -2  14 -19   34.56   20.14
  -2  14 -20   37.87   22.07
   2  15 -18   24.67   13.26
   2  15 -17   58.99   16.75
   2  15 -16   18.69   12.35
   2  15 -15   14.31   11.47
   2  15 -14    0.76    9.64
   2  15 -13   -1.43   10.07
   2  15 -12   58.01   15.52
   2  15 -11   16.15   11.08
   2  15 -10    7.64    8.41
   2  15  -9   82.66   17.59
   2  15  -8   55.56   15.08
   2  15  -7   20.77   11.98
   2  15  -6   16.07    8.47
   2  15  -5   21.97   10.82
   2  15  -4   31.07   10.92
   2 -15   3  119.22   11.29
   2  15  -3  294.36   26.67
   2  15  -2   18.03    9.19
   2  15  -1  163.63   19.59
   2  15   0    0.55    7.70
  -2 -15   1   46.35   11.69
   2  15   1  106.42   13.91
   2  15   2    3.88    5.00
  -2 -15   2   -0.77    6.45
  -2 -15   3  120.43   16.78
   2  15   3  285.03   20.07
  -2 -15   4   11.50    7.79
   2  15   4   46.69    9.12
  -2  15  -5   26.29   28.02
   2  15   5   12.03    4.96
  -2 -15   5    3.46    5.78
  -2  15  -6   46.50   24.18
  -2 -15   6   22.82    9.45
   2  15   6   20.79    5.09
   2  15   7   36.97    6.31
  -2 -15   7    9.95    6.52
  -2  15  -7    0.35   20.13
  -2  15  -8   21.15   18.16
  -2 -15   8   31.56   10.71
  -2  15  -9   45.75   23.50
  -2  15 -10    8.93   14.76
  -2  15 -11   11.79   15.63
  -2  15 -12   67.21   26.26
  -2  15 -13   23.27   23.19
  -2  15 -14   27.00   20.84
  -2  15 -15   26.62   18.30
  -2  15 -16    6.06   15.87
  -2  15 -17   85.23   28.97
  -2  15 -18   13.80   19.20
  -2  15 -19   -0.49   19.32
   2  16 -17   28.28   15.51
   2  16 -16   11.25   11.46
   2  16 -15   -5.17   11.07
   2  16 -14    9.84   11.60
   2  16 -13   33.26   12.79
   2  16 -12   22.47   12.91
   2  16 -11    7.61   10.23
   2  16 -10   22.96   11.79
   2  16  -9   25.98   12.91
   2  16  -8   11.84    9.30
   2  16  -7   23.11   11.10
   2  16  -6   98.72   17.59
   2  16  -5    7.37    8.17
   2  16  -4    2.58    8.15
   2 -16   3   14.14    5.11
   2  16  -3    6.16    7.73
   2  16  -2   16.48    8.73
   2  16  -1   77.72   15.05
   2  16   0    4.18    7.69
  -2 -16   1   17.98    9.13
   2  16   1   57.40   11.27
   2  16   2   -1.17    5.82
  -2 -16   2    2.28    7.78
  -2 -16   3   -4.63    7.21
   2  16   3   13.62    6.76
  -2 -16   3    8.75    8.63
  -2  16  -4    2.46   21.65
   2  16   4    4.92    6.45
  -2 -16   4    4.49    7.83
  -2 -16   5    2.13    7.40
   2  16   5    9.96    5.02
  -2  16  -5   24.36   25.49
   2  16   6   95.66   10.35
  -2 -16   6   55.20   10.29
  -2  16  -6   34.98   23.56
  -2 -16   7    2.66    6.20
  -2  16  -7   10.75   16.03
  -2  16  -8   30.15   20.53
  -2 -16   8    4.28    7.59
  -2  16  -9   48.43   21.66
  -2  16 -10   23.67   17.34
  -2  16 -11   44.15   23.55
  -2  16 -12    5.28   19.62
  -2  16 -13   21.22   17.84
  -2  16 -14  -24.25   19.86
  -2  16 -15    8.94   19.08
  -2  16 -16   14.43   17.91
  -2  16 -17   20.85   18.44
   2  17 -16   17.04   13.06
   2  17 -15   27.32   12.03
   2  17 -14   51.92   16.16
   2  17 -13    5.80    9.48
   2  17 -12    0.05    9.77
   2  17 -11    0.41    8.50
   2  17 -10   67.65   17.37
   2  17  -9   45.85   15.31
   2  17  -8   25.61   11.53
   2  17  -7    5.85    8.43
   2  17  -6   55.53   15.04
   2  17  -5    2.25    7.77
   2  17  -4   31.97   11.17
   2  17  -3   14.27   10.44
   2 -17   3   28.90    7.72
   2  17  -2   11.80    9.12
   2  17  -1    6.00    7.29
   2  17   0  328.97   27.86
   2  17   1   16.05    7.74
  -2  17  -1   26.41   24.29
  -2 -17   1   -3.12    7.62
   2  17   2   11.58    6.57
  -2  17  -2  -10.44   25.30
  -2 -17   2   -9.25    8.19
   2  17   3    6.86    5.53
  -2 -17   3   -3.51    6.05
   2  17   4   27.20    8.75
  -2 -17   4   11.35    8.34
  -2  17  -4   19.29   21.64
   2  17   5   -1.98    4.42
  -2 -17   5   -5.83    8.18
  -2  17  -6   30.73   18.74
  -2 -17   6   22.27    7.74
  -2 -17   7   -2.40    7.38
  -2  17  -7   30.58   23.35
  -2 -17   8   17.36    8.87
  -2  17  -8    4.04   13.88
  -2  17  -9   45.98   23.93
  -2  17 -10   46.27   22.06
  -2  17 -11  -16.53   19.91
  -2  17 -12    9.93   19.28
  -2  17 -13   -7.19   19.08
  -2  17 -14   16.24   21.95
  -2  17 -15   15.39   16.88
  -2  17 -16   19.47   19.85
   2  18 -15   10.32   12.65
   2  18 -14  -13.85   10.29
   2  18 -13   12.90   11.63
   2  18 -12    6.88   10.18
   2  18 -11   22.41   12.81
   2  18 -10   14.74   11.26
   2  18  -9   24.12   11.37
   2  18  -8   -7.57   10.95
   2  18  -7   22.39   11.74
  -2  18   7  155.69   41.97
   2  18  -6   44.29   13.73
  -2  18   6   74.49   29.51
   2  18  -5    7.55    8.58
  -2  18   5   53.11   30.98
   2  18  -4    8.15    7.66
  -2  18   4   11.69   25.08
   2  18  -3   40.05   13.30
  -2  18   3    2.60   22.17
   2  18  -2   17.23    9.50
  -2  18   2  -18.75   19.04
   2  18  -1   29.54   11.57
  -2  18   1   -2.65   21.78
  -2  18   0   45.70   25.65
   2  18   0   40.15   11.27
   2  18   1    4.70    5.45
  -2  18  -1   25.09   24.14
  -2 -18   1   -1.44    7.79
   2  18   2    7.36    6.62
  -2  18  -2   10.43   15.43
  -2 -18   2   -5.33    7.05
  -2 -18   3   16.13    7.39
  -2  18  -3    7.30   15.36
   2  18   3   40.60    9.42
   2  18   4   41.77    9.71
  -2 -18   4   12.77    8.67
  -2  18  -4    8.11   17.73
  -2  18  -5   18.85   21.51
  -2 -18   5    7.93    8.04
  -2  18  -6   81.47   28.22
  -2 -18   6   32.02    9.98
  -2  18  -7    1.57   15.78
  -2 -18   7    5.69    7.00
  -2 -18   8   37.58   10.97
  -2  18  -8   -6.20   17.21
  -2  18  -9   68.57   28.83
  -2  18 -10   15.55   19.35
  -2  18 -11    1.04   16.91
  -2  18 -12   10.07   20.01
  -2  18 -13    0.92   19.15
  -2  18 -14    0.98   16.14
  -2  18 -15  -17.61   20.21
   2  19 -13   20.63   13.00
   2  19 -12   19.40   13.04
   2  19 -11   46.58   17.41
   2  19 -10    6.74    9.74
   2  19  -9   28.11   12.59
   2  19  -8   40.01   15.99
   2  19  -7   15.63   10.49
   2  19  -6    3.49    7.88
   2  19  -5   15.85    9.23
  -2  19   5   -9.64   14.43
   2  19  -4   12.58    9.47
  -2  19   4   -4.68   18.95
  -2  19   3   39.99   20.13
   2  19  -3   36.93   12.07
   2  19  -2   18.61    9.77
  -2  19   2   13.77   14.58
   2  19  -1   17.16   10.70
  -2  19   1   28.69   18.39
   2  19   0   18.87    9.38
  -2 -19   0   12.06    9.06
   2  19   1   -2.35    6.89
  -2 -19   1    5.46   11.00
  -2  19  -1   19.15   18.83
   2  19   2   28.52    9.10
  -2 -19   2   14.75    9.11
  -2  19  -2   40.37   23.57
  -2  19  -3    4.35   16.80
  -2 -19   3   -1.24    6.96
  -2  19  -4   30.47   20.29
  -2 -19   4    9.80    8.10
  -2 -19   5    8.69    8.24
  -2  19  -5    6.15   15.62
  -2  19  -6    7.04   18.89
  -2 -19   6   27.28   11.35
  -2  19  -7   20.15   21.08
  -2  19  -8   -0.66   17.30
  -2  19  -9   25.88   20.88
  -2  19 -10   28.31   23.97
  -2  19 -11   21.48   21.65
  -2  19 -12   26.05   19.47
  -2  19 -13   17.79   18.84
   2  20 -12   14.97   11.59
   2  20 -11   16.94   12.76
   2  20 -10   61.92   17.71
   2  20  -9   14.68   12.33
   2  20  -8   49.77   15.78
   2  20  -7   46.19   16.06
   2  20  -6    9.70    9.08
   2  20  -5   18.89   11.49
   2  20  -4   17.30   11.35
  -2  20   4   -8.33   14.75
   2  20  -3   12.94    9.78
  -2  20   3   22.35   19.88
  -2  20   2   41.42   19.58
   2  20  -2   85.40   18.20
   2  20  -1   17.16   10.09
  -2  20   1   -8.61   15.20
   2  20   0   11.59    7.99
  -2 -20   0    4.17    7.88
  -2  20   0    4.28   15.81
   2  20   1   10.87    7.89
  -2  20  -1   28.80   16.66
  -2 -20   2    8.50    8.66
  -2 -20   2   11.25    9.65
  -2 -20   3   21.31   10.59
  -2  20  -3   18.87   16.39
  -2 -20   4   64.68   15.12
  -2  20  -4   36.57   22.47
  -2  20  -5  -16.24   23.72
  -2  20  -6   16.36   18.82
  -2  20  -7   -9.59   19.13
  -2  20  -8   26.80   23.22
  -2  20  -9   18.53   21.60
  -2  20 -10   66.60   28.86
  -2  20 -11   -6.57   19.88
  -2  20 -12   31.85   20.84
   2  21 -10    3.57   12.93
   2  21  -9   14.41   11.10
   2  21  -8    1.97    9.03
   2  21  -7   -1.13    9.25
   2  21  -6    1.68    9.17
   2  21  -5   20.70   11.55
   2  21  -4    0.81    8.44
   2  21  -3   -7.34   10.30
  -2  21   3   46.46   21.54
   2  21  -2   21.07    9.78
  -2  21   2   24.19   19.28
  -2 -21  -1    2.22    9.16
  -2  21   1   14.10   17.50
  -2 -21   0   22.86   11.83
   2  21   0   85.13   15.53
  -2  21   0   78.08   26.38
  -2  21  -1   53.66   23.59
  -2 -21   1   18.51   11.34
  -2  21  -2   62.21   24.07
  -2  21  -3   -1.17   18.83
  -2  21  -4   62.10   25.65
  -2  21  -5   53.02   26.18
  -2  21  -6   56.37   24.22
  -2  21  -7   22.46   22.53
  -2  21  -8  -16.88   20.14
  -2  21  -9   25.34   21.05
  -2  21 -10  -16.13   20.02
   2  22  -9   -7.64   11.83
   2  22  -8   27.96   13.90
   2  22  -7   25.34   15.22
   2  22  -6   26.80   13.55
   2  22  -5   42.35   14.68
   2  22  -4    9.90    9.77
   2  22  -3   25.96   11.22
   2  22  -2    8.35    9.34
  -2  22   2   93.80   30.18
   2  22  -1   11.06    9.93
  -2  22   1   18.18   18.48
  -2 -22  -1  -11.94   10.84
  -2 -22   0   15.57    9.75
  -2  22   0   71.52   26.52
  -2  22  -1   13.41   20.79
  -2 -22   1   29.23   13.93
  -2  22  -2   -0.68   18.63
  -2  22  -3    5.56   19.69
  -2  22  -4  -13.01   21.13
  -2  22  -5   34.88   24.69
  -2  22  -6   27.15   22.38
  -2  22  -7   21.19   22.10
  -2  22  -8   54.50   27.10
   2  23  -7   -9.44   14.07
   2  23  -6   32.60   14.99
   2  23  -5    2.79    9.76
   2  23  -4   11.55   10.53
   2  23  -3   17.23   11.03
  -2 -23  -2   18.24   12.06
  -2 -23  -1   14.16   11.49
  -2  23   0  -12.15   20.88
  -2 -23   0   11.88   11.29
  -2  23  -1   21.68   21.11
  -2  23  -2   19.23   20.03
  -2  23  -3   39.46   25.56
  -2  23  -4    9.79   19.48
  -2  23  -5  -21.58   23.83
  -2  23  -6    9.61   20.04
  -2 -24   0  -11.90   13.35
  -2  24  -1   67.98   27.59
  -2  24  -2   15.97   19.97
  -2  24  -3   40.19   25.32
   3   0   0    2.07    5.87
  -3   0   0   -0.69    5.43
  -3   0   0    4.74    4.89
   3   0  -1  782.39   30.16
   3   0  -1  551.36   23.09
  -3   0   1  647.77   25.09
   3   0   1  681.14   27.81
  -3   0  -1  535.37   22.22
  -3   0   1  481.08   21.97
  -3   0  -1  714.40   29.26
   3   0  -2  575.00   27.74
  -3   0   2  546.45   30.53
   3   0   2  513.20   23.21
  -3   0  -2  482.92   22.19
  -3   0  -2  541.39   25.47
   3   0   3  668.79   30.77
   3   0  -3  656.90   29.07
  -3   0  -4    5.63    4.92
   3   0  -4   27.24    8.89
  -3   0  -5   53.13    8.50
   3   0  -5   84.62   14.28
   3   0  -6   13.26    6.82
  -3   0  -6    5.51    5.04
  -3   0  -7  291.84   16.85
  -3   0   7  377.07   26.64
   3   0  -8   41.42    9.96
  -3   0   8   38.06    9.88
  -3   0  -9   46.09    5.24
   3   0  -9   74.86   11.78
  -3   0   9   84.98   14.10
   3   0 -10   16.78    8.44
  -3   0 -10    8.43    3.52
   3   0 -11  270.52   22.51
  -3   0  11  355.85   28.58
   3   0 -12   81.10   13.55
  -3   0  12   89.59   16.94
   3   0 -13  286.02   23.87
  -3   0  13  424.28   35.95
   3   0 -14   55.85   11.89
  -3   0  14   83.51   17.63
   3   0 -15   69.68   14.45
  -3   0  15  197.15   27.02
  -3   0  16   32.25   12.26
   3   0 -16   40.83   10.69
  -3   0  17   37.69   15.01
  -3   0 -17    5.15   10.15
   3   0 -17   14.67    8.96
  -3   0  18   25.31   13.99
  -3   0 -18   11.95    9.55
   3   0 -18   12.07    9.33
  -3   0 -19   -6.21   11.24
   3   0 -19   -5.61   10.38
   3   0 -20    2.09    8.09
  -3   0  20   24.54   14.15
  -3   0  21  118.21   21.66
   3   0 -21  109.36   17.47
  -3   0  22   48.50   15.61
   3   0 -22   63.44   13.39
  -3   0  23   23.54   12.20
  -3   0  24   37.19   13.93
  -3   0  25   28.11   16.78
  -3   1  25   63.61   20.50
  -3   1  24   34.88   18.17
  -3   1  23   35.98   14.61
   3   1 -23    9.19    8.28
  -3   1  22   74.37   21.94
   3   1 -22  -12.89   10.92
  -3   1  21  106.00   21.53
   3   1 -21    7.76    7.90
   3   1 -20   20.61    8.91
  -3   1  20   36.45   14.36
  -3   1  19   57.57   15.72
   3   1 -19   40.15   12.44
  -3  -1 -18   74.80   15.53
   3   1 -18   55.71   12.78
  -3   1  18   51.66   14.41
  -3  -1 -17   52.61   14.77
  -3   1  17   66.01   16.94
   3   1 -17   42.54   12.46
  -3  -1 -16    4.80   12.92
   3   1 -16    0.09    8.22
  -3   1  16   33.79   12.80
   3   1 -15  207.44   22.46
  -3   1  15  195.83   23.24
  -3   1  14   52.07   15.57
   3   1 -14   20.34   11.09
   3   1 -13  272.32   24.49
  -3   1  13  424.37   34.91
   3   1 -12   76.40   12.85
  -3   1  12  126.76   20.55
   3   1 -11  262.75   22.95
  -3   1  11  374.72   30.72
   3   1 -10   97.96   15.10
  -3   1  10  107.29   15.22
   3   1  -9   22.48    9.54
  -3  -1  -9    4.30    3.54
  -3   1   9   21.34    9.74
  -3  -1  -8   26.63    6.20
   3   1  -8   36.47    9.04
  -3   1   8   50.77   11.62
   3   1  -7  249.45   20.07
  -3   1   7  276.32   23.25
   3   1  -6   28.90   10.03
  -3  -1  -6   12.90    4.73
  -3   1   6   24.57    9.67
   3   1  -5  502.90   27.54
  -3   1   5  497.50   26.64
   3   1  -4  138.36   14.89
  -3  -1  -4  104.54   10.17
   3   1  -3   74.43   10.86
  -3  -1  -3   59.75    7.89
   3  -1   2  355.82   25.86
  -3  -1  -2  306.41   17.28
   3   1  -2  189.38   17.17
  -3  -1  -2  256.88   15.23
   3   1  -2  396.57   22.28
   3   1  -1  201.44   17.99
  -3  -1  -1  223.58   17.13
  -3   1   1  297.94   22.39
  -3  -1  -1  297.33   16.68
  -3   1   1  397.19   20.99
   3  -1   1  330.59   20.52
  -3  -1   0   15.24    4.54
   3   1   0   33.42    7.97
   3  -1   0   13.75    5.84
  -3  -1   0   21.89    8.25
  -3   1   0   18.94    5.70
   3  -1   0   25.96    5.20
  -3   1   0   23.79    6.02
   3   1   1  441.63   23.88
  -3  -1   1  330.57   17.86
   3  -1  -1  244.86   18.05
   3  -1  -1  406.96   26.46
  -3  -1   1  274.17   20.57
  -3   1  -1  348.59   20.26
  -3   1  -1  355.92   20.21
  -3   1  -2  283.05   17.33
   3  -1  -2  374.32   21.93
   3  -1  -2  248.81   20.90
  -3  -1   2  252.33   17.36
   3   1   2  379.13   21.22
  -3   1  -2  315.91   20.27
  -3   1  -3   59.91   10.08
   3  -1  -3   50.07   11.49
   3   1   3   58.80    8.67
  -3  -1   3   50.26   10.64
  -3   1  -4  113.66    9.56
  -3   1  -4  152.98   14.37
   3  -1  -4  140.06   15.81
   3  -1  -5  475.37   26.15
   3  -1  -6   12.23    7.48
   3  -1  -7  258.47   20.45
   3  -1  -8   43.96   10.83
  -3   1  -9   -0.53    2.27
   3  -1  -9   12.44    8.34
   3  -1 -10   95.23   14.01
  -3   1 -10   37.00    4.65
   3  -1 -11  281.23   23.69
  -3  -1  11  266.42   24.42
  -3  -1  12   79.40   14.13
  -3   1 -12   59.07    7.53
   3  -1 -13  285.07   24.00
  -3  -1  13  288.96   27.95
  -3  -1  14  228.75   26.18
   3  -1 -14   35.71   11.53
   3  -1 -15  197.07   19.99
  -3  -1  15  250.46   29.78
   3  -1 -16   12.36    7.06
  -3   1 -16   -0.03   14.73
  -3  -1  16    9.63   12.11
   3  -1 -17   49.44   12.30
  -3   1 -17   55.61   17.30
  -3  -1  17   51.95   15.18
  -3   1 -18   70.98   18.23
   3  -1 -18   68.49   14.67
  -3  -1  18   48.95   15.00
   3  -1 -19   40.69   12.31
  -3   1 -19   46.44   15.36
  -3  -1  19   33.99   13.58
   3  -1 -20   23.32   11.11
  -3  -1  20   31.26   14.11
   3  -1 -21   10.02    9.37
  -3  -1  21   65.47   17.92
   3  -1 -22    0.52    9.47
  -3  -1  22   -0.72   10.28
  -3  -1  23   44.25   15.34
  -3  -1  24    8.42    9.54
  -3  -1  25   66.76   18.65
  -3   2  25    5.34   12.02
  -3   2  24   10.37   12.20
  -3   2  23   40.18   18.27
   3   2 -23   28.26   12.86
  -3   2  22   15.30   12.95
   3   2 -22    7.73    8.18
   3   2 -21   80.25   14.98
  -3   2  21   90.42   20.19
  -3   2  20   25.81   13.16
   3   2 -20   17.54    9.68
   3   2 -19   14.90    9.40
  -3   2  19   38.34   14.96
   3   2 -18    7.41    8.50
  -3   2  18   60.88   15.70
  -3  -2 -17   70.71   16.29
   3   2 -17   55.25   12.12
  -3   2  17  101.15   18.65
  -3  -2 -16   23.44   12.00
   3   2 -16   19.37    9.18
  -3   2  16   14.58   11.14
   3   2 -15   86.69   14.47
  -3   2  15  200.69   26.53
   3   2 -14  308.93   25.65
  -3   2  14  351.86   29.62
   3   2 -13  100.84   14.55
  -3   2  13  200.96   24.98
  -3  -2 -12   16.90    6.12
   3   2 -12   -2.17    7.31
   3   2 -11  204.62   19.84
  -3  -2 -11  170.61   13.25
   3   2 -10  392.45   27.12
  -3   2  10  421.77   31.47
   3   2  -9  316.32   23.26
  -3   2   9  315.19   25.04
  -3  -2  -8  128.80   10.36
   3   2  -8  182.36   18.13
  -3   2   8  186.09   18.97
   3   2  -7  470.76   27.35
  -3   2   7  456.57   27.18
   3   2  -6  297.99   20.91
  -3   2   6  283.39   20.40
   3   2  -5  163.26   15.76
  -3  -2  -5  111.47    9.41
  -3  -2  -4  156.32   11.59
  -3   2   4  186.09   17.65
   3   2  -4  176.19   16.30
  -3  -2  -3    5.34    3.67
   3   2  -3    5.34    5.92
  -3   2   3   15.93    7.47
   3   2  -2   52.74    9.53
   3   2  -2   85.09   11.14
  -3  -2  -2   61.45    7.77
  -3  -2  -2   55.95    9.68
   3  -2   1 1159.92   42.05
   3   2  -1 1106.78   34.90
  -3   2   0  104.12   12.67
  -3  -2   0   89.30    9.49
   3   2   0  109.27   12.09
   3  -2   0   86.46   11.57
  -3  -2   1  930.41   29.29
   3  -2  -1  811.46   30.47
  -3   2  -1  762.86   24.47
  -3  -2   1  866.13   33.25
   3  -2  -1  897.41   31.42
   3   2   2   77.71   10.40
  -3   2  -2   70.68   10.20
  -3  -2   2   39.39    8.82
   3  -2  -2   34.00    7.35
   3  -2  -2   63.61   11.68
   3   2   3   11.47    6.36
   3  -2  -3    4.97    5.27
  -3  -2   3    7.82    6.53
  -3   2  -3    4.94    5.76
   3  -2  -3   10.14    7.23
   3   2   4  163.72   12.65
   3  -2  -4  172.21   15.63
   3  -2  -5  171.25   16.76
   3   2   5  245.31   19.09
   3  -2  -6  272.50   21.11
   3  -2  -7  478.88   27.66
   3  -2  -8  164.28   16.86
   3  -2  -9  288.92   21.64
  -3   2  -9  195.28    9.63
  -3  -2  10  293.88   23.87
   3  -2 -10  351.77   24.11
   3  -2 -11  244.79   21.84
  -3  -2  11  203.18   21.21
   3  -2 -12   34.87   10.66
  -3  -2  12   26.01   10.71
  -3   2 -12    2.38    3.05
  -3  -2  13   70.82   16.05
  -3   2 -13   79.52    8.10
   3  -2 -14  353.24   27.98
  -3  -2  14  324.02   28.35
   3  -2 -15  161.53   20.39
  -3  -2  15   61.69   17.44
  -3   2 -16   33.44   21.51
   3  -2 -16   24.27    9.76
  -3  -2  16   15.56   10.84
  -3   2 -17   83.35   20.22
   3  -2 -17   54.45   13.89
  -3  -2  17   51.89   14.61
   3  -2 -18   42.32   12.48
  -3   2 -18   22.59   13.77
  -3  -2  18   17.39   11.66
   3  -2 -19   29.42   11.56
  -3   2 -19   29.17   12.56
  -3  -2  19   37.95   13.71
  -3   2 -20    6.34   13.26
   3  -2 -20   18.63   10.05
  -3  -2  20   23.48   12.74
   3  -2 -21   41.52   12.94
  -3  -2  21   41.37   14.10
  -3  -2  22   12.59   11.88
  -3  -2  23   24.17   13.50
  -3  -2  24    7.96   11.56
  -3  -2  25  -12.38   13.96
  -3   3  24  -24.54   12.35
   3   3 -24   -4.59   11.03
  -3   3  23   16.92   13.81
   3   3 -23   -4.28   10.14
  -3   3  22   18.66   14.09
   3   3 -22   11.06    9.05
   3   3 -21   -9.89   10.96
  -3   3  21   40.81   17.77
   3   3 -20   48.14   12.87
  -3   3  20   77.13   16.55
  -3   3  19   10.25   10.39
   3   3 -19   10.25    8.50
  -3   3  18   28.46   11.03
   3   3 -18   19.30    8.10
   3   3 -17   15.20    9.90
  -3   3  17   15.24   11.50
  -3  -3 -16   -0.75    8.16
   3   3 -16   -1.28    8.28
  -3   3  16   -3.88    9.36
   3   3 -15   75.17   14.83
  -3   3  15   72.99   16.77
   3   3 -14   90.13   15.16
  -3   3  14  189.34   25.71
   3   3 -13   99.25   15.80
  -3   3  13  111.32   18.46
  -3  -3 -12   93.78    9.28
   3   3 -12  120.64   15.72
  -3   3  12  122.55   18.00
  -3  -3 -11  127.51   10.54
   3   3 -11  114.25   16.10
   3   3 -10  276.48   23.58
  -3  -3 -10  217.23   13.73
   3   3  -9   40.41    8.49
  -3  -3  -9   45.74    6.59
   3   3  -8   76.94   11.74
  -3  -3  -8   88.52    8.76
  -3  -3  -7   18.05    4.23
   3   3  -7   16.34    7.03
   3   3  -6   80.61   12.73
  -3  -3  -6   70.99    7.74
  -3   3   6   84.57   14.00
  -3   3   5  610.04   30.91
  -3  -3  -5  579.48   21.36
   3   3  -4   76.44   10.42
  -3   3   4   65.83   10.85
  -3  -3  -4   71.09    7.87
   3   3  -3   35.20    7.93
  -3  -3  -3   26.28    5.42
  -3   3   3   35.00    8.12
   3   3  -2   11.52    6.55
  -3   3   2   15.46    6.22
  -3  -3  -2   14.68    4.93
   3   3  -1   20.85    6.73
   3  -3   1    5.34    2.76
  -3  -3  -1   13.70    4.27
  -3  -3  -1   10.18    5.66
  -3   3   1   21.14    7.98
  -3  -3   0  250.79   15.59
  -3  -3   0  169.99   16.60
   3  -3   0  148.62   12.25
   3   3   0  304.64   18.26
   3  -3   0  312.09   22.40
  -3   3   0  305.18   17.38
   3  -3  -1    8.21    5.47
  -3  -3   1    2.03    7.78
   3  -3  -1   11.64    9.01
  -3   3  -1   11.50    6.43
   3   3   1   22.58    6.86
  -3   3  -2   10.28    4.78
   3   3   2   13.68    6.13
   3  -3  -2    3.98    4.27
  -3  -3   2    5.85    6.21
   3  -3  -2    9.12    5.32
   3  -3  -3   28.43    6.80
   3   3   3   40.74    7.43
  -3  -3   3   28.57    7.11
   3  -3  -3   18.57    5.34
  -3   3  -3   31.37    6.82
  -3   3  -4   66.74    8.96
   3  -3  -4   60.88   10.75
  -3  -3   4   60.47   10.87
   3   3   4   78.55    8.98
   3   3   5  589.05   23.61
   3  -3  -5  595.84   30.12
   3  -3  -6   72.14   11.58
   3  -3  -7   20.87    8.31
  -3   3  -8   46.29    3.82
   3  -3  -8   92.88   13.53
  -3   3  -9   28.46    3.27
   3  -3  -9   65.59   12.26
  -3   3 -10  161.80    7.93
   3  -3 -10  311.80   24.33
  -3  -3  11  138.49   16.58
   3  -3 -11  174.31   18.90
  -3  -3  12   99.93   16.24
  -3   3 -12   96.39    7.25
   3  -3 -12  123.02   15.59
  -3  -3  13   62.16   16.18
  -3   3 -13   65.30    6.27
  -3  -3  14   69.08   14.73
   3  -3 -14  158.54   18.41
   3  -3 -15   66.32   12.39
  -3  -3  15   46.58   13.25
  -3   3 -16    4.52   14.44
   3  -3 -16    4.03    8.85
  -3  -3  16    3.86    9.42
   3  -3 -17   22.18    9.18
  -3   3 -17    3.36   10.85
  -3  -3  17   10.92    9.12
  -3   3 -18   29.08   15.49
   3  -3 -18   13.76    9.59
  -3  -3  18    0.61    9.15
  -3   3 -19   17.41   14.89
   3  -3 -19    5.69    7.39
  -3   3 -20  102.79   23.62
   3  -3 -20   70.12   14.46
  -3  -3  20   60.21   16.94
  -3   3 -21  -12.07   12.22
  -3  -3  21    6.26    9.67
  -3  -3  22    0.18    8.97
  -3  -3  23   13.18   11.89
  -3  -3  24    9.76   12.21
  -3  -3  25   36.85   15.79
  -3   4  24   65.74   16.69
   3   4 -24   46.50   15.14
  -3   4  23   13.36   11.89
   3   4 -23   26.44   13.40
  -3   4  22   10.64   12.86
   3   4 -22  -10.31   10.90
  -3   4  21    1.31   10.06
   3   4 -21   -2.34    9.84
  -3   4  20   48.89   16.73
   3   4 -20   31.38   11.39
  -3   4  19   33.48   12.22
   3   4 -19   43.65   12.32
   3   4 -18  129.48   19.43
  -3   4  18   94.08   18.40
  -3   4  17   25.98   12.89
   3   4 -17   12.50    9.44
   3   4 -16  105.12   17.14
  -3   4  16  147.43   21.79
  -3  -4 -15   21.96   10.72
   3   4 -15   12.61    8.57
  -3   4  15   14.48    9.12
   3   4 -14   20.09    9.66
  -3   4  14   24.86   10.87
   3   4 -13   13.98    8.17
  -3  -4 -13   14.29    4.82
  -3   4  13    7.04    8.95
   3   4 -12  133.47   17.64
  -3  -4 -12  115.85   10.03
  -3   4  12  159.32   21.68
  -3  -4 -11   16.93    4.39
   3   4 -11   19.62    8.64
  -3   4  11   25.37   11.03
   3   4 -10   73.76   12.33
  -3   4  10   89.09   16.29
  -3  -4 -10   75.82    7.64
   3   4  -9  122.33   15.38
  -3  -4  -9  119.28    9.70
  -3   4   9  129.50   16.30
   3   4  -8   98.19   13.65
  -3  -4  -8   97.36    8.80
  -3   4   8  100.77   15.39
  -3  -4  -7   22.31    4.53
   3   4  -7   27.80    8.38
  -3   4   7   23.11    8.19
  -3  -4  -6   32.03    5.30
   3   4  -6   37.49    8.95
  -3   4   6   20.55    8.37
   3   4  -5    2.97    5.80
  -3   4   5    9.57    7.68
  -3  -4  -5    7.01    3.72
   3   4  -4  289.94   20.82
  -3   4   4  326.23   23.52
   3   4  -3  550.46   27.33
  -3   4   3  515.65   25.95
  -3  -4  -2   16.13    4.88
  -3   4   2   33.85    7.62
   3   4  -2   20.21    6.89
  -3  -4  -1   23.88    5.60
   3   4  -1   30.17    7.05
  -3  -4  -1   16.74    8.03
  -3   4   1   25.47    6.44
  -3  -4   0   13.07    6.70
   3   4   0   20.10    6.29
   3  -4   0   18.72    5.59
  -3  -4   0   26.12    6.53
  -3   4   0   25.01    6.08
   3   4   1   26.07    5.99
  -3   4  -1   29.60    6.22
   3  -4  -1   19.68    6.32
  -3  -4   1   26.89    8.38
   3  -4  -2   32.34   10.22
   3  -4  -2   14.70    5.81
   3   4   2   32.29    7.89
  -3   4  -2   37.05    6.92
  -3  -4   2   25.47    8.38
   3   4   3  523.69   22.95
   3  -4  -3  474.24   24.90
  -3   4  -3  393.94   17.67
  -3   4  -3  455.73   17.09
  -3  -4   3  354.40   21.70
   3  -4  -3  400.80   23.16
  -3   4  -4  193.28   11.92
  -3  -4   4  196.67   15.95
  -3   4  -4  233.85   11.43
   3  -4  -4  206.69   16.43
   3   4   5    4.57    3.78
   3  -4  -5    4.59    4.90
  -3  -4   5    4.68    6.75
  -3   4  -5    8.61    3.99
   3   4   6   46.26    7.85
   3  -4  -6   29.10    8.23
   3  -4  -7   29.46    8.96
   3  -4  -8   83.40   12.14
   3  -4  -9  116.87   14.39
   3  -4 -10   84.64   12.59
   3  -4 -11   17.24    7.63
  -3  -4  12  104.13   15.36
   3  -4 -12  128.63   15.26
  -3  -4  13    3.55    8.73
   3  -4 -13   17.97    9.25
  -3  -4  14    4.63    8.29
   3  -4 -14   13.28    8.34
  -3  -4  15    7.58    8.26
   3  -4 -15   19.42    7.87
  -3   4 -16  142.72   32.03
  -3  -4  16   94.54   17.64
   3  -4 -16   90.17   14.74
  -3   4 -17   -7.35   14.01
  -3  -4  17    3.15    7.90
   3  -4 -17    1.89    6.81
  -3   4 -18  115.94   24.59
  -3  -4  18   91.20   18.14
   3  -4 -18   94.33   14.21
  -3   4 -19   23.15   15.25
   3  -4 -19   15.51    8.10
  -3  -4  19   11.89   10.79
  -3   4 -20   25.51   15.52
  -3  -4  20   26.87   11.95
  -3   4 -21    5.54   12.94
  -3  -4  21   26.98   12.76
  -3  -4  22   11.17   11.81
  -3  -4  23   18.25   12.51
  -3  -4  24   36.97   15.61
  -3  -4  25    7.07   11.54
   3   5 -25   35.65   12.86
  -3   5  24   26.25   15.36
   3   5 -24    6.22   11.36
  -3   5  23   12.69   15.23
   3   5 -23   12.33   11.76
  -3   5  22   44.04   16.35
   3   5 -22   19.97    9.67
  -3   5  21   38.84   14.15
   3   5 -21   13.44    9.97
  -3   5  20   13.80   11.32
   3   5 -20    8.82    8.32
  -3   5  19    8.68   10.57
   3   5 -19   15.92    9.58
  -3   5  18    6.13    9.11
   3   5 -18    0.61   10.02
  -3   5  17  -20.02   11.01
   3   5 -17    6.43    8.29
  -3   5  16   40.53   11.97
   3   5 -16   51.83   13.25
   3   5 -15   76.59   15.93
  -3   5  15   86.54   18.16
  -3   5  14    1.03    7.79
   3   5 -14   -7.65    9.17
   3   5 -13   59.75   13.40
  -3   5  13   50.62   13.41
   3   5 -12   10.89    9.49
  -3  -5 -12    9.88    3.23
  -3   5  12   17.51   10.26
   3   5 -11   13.78    7.75
  -3  -5 -11    3.71    2.71
   3   5 -10  115.30   16.07
  -3  -5 -10   92.58    8.00
  -3   5  10  107.59   16.70
  -3  -5  -9   18.21    4.28
   3   5  -9    9.13    6.09
  -3   5   9   15.10    8.18
   3   5  -8   53.54   12.17
  -3  -5  -8   40.05    5.65
  -3   5   8   59.49   12.03
   3   5  -7  212.44   19.76
  -3  -5  -7  172.33   11.33
  -3   5   7  233.72   21.10
   3   5  -6   58.34   10.22
  -3  -5  -6   46.30    6.08
  -3   5   6   57.95   10.95
  -3  -5  -5  190.57   12.25
   3   5  -5  236.09   19.14
  -3   5   5  221.27   18.67
  -3  -5  -4  135.99   11.28
   3   5  -4  177.14   16.41
  -3   5   4  176.41   16.67
  -3  -5  -3  139.14   11.79
   3   5  -3  150.95   14.95
  -3   5   3  174.60   16.26
   3   5  -2  163.56   15.32
  -3   5   2  178.60   15.77
  -3  -5  -2  130.54   11.32
   3   5  -1   46.59    8.45
   3  -5   1   21.19    4.72
  -3  -5  -1   27.73    7.31
  -3   5   1   64.12   10.19
  -3  -5  -1   45.17    8.10
   3  -5   0   24.72    6.04
   3   5   0   52.28    8.26
  -3  -5   0   25.23    8.05
  -3   5   0   54.90    8.67
   3  -5  -1   32.23    7.30
   3   5   1   58.16   10.06
  -3  -5   1   39.90    8.81
  -3   5  -1   60.74    8.29
   3   5   2  153.35   13.31
  -3   5  -2  180.57   12.81
   3  -5  -3  156.35   17.44
  -3   5  -3  165.17   10.58
   3   5   3  177.64   13.87
   3   5   4  178.75   13.32
   3  -5  -4  185.35   19.15
  -3   5  -4  150.14   11.15
  -3   5  -4  148.73    8.86
  -3   5  -5  154.20    9.62
  -3  -5   5  158.01   16.04
  -3   5  -5  158.02    7.34
   3  -5  -5  170.06   15.87
  -3   5  -6   33.13    5.32
  -3  -5   6   40.00    9.16
   3  -5  -6   46.17    8.05
   3   5   7  282.91   17.94
   3  -5  -7  150.03   14.33
   3  -5  -8   47.58   10.66
   3  -5  -9   16.86    6.73
   3  -5 -10   94.90   14.08
   3  -5 -11    2.91    6.10
   3  -5 -12    0.09    7.03
   3  -5 -13   48.20    9.99
  -3  -5  13   51.86   11.98
   3  -5 -14    1.72    7.10
  -3  -5  14   -0.86    7.27
   3  -5 -15   59.44   11.26
  -3  -5  15   34.59   12.45
   3  -5 -16   31.32    8.90
  -3  -5  16   19.25    8.71
   3  -5 -17    4.17    7.30
  -3   5 -17   -6.05   15.70
  -3  -5  17   -8.43   10.16
  -3   5 -18   12.23   14.05
   3  -5 -18    2.27    8.51
  -3  -5  18    9.37    9.22
   3  -5 -19    4.93    7.13
  -3   5 -19   16.68   12.56
  -3  -5  19    1.48   10.02
  -3   5 -20  -10.03   12.33
  -3  -5  20    9.47   10.59
  -3   5 -21   24.22   15.79
  -3  -5  21    9.84    9.15
  -3   5 -22    0.02   11.53
  -3  -5  22    3.78    9.80
  -3  -5  23    3.05    9.57
  -3  -5  24    9.37   12.56
  -3  -5  25   13.88   12.58
   3   6 -25    8.66   10.04
   3   6 -24   10.77    8.97
  -3   6  23   19.62   10.38
   3   6 -23   32.40   13.16
  -3   6  22   28.59   15.81
   3   6 -22   18.98    9.49
  -3   6  21   15.90   11.31
   3   6 -21   29.57   12.75
  -3   6  20    6.93    9.08
   3   6 -20    8.16   10.03
  -3   6  19   22.07   12.67
   3   6 -19   26.40   12.55
   3   6 -18   74.17   17.75
  -3   6  18   62.77   18.37
   3   6 -17    2.42    9.45
  -3   6  17   21.81   12.83
   3   6 -16  142.84   20.18
  -3   6  16  155.82   23.84
  -3   6  15    6.11    8.17
   3   6 -15   31.33   11.05
  -3   6  14   40.33   12.70
   3   6 -14   47.60   12.36
   3   6 -13   94.55   15.71
  -3   6  13   76.11   15.88
  -3   6  12   31.68   11.62
   3   6 -12   35.77   10.58
   3   6 -11   59.54   12.69
  -3  -6 -11   57.54    6.11
  -3   6  11   72.15   13.65
   3   6 -10   46.35   11.67
  -3  -6 -10   28.36    4.98
  -3   6  10   38.19   11.99
   3   6  -9  207.39   21.36
  -3  -6  -9  192.04   11.49
  -3   6   9  233.86   24.08
  -3  -6  -8   25.83    5.28
   3   6  -8   16.43    7.79
  -3   6   8   22.29   10.43
  -3  -6  -7  335.09   16.63
   3   6  -7  378.77   27.73
  -3   6   7  356.06   26.60
   3   6  -6   97.64   13.51
  -3   6   6   90.21   13.45
  -3  -6  -6   72.81    7.54
   3   6  -5  286.02   21.66
  -3   6   5  272.54   21.72
  -3  -6  -5  234.17   14.20
   3   6  -4  261.52   20.55
  -3   6   4  308.11   21.90
  -3  -6  -4  269.17   17.26
   3   6  -3  107.93   13.03
  -3   6   3  123.25   14.56
  -3  -6  -3   95.50   10.24
   3   6  -2  121.24   13.06
  -3   6   2  123.26   13.47
  -3  -6  -2  104.63   10.69
   3   6  -1  382.77   22.33
  -3   6   1  363.26   20.91
   3   6   0   39.43    7.67
   3  -6   0   27.43    5.86
  -3   6   0   40.27    7.43
  -3  -6   0   19.51    8.08
   3   6   1  348.28   19.98
  -3   6  -1  329.85   17.31
   3   6   2  136.24   13.13
  -3   6  -2  117.10    9.56
   3   6   3  117.07   11.26
  -3   6  -3  113.87    8.38
  -3  -6   4  185.54   17.91
  -3   6  -4  214.55    9.40
   3   6   5  327.32   17.08
  -3  -6   5  177.14   16.16
   3  -6  -5  288.44   24.22
  -3   6  -5  176.52    7.16
  -3   6  -6   55.12    5.68
  -3  -6   6   65.48   12.61
   3  -6  -6   86.59   14.46
  -3   6  -7  207.07    9.98
   3  -6  -7  312.13   23.27
  -3   6  -8   14.52    4.17
   3  -6  -8   20.86    6.47
   3  -6  -9  155.80   15.08
   3  -6 -10   21.23    5.95
   3  -6 -11   40.28    9.58
   3  -6 -12   37.25   10.22
   3  -6 -13   93.90   13.90
  -3  -6  14   36.51   10.10
   3  -6 -14   35.00   10.37
   3  -6 -15   15.99    8.52
  -3  -6  15   15.59    8.99
   3  -6 -16  124.13   16.42
  -3   6 -16  119.14   27.02
  -3  -6  16   94.53   16.30
  -3   6 -17    5.06   14.77
   3  -6 -17    4.82    7.21
  -3  -6  17    3.12    8.35
   3  -6 -18   49.35   11.57
  -3  -6  18   63.36   14.63
  -3   6 -18   39.71   16.73
  -3   6 -19   13.55   15.84
  -3  -6  19   10.55    9.35
  -3   6 -20   -2.07   14.67
  -3  -6  20   -1.60   10.97
  -3   6 -21   17.41   16.11
  -3  -6  21   29.58   13.45
  -3   6 -22   25.20   16.36
  -3  -6  22   16.24   12.35
  -3   6 -23   23.42   14.56
  -3  -6  23   19.06   12.09
  -3  -6  24   -0.96    9.88
  -3  -6  25   18.44   13.29
   3   7 -24   10.10    9.74
  -3   7  23   20.89   12.05
   3   7 -23   11.38    8.99
  -3   7  22   19.63   12.39
   3   7 -22   -7.83   10.80
  -3   7  21   12.36   12.42
   3   7 -21   27.55   13.94
  -3   7  20    5.46   11.56
   3   7 -20   12.02    9.50
  -3   7  19   -7.36   10.73
   3   7 -19   20.88   11.33
  -3   7  18   -0.39    9.66
   3   7 -18    2.85    7.86
  -3   7  17   31.80   12.91
   3   7 -17   40.28   13.07
  -3   7  16   17.33   11.73
   3   7 -16    9.86    8.02
  -3   7  15   17.75   11.88
   3   7 -15   18.72    7.94
   3   7 -14   95.13   16.60
  -3   7  14  115.03   19.97
  -3   7  13  259.91   27.62
   3   7 -13  240.72   24.86
  -3   7  12   41.82   11.86
   3   7 -12   43.63   10.76
  -3   7  11   15.31    9.91
   3   7 -11    4.51    6.86
  -3  -7 -11   21.10    4.35
  -3   7  10   47.57   11.93
   3   7 -10   34.82   10.65
  -3  -7 -10   44.74    6.39
   3   7  -9   56.67   12.08
  -3  -7  -9   55.06    7.18
  -3   7   9   60.71   13.61
  -3   7   8    4.04    6.89
  -3  -7  -8   10.33    4.35
   3   7  -8   14.71    8.76
  -3   7   7   11.53    7.36
  -3  -7  -7   18.49    4.58
   3   7  -7   15.02    7.10
  -3   7   6   15.71    6.02
  -3  -7  -6   15.04    5.05
   3   7  -6   26.64    9.29
   3   7  -5  233.90   21.46
  -3  -7  -5  187.11   14.06
  -3   7   5  236.95   20.34
  -3  -7  -4    5.24    3.60
   3   7  -4    2.95    5.56
  -3   7   4    6.41    6.79
   3   7  -3  158.49   15.85
  -3  -7  -3  141.91   13.94
  -3   7   3  147.00   14.73
   3   7  -2   64.19   10.52
  -3  -7  -2   72.77   11.60
  -3   7   2   61.49    9.87
  -3   7   1   22.57    6.76
   3  -7   1   10.63    4.67
   3   7  -1   21.17    7.01
  -3   7   0   18.41    5.82
   3  -7   0    7.74    3.56
  -3  -7   0    0.60    6.03
   3   7   0   18.96    6.67
  -3   7  -1   18.96    5.46
   3  -7  -1   21.81    6.87
  -3  -7   1   14.98    5.86
   3   7   1   19.75    6.39
   3   7   2   61.24    8.86
  -3   7  -2   57.97    7.67
   3   7   3  162.84   13.40
  -3   7  -3  126.71    8.66
  -3   7  -4    3.49    2.08
  -3  -7   4    0.84    5.95
   3   7   4    9.87    4.61
  -3  -7   5  146.38   15.56
   3   7   5  268.02   16.01
   3   7   6   25.74    5.95
  -3  -7   6    3.56    6.65
   3   7   7   19.79    4.77
   3  -7  -8   13.43    8.24
   3  -7  -9   56.70   12.66
  -3   7  -9   27.06    3.65
   3  -7 -10   29.23    8.95
  -3   7 -10   17.38    3.21
   3  -7 -11    4.65    6.24
   3  -7 -12   25.71    8.55
   3  -7 -13  143.56   14.99
   3  -7 -14   62.29   11.35
  -3   7 -15   25.62   20.32
   3  -7 -15    9.38    5.63
  -3  -7  15    2.50    8.17
   3  -7 -16    9.82    7.08
  -3  -7  16   13.15    8.29
  -3   7 -16    0.55   17.10
   3  -7 -17   11.19    6.61
  -3  -7  17   25.40   11.08
  -3   7 -17   13.09   16.32
  -3   7 -18    3.87   12.20
  -3  -7  18  -13.98   10.90
  -3   7 -19   29.22   17.89
  -3  -7  19   15.95   10.21
  -3   7 -20    2.12   13.89
  -3  -7  20   18.51   11.80
  -3   7 -21   42.67   22.17
  -3  -7  21    0.74   10.55
  -3   7 -22   -1.99   13.18
  -3  -7  22   -6.55   10.60
  -3   7 -23   -2.50   12.29
  -3  -7  23   12.09   11.32
  -3  -7  24   -3.52   10.33
   3   8 -23   10.54    9.06
  -3   8  22   49.94   15.18
   3   8 -22   13.33    9.09
   3   8 -21   51.26   14.49
  -3   8  21   41.29   14.54
  -3   8  20   14.31   11.09
   3   8 -20   -8.08   11.24
   3   8 -19   27.39   10.93
  -3   8  19   47.05   15.35
  -3   8  18    0.34   10.78
   3   8 -18    2.30    8.45
  -3   8  17   23.89   13.00
   3   8 -17   24.25    9.33
  -3   8  16   45.47   13.38
   3   8 -16   73.08   16.78
  -3   8  15   97.80   18.18
   3   8 -15   91.22   16.36
  -3   8  14   72.77   16.24
   3   8 -14   92.50   19.07
  -3   8  13   63.02   16.03
   3   8 -13   64.84   15.43
  -3   8  12  102.36   18.38
   3   8 -12  108.82   18.85
  -3   8  11   89.56   16.92
   3   8 -11   81.62   16.26
   3   8 -10   39.90   11.99
  -3  -8 -10   40.33    6.46
  -3   8  10   52.80   14.05
   3   8  -9   44.31   11.71
  -3  -8  -9   48.14    7.08
  -3   8   9   59.23   13.25
  -3  -8  -8   87.50    9.70
  -3   8   8   94.78   15.04
   3   8  -8   75.12   14.39
  -3  -8  -7  214.88   15.06
  -3   8   7  264.28   23.30
   3   8  -7  251.04   22.39
   3   8  -6   44.17   10.40
  -3   8   6   27.88    9.45
  -3  -8  -6   28.77    7.02
   3   8  -5   70.28   11.23
  -3  -8  -5   61.37    9.69
  -3   8   5   82.43   13.08
   3   8  -4  133.29   15.81
  -3  -8  -4  122.34   13.49
  -3   8   4  139.21   15.72
   3   8  -3  196.55   18.32
  -3  -8  -3  169.96   16.31
  -3   8   3  228.20   18.72
  -3   8   2   14.36    7.05
   3   8  -2   13.81    6.26
   3   8  -1  144.44   14.42
  -3   8   1  119.12   12.14
  -3   8   0   16.36    5.49
   3  -8   0   10.86    4.28
  -3  -8   0    2.68    5.59
   3   8   0   18.65    6.06
   3   8   1  153.17   14.47
   3  -8  -1  128.53   13.33
  -3   8  -1  135.96   12.07
  -3   8  -2    4.78    2.93
  -3  -8   2    5.51    6.87
   3   8   2   15.46    5.31
   3   8   3  201.74   14.96
  -3   8  -3  168.83   10.08
  -3  -8   4   72.31   12.45
   3   8   4  139.62   12.60
  -3  -8   5   51.55   11.35
   3   8   5   75.83    9.45
   3   8   6   36.69    6.21
  -3  -8   6   24.21    8.76
   3   8   7  303.27   16.58
  -3  -8   7  174.89   18.52
   3   8   8  107.94    9.50
   3  -8 -12   98.10   14.84
   3  -8 -13   52.30   11.66
   3  -8 -14   62.77   13.91
   3  -8 -15   82.78   16.04
  -3   8 -15   59.28   28.77
  -3  -8  15   65.30   13.73
  -3   8 -16   46.71   19.86
  -3  -8  16   41.91   12.62
   3  -8 -16   56.90   12.36
  -3   8 -17   36.44   21.88
  -3  -8  17   10.91   11.37
  -3   8 -18    8.49   14.91
  -3  -8  18   11.55    8.80
  -3   8 -19   30.20   22.88
  -3  -8  19   35.64   14.38
  -3   8 -20   20.65   19.77
  -3  -8  20    8.21    9.98
  -3   8 -21   65.83   25.05
  -3  -8  21   27.88   12.98
  -3   8 -22   25.81   18.16
  -3  -8  22   -0.29    9.83
  -3   8 -23   38.69   21.42
  -3  -8  23    9.90   10.10
  -3   8 -24    3.04   16.13
   3   9 -23   18.75   11.48
  -3   9  22   30.55   17.07
   3   9 -22   26.55   13.30
  -3   9  21    8.62   11.21
   3   9 -21   10.36   10.67
   3   9 -20   42.59   13.78
  -3   9  20   53.15   17.69
   3   9 -19    5.90    9.12
  -3   9  18   13.53   11.13
   3   9 -18   13.06    8.63
  -3   9  17   17.93   11.77
   3   9 -17   30.95   12.21
  -3   9  16   14.99   10.85
   3   9 -16   35.29   12.94
  -3   9  15   71.11   18.89
   3   9 -15   87.79   18.88
  -3   9  14   10.87   11.75
   3   9 -14   25.59   14.03
  -3   9  13    3.86    7.98
   3   9 -13    3.90    9.28
  -3   9  12  116.24   18.88
   3   9 -12  134.32   21.58
  -3   9  11   15.24   10.05
   3   9 -11   13.74   10.58
  -3   9  10  183.78   20.90
   3   9 -10  193.25   25.04
  -3   9   9   -1.74    7.56
   3   9  -9  -12.25    9.75
  -3  -9  -9    3.24    4.49
  -3   9   8   27.49    8.77
   3   9  -8   26.16   11.75
  -3  -9  -8   32.74    7.68
  -3  -9  -7   58.22    9.55
  -3   9   7   68.87   12.43
   3   9  -7   62.08   13.62
  -3   9   6   26.83    8.61
   3   9  -6   24.11    8.85
  -3  -9  -6   21.45    6.50
  -3   9   5   70.01   11.84
  -3  -9  -5   48.85    9.43
   3   9  -5   64.37   12.07
  -3   9   4   18.45    7.15
   3   9  -4   21.75    7.01
  -3  -9  -4   19.99    7.09
   3   9  -3  200.12   18.90
  -3   9   3  199.63   17.87
  -3   9   2    5.97    6.74
   3  -9   2    3.49    2.89
   3   9  -2    5.66    6.64
   3   9  -1   81.36   11.43
   3  -9   1   77.77    9.64
   3  -9   1   53.54    6.62
  -3   9   1   76.62   10.02
   3   9   0  294.86   19.96
   3  -9   0  294.02   19.32
  -3   9   0  259.80   15.71
   3   9   1   74.07   10.10
  -3  -9   1   45.59   10.46
  -3   9  -1   61.66    8.01
  -3   9  -2   -2.27    3.40
  -3  -9   2    1.82    5.69
   3   9   2   -0.33    4.41
   3   9   3  199.73   14.56
  -3  -9   3  107.51   16.48
   3   9   4   27.82    6.43
  -3  -9   4    1.54    6.58
  -3  -9   5   46.57   10.14
   3   9   5   77.28    9.04
  -3  -9   6   12.55    6.42
   3   9   6   24.70    5.73
   3   9   7   77.48    8.51
  -3  -9   7   38.13   10.31
   3   9   8   19.28    4.94
  -3   9 -14   32.01   25.20
  -3   9 -15   52.90   25.56
  -3  -9  16   10.04    8.67
  -3   9 -16  -11.22   16.84
  -3   9 -17   18.16   15.91
  -3  -9  17    9.20   10.26
  -3  -9  18   11.92    7.85
  -3   9 -18   -0.12   17.21
  -3   9 -19   16.99   17.73
  -3  -9  19    6.60    7.87
  -3   9 -20   49.49   20.61
  -3  -9  20   28.06   12.58
  -3   9 -21   23.21   18.79
  -3  -9  21   11.60   10.27
  -3   9 -22    4.51   13.35
  -3  -9  22   43.54   14.98
  -3   9 -23   -2.83   14.05
  -3  -9  23   57.87   17.78
  -3   9 -24   -7.91   16.60
   3  10 -22    9.15   11.42
  -3  10  21   18.88   13.71
   3  10 -21   15.88    9.96
  -3  10  20   27.76   14.81
   3  10 -20   16.91   10.35
  -3  10  19   -6.42   10.32
   3  10 -19   16.40   10.04
  -3  10  18    8.82    9.51
   3  10 -18   11.80   11.56
  -3  10  17   28.63   12.40
   3  10 -17   51.04   16.87
   3  10 -16   34.14   13.24
  -3  10  16   25.75   13.81
  -3  10  15   22.09   10.22
   3  10 -15   15.01   10.35
   3  10 -14  139.42   23.47
  -3  10  14   80.81   17.29
  -3  10  13   22.06   11.16
   3  10 -13   21.49   10.74
   3  10 -12   43.39   14.74
  -3  10  12   41.02   13.69
  -3  10  11    4.41    8.53
   3  10 -11    6.15    9.73
   3  10 -10   60.68   14.69
  -3  10  10   53.07   13.92
   3  10  -9  105.21   17.82
  -3  10   9   94.35   16.57
  -3 -10  -8  157.98   16.94
   3  10  -8  207.20   23.98
  -3  10   8  181.83   20.94
  -3  10   7   -3.08    6.85
   3  10  -7    5.02    7.96
  -3 -10  -7    0.14    6.76
  -3 -10  -6  215.61   20.59
  -3  10   6  223.85   21.70
  -3 -10  -5   83.10   14.06
  -3  10   5   72.47   12.60
   3  10  -5   80.35   13.55
  -3  10   4   99.89   13.31
   3  10  -4   92.66   13.76
   3  10  -3   52.35   10.44
  -3  10   3   55.67   10.01
   3  10  -2  107.70   14.55
   3 -10   2  108.40   11.18
  -3  10   2  109.31   12.85
  -3  10   1   88.44   11.49
   3  10  -1   83.07   12.64
   3 -10   1   48.48    5.80
   3 -10   1   86.58   11.00
  -3  10   0  261.63   17.47
   3  10   0  298.98   20.32
   3 -10   0  297.60   20.16
  -3  10  -1   70.99    8.09
   3  10   1   97.54   11.90
   3  10   2  101.75   11.53
  -3 -10   2   37.45   10.07
   3  10   3   63.53    9.38
  -3 -10   3   27.36    9.62
   3  10   4   91.93   10.05
  -3 -10   4   40.81   10.72
   3  10   5   97.58   10.88
  -3 -10   5   36.35    9.50
  -3 -10   6  108.13   13.01
   3  10   6  290.04   16.55
   3  10   7    3.71    3.90
  -3 -10   7   -3.26    6.22
   3  10   8  200.69   12.42
  -3  10 -14   88.45   38.31
  -3  10 -15   15.27   18.82
  -3  10 -16   21.10   20.00
  -3 -10  17   17.53   12.40
  -3  10 -17   23.46   17.87
  -3  10 -18   -6.01   14.56
  -3 -10  18    6.31    9.90
  -3  10 -19   -1.43   15.87
  -3 -10  19    3.13    9.40
  -3  10 -20   30.74   21.40
  -3 -10  20  -16.30   13.29
  -3  10 -21   20.27   20.21
  -3 -10  21   11.54    9.25
  -3 -10  22   23.55   11.55
  -3  10 -22   10.84   15.52
  -3  10 -23  -19.82   17.23
   3  11 -21    4.35    8.51
  -3  11  20   68.39   18.18
   3  11 -20   68.21   16.36
  -3  11  19   -4.07   11.72
   3  11 -19    1.52   12.56
  -3  11  18   52.89   17.52
   3  11 -18   43.49   13.71
  -3  11  17   -3.50    9.86
   3  11 -17   16.63   13.43
  -3  11  16   19.86   11.68
   3  11 -16   -2.20    9.17
  -3  11  15   33.10   14.69
   3  11 -15  -10.36    9.35
  -3  11  14   -1.98    8.95
   3  11 -14   12.63    8.29
   3  11 -13  107.70   20.36
  -3  11  13   88.06   17.43
  -3  11  12   31.24   12.73
   3  11 -12   21.69    9.01
  -3  11  11    2.65    7.09
   3  11 -11   25.42   12.06
  -3  11  10    3.87    7.46
   3  11 -10   12.23    8.42
  -3  11   9   25.71    9.71
   3  11  -9   39.32   11.87
   3  11  -8   51.82   13.72
  -3  11   8   53.32   13.12
  -3  11   7    1.49    6.40
   3  11  -7   20.80   10.39
  -3 -11  -6   47.00   12.49
   3  11  -6   57.75   13.62
  -3  11   6   37.34   10.47
  -3  11   5  140.84   16.83
  -3 -11  -5  158.15   22.29
   3  11  -5  157.53   21.41
  -3  11   4   59.13   11.70
   3  11  -4   70.55   13.84
  -3  11   3   11.05    7.10
   3 -11   3   10.02    5.66
   3  11  -3    6.38    6.77
   3 -11   2    1.74    2.56
  -3  11   2    6.02    5.45
   3  11  -2    8.35    5.49
   3 -11   2    1.67    4.78
   3 -11   1  126.61    9.93
   3  11  -1  163.34   16.45
  -3  11   1  141.79   13.28
   3 -11   1  144.74   14.29
  -3  11   0   12.07    5.13
   3  11   0    9.13    6.29
  -3 -11   0    3.11    6.89
   3  11   1  166.97   15.15
  -3 -11   1   91.58   14.50
  -3 -11   2    9.23    7.56
   3  11   2   13.33    5.49
   3  11   3    7.81    4.37
  -3 -11   3    4.44    6.00
   3  11   4   72.69    9.38
  -3 -11   4   39.21   10.91
  -3 -11   5   74.03   12.26
   3  11   5  148.07   12.79
  -3 -11   6   11.07    7.61
   3  11   6   39.86    6.98
  -3 -11   7    0.76    6.25
   3  11   7    5.74    4.14
   3  11   8   45.32    6.93
  -3 -11   8   24.57    8.41
   3  11   9   16.41    3.90
  -3  11 -13  110.83   37.53
  -3  11 -14   17.40   21.97
  -3  11 -15   41.22   23.33
  -3  11 -16   38.06   20.00
  -3 -11  17   -0.99    8.54
  -3  11 -17    7.39   16.10
  -3  11 -18   45.95   24.85
  -3 -11  18   33.91   12.10
  -3  11 -19    6.33   14.99
  -3 -11  19   12.53   11.39
  -3  11 -20   73.95   26.90
  -3 -11  20   29.46   11.17
  -3  11 -21    9.89   16.82
  -3 -11  21   27.31   13.46
  -3  11 -22   23.97   18.68
  -3  12  20   31.98   14.61
   3  12 -20    8.91   10.00
  -3  12  19   26.60   14.40
   3  12 -19   18.73   12.92
  -3  12  18   62.29   17.11
   3  12 -18   28.60   13.40
  -3  12  17   55.82   17.77
   3  12 -17   57.41   18.22
  -3  12  16   43.66   15.02
   3  12 -16   21.59   13.39
  -3  12  15   10.07   11.00
   3  12 -15    8.02   10.44
  -3  12  14   88.96   19.25
   3  12 -14   60.23   15.91
  -3  12  13   13.54   11.56
   3  12 -13   -3.04    7.70
  -3  12  12   48.22   15.06
   3  12 -12   57.94   14.06
  -3  12  11   46.27   15.02
   3  12 -11   42.36   13.47
  -3  12  10   30.67   11.33
   3  12 -10   31.06   10.52
  -3  12   9   51.57   13.58
   3  12  -9   33.22   12.10
  -3  12   8   60.22   13.04
   3  12  -8   52.40   13.35
  -3  12   7   33.12   10.38
   3  12  -7   29.05   10.94
  -3  12   6    6.41    7.85
   3  12  -6    6.21    6.84
  -3  12   5   -0.24    7.50
   3  12  -5    7.08    7.11
  -3  12   4  112.78   14.61
   3 -12   4  119.77   10.89
   3  12  -4  137.32   19.72
  -3  12   3  108.53   13.49
   3 -12   3   91.98   10.45
   3  12  -3  133.94   17.25
  -3  12   2   10.97    5.54
   3  12  -2    7.57    6.39
   3 -12   2    7.20    2.90
   3 -12   2    1.39    4.67
  -3  12   1   13.78    5.51
   3 -12   1   11.19    4.03
   3  12  -1   26.20    7.98
   3  12   0   36.75    9.47
  -3 -12   0   18.92    7.57
  -3 -12   1    6.80    8.35
   3  12   1   16.79    7.02
   3  12   2    6.64    4.78
  -3 -12   2    1.34    7.13
   3  12   3  116.84   12.29
  -3 -12   3   46.31   11.86
   3  12   4  126.72   12.35
  -3 -12   4   68.29   14.36
  -3 -12   5   11.83    7.95
   3  12   5    9.89    4.34
   3  12   6    4.74    4.55
  -3 -12   6   14.35    8.34
  -3 -12   7    4.37    6.59
   3  12   7   26.23    5.60
   3  12   8   49.58    6.54
  -3 -12   8   28.06    9.17
   3  12   9   34.42    4.90
  -3  12 -13   12.49   21.28
  -3  12 -14   41.28   22.85
  -3  12 -15   15.92   21.11
  -3  12 -16   27.89   19.80
  -3  12 -17   37.17   23.33
  -3 -12  17   26.46   11.88
  -3  12 -18   53.17   27.73
  -3 -12  18   21.10   10.68
  -3  12 -19   30.89   22.49
  -3 -12  19    3.64    9.60
  -3  12 -20   27.82   21.71
  -3 -12  20    0.86    8.26
  -3  12 -21   18.61   18.77
  -3  13  19    1.30    9.25
   3  13 -19  -18.74   12.85
  -3  13  18   22.86   13.43
   3  13 -18   34.03   15.13
  -3  13  17   42.98   15.33
   3  13 -17   30.85   15.89
  -3  13  16    0.71   10.03
   3  13 -16    0.26    9.75
  -3  13  15   15.37   10.03
   3  13 -15   16.23   13.05
  -3  13  14    4.70    8.89
   3  13 -14    7.69    8.21
  -3  13  13   -4.45   10.63
   3  13 -13    3.08    7.73
  -3  13  12   48.65   14.27
   3  13 -12   53.52   15.31
  -3  13  11    1.47    8.82
   3  13 -11    9.05    9.18
  -3  13  10   78.16   15.86
   3  13 -10   59.79   14.18
  -3  13   9   23.01   11.34
   3  13  -9   39.65   11.86
  -3  13   8   97.56   15.49
   3  13  -8   90.67   16.61
  -3  13   7   17.04    9.50
   3  13  -7   33.94   11.02
  -3  13   6    7.52    7.94
   3  13  -6  -12.55    8.80
  -3  13   5   28.68    8.45
   3  13  -5   39.27   11.75
  -3  13   4   13.11    6.10
   3  13  -4   24.93   10.61
  -3  13   3    8.70    5.47
   3  13  -3   35.35   11.92
   3  13  -2   20.82    9.03
   3  13  -1   32.89    9.12
   3  13   0  142.03   16.45
  -3 -13   0   54.04   12.70
   3  13   1   29.20    8.28
  -3 -13   1   10.54    7.27
   3  13   2   13.44    6.02
  -3 -13   2   15.04    8.66
   3  13   3   25.43    7.47
  -3 -13   3    4.32    6.80
   3  13   4   30.34    7.20
  -3 -13   4   15.18    8.79
   3  13   5   32.60    6.78
  -3 -13   5   19.33   10.38
   3  13   6    2.90    4.33
  -3 -13   6   -3.88    7.68
   3  13   7   30.76    5.53
  -3 -13   7   13.23    7.77
  -3 -13   8   90.36   17.26
   3  13   8  102.01    9.04
  -3  13 -12   39.95   26.80
  -3  13 -13    5.47   17.82
  -3  13 -14   -3.48   15.64
  -3  13 -15    7.39   14.14
  -3  13 -16   11.44   19.25
  -3  13 -17   20.77   18.78
  -3  13 -18   26.12   21.66
  -3 -13  18   21.01   11.20
  -3  13 -19   -5.45   18.54
  -3 -13  19    2.39    9.15
  -3  13 -20   -6.58   16.52
  -3  14  18   14.26   11.33
   3  14 -18   40.21   15.42
  -3  14  17   56.23   17.91
   3  14 -17   52.45   15.06
  -3  14  16   10.17   10.01
   3  14 -16    0.22    9.98
  -3  14  15   23.74   10.35
   3  14 -15    3.10    8.69
  -3  14  14   21.02   11.16
   3  14 -14   60.49   15.57
  -3  14  13   32.07   11.95
   3  14 -13   39.79   13.56
  -3  14  12    7.04    8.84
   3  14 -12   -9.67   10.27
   3  14 -11   25.42    9.94
  -3  14  11   31.20   11.63
   3  14 -10   -2.65    8.54
  -3  14  10   13.36    8.31
   3  14  -9    3.18    7.25
  -3  14   9    5.88    6.71
  -3  14   8   56.09   12.05
   3  14  -8   44.45   13.31
   3  14  -7   14.50    7.75
  -3  14   7    9.12    8.13
  -3  14   6   60.81   11.50
   3  14  -6   68.81   14.33
  -3  14   5   37.96    9.33
   3  14  -5   35.12   10.74
   3  14  -4   34.56   12.52
   3  14  -3  147.60   20.60
   3  14  -2    5.13    6.59
   3  14  -1  161.82   18.07
   3  14   0   76.76   11.77
  -3 -14   0   42.32   11.64
   3  14   1  165.73   16.96
  -3 -14   1   58.59   13.24
   3  14   2   17.43    6.81
  -3 -14   2    9.50    7.22
   3  14   3  127.07   13.70
  -3 -14   3   51.42   11.66
  -3 -14   4   -0.67    7.21
   3  14   4   14.17    6.17
  -3 -14   5   20.55    8.95
   3  14   5   49.63    8.12
   3  14   6   61.18    8.61
  -3 -14   6   42.01   11.81
   3  14   7    5.74    4.10
  -3 -14   7    6.29    7.09
  -3 -14   8   45.37   11.38
  -3  14 -11   17.91   25.48
  -3  14 -12   -5.85   21.26
  -3  14 -13   41.99   22.84
  -3  14 -14   57.34   24.75
  -3  14 -15   36.97   23.56
  -3  14 -16    0.41   19.36
  -3  14 -17   46.88   25.21
  -3  14 -18   21.28   21.74
  -3 -14  18   28.91   12.54
  -3  14 -19   12.28   20.62
  -3  15  17   19.30   10.95
   3  15 -17   34.69   15.23
  -3  15  16   -0.81    8.05
   3  15 -16    7.81    9.21
  -3  15  15    5.15    9.56
   3  15 -15    6.02   10.31
   3  15 -14   40.29   15.35
  -3  15  14   39.40   13.57
   3  15 -13   22.29   11.81
  -3  15  13   20.24   11.58
   3  15 -12   14.35   11.03
  -3  15  12   11.63    9.56
   3  15 -11    8.06    8.89
  -3  15  11    9.65    8.84
  -3  15  10   37.32   11.81
   3  15 -10   48.76   13.75
   3  15  -9    4.42    8.62
  -3  15   9    8.52    7.61
   3  15  -8    2.19    8.71
  -3  15   8   -0.29    5.71
   3  15  -7    3.33    8.53
   3  15  -6   20.81    8.73
   3  15  -5   -6.64    9.09
   3  15  -4   51.76   13.05
   3  15  -3   12.31    8.95
   3  15  -2   84.66   15.64
   3  15  -1   10.53    7.80
   3  15   0    5.22    6.00
  -3 -15   0   -6.96    9.10
   3  15   1   19.09    7.17
  -3 -15   1   10.71    9.96
   3  15   2   77.79   12.45
  -3 -15   2   33.44   11.42
  -3 -15   3    3.94    8.11
   3  15   3    5.57    4.65
   3  15   4   47.16    8.43
  -3 -15   4   13.21    8.24
  -3 -15   5   -8.55    7.84
   3  15   5   -4.08    4.76
   3  15   6   23.55    6.16
  -3 -15   6   14.71    8.86
  -3 -15   7    9.54    6.49
  -3 -15   8    8.21    9.39
  -3  15 -10   32.48   30.92
  -3  15 -11    2.50   22.52
  -3  15 -12   15.07   18.82
  -3  15 -13   21.79   22.17
  -3  15 -14   30.26   20.25
  -3  15 -15   -8.94   18.21
  -3  15 -16   12.73   20.10
  -3  15 -17    3.78   16.45
   3  16 -16   14.96   12.82
   3  16 -15   10.76    9.61
   3  16 -14   31.30   13.48
   3  16 -13   27.64   12.39
   3  16 -12   58.16   15.89
   3  16 -11    1.29    7.68
   3  16 -10   22.70   11.68
   3  16  -9   12.83   10.00
   3  16  -8   34.38   12.11
   3  16  -7    9.10    8.69
   3  16  -6   38.65   11.84
   3  16  -5   17.04   10.03
   3  16  -4   17.85    9.25
   3  16  -3    3.80    6.96
   3  16  -2   83.39   16.63
   3  16  -1   38.49    9.54
  -3 -16   0   55.39   13.90
   3  16   0  117.68   15.29
   3  16   1   37.14    9.57
  -3 -16   1   18.15    9.95
  -3 -16   2   26.43   10.30
  -3 -16   2   19.96   10.65
   3  16   3   12.62    6.17
  -3 -16   3    1.08    7.90
  -3 -16   4   11.43    9.94
   3  16   4   23.20    6.78
  -3 -16   5   11.60    7.52
   3  16   5   11.03    5.40
  -3 -16   6   19.87    9.77
  -3 -16   7    7.49    7.19
  -3 -16   8   21.25    9.74
  -3  16  -9   55.38   35.94
  -3  16 -10   35.21   24.96
  -3  16 -11   25.20   19.27
  -3  16 -12   29.69   27.05
  -3  16 -13    7.83   17.41
  -3  16 -14   18.58   18.28
  -3  16 -15    7.85   18.45
  -3  16 -16   36.08   20.94
   3  17 -15   -8.20   10.94
   3  17 -14    8.48   10.56
   3  17 -13   -1.34    9.78
   3  17 -12   10.11    9.00
   3  17 -11  -14.51   10.77
   3  17 -10   20.30   10.56
   3  17  -9   -8.61    9.73
   3  17  -8   -3.61    8.97
   3  17  -7    1.63    7.09
   3  17  -6   25.73   10.73
   3  17  -5   48.41   12.61
   3  17  -4   11.31    9.40
   3  17  -3   34.67   11.92
   3  17  -2   13.78    9.97
   3  17  -1    9.61    7.43
  -3 -17  -1    4.54    8.70
   3  17   0    9.77    7.47
  -3 -17   0   -0.25    8.15
   3  17   1   12.94    7.74
  -3 -17   1  -12.09   11.34
  -3 -17   2    9.79    7.42
   3  17   2   14.17    7.54
  -3 -17   3   19.28   11.75
   3  17   3   15.49    6.61
  -3 -17   4   -5.31    8.60
   3  17   4    8.38    5.21
  -3 -17   5   11.29    7.14
  -3 -17   6   19.13   10.08
  -3  17  -7  -22.25   32.88
  -3 -17   7    0.05    7.11
  -3  17  -8   -2.39   23.94
  -3 -17   8  -13.25    9.90
  -3  17  -9   -2.12   19.99
  -3  17 -10    7.33   19.34
  -3  17 -11   14.95   19.50
  -3  17 -12   -2.32   17.07
  -3  17 -13    7.56   21.42
  -3  17 -14  -13.12   21.65
  -3  17 -15   18.61   23.57
   3  18 -13   10.98   11.52
   3  18 -12   26.42   12.12
   3  18 -11    3.30    8.56
   3  18 -10   51.53   15.48
   3  18  -9    3.36    8.06
   3  18  -8   39.82   13.39
   3  18  -7  -15.23    9.07
   3  18  -6   28.83   12.16
   3  18  -5    6.70    9.96
   3  18  -4   25.40   10.08
   3  18  -3   52.45   13.56
   3  18  -2  115.53   18.76
   3  18  -1    7.38    6.75
  -3 -18  -1    9.54   10.13
  -3 -18   0   33.84   12.61
   3  18   0   42.74   11.07
   3  18   1    6.09    6.17
  -3 -18   1   -8.20    8.73
   3  18   2   96.81   13.55
  -3 -18   2   41.73   11.94
   3  18   3   10.29    6.86
  -3 -18   3   19.73   11.98
  -3 -18   4    0.28    7.77
  -3 -18   5    9.95    8.92
  -3  18  -6   56.36   34.27
  -3 -18   6   19.50    9.30
  -3  18  -7  -10.31   26.28
  -3 -18   7    8.04    8.97
  -3  18  -8  107.68   40.79
  -3 -18   8    5.57    8.39
  -3  18  -9  -37.22   23.67
  -3  18 -10   29.06   26.63
  -3  18 -11    5.88   21.64
  -3  18 -12   19.52   22.56
  -3  18 -13   57.72   26.51
   3  19 -12   14.89   11.59
   3  19 -11   18.18   11.42
   3  19 -10    4.37    9.94
   3  19  -9   31.98   13.68
   3  19  -8   25.21   12.83
   3  19  -7   43.12   14.37
   3  19  -6   14.24   10.53
   3  19  -5    2.45    7.53
   3  19  -4   34.90   12.06
   3  19  -3   39.18   13.02
   3  19  -2   -2.21    8.39
   3  19  -1   43.04   10.93
  -3 -19  -1   27.26   13.44
  -3 -19   0   15.45   11.46
   3  19   0   42.94   11.21
   3  19   1   51.65   11.36
  -3 -19   1   31.61   13.24
   3  19   2   24.52    9.32
  -3 -19   2    2.55    7.31
  -3  19  -3   33.02   34.68
  -3 -19   3   12.06    9.73
  -3  19  -4   27.00   29.41
  -3 -19   4   -2.03    8.12
  -3 -19   5    7.90    8.59
  -3  19  -5   46.32   34.28
  -3  19  -6   14.86   23.99
  -3 -19   6   18.79    9.65
  -3  19  -7   16.49   22.94
  -3 -19   7    2.95    7.51
  -3  19  -8  -37.75   26.10
  -3 -19   8   62.45   15.59
  -3  19  -9   24.64   23.64
  -3  19 -10    1.91   17.05
  -3  19 -11  -38.70   26.65
  -3  19 -12   37.46   24.31
   3  20 -11   33.73   13.82
   3  20 -10    1.55    8.21
   3  20  -9   23.45   11.75
   3  20  -8   21.07   10.78
   3  20  -7   22.10   10.90
   3  20  -6   10.09   10.28
   3  20  -5   20.09   11.20
   3  20  -4    7.68   10.23
   3  20  -3   45.04   14.42
  -3 -20  -2   16.58   14.71
   3  20  -2    6.23    7.46
   3  20  -1    1.85    6.44
  -3 -20  -1   -2.77    8.67
  -3  20   0   18.15   28.36
   3  20   0    7.73    6.71
  -3 -20   0   -9.50    9.09
  -3  20  -1   15.13   28.79
  -3 -20   1    7.53    8.70
  -3 -20   1    0.21    8.64
  -3  20  -2   25.97   28.85
  -3 -20   2   17.30   10.23
  -3  20  -3   29.72   27.01
  -3 -20   3   18.74   11.17
  -3  20  -4  -28.53   26.34
  -3 -20   4    3.27    9.13
  -3  20  -5    4.36   21.15
  -3 -20   5   -5.67    9.40
  -3  20  -6   11.83   19.68
  -3 -20   6   32.13   10.09
  -3  20  -7   13.00   20.93
  -3  20  -8  106.06   42.73
  -3  20  -9    4.32   19.20
  -3  20 -10  -49.30   28.62
   3  21  -9    6.24    9.26
   3  21  -8   13.45   11.40
   3  21  -7    2.52    8.81
   3  21  -6    0.63    8.78
   3  21  -5   26.27   12.80
   3  21  -4    6.38    8.70
  -3  21   3  -33.38   31.89
   3  21  -3    6.17    8.55
   3  21  -2    6.95    8.41
  -3 -21  -2    5.16   11.03
   3  21  -1    0.36    6.74
  -3  21   1    6.04   22.52
  -3 -21  -1   10.81   11.23
  -3  21   0   -6.95   22.21
  -3 -21   0   -4.02    9.56
  -3  21  -1   26.38   23.87
  -3 -21   1   -5.71   10.01
  -3  21  -2  -12.03   19.87
  -3 -21   2   13.62   10.73
  -3  21  -3   -7.26   22.58
  -3 -21   3   -9.05   11.40
  -3  21  -4   19.14   24.45
  -3  21  -5    7.67   23.69
  -3  21  -6   14.47   21.46
  -3  21  -7   41.32   25.52
  -3  21  -8    0.14   22.11
   3  22  -7   28.85   14.51
   3  22  -6    9.91   10.32
   3  22  -5   15.96   11.83
   3  22  -4   14.55   10.59
   3  22  -3   23.37   10.86
  -3 -22  -3    7.68   12.94
  -3  22   2   54.33   28.77
  -3 -22  -2    9.37   12.01
   3  22  -2   61.97   14.89
  -3  22   1    8.97   19.77
  -3 -22  -1   -4.71    9.33
  -3  22   0  -16.28   20.84
  -3 -22   0   25.07   14.24
  -3 -22   1   22.99   12.87
  -3  22  -1   13.36   21.72
  -3  22  -2   29.71   23.70
  -3  22  -3   68.79   30.64
  -3  22  -4    7.56   17.28
  -3  22  -5  -13.17   18.97
  -3  22  -6   11.67   21.74
   3  23  -5    9.68   14.26
   3  23  -4   26.50   12.12
  -3  23   1  166.30   40.76
  -3  23   0   18.88   21.50
  -3  23  -1    6.27   19.22
  -3  23  -2   18.14   19.48
  -3  23  -3   30.05   25.94
  -4   0   0   30.24   11.87
   4   0   0   54.67   12.33
  -4   0  -1  124.96   15.80
  -4   0   1  104.54   15.38
   4   0   1  158.07   16.13
   4   0   2   10.79    5.28
  -4   0  -2    7.52    7.12
  -4   0   2    5.50    7.23
   4   0  -2   11.41    6.73
   4   0  -3   63.19   13.13
   4   0   3   70.92   14.18
  -4   0  -3   56.92   11.64
   4   0  -4   71.36   13.46
  -4   0  -5   25.61    7.23
   4   0  -5   74.37   13.74
   4   0  -6   38.51   10.93
  -4   0   7  106.31   16.61
   4   0  -7  108.70   15.80
   4   0  -8   37.72    9.54
  -4   0   8   29.04   10.51
  -4   0   9  316.73   27.80
   4   0  -9  329.40   27.70
   4   0 -10  102.81   17.49
  -4   0  10  167.32   23.58
   4   0 -11   69.65   14.32
  -4   0  11   76.15   16.06
   4   0 -12  128.90   19.70
  -4   0  12  139.00   20.57
  -4   0  13  595.22   40.29
   4   0 -13  676.78   43.25
   4   0 -14   27.79   11.20
  -4   0  14   26.15   11.84
   4   0 -15   28.64   12.10
  -4   0  15   31.51   13.87
   4   0 -16   23.94   12.07
  -4   0  16   46.79   15.28
   4   0 -17    3.75   10.66
  -4   0  17   49.86   17.16
  -4   0 -18   23.55   19.62
   4   0 -18    8.56   10.98
  -4   0  18   13.03   11.97
   4   0 -19  114.47   18.70
  -4   0  19  131.31   23.57
   4   0 -20  -19.00   12.35
  -4   0  20   21.66   12.36
   4   0 -21  -16.04   12.35
  -4   0  21   19.40   12.90
   4   0 -22  -21.21   12.75
  -4   0  22    7.47   10.23
  -4   0  23   14.15   13.36
  -4   1  23   32.87   13.76
   4   1 -23   10.57   11.73
   4   1 -22  -12.79   12.72
  -4   1  22   10.74   11.97
   4   1 -21   27.92   14.52
  -4   1  21    7.40   11.24
   4   1 -20   -7.97   11.73
  -4   1  20   27.23   13.56
   4   1 -19   50.05   14.39
  -4   1  19  110.54   23.35
   4   1 -18   16.18   11.67
  -4   1  18   21.47   10.94
   4   1 -17   53.07   13.52
  -4   1  17   85.24   18.52
   4   1 -16   26.86   11.86
  -4   1  16   33.36   13.41
   4   1 -15    0.13    8.88
  -4   1  15   47.72   15.76
   4   1 -14    5.72    7.65
  -4   1  14   16.10   13.29
   4   1 -13  267.44   27.31
  -4   1  13  636.98   49.94
   4   1 -12   50.15   13.74
  -4   1  12  135.06   21.09
   4   1 -11   98.50   18.05
  -4   1  11  109.56   19.06
   4   1 -10  199.99   22.89
  -4   1  10  169.12   21.82
   4   1  -9   96.59   16.27
  -4   1   9  255.47   28.08
   4   1  -8    5.19    7.40
  -4   1   8   43.80   12.60
   4   1  -7   66.29   13.46
  -4   1   7   90.57   17.14
  -4   1   6   42.10   10.28
   4   1  -6   64.68   12.18
   4   1  -5  102.00   14.41
  -4  -1  -4   46.30   10.71
   4   1  -4  133.30   17.59
   4   1  -3  138.23   16.68
   4  -1   2    9.73    8.25
   4   1  -2   25.48    8.22
  -4  -1  -2   14.85    9.42
   4   1  -1  193.23   18.41
  -4   1   1  176.69   20.63
   4  -1   1  158.79   16.91
  -4   1   0   80.46   12.69
   4  -1   0   91.84   12.34
  -4   1  -1  116.78   16.79
  -4  -1   1  150.30   16.32
   4   1   1  205.51   20.27
   4  -1  -1   76.80   11.67
   4  -1  -1  174.36   17.73
   4   1   2   16.94    6.92
  -4   1  -2   20.94    8.83
  -4  -1   2   18.02    7.98
   4  -1  -2    9.74    6.71
   4  -1  -3  158.05   18.02
  -4  -1   3  163.60   17.70
  -4   1  -3  106.66   13.54
   4   1   3  119.02   13.69
   4  -1  -4   64.69   13.00
  -4   1  -4   24.96    8.56
   4  -1  -5  105.76   14.86
  -4   1  -6   28.93    6.97
   4  -1  -6   61.03   12.37
   4  -1  -7   88.73   14.94
   4  -1  -8   11.50    8.83
  -4  -1   9   96.04   16.95
   4  -1  -9  207.90   23.63
  -4  -1  10  144.95   20.02
   4  -1 -10  176.23   20.27
  -4   1 -11   17.76    5.37
   4  -1 -11   73.26   14.61
  -4  -1  12   42.18   13.20
   4  -1 -12   84.27   15.10
  -4  -1  13  180.94   23.75
   4  -1 -13  463.62   35.59
   4  -1 -14   17.71    8.86
  -4  -1  14   15.44   13.64
   4  -1 -15   37.24   12.31
  -4  -1  15   27.37   13.53
   4  -1 -16   47.05   14.85
  -4  -1  16   55.80   17.52
   4  -1 -17   66.70   15.42
  -4  -1  17   87.90   20.55
  -4   1 -18   10.70   14.78
   4  -1 -18   12.13   11.89
  -4  -1  18   13.72   11.50
  -4   1 -19   18.00   11.82
   4  -1 -19   55.11   15.43
  -4  -1  19   48.16   16.27
   4  -1 -20    9.49    9.70
  -4  -1  20    9.57   10.15
  -4  -1  21   12.28   10.28
   4  -1 -21  -10.73   10.95
   4  -1 -22    5.04    9.17
  -4  -1  22    1.96   10.92
  -4  -1  23   37.78   16.47
  -4   2  23   39.24   17.77
   4   2 -23  -21.74   15.37
  -4   2  22   22.12   13.12
   4   2 -22   -5.72    9.80
   4   2 -21   22.15   12.42
  -4   2  21   21.26   13.03
   4   2 -20   32.86   13.42
  -4   2  20   24.13   14.17
   4   2 -19   26.18   11.02
  -4   2  19   26.71   15.28
   4   2 -18   11.63    9.28
  -4   2  18    4.03   11.12
   4   2 -17   21.70    9.59
  -4   2  17   82.92   19.07
   4   2 -16   61.81   14.81
  -4   2  16   72.15   17.87
   4   2 -15   55.57   13.03
  -4   2  15   84.41   17.85
   4   2 -14   -3.90    9.78
  -4   2  14   16.60   11.48
   4   2 -13   28.82   10.82
  -4   2  13  112.06   23.32
   4   2 -12   38.74   12.34
  -4   2  12   45.58   17.01
   4   2 -11  164.17   19.15
  -4   2  11  154.54   23.51
   4   2 -10   74.31   14.39
  -4   2  10  152.18   21.96
   4   2  -9   13.78    8.79
  -4   2   9   56.41   13.70
   4   2  -8   56.40   13.28
  -4   2   8    9.50    8.97
   4   2  -7   38.44   10.23
  -4   2   7   59.36   12.43
   4   2  -6  125.37   16.66
  -4   2   6  115.44   16.29
  -4   2   5   62.55   14.20
   4   2  -5   65.58   13.23
  -4   2   4  234.82   20.88
   4   2  -4  213.74   20.80
  -4  -2  -3    6.32    5.32
   4   2  -3   39.01    9.84
  -4  -2  -2   25.33    9.10
   4   2  -2   39.43   10.08
   4   2  -1  126.61   15.03
   4  -2   1  126.05   18.54
   4  -2   0  260.14   22.01
   4   2   0  260.59   20.19
  -4   2   0  216.69   20.16
   4   2   1  110.34   13.87
  -4  -2   1   66.60   11.55
  -4   2  -1  108.73   14.50
   4  -2  -1   94.89   13.14
   4  -2  -2   19.41    6.63
   4   2   2   36.35   10.34
  -4   2  -2    9.62    6.74
  -4  -2   2   18.56    6.20
   4   2   3   21.29    6.68
  -4   2  -3   38.00   10.09
   4  -2  -3   43.10   12.74
  -4  -2   3   13.70    7.95
  -4  -2   4  171.62   18.74
  -4   2  -4  139.98   15.74
   4   2   4  193.43   16.78
   4  -2  -5   29.21   10.91
  -4   2  -5   15.58    7.35
   4  -2  -6   95.60   14.36
   4  -2  -7   54.95   12.83
  -4   2  -7   20.89    5.64
   4  -2  -8    2.88    7.34
   4  -2  -9   42.96   12.90
  -4  -2  10  113.84   19.00
   4  -2 -10   96.20   17.53
  -4  -2  11  127.24   20.44
   4  -2 -11  202.43   22.20
  -4  -2  12   98.13   18.78
   4  -2 -12   16.84   10.86
  -4  -2  13   30.97   16.00
   4  -2 -13   78.40   19.11
   4  -2 -14   23.40   11.35
  -4  -2  14    7.49    9.41
  -4  -2  15   68.90   17.89
   4  -2 -15   82.61   15.94
   4  -2 -16   51.20   13.18
  -4  -2  16   40.85   14.97
   4  -2 -17   38.72   13.07
  -4  -2  17   44.82   15.87
  -4   2 -18   12.88   16.64
   4  -2 -18   -1.39   10.35
  -4  -2  18   18.98   11.86
  -4   2 -19   -7.53   13.63
   4  -2 -19   28.63   11.66
  -4  -2  19   27.46   14.96
   4  -2 -20   11.41   10.93
  -4  -2  20    4.21    9.67
   4  -2 -21   35.80   14.28
  -4  -2  21    8.38   11.85
  -4  -2  22   -4.90   11.33
  -4  -2  23   12.29   13.83
   4   3 -24  -10.91   11.66
   4   3 -23   17.70    9.34
   4   3 -22    8.47    9.11
  -4   3  22   13.62   11.59
  -4   3  21   36.55   15.43
   4   3 -21    4.41    8.83
  -4   3  20   -7.24    9.72
   4   3 -20   12.26   10.52
   4   3 -19   -1.91   10.97
  -4   3  19   25.62   14.26
   4   3 -18  -20.90   11.16
  -4   3  18   15.03   10.96
   4   3 -17    2.72    9.67
  -4   3  17   -1.37   10.30
   4   3 -16   -8.83    8.78
  -4   3  16   31.22   15.27
  -4   3  15   47.45   15.57
   4   3 -15   36.09   12.51
  -4   3  14   34.88   12.73
   4   3 -14   18.88    9.37
   4   3 -13   94.13   15.75
  -4   3  13  108.06   19.17
   4   3 -12  180.34   21.08
  -4   3  12  212.47   26.07
  -4   3  11   84.22   19.94
   4   3 -11   15.51    8.14
   4   3 -10  201.37   21.35
  -4   3  10  241.46   26.45
  -4   3   9  120.65   19.43
   4   3  -9   61.10   12.66
   4   3  -8  290.90   24.92
  -4   3   8  339.30   28.10
   4   3  -7   33.77   10.68
  -4   3   7   28.19   10.39
   4   3  -6  176.77   18.90
  -4   3   6  150.48   17.73
   4   3  -5  318.25   25.96
  -4   3   5  269.76   22.50
   4   3  -4   26.50    8.41
  -4   3   4   27.04   11.71
  -4  -3  -3   11.28    6.14
   4   3  -3   41.68   10.11
  -4   3   3   33.12    9.36
  -4   3   2   95.21   12.58
   4   3  -2  121.87   14.68
  -4  -3  -1   21.03    8.19
  -4   3   1   30.68    8.38
  -4  -3   0  -17.98   10.03
   4   3   0   -3.65    7.60
   4  -3   0    6.65    9.33
   4  -3   0   -2.75    4.67
  -4   3  -1   44.67    9.28
  -4  -3   1   13.64    7.79
   4  -3  -1   25.54    9.35
  -4  -3   2   44.66   10.75
  -4   3  -2   78.43   11.31
   4  -3  -2   78.84   12.75
  -4   3  -3   21.00    6.64
   4  -3  -3   15.84    6.04
  -4  -3   3   14.22    6.83
   4   3   3   37.65    9.45
   4  -3  -4   15.22    8.65
   4   3   4   25.11    7.32
  -4   3  -4   25.17    8.79
  -4  -3   4    2.17    7.46
   4  -3  -5  311.30   25.75
   4   3   5  297.26   21.81
   4   3   6  186.95   18.88
   4  -3  -6  194.87   21.11
   4  -3  -7   24.17    8.78
   4  -3  -8  264.33   23.74
  -4   3  -8  195.45   12.06
   4  -3  -9   91.16   14.69
   4  -3 -10  193.07   20.73
  -4   3 -10  104.48    7.07
   4  -3 -11   64.73   15.65
  -4  -3  11   11.31    9.46
  -4  -3  12  130.90   21.19
   4  -3 -12  202.56   23.32
  -4  -3  13   87.25   15.88
   4  -3 -13   83.03   15.61
   4  -3 -14   34.68   13.77
  -4  -3  14   22.19   11.06
  -4  -3  15   19.45   12.38
   4  -3 -15   34.93   12.11
  -4  -3  16   -8.83    9.96
   4  -3 -16   -2.86    8.55
  -4  -3  17   12.61   11.50
   4  -3 -17   -0.94    9.76
  -4  -3  18    6.95   11.12
   4  -3 -18    8.08   10.62
  -4   3 -19    7.74   14.74
  -4  -3  19   -6.91   10.25
   4  -3 -19   13.93   11.46
  -4  -3  20    3.06   10.03
   4  -3 -20    5.79    8.44
  -4  -3  21   11.47   10.33
  -4  -3  22   14.30   14.38
  -4  -3  23   14.52   13.46
   4   4 -24   16.58   11.18
   4   4 -23   -6.56   10.40
  -4   4  22   18.47   11.47
   4   4 -22  -20.37   14.70
  -4   4  21   10.63   10.19
   4   4 -21   31.79   12.37
  -4   4  20   13.01   11.64
   4   4 -20   25.94   12.49
  -4   4  19   21.92   12.35
   4   4 -19   35.28   13.44
   4   4 -18   16.95    9.13
  -4   4  18   32.72   14.18
   4   4 -17   35.00   12.11
  -4   4  17   27.03   14.78
   4   4 -16   31.37   12.00
  -4   4  16   34.39   13.38
  -4   4  15   56.92   16.16
   4   4 -15   57.36   13.88
  -4   4  14   84.21   17.81
   4   4 -14   29.85    9.91
  -4   4  13  106.52   19.20
   4   4 -13   64.50   13.36
   4   4 -12    0.83    7.95
  -4   4  12   18.68   12.48
   4   4 -11    5.35    8.14
  -4   4  11   10.40    8.45
  -4   4  10   15.12   12.66
   4   4 -10    4.39    7.35
   4   4  -9  122.95   16.84
  -4   4   9  142.98   20.71
   4   4  -8   76.28   12.88
  -4   4   8  150.09   21.59
   4   4  -7  111.76   15.16
  -4   4   7  124.77   18.40
   4   4  -6   76.32   12.57
  -4   4   6   65.98   13.66
   4   4  -5   27.71    9.29
  -4   4   5   52.01   11.25
   4   4  -4  236.47   21.49
  -4   4   4  235.40   22.25
  -4  -4  -3   19.89    7.27
   4   4  -3   39.72   10.37
  -4   4   3   47.73   10.62
   4   4  -2  219.89   19.80
  -4   4   2  184.08   17.02
  -4   4   1  488.87   26.82
   4   4  -1  473.51   27.91
   4  -4   0   53.70    7.96
  -4   4   0   98.57   12.19
  -4  -4   0   66.33   13.12
   4   4   0  101.98   13.77
   4  -4  -1  470.05   33.14
  -4   4  -1  490.61   25.20
   4   4   1  494.20   28.09
   4   4   2  163.64   16.42
   4  -4  -2  224.32   22.93
  -4   4  -2  205.23   15.75
   4   4   3   45.60    9.53
   4  -4  -3   42.22   10.02
  -4   4  -3   38.80    8.97
  -4  -4   3   28.58    9.14
  -4   4  -4  126.60   11.47
  -4  -4   4  116.80   16.18
  -4   4  -5   36.81    7.70
   4  -4  -5   37.18    9.91
   4   4   5   28.27    6.13
  -4  -4   5   24.22   10.15
   4   4   6   69.36   11.38
  -4   4  -6   54.57    9.25
   4  -4  -6   76.84   14.09
  -4   4  -7   62.76    9.73
   4  -4  -7  113.27   16.86
   4  -4  -8  111.12   17.52
  -4   4  -9   58.51    4.38
  -4   4  -9   72.21    6.57
  -4   4 -10   -0.13    1.43
   4  -4 -10   29.66   11.01
   4  -4 -11   10.57    9.06
   4  -4 -12   22.16   11.41
  -4  -4  12    7.14    8.36
   4  -4 -13   97.68   16.41
  -4  -4  13   42.29   12.90
   4  -4 -14   51.81   11.82
  -4  -4  14   27.13   10.47
   4  -4 -15   54.69   13.64
  -4  -4  15   35.66   12.31
   4  -4 -16   27.77   10.15
  -4  -4  16   33.36   12.62
   4  -4 -17   15.50    8.51
  -4  -4  17   40.16   14.73
   4  -4 -18   16.15    8.35
  -4   4 -18   10.06   21.15
  -4  -4  18    9.61    9.93
   4  -4 -19   20.19   10.73
  -4  -4  19    8.92   11.40
  -4   4 -19   31.28   20.12
   4  -4 -20   11.29    8.77
  -4   4 -20    6.40   12.59
  -4  -4  20   21.70   13.16
  -4   4 -21   33.50   17.51
  -4  -4  21   13.49   12.81
  -4  -4  22    6.10   10.51
  -4  -4  23   -8.77   12.16
   4   5 -24    5.20   10.47
   4   5 -23   -2.94   10.49
  -4   5  22   17.94   13.50
   4   5 -22   21.18   11.98
  -4   5  21   18.46   13.34
   4   5 -21   20.43   13.27
  -4   5  20    4.22   10.20
   4   5 -20  -10.19    9.93
  -4   5  19    3.18   10.67
   4   5 -19    6.34   12.61
  -4   5  18    7.85   10.78
   4   5 -18   -4.12   10.99
  -4   5  17   -1.52    9.66
   4   5 -17   -9.14   11.71
   4   5 -16    7.13   10.25
  -4   5  16   17.54    9.99
   4   5 -15   50.86   13.09
  -4   5  15   45.35   14.93
   4   5 -14   62.14   13.73
  -4   5  14   67.70   14.95
   4   5 -13   79.02   16.24
  -4   5  13   64.77   16.04
   4   5 -12    9.98    7.97
  -4   5  12   21.07   10.54
   4   5 -11  110.64   17.21
  -4   5  11  125.97   18.84
   4   5 -10   15.99    9.32
  -4   5  10    3.27    9.51
   4   5  -9  159.24   19.63
  -4   5   9  170.29   21.31
   4   5  -8  179.16   19.68
  -4   5   8  177.47   20.65
   4   5  -7   46.08   11.63
  -4   5   7   40.52   12.43
   4   5  -6   93.54   14.49
  -4   5   6   98.72   16.34
   4   5  -5  133.42   15.71
  -4   5   5  171.64   20.34
   4   5  -4   35.45    9.30
  -4   5   4   30.78    9.67
   4   5  -3   26.28    9.12
  -4   5   3   33.07    8.90
   4   5  -2   80.66   12.63
  -4   5   2   94.03   13.43
   4   5  -1  -12.67    8.37
   4   5   0   11.79    6.12
  -4   5   0   14.07    6.15
  -4  -5   1  -13.15    9.71
   4   5   1   -6.29    7.83
  -4   5  -1  -11.02    8.17
  -4   5  -2   76.19    9.67
   4   5   2   71.31   10.47
   4   5   3   18.46    7.08
   4  -5  -3    7.79    8.10
  -4  -5   3   15.59    8.41
  -4   5  -3   19.67    5.29
  -4   5  -4   39.17    7.80
  -4  -5   4   25.94    7.98
   4   5   4   32.39    7.73
  -4   5  -4   29.57    5.53
   4  -5  -4   49.55   13.17
  -4   5  -5  102.35   10.94
  -4  -5   5  109.63   16.31
  -4   5  -5  111.27    9.13
   4   5   5  127.54   13.47
   4  -5  -5  126.81   16.46
  -4   5  -6   85.91   10.78
  -4   5  -6   78.40    6.88
   4   5   6   76.73    9.92
   4  -5  -6   66.24   11.50
   4  -5  -7   22.97    8.67
  -4   5  -7   26.24    6.82
  -4   5  -7   29.36    4.23
  -4   5  -8  103.86   12.13
  -4   5  -8   89.18    5.48
  -4   5  -9   69.38    9.76
   4  -5  -9  133.59   17.06
   4  -5 -10    0.26    7.89
   4  -5 -11  129.20   19.03
   4  -5 -12    2.19    8.13
  -4  -5  13    3.54    8.19
   4  -5 -13   69.42   14.72
   4  -5 -14   50.55   13.34
  -4  -5  14   27.29   14.34
   4  -5 -15   36.91   12.86
  -4  -5  15   22.75    9.02
   4  -5 -16   14.27   12.90
  -4  -5  16   17.65   10.54
   4  -5 -17   -3.97   10.02
  -4  -5  17   11.14    9.79
  -4   5 -18    7.71   21.67
   4  -5 -18    8.01    8.35
  -4  -5  18   -1.78   10.68
   4  -5 -19    8.41    9.42
  -4   5 -19   32.65   21.54
  -4  -5  19    5.97    9.50
  -4   5 -20   33.87   18.67
  -4  -5  20   -5.12   11.88
  -4  -5  21  -13.15   13.36
  -4   5 -21    6.02   12.64
  -4  -5  22   13.44   12.14
  -4  -5  23   18.23   12.79
   4   6 -23   13.77   11.17
   4   6 -22   19.17   13.78
  -4   6  21   15.76   12.94
   4   6 -21   44.34   15.25
  -4   6  20  -13.55   13.71
   4   6 -20   -1.71    8.73
  -4   6  19   13.33   10.42
   4   6 -19    9.18    9.51
  -4   6  18   20.09   12.47
   4   6 -18   22.07   12.29
  -4   6  17   22.77   12.10
   4   6 -17   18.98   11.12
  -4   6  16    1.57    9.78
   4   6 -16   -6.86    8.94
  -4   6  15   53.76   14.08
   4   6 -15   43.79   10.60
   4   6 -14   10.39    9.54
   4   6 -13  137.12   20.18
  -4   6  13  127.67   20.86
   4   6 -12   34.89    9.74
  -4   6  12   25.82   11.39
   4   6 -11  264.76   25.23
  -4   6  11  263.34   27.47
   4   6 -10   19.61    8.62
  -4   6  10   42.02   13.81
   4   6  -9   26.68    8.04
  -4   6   9   54.70   14.99
   4   6  -8   46.46   12.08
  -4   6   8   62.70   13.48
   4   6  -7    2.85    6.95
  -4   6   7   -4.96    8.59
   4   6  -6   24.84    8.67
  -4   6   6   28.58   10.45
  -4   6   5    1.25    7.46
   4   6  -5   11.11    7.69
   4   6  -4   84.50   12.73
  -4   6   4   74.75   12.77
   4   6  -3   -4.33    5.82
  -4   6   3    6.73    6.23
   4   6  -2   50.41   10.10
  -4   6   2   62.37   12.14
   4   6  -1  435.87   27.28
   4  -6   1  202.56   11.44
  -4  -6  -1  196.63   18.96
  -4   6   1  463.19   27.55
  -4  -6   0    3.64    7.03
   4   6   0   13.07    6.54
  -4   6   0    4.98    6.76
  -4   6  -1  437.75   23.91
   4   6   1  382.08   23.79
  -4  -6   2   33.82   10.74
  -4   6  -2   52.60    8.89
   4   6   2   48.04    9.08
   4   6   3   -1.25    5.66
  -4  -6   3   -3.62    7.26
  -4   6  -3    1.88    4.57
   4   6   4   76.10   10.73
  -4   6  -4   68.67    8.15
   4  -6  -5    5.38    9.66
  -4  -6   5   -3.26    7.80
   4   6   5   -4.01    8.17
  -4   6  -5    8.47    3.70
   4   6   6   19.82    4.91
  -4   6  -6   26.29    6.20
  -4  -6   6   20.71    8.36
  -4   6  -6   24.26    4.01
   4  -6  -6   30.24   12.62
   4   6   7    0.12    5.36
   4  -6  -7    4.43    9.25
  -4   6  -7    8.28    4.90
  -4   6  -7    2.68    1.32
   4  -6  -8   27.28    9.57
  -4   6  -8   27.70    5.16
  -4   6  -9   23.93    6.28
   4  -6  -9   11.29    6.04
  -4   6 -10    7.79    4.90
   4  -6 -10   11.52    6.86
   4  -6 -11  201.06   20.75
   4  -6 -12   16.00    7.76
   4  -6 -13   91.91   16.08
   4  -6 -14   -4.00    8.51
  -4  -6  14    7.68   10.77
  -4  -6  15   54.91   14.95
   4  -6 -15   48.60   13.33
  -4  -6  16   11.38   10.42
   4  -6 -16   -8.42   10.46
  -4  -6  17    2.90    8.80
   4  -6 -17   10.27    9.98
  -4   6 -18   12.78   20.59
  -4  -6  18   11.38   10.44
   4  -6 -18    6.54    9.91
  -4   6 -19  -16.68   20.38
  -4  -6  19    1.11    9.95
  -4   6 -20   22.24   15.29
  -4  -6  20   -5.12   10.62
  -4   6 -21   14.70   17.73
  -4  -6  21   48.08   18.75
  -4   6 -22   11.80   18.34
  -4  -6  22    1.39   11.31
  -4  -6  23  -20.13   12.83
   4   7 -22   10.08    9.32
  -4   7  21   33.64   16.75
   4   7 -21   21.83   12.23
  -4   7  20   -1.62   11.87
   4   7 -20   -0.49    9.10
  -4   7  19   33.49   17.39
   4   7 -19   34.07   13.11
  -4   7  18   19.19   14.93
   4   7 -18   21.89   11.03
  -4   7  17   30.02   14.52
   4   7 -17   26.18   12.00
  -4   7  16   12.52   11.23
   4   7 -16   26.51   11.19
   4   7 -15   72.01   16.01
  -4   7  15   61.50   16.77
  -4   7  14   10.67    8.52
   4   7 -14    2.49    8.92
  -4   7  13   -7.73   10.48
   4   7 -13    2.27    9.96
   4   7 -12   73.52   14.65
  -4   7  12   77.80   16.58
   4   7 -11  125.42   18.99
  -4   7  11  126.20   20.49
   4   7 -10   36.49   11.80
  -4   7  10   21.33   10.45
   4   7  -9  127.33   18.15
  -4   7   9  140.80   20.09
   4   7  -8   73.05   13.69
  -4   7   8   63.19   13.23
   4   7  -7   29.32   10.38
  -4   7   7   43.48   12.29
   4   7  -6   91.58   14.92
  -4   7   6   67.97   13.39
   4   7  -5  315.49   26.10
  -4   7   5  320.26   26.47
   4   7  -4   27.98   10.55
  -4   7   4   26.99    9.54
   4   7  -3   61.86   10.80
  -4   7   3   64.18   12.04
   4   7  -2  180.46   17.57
  -4   7   2  214.20   19.40
   4   7  -1  102.99   13.43
  -4   7   1  115.63   13.98
   4   7   0   -0.36    6.91
  -4  -7   0    7.44    7.52
  -4   7   0    1.53    5.56
  -4  -7   1   55.85   12.04
   4   7   1   87.54   13.13
   4   7   2  185.83   16.35
  -4   7  -2  186.75   14.24
  -4   7  -3   62.35    8.28
   4   7   3   56.59    9.96
   4   7   4   22.93    6.42
  -4  -7   4   23.76    8.35
  -4   7  -4   24.93    5.32
   4   7   5  265.40   19.49
  -4   7  -5  216.75   10.83
  -4  -7   6   51.17   12.22
  -4   7  -6   46.06    4.24
   4  -7  -7   51.46   15.96
   4   7   7   31.50    6.91
   4   7   8   74.73   12.73
   4  -7  -8   64.17   15.47
   4  -7  -9  129.04   20.40
  -4   7  -9   87.25    8.15
   4  -7 -10   25.33   11.83
  -4   7 -10   17.19    4.83
  -4   7 -11   65.13    7.79
   4  -7 -11   79.80   14.66
   4  -7 -12   40.74   10.00
   4  -7 -13    1.51    6.83
   4  -7 -14    6.54    7.72
   4  -7 -15   36.06    8.41
  -4  -7  15   53.67   14.18
   4  -7 -16   15.09    7.87
  -4  -7  16   18.33   12.74
   4  -7 -17   11.25    7.20
  -4  -7  17    8.20    9.68
  -4   7 -18   14.44   20.54
  -4  -7  18   -3.43    9.62
  -4   7 -19   12.39   16.74
  -4  -7  19   10.86    9.10
  -4   7 -20   21.22   16.41
  -4  -7  20    4.65   10.23
  -4   7 -21    3.71   15.48
  -4  -7  21   -0.35   12.69
  -4   7 -22    9.18   15.89
  -4  -7  22  -14.07   12.64
  -4  -7  23  -13.53   12.22
   4   8 -22   13.73   12.68
  -4   8  21    0.07   11.44
   4   8 -21   22.59   12.97
  -4   8  20   12.57   12.26
   4   8 -20   10.00   11.44
  -4   8  19   11.46   12.33
   4   8 -19   31.65   14.58
  -4   8  18   11.31   11.43
   4   8 -18   34.01   13.24
  -4   8  17    3.21   10.52
   4   8 -17   10.62    8.96
  -4   8  16   18.94   13.40
   4   8 -16   37.34   13.86
  -4   8  15   15.87   10.23
   4   8 -15   23.28   11.00
   4   8 -14  120.63   19.87
  -4   8  14  133.39   23.15
  -4   8  13   29.52   13.53
   4   8 -13   32.73   12.81
  -4   8  12   -5.96   10.53
   4   8 -12   13.11   10.00
  -4   8  11   30.87   11.30
   4   8 -11   21.24   10.32
  -4   8  10    0.77    7.92
   4   8 -10    1.94    6.87
  -4   8   9   17.85    9.71
   4   8  -9   18.96    7.85
  -4   8   8   33.03   11.02
   4   8  -8   10.05    8.68
  -4   8   7   15.27    9.36
   4   8  -7    9.68    7.55
   4   8  -6  175.98   18.73
  -4   8   6  166.79   20.11
   4   8  -5    3.28    6.18
  -4   8   5   15.17    8.37
   4   8  -4   22.79    7.87
  -4   8   4   27.71    8.91
   4   8  -3   61.05   11.75
  -4   8   3   68.68   12.34
   4   8  -2  365.38   25.76
  -4   8   2  413.58   25.79
   4   8  -1   36.96    9.30
  -4  -8  -1   20.01    8.33
  -4   8   1   37.76    9.81
   4   8   0    2.13    6.04
   4  -8   0    1.06    4.93
  -4  -8   0    2.41    6.30
  -4   8   0    3.05    5.57
   4   8   1   42.45    8.79
  -4   8  -1   38.98    8.16
   4   8   2  382.28   24.52
  -4   8  -2  374.07   19.24
   4   8   3   60.76   10.05
  -4   8  -3   68.07    8.61
  -4   8  -4   17.60    4.32
  -4  -8   4   16.33    8.58
   4   8   4   19.65    6.81
  -4   8  -5    4.80    2.26
   4   8   5   11.80    6.22
  -4  -8   5    6.18    6.62
   4   8   6  177.67   16.17
  -4  -8   6  102.12   15.28
   4   8   7   16.48    6.06
  -4  -8   7    8.74    7.54
   4   8   8   30.56    8.55
   4  -8 -11   15.32   10.37
   4  -8 -12  -11.74   14.04
   4  -8 -13   18.97   11.66
   4  -8 -14   94.62   18.00
   4  -8 -15    3.91   10.58
   4  -8 -16   11.07    9.28
  -4  -8  16   24.74   11.46
  -4   8 -17    8.94   22.85
  -4  -8  17   -3.87   10.71
  -4   8 -18   33.60   22.04
  -4  -8  18   19.36   12.29
  -4   8 -19   16.56   17.46
  -4  -8  19   18.63   10.21
  -4   8 -20    9.45   16.12
  -4  -8  20    0.32    9.59
  -4   8 -21    3.92   14.79
  -4  -8  21  -13.12   11.88
  -4   8 -22  -10.11   16.92
  -4  -8  22   -2.29   10.89
  -4  -8  23    8.64   12.30
   4   9 -21   11.84   14.55
  -4   9  20   47.39   16.69
   4   9 -20   20.57   12.36
  -4   9  19   26.54   15.91
   4   9 -19   27.85   13.18
  -4   9  18   35.79   13.99
   4   9 -18   28.10   13.16
   4   9 -17   47.98   15.21
  -4   9  17   71.10   17.79
  -4   9  16   23.98   12.49
   4   9 -16   13.37    8.46
  -4   9  15   -4.95   11.52
   4   9 -15    9.19    9.99
  -4   9  14   12.40   10.23
   4   9 -14    8.03   10.66
  -4   9  13   15.97   12.30
   4   9 -13   27.82   10.81
  -4   9  12   12.86    9.95
   4   9 -12   37.62   12.82
   4   9 -11   76.43   14.99
  -4   9  11   62.14   16.51
  -4   9  10   -2.23   10.05
   4   9 -10    9.69    8.05
  -4   9   9   10.37    8.63
   4   9  -9    2.23    6.61
  -4   9   8   29.57   11.44
   4   9  -8   26.85   10.63
   4   9  -7   78.51   14.17
  -4   9   7   73.64   15.03
   4   9  -6   84.52   14.90
  -4   9   6   74.82   14.75
  -4   9   5   17.54    8.48
   4   9  -5    9.07    7.64
   4   9  -4  136.21   16.94
  -4   9   4  157.18   18.02
   4   9  -3   65.78   12.39
  -4   9   3   84.76   13.58
   4   9  -2  146.80   17.18
  -4   9   2  142.49   16.47
   4   9  -1  156.38   16.53
  -4   9   1  181.75   17.80
   4   9   0   74.53   12.02
   4  -9   0   33.69    7.96
  -4  -9   0   22.42    8.60
  -4   9   0   64.61   10.74
   4   9   1  135.28   15.19
  -4   9  -1  135.57   12.38
   4   9   2  127.67   14.99
  -4   9  -2  128.54   11.78
  -4  -9   3   38.97   12.87
   4   9   3   71.98   11.20
  -4   9  -3   59.91    7.49
   4   9   4  135.39   15.10
  -4   9  -4  115.79    8.83
   4   9   5   27.47    7.49
  -4  -9   5    6.47    7.43
  -4  -9   6   37.24   10.52
   4   9   6   71.21    9.97
   4   9   7   68.52   10.04
  -4  -9   7   59.45   14.41
   4   9   8   15.91    5.54
  -4  -9  16   19.78   12.48
  -4   9 -17   21.89   26.54
  -4  -9  17   37.56   13.58
  -4   9 -18   46.61   22.02
  -4  -9  18   31.96   12.96
  -4   9 -19   22.92   19.71
  -4  -9  19   32.12   12.12
  -4   9 -20  -11.46   17.62
  -4  -9  20   32.24   14.03
  -4   9 -21   31.03   23.10
  -4  -9  21    6.65   10.45
  -4   9 -22  -13.14   20.21
  -4  -9  22   21.94   15.52
   4  10 -20    2.11   11.18
  -4  10  19   10.92   10.61
   4  10 -19   10.16   10.33
  -4  10  18   -5.38   10.58
   4  10 -18   18.98   11.40
  -4  10  17   18.79   14.87
   4  10 -17   20.97   12.47
   4  10 -16   76.90   18.44
  -4  10  16  103.10   22.57
  -4  10  15    6.28   10.66
   4  10 -15   -2.34    9.96
  -4  10  14   30.53   15.01
   4  10 -14   17.59    8.55
  -4  10  13   30.82   12.56
   4  10 -13   34.93   12.34
  -4  10  12   18.52   10.04
   4  10 -12   23.50   10.70
  -4  10  11   36.75   12.65
   4  10 -11   46.02   13.40
  -4  10  10   -2.95   10.66
   4  10 -10    7.42    7.91
  -4  10   9   31.29   11.73
   4  10  -9    9.12    7.25
  -4  10   8   15.20    9.75
   4  10  -8   15.20    9.63
  -4  10   7   17.26    8.79
   4  10  -7   24.36    9.43
   4  10  -6   35.25   10.74
  -4  10   6   42.22   12.26
   4  10  -5   48.56   12.74
  -4  10   5   59.97   13.54
   4  10  -4   77.16   13.76
  -4  10   4   90.67   14.45
  -4  10   3   10.29    6.24
   4  10  -3    8.13    7.39
   4  10  -2   57.66   10.84
  -4  10   2   66.55   11.80
   4  10  -1   72.76   12.26
   4 -10   1   25.94    5.92
  -4 -10  -1   26.77    9.09
  -4  10   1   81.70   11.94
  -4  10   0   19.20    7.22
  -4 -10   0    7.08    7.72
   4  10   0   11.28    5.90
   4  10   1   73.75   11.46
  -4  10  -1   70.29    8.84
   4  10   2   53.54   10.20
  -4  10  -2   62.99    8.59
  -4  10  -3    4.14    3.89
   4  10   3    5.12    5.39
  -4 -10   3    2.99    7.90
  -4 -10   4   34.90    9.98
   4  10   4   75.21   10.66
  -4 -10   5   24.07    8.55
   4  10   5   49.34    9.36
   4  10   6   31.78    7.58
  -4 -10   6    7.48    6.81
  -4 -10   7   11.47    8.09
   4  10   7   16.43    6.08
   4  10   8    4.01    3.88
   4  10   9   32.10    8.92
  -4  10 -16   51.45   31.12
  -4  10 -17   18.37   22.76
  -4 -10  17   19.64   11.32
  -4  10 -18   15.66   16.78
  -4 -10  18   14.37   10.53
  -4  10 -19  -23.36   20.97
  -4 -10  19    9.62    9.74
  -4  10 -20  -37.25   24.44
  -4 -10  20   -3.41    8.70
  -4  10 -21    5.40   17.85
  -4 -10  21   17.75   12.27
  -4 -10  22    7.89   12.38
  -4  11  19   19.99   12.98
   4  11 -19   -9.27    9.11
  -4  11  18   11.10   11.07
   4  11 -18   -5.80   10.30
  -4  11  17   10.11   11.51
   4  11 -17   19.25   10.96
  -4  11  16   51.55   16.55
   4  11 -16   65.61   15.85
  -4  11  15  -10.60   11.42
   4  11 -15    7.63    9.90
  -4  11  14   -6.25   11.87
   4  11 -14   11.64   10.24
   4  11 -13    0.79    8.84
  -4  11  13   23.93   12.50
  -4  11  12   33.67   13.80
   4  11 -12   29.75   12.51
  -4  11  11   13.09   11.54
   4  11 -11   33.95   11.81
   4  11 -10   42.22   13.33
  -4  11  10   61.83   15.77
  -4  11   9   41.99   13.89
   4  11  -9   33.62   12.64
  -4  11   8    9.14    9.65
   4  11  -8   13.39    9.25
   4  11  -7   66.58   13.94
  -4  11   7   82.59   17.09
   4  11  -6   85.33   15.40
  -4  11   6   98.65   18.01
  -4  11   5   47.08   11.87
   4  11  -5   44.09   12.71
   4  11  -4  118.12   16.90
  -4  11   4  126.18   16.68
   4  11  -3   47.60   11.22
  -4  11   3   38.07    9.86
   4  11  -2   28.56    8.82
  -4  11   2   43.05    9.74
  -4  11   1   36.30    8.03
   4  11  -1   53.35   11.55
  -4  11   0    7.42    5.34
  -4 -11   0   13.87    9.26
   4  11   0   17.61    8.65
  -4  11  -1   39.15    8.44
   4  11   1   42.99    9.33
  -4 -11   1   19.49    9.95
  -4  11  -2   32.68    5.81
   4  11   2   32.81    8.18
   4  11   3   36.66    8.98
  -4 -11   3   30.30   12.29
  -4 -11   4   65.04   13.92
   4  11   4  123.57   13.94
  -4 -11   5   14.58    9.03
   4  11   5   25.12    7.43
  -4 -11   6   44.07   11.12
   4  11   6   65.05    9.41
   4  11   7   51.24    8.79
  -4 -11   7   36.65   11.10
  -4 -11   8   -0.26    8.68
   4  11   8    9.18    5.85
   4  11   9   33.03    7.33
  -4  11 -16   91.26   40.26
  -4  11 -17   -9.13   18.99
  -4 -11  17    9.85   11.05
  -4  11 -18  -10.45   19.73
  -4 -11  18   -5.67   11.05
  -4  11 -19   14.77   18.95
  -4 -11  19   -4.18   12.04
  -4  11 -20   33.42   22.57
  -4 -11  20   23.11   12.65
  -4 -11  21   -5.87   12.16
  -4  12  18   30.36   16.53
   4  12 -18   14.94   10.84
  -4  12  17   34.35   16.36
   4  12 -17    0.50    9.51
  -4  12  16   13.98   10.64
   4  12 -16   12.51   11.40
  -4  12  15   -4.90   10.68
   4  12 -15   -2.48    9.87
  -4  12  14   26.80   12.53
   4  12 -14   42.34   14.44
  -4  12  13   40.61   13.59
   4  12 -13   35.29   13.57
  -4  12  12    2.86    8.83
   4  12 -12    3.46    9.33
   4  12 -11   79.13   17.73
  -4  12  11   42.56   13.15
  -4  12  10    6.53    8.15
   4  12 -10    6.98    8.30
  -4  12   9   22.13   11.36
   4  12  -9   16.10   10.09
  -4  12   8   27.72   11.22
   4  12  -8   25.09   10.02
  -4  12   7   -0.48    8.26
   4  12  -7   10.26    7.43
   4  12  -6   57.72   13.00
  -4  12   6   33.57    9.97
  -4  12   5   23.96    9.36
   4  12  -5    8.57    7.34
  -4  12   4   19.58    8.35
   4  12  -4   27.31    8.82
  -4  12   3   31.53   10.05
   4  12  -3   24.82    9.55
  -4  12   2   44.66   10.29
   4  12  -2   47.20   11.47
  -4  12   1    9.62    6.23
  -4 -12  -1    4.25    7.46
   4  12  -1   10.97    6.43
  -4  12   0   65.96   10.12
   4  12   0   84.38   13.47
  -4  12  -1    0.44    4.54
  -4 -12   1    5.87    8.27
   4  12   1    5.55    5.82
   4  12   2   48.14    9.94
  -4 -12   2   27.05   10.66
  -4 -12   3   30.26   11.69
   4  12   3   26.91    9.12
   4  12   4   25.15    8.04
  -4 -12   4   31.93   11.79
  -4 -12   5   -2.32    9.21
   4  12   5   23.95    7.30
  -4 -12   6   17.09    7.94
   4  12   6   28.20    6.69
   4  12   7    3.09    4.27
  -4 -12   7   19.94    8.12
  -4 -12   8    4.21    8.59
   4  12   8    9.54    5.40
  -4  12 -15  -26.46   32.52
  -4  12 -16   -2.01   20.30
  -4  12 -17   -4.79   16.25
  -4  12 -18   15.18   20.19
  -4 -12  18   15.94    9.76
  -4  12 -19   29.20   22.10
  -4 -12  19   28.00   14.34
  -4 -12  20   -4.67    9.75
  -4 -12  21   -7.05   12.49
  -4  13  17   30.87   15.65
   4  13 -17   26.75   13.69
  -4  13  16   -2.35   10.47
   4  13 -16    0.76    9.27
  -4  13  15   26.86   15.92
  -4  13  14   32.00   13.23
   4  13 -14   45.27   13.77
  -4  13  13   55.40   16.64
   4  13 -13   57.70   15.40
  -4  13  12   30.53   14.70
   4  13 -12   34.89   14.23
  -4  13  11    4.73   10.24
   4  13 -11   -2.51    8.47
  -4  13  10   27.92   12.74
   4  13 -10   31.03   11.25
   4  13  -9   62.41   14.59
  -4  13   9   56.46   13.79
  -4  13   8   10.67    8.54
   4  13  -8    4.76    9.24
  -4  13   7   42.91   13.31
   4  13  -7   35.92   10.98
  -4  13   6    2.47    7.95
   4  13  -6   10.55    9.22
  -4  13   5   44.06   11.76
   4  13  -5   41.91   11.75
  -4  13   4    6.51    8.07
   4  13  -4    5.16    6.16
  -4  13   3   35.27   10.31
   4  13  -3    9.28    7.74
  -4  13   2   73.22   11.56
   4  13  -2   73.27   13.25
  -4  13   1  101.73   12.10
   4  13  -1  109.46   14.16
  -4 -13   0    6.32    8.86
   4  13   0   22.47    8.76
   4  13   1  139.69   16.09
  -4 -13   1   42.67   12.56
   4  13   2   69.59   10.81
  -4 -13   2   30.00   11.99
   4  13   3   17.75    7.35
  -4 -13   3    7.65    8.72
   4  13   4    8.58    5.42
  -4 -13   4   22.40   12.20
  -4 -13   5    8.07    8.21
   4  13   5   33.93    7.91
  -4 -13   6   -8.96    7.25
   4  13   6   17.51    6.65
   4  13   7   26.10    6.13
  -4 -13   7    9.77    8.30
  -4 -13   8    5.49    9.52
  -4  13 -15   32.22   28.67
  -4  13 -16    3.95   17.45
  -4  13 -17   32.52   27.32
  -4 -13  18    9.67   10.86
  -4  13 -18   -7.31   15.70
  -4 -13  19   16.19   11.70
  -4 -13  20   -3.19   10.74
  -4  14  17  -11.47   10.87
  -4  14  16   42.92   17.63
   4  14 -16    3.21    9.64
  -4  14  15   20.23   14.13
   4  14 -15    2.28    8.83
  -4  14  14   14.09   12.91
   4  14 -14   21.63   13.03
  -4  14  13   28.62   14.15
   4  14 -13   21.54   12.27
  -4  14  12    8.15    9.65
   4  14 -12   19.33   12.39
  -4  14  11   -2.45    9.55
   4  14 -11    8.61    8.74
  -4  14  10   -0.58    9.38
   4  14 -10    7.92    9.32
  -4  14   9    0.31    8.57
   4  14  -9    7.43    9.27
  -4  14   8    5.67   10.55
   4  14  -8    8.75    8.40
  -4  14   7   15.35   10.41
   4  14  -7    8.28    9.47
  -4  14   6   36.63   11.30
   4  14  -6   32.41   11.11
  -4  14   5   13.42    7.38
   4  14  -5   17.45    9.52
  -4  14   4   55.22   10.93
   4  14  -4   61.38   13.52
  -4  14   3   16.21    6.79
   4  14  -3   18.33    7.69
  -4  14   2   29.55    7.74
  -4 -14  -2   16.48   10.17
  -4 -14  -1    9.47    9.14
   4  14  -1   12.67    8.40
  -4 -14   0   -4.88    9.13
   4  14   0   15.72    7.90
  -4 -14   1    8.80    9.80
   4  14   1   -2.15    7.24
   4  14   2   40.36    9.84
  -4 -14   2   23.08   10.42
   4  14   3   12.64    6.44
  -4 -14   3   15.59   11.13
  -4 -14   4   33.41   12.02
   4  14   4   52.72   11.05
   4  14   5   17.10    6.88
  -4 -14   5   -3.76    7.32
  -4 -14   6   17.87    9.29
   4  14   6   30.70    8.10
  -4 -14   7   -3.55    8.21
  -4 -14   8    5.93   10.52
  -4  14 -14    3.89   28.07
  -4  14 -15   48.96   30.37
  -4  14 -16   14.96   20.41
  -4  14 -17    5.96   17.02
  -4 -14  18    4.14   11.65
  -4 -14  19   -9.95   11.81
  -4  15  16   26.16   12.90
  -4  15  15   34.01   14.32
   4  15 -15   45.16   15.64
  -4  15  14   17.76   12.37
   4  15 -14   16.04    9.71
  -4  15  13    9.81   11.21
   4  15 -13   -7.47    9.93
  -4  15  12   31.19   12.44
   4  15 -12   41.89   13.43
  -4  15  11   58.48   14.82
   4  15 -11   42.41   13.64
  -4  15  10   32.85   13.24
   4  15 -10   20.99   10.67
   4  15  -9   73.74   16.84
  -4  15   9   45.83   12.99
  -4  15   8   11.26    8.44
   4  15  -8   10.69    8.50
  -4  15   7    3.29    7.85
   4  15  -7    3.59    7.63
  -4  15   6   16.26    8.10
   4  15  -6   19.41   11.35
  -4  15   5   11.85    7.29
   4  15  -5   18.70    9.47
  -4  15   4    3.41    5.57
   4  15  -4   15.22    7.98
   4  15  -3    8.09    8.31
  -4 -15  -2   16.46    9.86
   4  15  -2   28.16    9.75
   4  15  -1   55.68   12.04
  -4 -15  -1   15.16    9.62
  -4 -15   0   10.51    9.84
   4  15   0    3.44    6.19
   4  15   1   57.59   11.23
  -4 -15   1   23.35   10.45
  -4 -15   2   22.29   11.44
   4  15   2   28.79    8.36
  -4 -15   3    8.43    9.32
   4  15   3   13.57    6.87
   4  15   4   16.55    7.01
  -4 -15   4    5.61    8.64
   4  15   5    6.37    5.17
  -4 -15   5    8.69    9.75
  -4 -15   6    3.50    7.03
  -4 -15   7  -19.12    9.17
  -4 -15   8    8.29   10.84
  -4  15 -13   16.38   30.64
  -4  15 -14   38.12   30.65
  -4  15 -15   18.86   23.43
  -4  16  15    8.75   11.39
  -4  16  14    9.12   11.72
   4  16 -14    3.91   11.07
  -4  16  13   11.54   10.29
   4  16 -13   19.10   12.85
  -4  16  12    2.11    8.63
   4  16 -12    9.55    9.71
  -4  16  11   13.49    8.74
   4  16 -11   16.28   10.62
  -4  16  10    5.12    8.62
   4  16 -10   19.05   10.25
  -4  16   9    2.33    7.39
   4  16  -9    0.51    9.07
  -4  16   8   51.01   12.41
   4  16  -8   24.92   10.25
   4  16  -7   49.05   15.04
  -4  16   7   24.07   10.05
   4  16  -6   56.02   14.42
   4  16  -5   43.04   12.96
   4  16  -4   75.69   14.67
   4  16  -3    4.52    6.64
  -4 -16  -2   13.14   11.40
   4  16  -2    6.05    6.70
  -4 -16  -1    8.52    8.43
   4  16  -1   26.25    9.23
  -4 -16   0   18.30   11.14
   4  16   0    9.88    6.60
  -4 -16   1   19.40   11.71
   4  16   1   19.57    7.88
  -4 -16   2    0.41    9.49
   4  16   2    6.99    5.94
  -4 -16   3    7.92   10.64
   4  16   3    6.51    5.62
   4  16   4   58.20   10.30
  -4 -16   4   38.41   12.45
  -4 -16   5   18.41   10.79
  -4 -16   6   10.49    8.95
  -4 -16   7   13.87    8.97
  -4 -16   8    7.32   10.43
  -4  16 -12   -2.94   28.69
  -4  16 -13   35.86   27.60
  -4  16 -14   -4.33   22.84
  -4  17  14   28.91   12.20
  -4  17  13   29.27   13.85
   4  17 -13    7.70    8.99
  -4  17  12   48.21   13.92
   4  17 -12   39.80   13.63
   4  17 -11   -1.26    9.03
   4  17 -10   -7.85   10.01
   4  17  -9   14.49   10.45
   4  17  -8   18.02    9.48
   4  17  -7    9.92    9.38
   4  17  -6   18.21   10.82
   4  17  -5   10.39    8.38
   4  17  -4   54.79   13.84
   4  17  -3    7.32    6.67
  -4 -17  -3   11.38   10.93
   4  17  -2  128.79   18.14
  -4 -17  -2   32.35   13.30
   4  17  -1   43.60   11.99
  -4 -17  -1   13.11    9.14
  -4 -17   0   13.53    9.89
   4  17   0   20.25    7.89
   4  17   1   43.92   10.74
  -4 -17   1    3.01    8.05
   4  17   2   99.97   13.94
  -4 -17   2   23.66   10.60
  -4 -17   3   13.49   10.02
   4  17   3    4.40    5.79
  -4 -17   4   20.97   10.50
  -4 -17   5   14.97    9.45
  -4 -17   6    8.09    7.87
  -4 -17   7    0.25    9.01
  -4 -17   8   40.06   14.20
  -4  17 -11  -28.11   33.21
  -4  17 -12   36.98   30.25
   4  18 -11   -4.20    7.99
   4  18 -10    0.39    8.67
   4  18  -9   -4.27    8.73
   4  18  -8   11.82    9.72
   4  18  -7    4.48    8.22
   4  18  -6   29.40   11.82
   4  18  -5   18.82    8.83
   4  18  -4    1.98    8.07
   4  18  -3   16.45    8.96
  -4 -18  -3   11.18   11.18
   4  18  -2    2.53    7.49
  -4 -18  -2   15.45   10.75
  -4 -18  -1    3.94    9.15
   4  18  -1    2.45    7.83
  -4 -18   0    9.64    9.82
   4  18   0   15.58    8.53
  -4 -18   1    9.78    9.93
   4  18   1   24.45    9.88
   4  18   2   27.63   10.50
  -4 -18   2  -12.98   10.82
  -4 -18   3   15.46   12.54
  -4 -18   4    2.86    8.92
  -4 -18   5   12.19   10.03
  -4 -18   6   18.63    9.56
  -4 -18   7    2.60    8.45
  -4 -18   8   -3.90   10.97
  -4  18 -10   62.71   47.34
  -4  18 -11  -19.04   30.27
   4  19 -10   -7.18    8.14
   4  19  -9   11.34    9.65
   4  19  -8   13.37   10.86
   4  19  -7   11.24   10.49
   4  19  -6   28.13   12.34
   4  19  -5   12.01    9.12
   4  19  -4   53.33   13.24
   4  19  -3   17.84    8.74
  -4 -19  -3    0.82    9.64
   4  19  -2   13.39    8.24
  -4 -19  -2   17.95   12.47
  -4 -19  -1   -8.61   11.78
   4  19  -1   22.84    8.14
  -4 -19   0   10.65   10.15
   4  19   0   41.98   10.90
  -4 -19   1   20.89   12.89
  -4 -19   2    7.82   10.79
  -4 -19   3    7.07   11.27
  -4 -19   4   22.71   11.42
  -4 -19   5  -11.18   10.55
  -4 -19   6    4.35    9.25
  -4 -19   7   -7.70    7.96
  -4  19  -8  -23.93   41.37
  -4 -19   8    5.71    9.97
  -4  19  -9   -0.99   25.01
   4  20  -8   20.03   12.00
   4  20  -7   -3.33   10.23
   4  20  -6    7.68    9.44
   4  20  -5   12.87   10.41
   4  20  -4   24.93   10.95
  -4 -20  -4   20.22   13.27
   4  20  -3   25.23   10.96
  -4 -20  -3   -7.66   12.21
   4  20  -2  -13.85    8.97
  -4 -20  -2   18.97   12.84
  -4 -20  -1    6.23    9.66
   4  20  -1    2.65    7.02
  -4 -20   0   -0.67    9.06
  -4 -20   1    8.50    9.99
  -4 -20   2   -9.02   10.17
  -4 -20   3   15.60   11.59
  -4 -20   4   17.92   11.82
  -4 -20   5   18.09   12.44
  -4  20  -6   45.37   32.80
  -4 -20   6    0.90    7.92
  -4  20  -7    3.94   37.05
  -4 -20   7   23.12   11.70
   4  21  -7    9.34   10.12
   4  21  -6   -2.37    8.63
   4  21  -5   -4.94    8.78
   4  21  -4    7.05    9.35
   4  21  -3  -13.49    8.07
   4  21  -2   59.50   14.63
  -4 -21  -1  -17.43   13.05
  -4 -21   0   12.03    9.71
  -4 -21   1   23.15   13.92
  -4 -21   2   10.91   11.35
  -4 -21   3   -1.62    9.56
  -4  21  -4   -9.81   30.86
  -4 -21   4   -6.48   10.02
  -4 -21   5   12.33   11.02
   4  22  -5   12.72    9.35
   4  22  -4   12.89   10.08
  -4 -22  -1    0.04   11.85
  -4  22   0    3.32   31.44
  -4 -22   0  -12.61   12.91
  -4  22  -1   68.84   41.79
  -4 -22   1   10.91   13.43
  -4 -22   2  -18.33   12.28
  -5   0   0  155.83   20.40
   5   0   0  172.30   19.24
  -5   0   1   30.64   12.46
  -5   0  -1   10.55    9.38
   5   0  -1   55.02   13.37
   5   0   1   52.15   11.16
   5   0   2   85.50   15.79
  -5   0  -2   68.58   16.68
   5   0  -3  169.42   20.76
  -5   0  -3  115.26   17.25
   5   0   3  132.10   20.43
   5   0  -4   46.28   12.67
  -5   0  -4   32.02   12.11
   5   0  -5   68.95   16.18
  -5   0  -5   31.78   13.29
   5   0  -6   46.41   12.94
   5   0  -7   78.67   15.99
  -5   0  -7   33.41    8.56
  -5   0   7   87.37   16.68
   5   0  -8    1.68    8.20
  -5   0  -8   -6.79    5.91
  -5   0   8   18.53    9.49
  -5   0   9  167.73   26.35
   5   0  -9  156.08   23.34
  -5   0  10   29.00   14.31
   5   0 -10   26.72   10.77
  -5   0  11   57.00   15.14
   5   0 -11   57.12   15.26
  -5   0  12   88.78   18.14
   5   0 -12   57.85   16.43
  -5   0  13   51.89   17.12
   5   0 -13   81.02   17.34
  -5   0  14  103.15   20.61
   5   0 -14  112.09   20.90
   5   0 -15   31.83   12.45
  -5   0  15   41.64   16.05
   5   0 -16   19.03   10.23
  -5   0  16   53.65   17.78
   5   0 -17   62.98   16.68
  -5   0  17   31.78   13.64
   5   0 -18   60.02   17.36
  -5   0  18   55.97   18.40
   5   0 -19   -4.94   10.97
  -5   0  19   -5.91   10.30
   5   0 -20    9.74   11.78
  -5   0  20   -0.63   12.00
   5   0 -21  -15.51   15.32
  -5   0  21   -8.21   12.45
   5   0 -22    6.09   13.30
   5   1 -23   16.96   14.39
   5   1 -22   21.03   14.33
   5   1 -21   -2.81   10.17
  -5   1  21   36.65   15.42
   5   1 -20   21.54   11.98
  -5   1  20   20.00   14.29
   5   1 -19   12.28    9.91
  -5   1  19    6.99   10.91
   5   1 -18   28.92   11.03
  -5   1  18   82.84   21.11
   5   1 -17   18.08   13.59
  -5   1  17   27.91   14.84
   5   1 -16   24.15   11.93
  -5   1  16   42.29   17.42
   5   1 -15   74.32   18.03
  -5   1  15   81.32   21.10
   5   1 -14   20.36   11.29
  -5   1  14   80.13   21.47
   5   1 -13   37.54   12.56
  -5   1  13   70.18   19.93
  -5   1  12   87.08   17.47
   5   1 -12   98.41   19.69
   5   1 -11   30.04   11.46
  -5   1  11   38.24   15.60
  -5   1  10   34.62   13.20
   5   1 -10   58.53   15.84
  -5   1   9  161.00   23.79
   5   1  -9  162.73   22.20
  -5   1   8   11.23   10.18
   5   1  -8   14.77   10.51
  -5  -1  -7   48.41   10.57
  -5   1   7   81.72   16.70
   5   1  -7   86.22   16.22
  -5  -1  -6   57.83   11.92
  -5   1   6   64.34   15.31
   5   1  -5  158.97   20.71
  -5  -1  -5  154.01   18.61
   5   1  -4  143.16   19.31
  -5  -1  -4  136.95   16.12
   5   1  -3  145.83   18.34
  -5  -1  -3   88.82   18.89
   5   1  -2   97.06   16.35
   5  -1   2  107.35   18.60
   5  -1   1   47.35   14.13
  -5  -1  -1   50.67   12.12
   5   1  -1   56.51   13.38
  -5  -1   0  521.85   31.66
  -5   1   0  113.16   19.87
   5   1   0  593.69   36.70
   5  -1   0  137.06   18.05
  -5   1  -1   53.75   13.42
  -5  -1   1   25.90   11.51
   5  -1  -1   34.39   10.56
   5   1   1   59.64   12.54
  -5   1  -2   30.51   10.72
  -5  -1   2   49.63   16.80
   5  -1  -2  105.25   16.65
   5   1   2   87.88   14.67
   5   1   3  131.42   19.08
  -5   1  -3  136.99   17.58
   5  -1  -3  131.23   21.03
  -5   1  -4   25.06   11.07
   5  -1  -4   62.36   13.53
   5  -1  -5  108.97   18.28
  -5   1  -5   42.60   12.71
  -5   1  -6   15.79    9.78
   5  -1  -6   41.59   11.89
   5  -1  -7   62.23   15.18
   5  -1  -8   12.78   10.37
   5  -1  -9  164.56   22.00
  -5  -1   9  147.82   21.82
  -5  -1  10   95.52   18.43
   5  -1 -10   46.48   14.48
   5  -1 -11   50.24   15.22
  -5  -1  11   48.27   14.12
  -5  -1  12   84.53   17.20
   5  -1 -12   58.93   15.49
  -5  -1  13   23.97   10.08
   5  -1 -13   31.69   15.74
  -5  -1  14   40.72   13.41
   5  -1 -14   46.54   16.28
  -5  -1  15   62.12   15.58
   5  -1 -15   66.34   17.52
  -5  -1  16   50.50   18.08
   5  -1 -16   18.42   12.53
  -5  -1  17   21.80   14.22
   5  -1 -17   21.08   14.23
   5  -1 -18   58.27   17.42
  -5  -1  18   35.96   16.28
   5  -1 -19    5.45   11.80
  -5  -1  19   -8.92   13.27
   5  -1 -20    9.96   12.52
  -5  -1  20   12.32   13.43
   5  -1 -21   24.00   13.08
  -5  -1  21    4.34   12.86
   5  -1 -22   40.40   15.76
   5   2 -23   -1.03   13.13
   5   2 -22    7.25   13.27
   5   2 -21   -0.50   10.73
  -5   2  21   26.75   17.66
   5   2 -20   46.40   15.14
  -5   2  20   47.68   17.27
   5   2 -19   -3.25   11.09
  -5   2  19   21.96   16.13
   5   2 -18   47.06   16.90
  -5   2  18   37.49   15.92
   5   2 -17    6.56   10.48
  -5   2  17   14.87   13.03
   5   2 -16   21.43   11.07
  -5   2  16   47.10   15.94
   5   2 -15   40.37   15.56
  -5   2  15   30.58   14.79
   5   2 -14    0.09    9.91
  -5   2  14   11.87   13.39
   5   2 -13   25.26   13.57
  -5   2  13   36.51   14.56
   5   2 -12   42.55   14.25
  -5   2  12  103.04   20.50
   5   2 -11   46.12   13.73
  -5   2  11   50.57   14.81
   5   2 -10   84.52   16.94
  -5   2  10   79.85   18.26
   5   2  -9   48.74   12.36
  -5   2   9  117.46   21.30
   5   2  -8    1.02    7.41
  -5   2   8    1.81    9.29
  -5  -2  -7   89.57   15.33
  -5   2   7  101.16   18.16
  -5  -2  -6   62.21   11.66
  -5   2   6  108.55   17.67
   5   2  -6  119.36   18.24
  -5   2   5  224.71   25.10
   5   2  -5  174.27   21.43
  -5   2   4  150.38   19.64
   5   2  -4  152.62   19.96
   5   2  -3  161.10   19.85
  -5  -2  -3   67.38   14.13
   5   2  -2   88.40   14.46
  -5  -2  -2   72.74   13.94
   5  -2   1   50.49   13.72
   5   2  -1   35.82   10.97
  -5  -2  -1   15.22   11.02
   5  -2   0  518.73   40.11
   5   2   0  456.18   33.47
   5  -2  -1   46.83   11.63
   5   2   1   52.40   12.18
  -5  -2   1   16.61    8.72
  -5   2  -1   34.73   12.62
  -5   2  -2   73.52   13.72
  -5  -2   2   62.87   13.75
   5   2   2   53.15   11.22
   5  -2  -2   36.08   10.78
  -5   2  -3   72.69   13.76
  -5  -2   3   90.91   19.21
   5  -2  -3  107.16   15.92
   5   2   3  115.04   15.14
   5   2   4  114.19   17.65
  -5   2  -4   76.73   14.42
   5  -2  -4  131.30   18.50
   5   2   5  200.35   23.19
   5  -2  -5  238.99   26.99
   5  -2  -6  110.06   19.46
  -5   2  -6   51.75   12.77
   5  -2  -7   81.32   17.87
  -5   2  -7   17.02    9.70
   5  -2  -8   11.68    8.06
   5  -2  -9  109.06   19.48
  -5   2 -10   41.25    7.72
  -5  -2  10   59.43   15.65
   5  -2 -11   54.43   14.63
  -5  -2  11   32.01   14.48
   5  -2 -12   90.54   18.01
  -5  -2  12   64.92   18.32
   5  -2 -13   15.87   10.99
  -5  -2  13   30.58   13.75
   5  -2 -14   -9.46    9.57
  -5  -2  14    9.62   12.51
   5  -2 -15   61.30   16.25
  -5  -2  15   44.02   15.97
   5  -2 -16   53.88   16.12
  -5  -2  16   13.13   11.44
   5  -2 -17    7.31   11.23
  -5  -2  17   18.63   13.43
  -5  -2  18   24.80   16.02
   5  -2 -18   53.64   17.99
   5  -2 -19   11.22   11.76
  -5  -2  19   13.89   13.30
   5  -2 -20   44.24   14.94
  -5  -2  20   12.19   12.61
   5  -2 -21   36.34   16.43
  -5  -2  21    2.19   12.76
   5   3 -22    2.75   14.36
   5   3 -21   18.67   13.94
   5   3 -20   24.02   15.03
  -5   3  20   27.33   14.26
   5   3 -19    2.26   11.44
  -5   3  19    3.00   13.75
   5   3 -18   17.94   12.40
  -5   3  18   47.79   17.04
   5   3 -17   14.11   12.80
  -5   3  17   23.31   14.27
   5   3 -16    6.66   11.59
  -5   3  16   25.16   16.08
   5   3 -15   69.31   17.19
  -5   3  15   47.12   16.12
   5   3 -14   26.24   12.21
  -5   3  14   54.54   17.15
   5   3 -13  111.07   21.68
  -5   3  13   87.95   20.69
   5   3 -12   90.09   18.77
  -5   3  12  136.34   23.96
   5   3 -11   32.27   11.74
  -5   3  11   38.33   14.21
   5   3 -10    9.49    8.78
  -5   3  10   45.92   16.52
   5   3  -9   58.59   15.24
  -5   3   9   67.92   16.09
   5   3  -8   32.63   12.31
  -5   3   8   44.07   14.15
  -5   3   7  204.22   23.84
   5   3  -7  181.10   22.36
  -5  -3  -6   21.11    8.83
   5   3  -6   41.01   12.11
  -5   3   6   47.51   14.14
  -5   3   5  122.47   17.93
   5   3  -5   88.89   17.71
  -5   3   4   69.43   15.79
   5   3  -4   36.77   11.54
  -5   3   3   95.33   16.75
   5   3  -3  105.87   16.03
   5   3  -2  247.46   23.72
  -5  -3  -2  200.90   22.15
   5   3  -1   -0.50    7.02
  -5  -3  -1   -7.07    9.98
  -5   3   1    9.67    8.47
   5   3   0   64.12   13.89
   5  -3   0   96.69   21.65
   5  -3  -1    4.49    9.40
  -5  -3   1   10.43    9.78
   5   3   1    6.66    8.31
   5  -3  -2   84.77   16.10
  -5  -3   2  104.16   18.24
  -5   3  -2   87.09   16.08
  -5   3  -3   58.70   12.42
  -5  -3   3   56.06   12.77
   5   3   3   87.48   13.23
   5  -3  -3   60.69   13.02
  -5   3  -4   31.66    8.75
  -5  -3   4   17.51    9.90
   5  -3  -4   37.57   12.03
   5   3   4   28.24    8.79
   5   3   5  116.12   17.41
  -5   3  -5   69.96   11.87
   5  -3  -5   89.60   14.31
  -5   3  -6   20.08    9.56
   5  -3  -6   61.71   14.25
  -5   3  -7  109.50   15.49
   5  -3  -7  219.94   25.13
  -5   3  -8   12.54    8.51
   5  -3  -8   48.79   14.16
  -5   3  -9   24.59    9.76
   5  -3  -9   47.24   11.91
   5  -3 -10   33.85   11.38
   5  -3 -11   50.89   13.96
  -5  -3  11   45.79   13.29
   5  -3 -12   80.92   16.68
  -5  -3  12   72.52   19.09
   5  -3 -13   92.63   18.13
  -5  -3  13   64.20   15.89
   5  -3 -14   49.06   15.32
  -5  -3  14   49.77   16.35
   5  -3 -15   31.93   13.73
  -5  -3  15   43.72   12.92
   5  -3 -16   44.03   14.14
  -5  -3  16   18.78   10.58
   5  -3 -17    7.89    9.53
  -5  -3  17    6.76   10.14
   5  -3 -18   16.30   11.36
  -5  -3  18   21.76   13.56
   5  -3 -19   -1.28   10.19
  -5  -3  19    6.07   15.01
   5  -3 -20   -1.52   10.44
  -5  -3  20   17.00   13.49
  -5  -3  21   12.59   14.67
   5   4 -22   17.97   12.76
   5   4 -21   15.10   14.57
  -5   4  20   -2.31   13.33
   5   4 -20  -28.76   15.64
   5   4 -19   -5.98   14.11
  -5   4  19   19.53   13.47
   5   4 -18   21.65   12.12
  -5   4  18   35.91   16.73
   5   4 -17    6.68    9.57
  -5   4  17   28.85   15.24
   5   4 -16   12.23   10.30
  -5   4  16    4.36   11.94
   5   4 -15   15.38   12.17
  -5   4  15    7.66   13.74
   5   4 -14    6.43    8.93
  -5   4  14   33.93   16.11
   5   4 -13    9.70   11.00
  -5   4  13   29.08   14.60
   5   4 -12  113.92   20.42
  -5   4  12  132.27   21.24
   5   4 -11   31.38   13.05
  -5   4  11   33.62   14.78
   5   4 -10    4.62    8.52
  -5   4  10   23.55   11.18
   5   4  -9   31.14   14.24
  -5   4   9   54.53   15.60
   5   4  -8   73.57   16.35
  -5   4   8   90.58   19.07
   5   4  -7    6.29    8.64
  -5   4   7   31.43   13.69
   5   4  -6   24.16   10.11
  -5  -4  -6   -4.32    9.36
  -5   4   6   33.31   12.13
   5   4  -5    1.83    7.90
  -5  -4  -5   -3.45    6.36
  -5   4   5   16.11   10.53
  -5  -4  -4   -1.17    6.80
   5   4  -4    7.76    8.32
  -5   4   4   21.77    8.66
  -5  -4  -3   66.62   12.96
  -5   4   3   73.96   13.33
  -5   4   2  372.37   27.29
   5   4  -2  354.34   29.55
   5   4  -1   16.05    8.70
  -5  -4  -1   -2.10    8.24
  -5   4   1    1.31    8.63
   5   4   0   93.29   14.46
  -5   4   0   87.18   13.05
   5   4   1    3.89    6.95
  -5  -4   1    9.44    7.61
  -5   4  -1   17.24    9.18
   5   4   2  352.71   28.30
  -5   4  -2  375.00   24.33
   5  -4  -2  403.93   34.92
  -5   4  -3   66.46   12.32
  -5  -4   3   45.82   12.65
  -5   4  -3   80.66   11.89
   5  -4  -3   70.00   15.63
   5  -4  -4    4.15    9.12
   5   4   4   11.85    7.13
  -5   4  -4   16.66    7.75
  -5  -4   4   12.15    8.78
   5   4   5   15.32    8.56
  -5   4  -5   14.03    7.10
   5  -4  -5   17.94    9.27
   5   4   6   25.69    9.94
  -5   4  -6   33.45    9.68
   5  -4  -6   32.77    9.21
  -5   4  -7   11.87    7.17
   5  -4  -7   47.39   13.03
  -5   4  -8   47.98   10.66
   5  -4  -8   64.33   14.54
   5  -4  -9   26.46   12.24
  -5   4  -9   23.42    8.79
  -5   4 -10   12.81    7.84
   5  -4 -10    8.27    9.63
   5  -4 -11   -6.16   11.42
   5  -4 -12  121.02   20.90
  -5  -4  12   72.20   17.15
   5  -4 -13   39.54   15.88
  -5  -4  13   16.59   12.30
   5  -4 -14    6.56   10.16
  -5  -4  14   -1.03   11.43
   5  -4 -15   20.83   12.35
  -5  -4  15   11.28   11.54
   5  -4 -16   -8.18    9.79
  -5  -4  16   11.46   12.10
   5  -4 -17   18.28   11.28
  -5  -4  17  -19.10   11.10
   5  -4 -18   30.82   12.30
  -5  -4  18    3.59    9.81
   5  -4 -19   14.96   11.70
  -5  -4  19    2.52   12.55
   5  -4 -20   13.75   11.94
  -5  -4  20   16.07   15.40
  -5  -4  21   -0.33   11.14
   5   5 -21  -13.97   15.42
  -5   5  20   34.35   15.87
   5   5 -20   39.37   15.12
  -5   5  19   11.28   11.07
   5   5 -19    4.19    9.57
   5   5 -18   37.78   13.12
  -5   5  18   15.79   13.65
   5   5 -17   11.75   10.25
  -5   5  17   21.34   11.73
   5   5 -16    7.56   10.11
  -5   5  16   19.45   13.33
   5   5 -15    1.94    9.81
  -5   5  15   19.46   13.27
   5   5 -14   66.87   15.66
  -5   5  14   77.88   17.29
   5   5 -13   59.21   14.93
  -5   5  13   46.66   15.24
   5   5 -12   14.55    8.61
  -5   5  12   -0.30    9.54
   5   5 -11  107.55   19.18
  -5   5  11  149.13   21.94
   5   5 -10   46.48   13.46
  -5   5  10   62.18   15.81
   5   5  -9   11.65    9.04
  -5   5   9  -12.04   11.53
   5   5  -8   19.25    8.87
  -5   5   8   26.65   12.21
   5   5  -7   69.89   17.38
  -5   5   7   89.03   18.26
   5   5  -6   58.29   14.55
  -5   5   6   59.32   15.60
   5   5  -5  -20.72   10.97
  -5  -5  -5  -17.36    9.76
  -5   5   5   -0.50   10.16
   5   5  -4   16.14   10.22
  -5  -5  -4   12.80    7.21
  -5   5   4   35.97   11.49
  -5   5   3  352.09   27.78
   5   5  -3  353.99   28.16
  -5  -5  -2  -17.29    8.70
   5   5  -2   -4.23    9.59
  -5  -5  -1   12.28   10.19
  -5   5   1   24.81    9.88
   5   5  -1   18.07    8.46
  -5   5   0  102.13   14.99
   5   5   0  107.98   16.49
   5   5   1   15.26    9.22
  -5  -5   1   13.06    9.74
  -5   5  -1   26.66    7.93
   5   5   2   -9.85    9.01
  -5  -5   2  -12.26   10.75
  -5   5  -2   16.76    7.27
   5  -5  -3  339.62   33.34
   5   5   3  373.14   28.11
  -5   5  -3  321.41   20.99
   5   5   4   32.12    8.83
   5  -5  -4   34.47   14.92
  -5  -5   4   12.29    8.79
  -5   5  -4   17.88    6.46
  -5   5  -5    2.08    6.00
  -5  -5   5  -13.02   12.00
   5   5   5   -7.22    7.36
   5  -5  -5   -7.81   10.28
  -5   5  -5   -3.89    5.53
   5  -5  -6   69.21   15.20
   5   5   6   37.83   10.05
  -5   5  -6   49.80   10.45
  -5   5  -6   40.59    6.24
  -5   5  -7   46.61    8.82
  -5   5  -7   43.37    6.76
   5  -5  -7   50.77   12.20
   5   5   7   61.50   13.07
  -5   5  -8    6.91    7.08
   5  -5  -8   26.15   10.12
  -5   5  -8   12.49    3.92
  -5   5  -9   14.46    6.92
   5  -5  -9  -16.57   11.09
   5  -5 -10   49.72   13.00
  -5   5 -10   39.81    9.52
  -5   5 -11   82.94   13.27
   5  -5 -11  101.21   16.49
   5  -5 -12   20.91    9.62
   5  -5 -13   53.30   13.81
  -5  -5  13   46.04   12.95
   5  -5 -14   76.75   18.85
  -5  -5  14   40.67   14.66
  -5  -5  15   12.31   12.08
   5  -5 -15    0.29   11.70
  -5  -5  16   16.07   10.78
   5  -5 -16   11.52   11.59
  -5  -5  17   14.43   12.29
   5  -5 -17   21.21   13.84
  -5  -5  18   -2.91   11.11
   5  -5 -18    4.09   11.18
  -5  -5  19   -7.51   11.27
   5  -5 -19   18.37   15.76
  -5   5 -20   -6.41   22.47
  -5  -5  20    4.31   11.93
  -5  -5  21   -5.03   13.80
   5   6 -20   20.66   11.68
   5   6 -19   25.52   11.49
  -5   6  19   39.99   16.64
  -5   6  18   -5.29   12.00
   5   6 -18   -1.20   10.28
  -5   6  17   22.88   14.91
   5   6 -17   17.33   14.22
   5   6 -16  -10.65    9.67
  -5   6  16   14.31   11.47
  -5   6  15   52.25   16.73
   5   6 -15   41.76   13.67
  -5   6  14   -1.56   11.40
   5   6 -14   11.55   10.21
  -5   6  13   -9.46   12.60
   5   6 -13  -11.83    9.82
   5   6 -12   32.57   12.41
  -5   6  12   26.50   12.01
   5   6 -11   42.83   12.06
  -5   6  11   88.02   20.06
   5   6 -10  -10.88   10.68
  -5   6  10   -0.81   11.65
   5   6  -9   67.85   14.36
  -5   6   9   80.03   17.38
   5   6  -8   37.67   12.62
  -5   6   8   27.92   11.81
   5   6  -7   -3.07    8.23
  -5   6   7   -4.10    8.27
   5   6  -6  119.45   18.84
  -5   6   6  125.24   18.67
   5   6  -5  119.07   18.02
  -5   6   5  135.19   20.80
   5   6  -4    8.99    7.91
  -5  -6  -4   -7.13    7.28
  -5   6   4   -6.14   11.40
   5   6  -3   22.73    8.64
  -5  -6  -3   18.88    8.76
  -5   6   3   38.28   11.61
  -5   6   2   81.60   15.76
   5   6  -2   70.12   12.87
  -5  -6  -1    1.24    7.64
   5   6  -1   -7.15    9.10
  -5   6   1   -4.91    8.63
  -5  -6   0   31.32   11.55
   5  -6   0   17.48    5.78
  -5   6   0   53.85   10.85
   5   6   0   55.48   11.65
   5   6   1   -9.51    8.38
  -5  -6   1    6.69    7.33
  -5   6  -1   -1.71    7.90
   5   6   2   50.46   10.87
  -5  -6   2   37.72   11.38
   5   6   3   20.56    7.97
  -5   6  -3   32.29    7.69
  -5  -6   4   12.69    9.50
   5   6   4   -4.72    8.18
  -5   6  -4   17.10    8.11
  -5  -6   5   82.33   15.61
   5   6   5   98.84   12.64
  -5   6  -5  114.14   12.12
   5  -6  -5  128.53   21.38
   5  -6  -6   92.54   18.98
  -5  -6   6   85.87   16.55
  -5   6  -6  102.50   10.25
   5   6   6   93.95   13.30
  -5   6  -7   -4.03    6.45
   5   6   7  -15.36   10.76
  -5   6  -7    0.64    3.72
   5  -6  -7   -7.85   11.59
   5  -6  -8   21.03   10.35
  -5   6  -8   33.26    8.22
   5  -6  -9   54.93   13.21
  -5   6  -9   31.51    6.24
  -5   6 -10   -3.01    4.95
   5  -6 -10   -5.62   12.37
   5  -6 -11   39.21   11.41
   5  -6 -12   18.14    9.49
   5  -6 -13   -4.57    9.83
   5  -6 -14    6.03   11.16
  -5  -6  14    3.40   10.35
   5  -6 -15   20.72   10.85
  -5  -6  15   25.11   11.86
   5  -6 -16   15.18   12.05
  -5  -6  16    3.97    9.66
   5  -6 -17    2.60    9.48
  -5  -6  17    4.94   10.77
   5  -6 -18  -10.50   12.57
  -5  -6  18    7.89   10.39
  -5  -6  19   21.79   13.95
  -5   6 -20   29.60   23.25
  -5  -6  20   29.72   14.06
  -5   6 -21   19.92   19.22
   5   7 -20   15.56   12.68
  -5   7  19  -12.81   16.29
   5   7 -19  -17.58   14.05
  -5   7  18   28.94   16.51
   5   7 -18    9.50    9.71
  -5   7  17   34.32   16.50
   5   7 -17   24.03   13.92
  -5   7  16   37.54   15.34
   5   7 -16   15.84   13.04
  -5   7  15   13.80   12.42
   5   7 -15    7.25   12.26
   5   7 -14   23.51   11.65
  -5   7  14   34.69   15.18
   5   7 -13   17.56   11.79
  -5   7  13   -4.87   11.14
   5   7 -12    7.72    9.65
  -5   7  12    6.03    9.56
   5   7 -11   30.36   10.85
  -5   7  11   18.52    9.39
   5   7 -10   51.85   13.54
  -5   7  10   75.93   17.82
   5   7  -9   38.50   13.08
  -5   7   9   39.59   13.64
   5   7  -8   29.14   11.42
  -5   7   8   24.71    9.61
   5   7  -7   40.84   12.57
  -5   7   7   38.20   12.41
   5   7  -6   34.58   11.31
  -5   7   6   45.36   12.97
   5   7  -5   15.67    8.23
  -5  -7  -5   -3.13    9.05
  -5   7   5   25.25   10.33
   5   7  -4   36.39   11.31
  -5  -7  -4    2.59    6.96
  -5   7   4   28.26   10.49
   5   7  -3   13.38    8.70
  -5  -7  -3   10.28    7.95
  -5   7   3   27.18   10.74
   5   7  -2   -0.07    6.76
  -5   7   2   -5.29    8.60
  -5  -7  -1    1.15    8.08
   5   7  -1    6.49    6.84
  -5   7   1   19.79    8.89
  -5   7   0  335.19   23.84
   5   7   0  295.36   25.96
  -5  -7   1    3.01    8.39
  -5   7  -1   12.59    7.98
   5   7   1   19.25    8.88
   5   7   2   -8.52    7.44
  -5  -7   2    2.34    7.48
  -5   7  -2    3.60    5.54
   5   7   3   21.60    8.38
  -5  -7   3   20.73   10.72
  -5   7  -3   14.31    5.62
  -5  -7   4    5.99    6.35
   5   7   4   14.67    7.14
  -5  -7   5   10.86    8.15
  -5   7  -5   13.39    4.67
   5   7   5   22.89    9.47
   5   7   6   29.12    7.60
  -5  -7   6   17.29   10.83
  -5   7  -6   38.09    6.09
   5   7   7   29.04    8.70
   5  -7  -8    0.65   13.33
   5   7   8   18.65    8.80
   5  -7  -9   24.85   12.96
   5  -7 -10   69.57   17.36
   5  -7 -11   12.79   12.34
   5  -7 -12   12.04   12.32
   5  -7 -13   -6.16   10.45
   5  -7 -14   46.15   14.92
  -5  -7  15    1.51   10.36
  -5  -7  16   18.25   12.55
   5  -7 -16   14.10    9.11
  -5  -7  17   -0.47   10.58
   5  -7 -17    6.92    8.41
  -5  -7  18    3.81    9.14
  -5   7 -19   81.55   39.71
  -5  -7  19   -1.51    9.60
  -5   7 -20  -43.28   30.09
  -5  -7  20   -5.21   10.04
  -5   7 -21   -8.84   15.41
   5   8 -19   11.34   12.30
  -5   8  18    9.72   13.09
   5   8 -18   12.31   11.42
  -5   8  17    3.38   10.37
   5   8 -17    4.29   11.33
  -5   8  16   30.97   15.91
   5   8 -16    9.20   10.39
  -5   8  15    6.65   11.15
   5   8 -15  -10.47   10.95
  -5   8  14   -3.76    9.39
   5   8 -14   -1.32    9.10
  -5   8  13   75.67   18.16
   5   8 -13   61.73   14.31
  -5   8  12   31.34   12.32
   5   8 -12   36.59   11.75
   5   8 -11    2.93    8.69
  -5   8  11    3.25   10.04
   5   8 -10    2.66    9.08
  -5   8  10    6.95    9.25
   5   8  -9   26.37   10.35
  -5   8   9   29.89   11.35
   5   8  -8   19.82    9.09
  -5   8   8   -0.16   11.03
  -5   8   7   37.05   12.67
   5   8  -7   46.62   12.26
   5   8  -6   17.26    8.87
  -5   8   6   -1.32    8.50
   5   8  -5   31.08   10.67
  -5   8   5   51.25   13.75
   5   8  -4   28.45    9.74
  -5  -8  -4   11.07    8.47
  -5   8   4   38.85   12.58
   5   8  -3   69.04   14.21
  -5   8   3   75.07   14.75
   5   8  -2   57.96   13.04
  -5  -8  -2   21.50    8.88
  -5   8   2   55.45   12.07
   5   8  -1   20.48    9.21
  -5  -8  -1   14.82    9.26
  -5   8   1   32.02   10.04
   5   8   0   95.50   14.93
  -5   8   0  117.10   14.88
  -5  -8   1   14.57   11.28
   5   8   1   27.75   10.44
  -5   8  -1   14.33    6.37
  -5   8  -2   62.48   10.46
   5   8   2   45.66   11.50
   5   8   3   44.65   10.43
  -5  -8   3   22.33    9.10
  -5   8  -3   52.57    9.23
   5   8   4   35.41    8.95
  -5   8  -4   31.62    6.52
  -5   8  -5   29.87    5.35
   5   8   5   33.07    9.85
   5   8   6    0.74    4.86
  -5  -8   6    0.71    9.17
   5   8   7   28.40    8.35
   5   8   8   23.04    8.33
   5  -8 -11    5.24   13.34
   5  -8 -12   30.28   14.17
   5  -8 -13   82.61   20.31
   5  -8 -14   15.00   13.02
   5  -8 -15   -4.55   13.12
  -5  -8  16    6.99   11.63
   5  -8 -16    1.02   14.16
  -5  -8  17    5.27   10.06
  -5  -8  18  -18.73   13.66
  -5   8 -19  -57.53   34.11
  -5  -8  19   -2.94    9.38
  -5   8 -20   36.53   24.51
  -5  -8  20  -13.50   13.62
  -5   8 -21   48.05   27.21
  -5   9  18   12.92   10.28
   5   9 -18    9.82   12.22
  -5   9  17   12.31   13.30
   5   9 -17    4.18   10.48
  -5   9  16   -6.44   14.78
   5   9 -16    2.26    9.20
  -5   9  15   20.55   16.18
   5   9 -15   23.81   12.30
  -5   9  14   -1.15   11.90
   5   9 -14    9.99   13.12
  -5   9  13   20.30   13.40
   5   9 -13    4.51    9.38
  -5   9  12   58.58   16.46
   5   9 -12   34.87   12.95
  -5   9  11   10.61   10.98
   5   9 -11   28.56   11.78
  -5   9  10   28.34   13.05
   5   9 -10   22.85   10.83
   5   9  -9   78.49   16.61
  -5   9   9   82.30   17.80
  -5   9   8   20.32    9.88
   5   9  -8   11.52    8.34
  -5   9   7   19.89   11.66
   5   9  -7    3.32    7.28
  -5   9   6    1.41    8.47
   5   9  -6    0.89    6.86
   5   9  -5   21.80   10.38
  -5   9   5    5.01    8.52
   5   9  -4   19.20   10.94
  -5  -9  -4    6.66    7.79
  -5   9   4   12.96    8.98
   5   9  -3   30.18    9.55
  -5  -9  -3    5.42    7.29
  -5   9   3   19.41    9.19
   5   9  -2   42.91   13.16
  -5  -9  -2   21.88    9.49
  -5   9   2   40.52   10.69
   5   9  -1   34.04   10.45
  -5  -9  -1   16.20   11.25
  -5   9   1   39.44    9.48
  -5   9   0   -1.68    5.96
   5   9   0   -6.20    6.30
  -5  -9   0  -10.85    8.70
  -5  -9   1    7.77    9.42
   5   9   1   28.61    9.10
  -5   9  -1   40.46    9.07
  -5   9  -2   20.86    7.11
  -5  -9   2    8.17    8.35
   5   9   3   21.32    8.28
  -5   9  -3   11.74    5.51
  -5  -9   3   19.43   11.23
  -5   9  -4   13.75    5.11
   5   9   4   18.00    8.47
  -5  -9   4    2.90    8.34
   5   9   5    8.76    6.88
  -5  -9   5    4.11    7.51
  -5  -9   6   -4.35    7.77
   5   9   6    8.55    6.92
   5   9   7   -3.76    5.64
  -5  -9   7   -5.16   10.10
   5   9   8    5.14    7.35
  -5  -9  16    6.59   10.78
  -5  -9  17   -0.38   10.96
  -5  -9  18   -5.31   11.83
  -5   9 -19   51.73   31.33
  -5  -9  19    6.48   12.27
  -5   9 -20  -13.52   18.45
   5  10 -18  -13.10   14.63
  -5  10  17    4.37   11.85
   5  10 -17   13.82   11.01
  -5  10  16   -4.33   10.67
   5  10 -16    9.99   12.41
  -5  10  15   -4.07   10.54
   5  10 -15  -15.01   11.27
  -5  10  14   11.65   11.01
   5  10 -14   11.80   11.78
  -5  10  13   48.16   17.71
   5  10 -13   27.38   11.29
  -5  10  12   23.10   15.42
   5  10 -12   16.63   11.73
  -5  10  11   33.72   15.44
   5  10 -11   -0.01    9.28
  -5  10  10   44.74   15.15
   5  10 -10   62.68   15.25
  -5  10   9   39.96   13.91
   5  10  -9    9.25   10.67
  -5  10   8    5.82    9.28
   5  10  -8    5.36    8.34
  -5  10   7   26.34   11.87
   5  10  -7   15.69    9.95
  -5  10   6   54.92   12.63
   5  10  -6   47.06   11.40
  -5  10   5   14.58   10.74
   5  10  -5    6.38    7.55
   5  10  -4    3.09    6.62
  -5  10   4   23.71   10.61
  -5 -10  -4   10.55    8.03
   5  10  -3   59.92   13.21
  -5  10   3   50.70   12.40
  -5  10   2   11.38    8.89
   5  10  -2   13.54    8.47
  -5 -10  -2   -5.24    8.40
  -5  10   1   25.68    9.29
   5  10  -1   18.43    8.69
  -5 -10  -1   11.48   10.10
   5  10   0   71.77   13.99
  -5  10   0   78.31   12.67
  -5 -10   1   10.88   11.91
   5  10   1   23.28    8.63
  -5  10  -1   29.30    7.90
  -5  10  -2   11.76    5.24
  -5 -10   2    8.19    9.62
   5  10   2   16.63    8.07
  -5  10  -3   33.99    6.36
  -5 -10   3   36.80   12.55
   5  10   3   50.37   10.89
   5  10   4   15.43    6.28
  -5 -10   4    7.92    8.56
   5  10   5   -0.90    6.17
  -5 -10   5    5.87    7.60
  -5 -10   6   21.81   11.61
   5  10   6   32.26    9.76
   5  10   7    5.01    4.86
  -5 -10   7    4.89    8.10
   5  10   8   -4.40    5.75
  -5 -10  17    5.03    9.49
  -5  10 -18  -19.89   35.42
  -5 -10  18   12.63   12.93
  -5  10 -19  -25.78   26.39
  -5 -10  19  -12.47   14.42
  -5  11  17   19.88   15.12
   5  11 -17    2.68    9.43
  -5  11  16   -1.08   11.70
   5  11 -16   10.98   10.82
  -5  11  15   23.34   15.76
   5  11 -15   22.14   13.55
  -5  11  14   16.06   13.53
   5  11 -14    3.77    9.45
  -5  11  13   21.43   13.34
   5  11 -13   14.45   10.67
  -5  11  12   39.60   13.89
   5  11 -12   69.91   17.42
  -5  11  11   -8.71   10.10
   5  11 -11   -7.90    9.51
  -5  11  10   13.07   10.81
   5  11 -10    4.14    8.18
  -5  11   9   31.63   12.12
   5  11  -9   13.97    8.76
  -5  11   8    6.62    8.37
   5  11  -8   32.09   11.80
  -5  11   7   20.35    9.37
   5  11  -7   14.35    9.20
  -5  11   6   10.79    7.45
   5  11  -6    8.34    8.08
  -5  11   5    8.10    9.52
   5  11  -5   11.52    7.07
  -5  11   4   26.10   10.45
  -5 -11  -4    3.27    9.00
   5  11  -4   19.47   10.27
   5  11  -3   14.01    8.21
  -5  11   3   21.28    9.14
  -5 -11  -3   -1.09    8.38
   5  11  -2   29.46    9.81
  -5 -11  -2   19.04   10.21
  -5  11   2   40.11   11.05
  -5  11   1   38.53   10.97
   5  11  -1   39.38   11.95
  -5  11   0   12.50    6.72
   5  11   0   14.68    8.58
  -5 -11   0   -2.08    8.05
  -5  11  -1   23.77    7.20
   5  11   1   27.03    9.13
  -5 -11   1   27.84   13.01
  -5  11  -2   11.81    5.10
  -5 -11   2   -1.40    9.14
  -5 -11   3   -3.80    9.58
   5  11   3   -1.85    6.91
  -5 -11   4    4.23    8.34
   5  11   4   12.26    7.11
   5  11   5   16.12    8.46
  -5 -11   5   -0.26    7.81
   5  11   6   13.55    6.84
  -5 -11   6  -11.87   11.03
  -5 -11   7   24.15   13.10
   5  11   7   13.11    7.19
   5  11   8    9.26    5.31
  -5 -11  17    3.50   12.17
  -5  11 -18   21.34   30.07
  -5 -11  18   -2.19   10.34
  -5  12  16    2.08   11.33
   5  12 -16   -5.82   10.29
  -5  12  15   34.68   16.12
   5  12 -15   35.91   14.44
  -5  12  14   -2.79   11.77
   5  12 -14   10.65   10.48
   5  12 -13   48.17   15.49
  -5  12  13   72.86   19.24
  -5  12  12   27.35   15.15
   5  12 -12    7.58    9.00
  -5  12  11   -3.11   10.63
   5  12 -11   -5.63    9.01
  -5  12  10   27.13   16.58
   5  12 -10   19.02   10.97
  -5  12   9   19.20   13.82
   5  12  -9   -3.98    7.66
   5  12  -8   46.45   13.50
  -5  12   8   80.07   18.08
   5  12  -7   69.29   16.04
  -5  12   7   78.32   16.80
  -5  12   6   -4.48    9.99
   5  12  -6    5.16    9.07
  -5  12   5   12.89    9.36
   5  12  -5    2.94    8.00
  -5  12   4    1.27    7.29
  -5 -12  -4   -2.09    8.36
   5  12  -4    2.99    7.92
   5  12  -3   73.27   13.46
  -5  12   3   91.62   14.67
   5  12  -2   12.54    7.14
  -5  12   2   16.58    7.07
  -5 -12  -2   -6.38    8.58
  -5  12   1   31.17    9.10
   5  12  -1   48.57   12.43
   5  12   0  129.71   18.13
  -5  12   0  128.52   14.78
  -5  12  -1   35.80    8.36
   5  12   1   38.14   10.88
  -5 -12   1    7.48    9.61
   5  12   2   12.41    7.45
  -5 -12   2   27.03   12.40
  -5 -12   3   50.05   14.30
   5  12   3   83.62   14.05
  -5 -12   4    5.43    8.39
   5  12   4   -3.77    5.86
   5  12   5   -6.69    6.84
  -5 -12   5   12.58    8.67
   5  12   6   -7.03    5.94
  -5 -12   6   14.44    9.81
  -5 -12   7   30.45   12.53
   5  12   7   51.89   10.53
  -5  12 -17    9.75   29.43
  -5 -12  18   21.06   14.09
  -5  13  15   49.12   16.88
   5  13 -15   18.54   14.52
  -5  13  14   12.40   10.78
   5  13 -14   -1.30   10.90
  -5  13  13    8.78   10.83
   5  13 -13   -2.47   11.70
  -5  13  12   40.24   14.32
   5  13 -12   39.71   14.37
  -5  13  11   -8.19    9.34
   5  13 -11    8.06   10.53
   5  13 -10   41.21   13.85
  -5  13  10   41.08   15.44
  -5  13   9    9.64    9.76
   5  13  -9   20.22   10.63
  -5  13   8   18.12   11.43
   5  13  -8   24.25   11.76
  -5  13   7    4.45    7.89
   5  13  -7    5.06    8.25
  -5  13   6    5.25    6.78
   5  13  -6   22.65   12.62
  -5  13   5   21.52    9.80
   5  13  -5    4.03    7.83
  -5  13   4   22.81    9.14
  -5 -13  -4   15.89   10.47
   5  13  -4   37.17   10.93
  -5 -13  -3   14.49   10.65
   5  13  -3   23.83    8.29
  -5  13   3   45.00   12.07
  -5  13   2   15.04    8.36
  -5 -13  -2   -3.18    7.43
   5  13  -2   12.32    8.53
   5  13  -1    9.51    7.21
  -5  13   1   11.06    7.77
  -5 -13  -1   -9.53   11.46
   5  13   0    5.14    8.07
  -5  13   0   -2.47    5.67
  -5 -13   0   10.28    7.92
   5  13   1   14.91    9.42
  -5 -13   1   -3.35   10.58
   5  13   2   13.24    7.85
  -5 -13   2    6.64    9.13
  -5 -13   3   25.48   11.95
   5  13   3   39.04   10.08
  -5 -13   4    9.22    9.45
   5  13   4   28.64    9.68
   5  13   5    1.55    6.36
  -5 -13   5   -0.86    8.04
   5  13   6   20.07    7.40
  -5 -13   6   21.27   11.58
  -5 -13   7   23.37   14.48
  -5 -13   8    1.04    9.16
  -5  14  15   99.53   24.46
  -5  14  14   12.65   11.54
   5  14 -14   15.77    9.79
  -5  14  13   24.44   14.73
   5  14 -13   21.52   12.50
  -5  14  12   35.92   15.80
   5  14 -12   10.73    8.63
  -5  14  11   32.14   15.14
   5  14 -11    3.98    8.98
  -5  14  10   66.70   17.76
   5  14 -10   40.02   13.62
  -5  14   9   22.51   11.91
   5  14  -9   37.37   13.19
  -5  14   8   11.08   10.35
   5  14  -8    3.54    8.27
  -5  14   7   16.97   10.50
   5  14  -7    8.52    8.45
  -5  14   6   21.91   11.07
   5  14  -6    1.65    7.46
  -5  14   5   43.74   13.76
   5  14  -5   35.09   11.78
  -5  14   4   15.88   10.43
   5  14  -4   40.18   13.39
  -5 -14  -4   16.58    9.75
  -5  14   3   48.07   12.23
   5  14  -3   35.88   11.30
  -5  14   2   27.68    8.85
  -5 -14  -2    3.38    8.65
   5  14  -2   29.54    9.42
   5  14  -1   14.78    8.85
  -5  14   1   15.25    6.82
  -5 -14  -1   -4.25   10.03
   5  14   0    7.81    7.55
  -5 -14   0   -8.12    8.76
   5  14   1   20.20    8.86
  -5 -14   1   -2.09   12.27
   5  14   2   25.32    9.42
  -5 -14   2   -5.35   10.43
   5  14   3   24.62    8.04
  -5 -14   3   24.37   12.82
  -5 -14   4    0.41    9.27
   5  14   4    8.54    7.29
  -5 -14   5    7.86   10.01
   5  14   5   26.48    9.97
  -5 -14   6    3.72    9.67
  -5 -14   7   -1.37    9.06
  -5 -14   8    6.96   11.29
  -5  15  14   39.55   14.95
  -5  15  13   13.95   12.83
   5  15 -13   -5.46    9.44
  -5  15  12  -20.81   14.18
   5  15 -12    0.28    9.21
  -5  15  11   52.98   16.83
   5  15 -11   12.54   10.28
  -5  15  10   26.20   12.51
   5  15 -10   37.04   12.99
  -5  15   9    5.52   12.23
   5  15  -9   19.45   12.52
  -5  15   8   25.99   11.61
   5  15  -8   19.48   10.67
  -5  15   7   46.46   13.21
   5  15  -7   60.80   15.12
  -5  15   6   59.46   14.49
   5  15  -6   33.85   11.92
  -5  15   5   15.78    9.17
  -5 -15  -5   22.81   13.19
   5  15  -5   -0.67    8.45
  -5  15   4   19.68    8.78
  -5 -15  -4   13.41   12.05
   5  15  -4   44.54   13.23
  -5  15   3   10.96    5.77
  -5 -15  -3    2.16    8.74
   5  15  -3   10.18    9.38
  -5 -15  -2   -0.56   10.78
   5  15  -2   -8.07    8.96
   5  15  -1   46.39   11.73
  -5 -15  -1   17.26   11.40
   5  15   0    6.55    6.27
  -5 -15   0   -7.01    8.89
   5  15   1   46.86   12.55
  -5 -15   1    7.89   10.33
   5  15   2    1.41    6.57
  -5 -15   2   15.28   11.40
   5  15   3   -3.54    6.37
  -5 -15   3   10.50    9.58
  -5 -15   4   -0.09    8.75
   5  15   4   31.22    9.54
  -5 -15   5    8.24    9.85
  -5 -15   6    9.23   10.59
  -5 -15   7   27.44   13.31
  -5 -15   8    7.37   10.11
  -5  16  13   22.39   14.17
  -5  16  12   25.25   13.51
  -5  16  11   17.88   10.02
   5  16 -11   17.83    8.89
  -5  16  10   -0.57    9.64
   5  16 -10   17.53   11.75
  -5  16   9   -6.13    8.76
   5  16  -9   -2.42    9.69
  -5  16   8   12.07    8.98
   5  16  -8   26.49   12.54
  -5  16   7    0.22    7.56
   5  16  -7    6.44    8.65
  -5  16   6    3.34    7.94
   5  16  -6   26.70   10.36
  -5  16   5   31.07   10.02
  -5 -16  -5   23.56   14.11
  -5  16   4   16.65    8.40
  -5 -16  -4    0.32    9.66
   5  16  -4    7.31    7.80
  -5 -16  -3   -1.45    8.60
   5  16  -3    9.77    8.44
  -5 -16  -2   16.58   11.89
   5  16  -2   13.90    7.95
  -5 -16  -1   29.77   14.05
   5  16  -1   23.00    9.80
   5  16   0    3.08    7.37
  -5 -16   0  -15.95   10.94
   5  16   1   16.78    8.92
  -5 -16   1   12.45   12.16
   5  16   2   26.20    9.66
  -5 -16   2   -6.22   10.43
   5  16   3   26.37   10.63
  -5 -16   3    3.03    8.44
  -5 -16   4    7.64    9.37
  -5 -16   5   16.00   11.95
  -5 -16   6   24.17   11.03
  -5 -16   7    5.39   11.36
  -5 -16   8  -20.32   13.22
  -5  17  12    6.57   10.63
  -5  17  11  -12.19   11.06
  -5  17  10    8.23    8.46
   5  17 -10    3.99    9.27
  -5  17   9    8.56    8.39
   5  17  -9   12.39   10.05
  -5  17   8   -9.17    9.35
   5  17  -8   18.87    9.87
  -5  17   7   34.90   11.30
   5  17  -7   20.01   11.22
   5  17  -6   -9.07    8.60
  -5 -17  -5    5.90   10.55
   5  17  -5   24.62   10.64
  -5 -17  -4   -0.82    9.04
   5  17  -4   24.35   12.04
  -5 -17  -3    5.68    8.74
   5  17  -3   27.82   10.83
  -5 -17  -2   -0.89    8.88
   5  17  -2   16.69   10.17
  -5 -17  -1    2.84    9.96
   5  17  -1  -11.69    7.60
   5  17   0    2.89    8.05
  -5 -17   0    1.05    9.51
   5  17   1  -10.24    7.49
  -5 -17   1   19.64   14.17
  -5 -17   2  -21.46   15.00
  -5 -17   3   14.74   12.85
  -5 -17   4   10.66    9.90
  -5 -17   5   -6.01    9.64
  -5 -17   6   13.95   13.28
  -5 -17   7   24.79   10.89
  -5 -17   8   23.19   12.89
   5  18  -9   26.30   12.18
   5  18  -8   11.56   10.94
   5  18  -7   13.30    9.43
  -5 -18  -6    5.90   12.24
   5  18  -6   19.15   10.77
  -5 -18  -5   -6.21   10.30
   5  18  -5    0.70    8.34
  -5 -18  -4    3.29    9.36
   5  18  -4   14.54   10.52
  -5 -18  -3   19.37   13.35
   5  18  -3    8.95   10.15
  -5 -18  -2    1.78    9.48
   5  18  -2   19.50    9.60
  -5 -18  -1    5.97    9.68
   5  18  -1   12.10    7.60
   5  18   0   11.67    8.00
  -5 -18   0  -12.37   12.37
  -5 -18   1   -7.21   13.04
  -5 -18   2   13.74   11.45
  -5 -18   3    3.00   11.84
  -5 -18   4   12.31   11.48
  -5 -18   5   20.66   12.15
  -5 -18   6   13.60   11.27
  -5 -18   7   18.39   12.01
   5  19  -7  -17.01   10.92
   5  19  -6   37.27   12.81
   5  19  -5   -4.89    8.14
   5  19  -4   11.30    9.40
   5  19  -3   16.84   10.47
  -5 -19  -2   17.86   13.63
   5  19  -2   -7.07    8.96
  -5 -19  -1    8.92    8.93
   5  19  -1    7.44    8.77
  -5 -19   0  -16.96   14.94
  -5 -19   1   -0.47   10.67
  -5 -19   2   -6.63   10.03
  -5 -19   3   -0.34   12.08
  -5 -19   4   11.87   11.81
  -5 -19   5    1.85    8.25
  -5 -19   6   -0.42   12.12
  -5 -19   7  -25.37   15.08
   5  20  -5   28.47   13.98
   5  20  -4   -2.48   10.17
   5  20  -3   18.58   10.55
  -5 -20  -1   13.28   11.14
  -5 -20   0   -0.67   13.26
  -5 -20   1  -24.33   15.02
  -5 -20   2    6.99   10.96
  -5 -20   3    7.48   10.97
  -5 -20   4  -11.19   13.38
  -5 -20   5   10.63    9.64
  -5 -20   6    3.16   11.24
  -5 -20   7   18.33   15.46
  -6   0   0   76.58   18.52
   6   0   0   83.72   15.20
   6   0   1   67.53   18.05
  -6   0  -1   54.41   14.44
   6   0  -1   40.40   12.08
   6   0   2  112.41   22.94
  -6   0  -2   53.04   14.67
   6   0  -2   98.11   16.72
   6   0  -3   25.93   11.88
  -6   0  -3   15.14   12.43
  -6   0  -4  220.89   24.64
   6   0  -4  261.30   30.71
  -6   0  -5    6.95    9.54
   6   0  -5   17.08   14.35
  -6   0  -6   21.39   11.13
   6   0  -6   12.86   11.01
  -6   0  -7   24.10   12.23
   6   0  -7   17.72    9.53
  -6   0   7    8.90    9.03
   6   0  -8  116.96   21.01
  -6   0   8  127.61   21.93
   6   0  -9   17.36   10.59
  -6   0   9   14.85   11.03
   6   0 -10    8.31   11.42
  -6   0  10   49.32   16.47
   6   0 -11    4.08    9.51
  -6   0  11   -0.72    9.51
   6   0 -12   94.59   21.76
  -6   0  12   63.09   17.08
   6   0 -13   39.78   14.61
  -6   0  13   50.75   17.81
   6   0 -14  101.67   21.86
  -6   0  14   96.10   21.39
   6   0 -15    3.51   10.59
  -6   0  15   -5.61   11.17
   6   0 -16  -12.95   13.72
  -6   0  16  -16.61   15.23
   6   0 -17   23.80   14.19
  -6   0  17   -1.92   11.46
   6   0 -18   -0.30   13.11
  -6   0  18   22.45   15.28
   6   0 -19  -12.68   13.15
   6   0 -20   25.61   16.04
   6   1 -20   40.13   18.16
   6   1 -19   -3.27   14.42
   6   1 -18   16.21   12.71
  -6   1  18   35.67   14.82
  -6   1  17    4.67   13.23
   6   1 -17   21.54   16.18
  -6   1  16    4.40   12.85
   6   1 -16   23.18   15.04
  -6   1  15    7.44   13.47
   6   1 -15   -7.07   13.82
  -6   1  14   97.51   25.62
   6   1 -14   86.07   20.12
  -6   1  13   50.33   17.61
   6   1 -13   24.90   13.48
   6   1 -12   33.32   13.60
  -6   1  12   39.31   15.21
   6   1 -11   19.29   12.68
  -6  -1 -11   35.41   10.04
  -6   1  11   30.76   13.83
   6   1 -10   62.34   17.33
  -6  -1 -10   45.43   12.77
  -6   1  10   41.85   15.51
   6   1  -9   63.80   16.04
  -6   1   9   32.83   14.31
   6   1  -8   35.36   13.91
  -6  -1  -8   -4.14   10.23
   6   1  -7   14.72   11.91
  -6  -1  -7   17.61    9.60
  -6   1   7   30.45   14.08
   6   1  -6   15.18   10.94
  -6  -1  -6   14.36   11.22
  -6   1   6   13.87   11.91
   6   1  -5   83.17   16.51
  -6  -1  -5   67.36   16.25
  -6   1   5   25.05   11.20
   6   1  -4  137.34   21.30
  -6  -1  -4   52.94   16.19
  -6  -1  -3   48.32   14.33
   6   1  -3   22.89   11.59
   6   1  -2   31.15   12.61
  -6  -1  -2   -3.65    8.84
  -6  -1  -1   48.16   14.46
   6  -1   1   53.54   17.64
   6   1  -1   52.73   11.92
   6  -1   0   69.36   19.08
  -6  -1   0   27.28   13.41
   6   1   0   43.98   12.83
   6  -1  -1   32.97   12.66
  -6   1  -1   52.29   16.39
  -6  -1   1   53.78   18.89
   6   1   1   60.97   15.29
  -6   1  -2  142.41   21.60
   6  -1  -2   89.68   18.11
   6   1   3    5.35   10.09
   6  -1  -3   29.56   11.12
  -6   1  -3   17.87   10.30
  -6   1  -4  141.02   22.05
   6  -1  -4  137.09   21.25
   6  -1  -5   31.14   14.62
  -6   1  -5   12.59    9.44
  -6   1  -6   -0.60    8.82
   6  -1  -6   11.86   10.08
  -6   1  -7   10.59   11.07
   6  -1  -7  -11.33   12.08
   6  -1  -8  121.14   23.53
  -6   1  -8  141.39   22.15
  -6   1  -9   22.75   12.10
   6  -1  -9   24.84   11.35
  -6   1 -10   16.92   11.51
   6  -1 -10   20.72   10.64
  -6  -1  10   47.24   14.80
   6  -1 -11   21.93   12.71
  -6  -1  11    6.04    9.47
   6  -1 -12   58.06   16.74
  -6  -1  12    6.74   11.91
   6  -1 -13   31.05   15.68
  -6  -1  13   23.61   13.24
   6  -1 -14  115.94   24.91
  -6  -1  14   58.30   17.80
   6  -1 -15    5.80   11.13
  -6  -1  15   25.31   12.77
   6  -1 -16   18.35   16.37
  -6  -1  16   -0.73   13.63
   6  -1 -17   57.43   18.28
  -6  -1  17   18.77   15.16
   6  -1 -18   28.38   15.44
  -6  -1  18   30.05   17.06
   6  -1 -19    2.49   11.77
   6  -1 -20   22.73   16.09
   6   2 -19   19.33   14.63
   6   2 -18    9.50   12.45
  -6   2  18    0.96   12.60
   6   2 -17   40.83   16.72
  -6   2  17   91.05   23.50
   6   2 -16   36.35   17.93
  -6   2  16    3.50   11.48
   6   2 -15    2.19   12.19
  -6   2  15   27.81   17.58
  -6   2  14   92.54   24.00
   6   2 -14   68.83   19.17
   6   2 -13   34.50   15.74
  -6   2  13   17.72   14.80
  -6   2  12    9.93   11.32
   6   2 -12   26.22   13.81
  -6  -2 -11   42.93   12.81
  -6   2  11   37.42   13.57
   6   2 -11   53.78   18.17
  -6  -2 -10   23.38    9.08
  -6   2  10   69.70   18.62
   6   2 -10   71.39   19.30
   6   2  -9   55.08   15.86
  -6  -2  -9   23.47    9.06
  -6   2   9   52.33   16.42
   6   2  -8   -4.37   10.13
  -6   2   8   19.06   14.16
   6   2  -7   23.47   12.85
  -6  -2  -7   10.53    9.80
  -6   2   7   16.41   10.98
   6   2  -6  112.39   19.85
  -6  -2  -6   66.16   16.88
  -6   2   6   57.87   17.15
   6   2  -5   68.38   15.87
  -6  -2  -5   57.52   16.86
  -6   2   5   53.51   15.10
   6   2  -4   97.92   16.66
  -6  -2  -4   85.67   18.71
  -6   2   4   97.15   20.61
   6   2  -3   50.97   14.77
  -6  -2  -3   54.73   14.70
  -6   2   3   31.99   13.18
   6   2  -2  135.13   21.47
  -6  -2  -2  104.38   17.35
  -6  -2  -1    5.67   10.98
   6   2  -1   31.91   14.44
   6   2   0   23.81   11.32
  -6  -2   0   -4.15    8.18
   6  -2   0    4.03   12.43
   6   2   1   36.72   11.28
  -6  -2   1   28.90   12.25
   6  -2  -1   51.21   18.17
   6  -2  -2    2.86    8.92
  -6  -2   2  100.76   19.54
  -6   2  -2   27.22   13.38
   6   2   2   70.61   14.67
   6   2   3   39.31   14.32
  -6   2  -3   11.08   10.29
   6  -2  -3   18.90    9.12
   6   2   4   83.04   17.74
  -6   2  -4  120.13   17.85
   6  -2  -4   82.15   17.94
  -6   2  -5   27.33   11.63
   6  -2  -5   47.14   14.44
   6  -2  -6   15.66   11.99
  -6   2  -6   19.20    9.23
   6  -2  -7    3.03   10.97
  -6   2  -7   10.90    7.98
  -6   2  -8    9.69    8.61
   6  -2  -8    5.48   10.40
  -6   2  -9   28.64   12.50
   6  -2  -9   27.91   12.31
  -6   2 -10   17.99    9.81
  -6  -2  10   41.75   14.45
   6  -2 -10   40.53   14.47
  -6   2 -11   22.11   11.41
   6  -2 -11   50.59   17.27
  -6  -2  11   35.41   11.98
   6  -2 -12   42.67   15.01
  -6  -2  12   40.87   15.15
   6  -2 -13   13.73   11.49
  -6  -2  13   24.02   12.70
   6  -2 -14   78.64   19.44
  -6  -2  14   33.79   14.03
   6  -2 -15   15.64   10.99
  -6  -2  15   28.80   14.18
   6  -2 -16   26.66   14.98
  -6  -2  16   -8.70   12.34
   6  -2 -17   35.74   15.83
  -6  -2  17   35.52   14.92
   6  -2 -18   21.60   14.22
  -6  -2  18   33.30   17.69
   6  -2 -19   29.20   16.04
   6  -2 -20   16.13   15.70
   6   3 -19  -12.59   13.62
   6   3 -18   14.80   10.60
  -6   3  18   31.10   17.04
   6   3 -17  -10.04   12.75
  -6   3  17   21.86   14.83
   6   3 -16   38.98   15.83
  -6   3  16   49.66   16.68
   6   3 -15    9.05    9.65
  -6   3  15    6.47   13.22
   6   3 -14   16.87   12.14
  -6   3  14   24.56   14.96
   6   3 -13    7.47   10.59
  -6   3  13   -4.62   13.57
   6   3 -12   20.88   14.40
  -6   3  12   40.13   19.68
   6   3 -11   11.19   11.34
  -6   3  11   34.89   18.12
  -6  -3 -10   12.58    8.19
   6   3 -10   17.46   14.04
  -6   3  10   13.61   15.10
  -6  -3  -9    2.71    7.07
  -6   3   9   23.24   13.43
   6   3  -9   38.51   14.74
  -6  -3  -8    5.27    6.52
  -6   3   8   -5.40   10.12
   6   3  -8   19.89   11.53
   6   3  -7   35.05   12.85
  -6   3   7   11.31   10.27
  -6  -3  -6   55.19   14.66
  -6   3   6  103.46   18.54
   6   3  -6  116.86   21.31
   6   3  -5   52.46   14.25
  -6   3   5   29.37   12.54
   6   3  -4   98.09   17.99
  -6  -3  -4   87.36   18.58
  -6   3   4  105.48   19.25
   6   3  -3   69.64   15.29
  -6  -3  -3   74.85   17.20
  -6   3   3   57.53   15.47
   6   3  -2  154.66   21.53
  -6  -3  -2   88.74   17.62
  -6   3   2  120.27   18.98
   6   3  -1   74.18   16.07
  -6  -3  -1   60.32   13.40
  -6  -3   0    2.74    9.15
  -6   3   0    6.68    9.32
   6   3   0    2.74   10.44
  -6  -3   1   77.88   15.02
   6   3   1   60.82   13.76
   6  -3  -2   93.36   21.23
  -6  -3   2   84.90   18.17
   6   3   2   89.67   14.61
  -6  -3   3   72.86   16.83
  -6   3  -3   48.46   13.22
   6  -3  -3   48.42   15.42
   6   3   3   91.85   14.91
   6   3   4   82.44   16.84
   6  -3  -4   52.02   14.77
  -6   3  -4   67.49   16.61
   6   3   5   47.27   13.97
  -6   3  -5   32.60   10.46
   6  -3  -5   49.25   14.65
  -6   3  -6   42.09   11.20
   6  -3  -6   88.63   17.58
   6  -3  -7   11.82    8.88
  -6   3  -7    3.27    7.09
   6  -3  -8   -0.56    8.59
  -6   3  -8  -15.15    9.32
   6  -3  -9   31.33   13.61
  -6   3  -9   14.62    7.86
  -6   3 -10   25.23   12.51
   6  -3 -10   20.93   13.97
  -6   3 -11   21.08   11.18
  -6  -3  11   15.98   11.28
   6  -3 -11   40.10   16.26
  -6   3 -12    9.57    8.85
  -6  -3  12   33.92   15.13
   6  -3 -12   45.36   18.16
  -6  -3  13    7.34   10.72
   6  -3 -13  -20.88   16.65
   6  -3 -14   84.14   21.98
  -6  -3  14    6.83   11.51
   6  -3 -15   13.26   16.27
  -6  -3  15   -2.46   10.42
   6  -3 -16   29.03   16.97
  -6  -3  16   32.44   16.42
   6  -3 -17   40.80   14.27
  -6  -3  17   27.25   15.53
   6  -3 -18   -9.70   14.10
  -6  -3  18   31.95   17.53
   6  -3 -19    4.82   14.32
   6  -3 -20   -0.38   14.44
   6   4 -18   19.55   15.76
   6   4 -17   47.93   17.31
  -6   4  17   59.48   20.67
   6   4 -16    1.69   13.31
  -6   4  16    6.88   11.75
   6   4 -15  -13.64   13.18
  -6   4  15    4.87   12.43
   6   4 -14   -1.56   10.08
  -6   4  14   22.44   13.96
   6   4 -13   -7.14   12.74
  -6   4  13   25.15   12.79
   6   4 -12  -15.44   12.22
  -6   4  12    3.17   11.05
   6   4 -11  -11.46   10.60
  -6   4  11    8.27   11.24
   6   4 -10   29.79   11.41
  -6   4  10   44.00   17.56
  -6  -4  -9    9.59    8.66
   6   4  -9    3.94   10.13
  -6   4   9   10.96   10.63
  -6  -4  -8   14.77    8.47
   6   4  -8  -10.70   13.14
  -6   4   8   17.52   12.06
  -6   4   7   68.70   17.17
   6   4  -7   48.42   16.45
  -6   4   6   10.58   10.90
   6   4  -6   11.46   10.76
   6   4  -5    9.89    9.43
  -6  -4  -5    4.83    8.43
  -6  -4  -4   62.64   15.30
  -6   4   4   51.89   15.74
   6   4  -3   85.94   17.89
  -6   4   3   86.99   15.94
   6   4  -2   60.34   14.36
  -6  -4  -2   29.72   14.16
  -6   4   2   49.39   12.90
   6   4  -1   97.36   16.25
  -6   4   1  109.19   17.32
  -6  -4   0   41.94   11.75
   6   4   0   46.02   10.77
  -6  -4   1   68.97   13.47
   6   4   1   90.62   17.89
  -6   4  -1   87.67   16.10
  -6  -4   2   50.81   14.89
   6   4   2   44.49   11.49
   6  -4  -2   70.89   19.15
  -6   4  -2   29.24    9.93
  -6  -4   3   80.51   18.59
  -6   4  -3   88.26   14.96
   6   4   3   82.08   14.89
   6  -4  -3   85.99   22.02
   6  -4  -4   59.20   18.69
  -6  -4   4   63.16   16.26
  -6   4  -4   46.59   10.01
   6   4   4   59.18   14.14
   6  -4  -5   12.84   10.78
  -6   4  -5    5.87    9.05
  -6   4  -5   26.47    7.18
   6  -4  -6   18.35   11.70
   6   4   6    6.23    9.05
  -6   4  -6    2.43    7.74
  -6   4  -7   51.26   11.61
   6  -4  -7   44.57   13.59
  -6   4  -8    4.22    6.78
   6  -4  -8   26.88   11.60
   6  -4  -9   -4.46    9.54
  -6   4  -9   15.92    7.86
   6  -4 -10    7.60   11.26
  -6   4 -10   11.07    9.03
   6  -4 -11   -4.71   10.41
   6  -4 -12    4.16    9.76
  -6  -4  12   -7.41   10.60
   6  -4 -13    0.57   11.15
  -6  -4  13   16.10   12.37
   6  -4 -14   35.69   16.94
  -6  -4  14    8.00    9.39
  -6  -4  15   15.79   13.58
   6  -4 -15    2.54   11.71
  -6  -4  16    4.53   10.08
   6  -4 -16   56.04   20.62
  -6  -4  17   22.35   14.84
   6  -4 -17   39.08   16.93
  -6  -4  18   40.86   17.30
   6  -4 -18   32.56   17.67
   6  -4 -19   20.91   13.25
   6   5 -18  -16.40   15.20
   6   5 -17   38.35   17.36
  -6   5  17   35.06   17.32
   6   5 -16   34.49   16.81
  -6   5  16   10.51   13.41
   6   5 -15   18.75   13.73
  -6   5  15   14.65   13.59
  -6   5  14   23.22   14.34
   6   5 -13   25.68   15.55
  -6   5  13   21.73   13.02
   6   5 -12    5.19   10.14
  -6   5  12    9.63   10.96
   6   5 -11   -9.18   10.98
  -6   5  11   16.37   11.36
   6   5 -10    6.55    9.88
  -6   5  10   15.30   13.24
   6   5  -9   16.54   10.59
  -6  -5  -9    0.94    8.78
  -6   5   9   26.77   12.56
  -6  -5  -8   10.06    7.65
   6   5  -8  -12.70    9.76
  -6   5   8  -17.64   14.43
  -6  -5  -7    3.07    7.45
   6   5  -7   14.94   11.20
  -6   5   7    5.43   11.92
   6   5  -6    0.36    9.13
  -6   5   6  -14.21   13.33
  -6   5   5   57.50   15.41
   6   5  -5   40.32   13.56
  -6   5   4  106.61   18.59
   6   5  -4   92.36   18.45
   6   5  -3   -4.64    9.52
  -6  -5  -3    9.13   10.62
  -6   5   3   -2.74    8.68
   6   5  -2   12.10    8.23
  -6  -5  -2    9.46   10.55
  -6   5   2   15.02    9.97
   6   5  -1   30.70   12.77
  -6  -5  -1   29.70   12.50
  -6   5   1   47.65   13.02
   6   5   0   52.67   13.49
  -6  -5   0   28.00   10.86
  -6  -5   1   34.60   12.46
   6   5   1   39.99   12.67
  -6   5  -1   18.93    7.85
  -6  -5   2   26.10   12.00
  -6   5  -2   20.17    8.12
   6   5   2   17.38    9.92
   6   5   3   -1.75    7.90
  -6  -5   3   -2.43    8.14
  -6   5  -3   -1.31    6.87
  -6  -5   4   58.62   15.05
  -6   5  -4   65.06   10.25
   6   5   4   61.93   11.82
   6   5   5   36.72   11.32
   6  -5  -5   57.76   18.13
  -6   5  -5   37.13    7.91
   6  -5  -6  -12.51   16.80
   6   5   6   16.65    9.49
  -6   5  -7   15.28    9.34
   6  -5  -7   26.59   14.86
   6  -5  -8  -19.20   13.66
  -6   5  -8    6.94    7.59
   6  -5  -9    3.60    9.29
   6  -5 -10   11.41   11.31
   6  -5 -11    9.68   11.06
   6  -5 -12    1.99    8.82
   6  -5 -13    8.85   11.13
  -6  -5  13  -15.96   12.58
   6  -5 -14   -1.27    9.93
  -6  -5  14   -0.60   10.81
   6  -5 -15  -21.10   14.84
  -6  -5  15   32.48   15.32
   6  -5 -16   10.66   12.85
  -6  -5  16    7.86   11.89
   6  -5 -17    4.50   10.62
  -6  -5  17    6.23   10.43
   6  -5 -18    2.90   12.39
   6  -5 -19   25.68   13.61
   6   6 -17   18.24   15.69
  -6   6  17    3.95   14.27
   6   6 -16   23.39   15.08
  -6   6  16   58.13   19.70
   6   6 -15   -6.10   11.97
  -6   6  15   -5.28   11.26
   6   6 -14   22.76   12.37
  -6   6  14   54.46   19.10
   6   6 -13   20.30   13.67
  -6   6  13   -5.40   11.58
   6   6 -12   16.51   13.42
  -6   6  12   61.05   17.51
   6   6 -11  -17.51   12.49
  -6   6  11   -4.28   13.43
   6   6 -10  100.63   20.11
  -6   6  10  124.61   23.26
   6   6  -9   31.17   15.42
  -6   6   9   -1.44    9.76
   6   6  -8    5.36    8.86
  -6  -6  -8    9.79    8.24
  -6   6   8   -5.94   12.49
   6   6  -7   17.47   11.28
  -6  -6  -7   -4.11    8.49
  -6   6   7   -2.68   11.12
  -6  -6  -6   34.89   12.62
   6   6  -6   69.05   15.00
   6   6  -5    4.51    9.38
  -6   6   5   26.57   12.65
  -6  -6  -4    9.17    8.72
   6   6  -4   35.62   14.31
  -6   6   4   46.60   13.68
  -6  -6  -3  -18.54   13.55
  -6   6   3   15.37    9.78
   6   6  -3    1.90    8.91
   6   6  -2    4.78    8.42
  -6  -6  -2   -0.81   10.67
  -6   6   2   28.38   10.71
   6   6  -1   10.73    8.46
  -6  -6  -1    5.73   11.11
  -6   6   1    4.80   10.56
   6   6   0   30.29   12.07
  -6  -6   0   21.81   12.00
  -6   6   0   54.84   12.23
  -6  -6   1    4.69    8.59
   6   6   1   -5.34   10.68
   6   6   2   36.78   11.42
  -6   6  -2   33.66    9.95
  -6  -6   3   -4.47    8.33
  -6   6  -3   26.36    9.68
   6   6   3   23.68   10.43
   6   6   4   41.03   10.97
  -6  -6   4   10.35   10.28
  -6   6  -4   38.62    8.36
  -6  -6   5   23.68   12.55
   6   6   5   19.21    9.16
   6   6   6   75.83   15.86
   6  -6  -6   78.53   20.86
   6  -6  -7   -4.40   11.95
   6   6   7    3.05    8.68
   6  -6  -8   -0.43   12.80
   6  -6  -9    0.95   14.33
   6  -6 -10   80.96   21.45
   6  -6 -11   -7.50   12.44
   6  -6 -12   17.60   12.40
   6  -6 -13    5.74   11.23
  -6  -6  14   30.28   12.91
   6  -6 -14   30.39   13.33
  -6  -6  15   25.69   13.15
   6  -6 -15  -12.02    9.76
  -6  -6  16   14.04   11.79
   6  -6 -16   26.07   14.22
  -6  -6  17   13.30   11.13
   6  -6 -17   30.94   15.54
   6  -6 -18    2.64   11.65
   6   7 -17    5.69   11.37
  -6   7  16    8.62   11.77
   6   7 -16   32.85   16.54
   6   7 -15   -4.54   13.25
  -6   7  15   17.50   15.16
   6   7 -14   11.63   11.30
  -6   7  14   -4.06   11.10
   6   7 -13    0.71   10.60
  -6   7  13    2.06   10.62
   6   7 -12    8.92   11.45
  -6   7  12   -1.15   10.40
   6   7 -11   72.01   18.36
  -6   7  11   74.86   18.62
   6   7 -10   -4.43   10.17
  -6   7  10  -25.15   15.24
   6   7  -9   13.46   12.58
  -6   7   9    1.25   12.03
   6   7  -8  -24.80   13.88
  -6   7   8    0.77    9.97
   6   7  -7   22.91   11.64
  -6  -7  -7   -7.72    9.16
  -6   7   7   36.99   15.20
   6   7  -6   12.66   11.63
  -6  -7  -6    3.18    8.58
  -6   7   6   38.61   13.56
   6   7  -5   23.87   11.27
  -6   7   5   28.96   11.41
  -6  -7  -4  -15.33    9.72
   6   7  -4   -2.44    8.26
  -6   7   4   -2.51   10.26
  -6  -7  -3   11.26    9.74
   6   7  -3   14.51   11.21
  -6   7   3   34.25   12.16
  -6   7   2   57.88   13.63
   6   7  -2   45.48   13.71
   6   7  -1   30.30   12.13
  -6  -7  -1   11.60   10.07
  -6   7   1   36.87   11.60
   6   7   0  -14.45    9.95
  -6  -7   0    6.32   10.35
  -6   7   0   -6.96    9.91
   6   7   1   23.90    9.72
  -6  -7   1   19.99   11.74
  -6   7  -1   43.38   10.87
   6   7   2   51.07   13.58
  -6   7  -2   48.64   11.58
  -6  -7   3    5.15    8.17
  -6   7  -3   36.39   10.30
   6   7   3   31.21   11.56
   6   7   4   -5.12    8.17
  -6  -7   4    0.03    8.88
   6   7   5   24.18    8.71
  -6  -7   5   29.23   13.13
   6   7   6   27.90    9.80
   6   7   7   26.12   12.02
   6  -7  -9    9.77   14.33
   6  -7 -10    4.43   12.65
   6  -7 -11   60.51   23.13
   6  -7 -12  -10.88   17.05
   6  -7 -13  -11.50   15.83
  -6  -7  14  -11.90   12.00
   6  -7 -14   48.31   17.96
   6  -7 -15   22.19   14.52
  -6  -7  15   11.72   10.66
   6  -7 -16    0.92   14.25
  -6  -7  16   -0.47   11.46
   6  -7 -17   10.55   13.54
  -6  -7  17   -5.97   11.73
  -6   8  16    6.48   11.89
   6   8 -16   -4.41   11.37
  -6   8  15    6.32   13.58
   6   8 -15   10.56   10.68
  -6   8  14   42.53   16.10
   6   8 -14   53.66   16.44
  -6   8  13   17.51   12.48
   6   8 -13   63.77   17.45
   6   8 -12   62.56   17.40
  -6   8  12   79.15   20.28
   6   8 -11    1.63    9.97
  -6   8  11   23.47   13.90
   6   8 -10   44.92   15.86
  -6   8  10   35.53   14.67
   6   8  -9    9.59   10.26
  -6   8   9    8.49   13.41
   6   8  -8   92.22   20.94
  -6   8   8   91.76   19.51
   6   8  -7   11.18    9.55
  -6  -8  -7   20.86   10.46
   6   8  -6   12.72    9.20
  -6  -8  -6    7.69    9.05
  -6   8   6   25.93   11.60
   6   8  -5    4.25    9.00
  -6  -8  -5    5.53    8.10
  -6   8   5   22.93   11.94
  -6  -8  -4    7.08   10.74
   6   8  -4   10.88   10.07
  -6   8   4    3.37   10.77
  -6  -8  -3   -0.53    7.96
   6   8  -3    7.86    9.52
  -6   8   3    5.64    8.52
   6   8  -2   31.98   10.21
  -6   8   2   54.99   13.65
  -6  -8  -1   39.27   14.49
  -6   8   1   52.15   14.39
   6   8  -1   38.89   13.15
   6   8   0   41.98   12.09
  -6  -8   0   13.52    8.80
  -6   8   0   51.40   12.22
   6   8   1   27.54   10.28
  -6  -8   1   18.48   12.36
   6   8   2   36.36   10.83
  -6  -8   2   16.56   10.80
  -6   8  -2   43.74   10.53
  -6  -8   3    1.12    7.70
   6   8   3    3.66    7.94
  -6  -8   4    6.44    8.82
   6   8   4   11.02    9.09
   6   8   5   14.49    6.55
  -6  -8   5   14.86   11.87
  -6  -8   6   12.66   11.97
   6   8   6   11.73    7.62
   6   8   7   28.21   12.32
   6  -8 -14   26.19   15.11
   6  -8 -15   38.20   18.00
  -6  -8  15   25.88   14.43
   6  -8 -16   22.40   19.54
  -6  -8  16   22.37   13.38
  -6   9  16   17.06   14.15
  -6   9  15    9.96   14.26
   6   9 -15  -12.14   11.78
  -6   9  14   61.62   19.11
   6   9 -14   47.89   15.03
  -6   9  13  -10.46   12.62
   6   9 -13   23.40   12.49
  -6   9  12    8.29   11.33
   6   9 -12   -3.08   10.01
  -6   9  11    0.17   11.89
   6   9 -11    1.31    9.39
  -6   9  10   21.79   15.02
   6   9 -10    9.70   11.51
   6   9  -9   13.60   10.55
  -6   9   9   36.58   15.18
   6   9  -8   18.62   12.17
  -6  -9  -8  -15.22    9.81
  -6   9   8    9.12   11.01
   6   9  -7   -5.67    9.08
  -6  -9  -7    5.18    8.12
  -6   9   7  -10.04   11.51
   6   9  -6    2.75   10.79
  -6  -9  -6   -0.11    9.84
  -6   9   6    4.29    8.88
   6   9  -5    4.32   11.44
  -6  -9  -5   -3.57    7.83
  -6   9   5   13.61   10.25
   6   9  -4   51.54   16.07
  -6   9   4   55.44   14.99
  -6  -9  -3    0.71    8.47
   6   9  -3    7.62    7.39
  -6   9   3   10.65    8.99
  -6  -9  -2    6.04   11.39
   6   9  -2   32.07   11.22
  -6   9   2   45.87   13.56
  -6  -9  -1    7.90   10.80
   6   9  -1    4.01    8.77
  -6   9   1   13.22    9.88
  -6  -9   0    1.52    8.27
   6   9   0    3.00    8.18
  -6   9   0   -1.88    6.77
   6   9   1    7.56    7.86
  -6  -9   1   -5.41   10.06
  -6   9  -1    4.74    6.66
   6   9   2   30.14    9.71
  -6  -9   2   15.73   10.94
   6   9   3    4.88    8.31
  -6  -9   3    9.52   11.77
  -6  -9   4   43.52   14.33
   6   9   4   45.85   12.29
   6   9   5   -3.95    8.06
  -6  -9   5    1.95    8.27
   6   9   6   -1.50    6.66
  -6  -9   6    4.31   11.21
   6   9   7    4.78    6.96
   6   9   8   -1.97    8.08
  -6  -9  16   -7.29   11.63
  -6  10  15   20.15   14.23
  -6  10  14   17.29   13.21
   6  10 -14   13.98   11.28
  -6  10  13  -28.29   15.29
   6  10 -13    9.34   11.77
  -6  10  12   -3.02   11.13
   6  10 -12   -9.61   11.60
  -6  10  11   39.25   15.11
   6  10 -11   40.74   13.51
  -6  10  10  -14.37   12.74
   6  10 -10   -0.58    9.31
  -6  10   9   24.55   13.06
   6  10  -9   21.78   11.74
   6  10  -8   39.85   14.37
  -6 -10  -8   23.09   13.24
  -6  10   8   56.74   17.00
  -6  10   7    1.73    9.55
   6  10  -7  -15.57   12.02
  -6 -10  -7   14.41   11.73
  -6  10   6    1.91    9.96
   6  10  -6  -18.13   11.76
  -6 -10  -6    8.26    9.67
   6  10  -5   55.38   14.76
  -6 -10  -5   38.30   13.81
  -6  10   5   71.57   16.61
  -6  10   4   -9.82    8.59
   6  10  -4   26.94   13.24
  -6  10   3   21.28    9.47
  -6 -10  -3   10.11    9.23
   6  10  -3    0.19    8.56
  -6 -10  -2  -10.59   11.17
   6  10  -2   -3.44    9.55
  -6  10   1   15.00    8.17
  -6 -10  -1   -3.85    9.66
   6  10  -1   11.54    8.00
  -6  10   0    8.14    8.63
  -6 -10   0   15.62   13.74
   6  10   0   -1.56    7.71
   6  10   1   12.75    9.11
  -6 -10   1   -0.08    8.91
   6  10   2    5.82    8.12
  -6 -10   2    9.77    8.39
   6  10   3    3.35    7.87
  -6 -10   3   23.30   13.83
  -6 -10   4    3.97    9.01
   6  10   4   14.47    9.22
  -6 -10   5   43.85   13.78
   6  10   5   58.34   13.12
   6  10   6    0.22    7.21
  -6 -10   6   -3.16   10.68
   6  10   7    4.33    6.10
   6  10   8   85.90   17.01
  -6  11  14    7.17   12.52
   6  11 -13   12.25   13.13
  -6  11  13    3.21   11.42
   6  11 -12    0.64   12.14
  -6  11  12  -12.16   12.99
   6  11 -11   74.93   18.11
  -6  11  11   84.76   22.16
  -6  11  10   -2.16   11.10
   6  11 -10   -2.12   11.10
  -6  11   9   14.72   13.17
   6  11  -9   -3.62    8.72
  -6  11   8    0.77   11.06
   6  11  -8    4.92   11.06
  -6 -11  -8    6.41    9.60
  -6  11   7    9.28   10.21
   6  11  -7   10.16    9.96
  -6 -11  -7   11.79   10.42
  -6  11   6  -10.43   10.24
   6  11  -6    7.29    9.81
  -6 -11  -6    3.60    8.84
  -6  11   5   12.30    9.24
   6  11  -5   -2.60   11.76
  -6 -11  -5   -5.22   10.77
  -6  11   4   13.49   10.10
   6  11  -4   -2.35    8.92
  -6 -11  -4   -4.98    9.57
  -6  11   3   35.56   12.92
  -6 -11  -3    1.44    9.98
   6  11  -3   33.27   12.48
  -6  11   2   22.32   10.86
  -6 -11  -2   29.68   14.37
   6  11  -2    8.94    8.80
  -6 -11  -1   51.31   19.23
   6  11  -1   38.60   12.01
  -6  11   1   65.88   12.93
  -6 -11   0   -0.75   10.11
   6  11   0   -3.61    8.17
  -6 -11   1   23.00   12.37
   6  11   1   52.24   13.71
   6  11   2   18.92    9.26
  -6 -11   2    8.56   11.40
   6  11   3   26.81    9.11
  -6 -11   3   21.03   14.28
   6  11   4   20.28   10.90
  -6 -11   4   -6.10    7.72
  -6 -11   5   10.97   10.48
   6  11   5    2.24    8.18
   6  11   6    7.55    7.15
  -6 -11   6    3.45   10.55
  -6 -11   7  -13.81   11.52
   6  11   7   29.02    9.75
  -6  12  14   22.21   18.03
  -6  12  13   -6.44   13.57
  -6  12  12   -3.35   11.17
   6  12 -12   19.02   11.15
   6  12 -11   29.82   15.44
  -6  12  11   36.91   15.93
   6  12 -10   24.73   13.72
  -6  12  10    6.03   10.28
   6  12  -9    9.75    9.63
  -6  12   9   14.25   11.94
   6  12  -8   17.33    9.69
  -6  12   8   31.58   13.66
  -6 -12  -8   15.28   12.30
  -6  12   7   17.27   11.98
   6  12  -7    7.36   10.56
  -6 -12  -7   -7.14   11.52
  -6  12   6    0.25    9.17
   6  12  -6   24.59   13.87
  -6 -12  -6   -2.55   11.80
  -6  12   5   13.82   10.58
   6  12  -5   23.02   12.24
  -6 -12  -5   19.46   11.62
  -6  12   4   27.36   11.74
   6  12  -4   21.05   12.74
  -6 -12  -4   23.32   13.23
  -6  12   3   -0.15    8.54
   6  12  -3   12.08    9.80
  -6 -12  -3    5.97    8.81
  -6  12   2   32.97   11.53
   6  12  -2   25.02   10.85
  -6 -12  -2   11.46   10.48
  -6 -12  -1   -0.53   12.22
   6  12  -1   12.68    9.37
  -6 -12   0   12.14   12.81
   6  12   0    3.86    8.59
  -6 -12   1    8.36   10.85
   6  12   1   12.09    8.79
   6  12   2   33.10   12.15
  -6 -12   2   15.65   12.47
   6  12   3   -1.70    7.92
  -6 -12   3   -2.70    8.04
   6  12   4   18.86    9.98
  -6 -12   4    0.69    8.55
  -6 -12   5   16.96   12.48
   6  12   5   24.46   10.04
   6  12   6   41.06   14.36
  -6 -12   6   12.02   11.76
  -6 -12   7   -4.16   10.14
  -6  13  13    8.47   11.64
  -6  13  12   13.74   13.92
  -6  13  11   11.82   14.04
   6  13 -11   27.71   13.66
  -6  13  10   16.37   11.63
   6  13 -10  -12.36    9.22
   6  13  -9   17.43   12.37
  -6  13   9   23.32   12.98
   6  13  -8    8.55    9.12
  -6  13   8   20.62   12.36
  -6 -13  -8    9.57   12.57
   6  13  -7  -13.15   11.79
  -6  13   7    9.16   10.51
  -6 -13  -7   -5.31   11.56
   6  13  -6    8.39    8.89
  -6  13   6   12.01   10.45
  -6 -13  -6   -5.50   11.48
  -6  13   5    2.31    7.84
   6  13  -5    0.56    8.74
  -6 -13  -5   -3.89   10.95
  -6  13   4   -0.14    7.40
   6  13  -4    2.22   10.15
  -6 -13  -4    2.15   11.23
   6  13  -3   16.06    9.89
  -6 -13  -3   -7.50    9.89
   6  13  -2   30.76   12.15
  -6 -13  -2   -7.42   10.66
  -6 -13  -1    5.39   10.85
   6  13  -1    6.29    7.62
  -6 -13   0   -2.06   12.26
   6  13   0   -5.76    8.63
  -6 -13   1    8.83    9.69
   6  13   1    6.31    8.58
  -6 -13   2    3.16    9.63
   6  13   2   16.26    7.87
   6  13   3    9.59    7.43
  -6 -13   3   10.13   12.32
   6  13   4  -10.74   10.15
  -6 -13   4  -13.06    9.15
   6  13   5   46.56   14.16
  -6 -13   5  -12.64   11.57
  -6 -13   6   23.00   14.54
  -6 -13   7   -1.65   10.92
  -6  14  12    4.77   10.15
  -6  14  11   27.52   13.45
  -6  14  10   16.45   11.02
   6  14 -10    7.07    8.96
  -6  14   9    2.18   10.86
   6  14  -9   23.99   12.73
   6  14  -8   -6.00   10.96
  -6  14   8    7.59    9.27
  -6 -14  -8   12.39   11.37
   6  14  -7   19.75   11.96
  -6  14   7    9.94   10.19
  -6 -14  -7   18.19   12.07
   6  14  -6   23.44   12.41
  -6  14   6   18.85   11.11
  -6 -14  -6   -1.74    8.66
   6  14  -5   33.99   11.97
  -6  14   5   16.90    9.69
  -6 -14  -5   16.83   13.53
   6  14  -4   30.59   13.11
  -6 -14  -4    1.98   10.75
   6  14  -3   17.87   10.52
  -6 -14  -3    9.73   11.49
   6  14  -2   42.23   14.58
  -6 -14  -2    9.10   10.58
   6  14  -1    0.70    8.67
  -6 -14  -1    1.32   11.25
  -6 -14   0   16.19   11.92
   6  14   0   14.54   10.00
  -6 -14   1   22.48   13.30
   6  14   1  -11.94    8.93
  -6 -14   2   15.33   11.75
   6  14   2   14.96    8.79
   6  14   3   10.66    9.58
  -6 -14   3    9.14    9.99
  -6 -14   4   13.96   10.61
  -6 -14   5   11.26   13.44
  -6 -14   6  -14.97   12.72
  -6 -14   7    9.06   10.56
  -6  15  11   16.44   14.21
  -6  15  10    8.38   11.43
  -6  15   9    4.05   12.27
   6  15  -9   17.89   10.60
  -6  15   8   14.57   12.89
  -6 -15  -8   -8.66   11.86
   6  15  -8   16.03   11.85
   6  15  -7   -1.19   11.15
  -6  15   7   19.19   12.03
  -6 -15  -7   14.57   11.16
   6  15  -6    4.74    9.24
  -6 -15  -6   35.10   15.86
   6  15  -5    8.31    9.99
  -6 -15  -5    6.38   10.31
   6  15  -4   25.49   12.48
  -6 -15  -4    3.38   11.47
   6  15  -3    6.48   10.09
  -6 -15  -3    0.72   12.12
   6  15  -2    8.39    8.38
  -6 -15  -2   -1.90   10.54
   6  15  -1    0.38    9.00
  -6 -15  -1   -8.72   12.73
  -6 -15   0   -4.20   11.45
   6  15   0   -1.41    9.66
  -6 -15   1   12.48   11.99
   6  15   1   -2.71    7.33
  -6 -15   2   -9.47   11.61
   6  15   2   16.59   10.16
  -6 -15   3  -19.14   12.89
  -6 -15   4   10.48   10.83
  -6 -15   5   -3.75   11.83
  -6 -15   6   19.58   11.93
  -6 -15   7    0.73   10.40
  -6  16  10    4.64   11.92
  -6  16   9   30.58   13.93
  -6  16   8   24.67   13.66
   6  16  -8   21.62   12.02
   6  16  -7   31.07   13.68
   6  16  -6   -4.07    9.04
   6  16  -5   18.20   10.80
  -6 -16  -5    7.38   10.64
   6  16  -4   10.25   10.56
   6  16  -3   26.44   13.26
  -6 -16  -3   24.34   12.34
   6  16  -2   -7.20    9.62
  -6 -16  -2   -2.22   13.56
   6  16  -1   10.28    8.73
  -6 -16  -1   22.01   14.95
   6  16   0   10.97    9.70
  -6 -16   0  -16.22   15.50
  -6 -16   1    9.81   10.83
   6  16   1    6.27    8.25
  -6 -16   2    4.71   12.40
  -6 -16   3    2.71    9.98
  -6 -16   4   17.98   11.51
  -6 -16   5    4.74   12.47
  -6 -16   6    2.52    9.12
  -6 -16   7   21.58   15.46
   6  17  -6   -0.33    8.95
   6  17  -5   16.57   12.54
   6  17  -4   12.73    9.64
   6  17  -3    5.20   10.87
   6  17  -2    1.40    9.49
   6  17  -1   11.74    8.53
  -6 -17  -1   13.77   15.09
   6  17   0   12.60   10.93
  -6 -17   0    1.85   12.29
  -6 -17   1   11.12   13.77
  -6 -17   2    1.71   12.13
  -6 -17   3    7.88   11.38
  -6 -17   4    5.94    9.82
  -6 -17   5   -8.88   11.89
   6  18  -5   -5.39   10.53
   6  18  -3  -15.07   11.61
   6  18  -2   -6.75    8.81
   7   0   0   -0.29   11.20
   7   0  -1   26.80   14.29
  -7   0  -1   40.75   17.18
   7   0   1   71.19   20.79
  -7   0  -2   33.43   14.69
   7   0  -2   46.63   15.10
  -7   0  -3   13.65   10.83
   7   0  -3    1.17    9.06
   7   0  -4   47.23   13.67
  -7   0  -4   11.67   10.25
  -7   0  -5   24.45   12.92
  -7   0   5   13.39   11.68
   7   0  -5   40.97   15.10
   7   0  -6   45.33   17.22
  -7   0  -6   15.80   10.01
  -7   0   6   28.35   14.25
  -7   0  -7    2.80   10.56
  -7   0   7   23.48   12.21
   7   0  -7    2.60   12.18
  -7   0  -8  100.36   20.07
   7   0  -8  121.17   25.84
  -7   0  -9   30.27   14.53
  -7   0   9   -2.43   11.82
   7   0  -9   41.59   19.02
   7   0 -10  118.36   24.07
  -7   0 -10   66.25   18.10
  -7   0  10   78.17   19.31
  -7   0 -11    6.74   12.07
   7   0 -11    9.44   13.49
  -7   0  11   -4.84   10.26
  -7   0 -12   43.16   14.90
  -7   0  12   20.21   14.49
   7   0 -13   35.63   19.37
  -7   0  13  -20.50   14.46
   7   0 -14    5.05   11.53
  -7   0  14   -1.10   14.65
   7   0 -15   22.85   13.62
  -7   0  15    7.24   13.12
   7   0 -16   27.20   16.00
   7   1 -15   19.10   16.01
  -7   1  15   35.16   19.57
   7   1 -14   34.73   17.97
  -7   1  14   31.47   19.13
  -7  -1 -13   -4.07   11.31
   7   1 -13  -13.04   15.35
  -7   1  13   -0.92   11.62
  -7  -1 -12   46.99   17.15
   7   1 -12   68.77   18.26
  -7   1  12   48.98   17.61
  -7  -1 -11   -4.85   13.25
   7   1 -11   34.20   15.03
  -7   1  11  -10.62   15.70
  -7  -1 -10   15.71   14.08
   7   1 -10   53.44   17.27
  -7   1  10   37.65   14.45
  -7  -1  -9   33.05   14.00
   7   1  -9   37.29   14.96
  -7   1   9   -1.16   10.16
  -7  -1  -8   43.65   17.62
   7   1  -8   58.70   18.34
  -7   1   8   76.12   18.40
  -7  -1  -7    1.38   10.83
  -7   1   7   12.11   14.17
   7   1  -7    7.08   11.21
  -7  -1  -6   43.89   17.39
  -7   1   6   43.12   16.90
   7   1  -6   54.01   19.08
  -7  -1  -5    9.41   10.52
  -7   1   5   26.69   12.01
   7   1  -5   28.52   15.80
   7   1  -4   22.43   10.84
  -7  -1  -4   29.76   12.63
  -7   1   4   17.12   12.23
   7   1  -3  -10.35    8.80
  -7  -1  -3   21.34   11.93
  -7   1   3   -1.31   10.84
  -7  -1  -2   14.30   11.91
   7   1  -2   32.44   12.80
  -7  -1  -1   30.78   13.37
   7   1  -1   34.23   12.72
   7   1   0   31.55   14.98
   7  -1   0    3.15   12.71
  -7  -1   0   29.98   15.42
   7  -1  -1   23.32   14.83
   7   1   1   38.22   17.39
  -7   1  -2   45.58   16.28
   7  -1  -2   21.88   15.12
   7   1   2   19.24   13.27
   7  -1  -3    8.26   11.23
  -7   1  -3    5.82   12.19
  -7   1  -4   39.18   16.69
   7  -1  -4   32.42   13.24
  -7   1  -5   29.62   11.32
   7  -1  -5   12.21   12.11
   7  -1  -6   23.55   13.28
  -7   1  -6   42.93   14.55
   7  -1  -7   23.70   12.32
  -7   1  -7    6.48    9.86
  -7  -1   7   10.30    9.66
  -7   1  -8   80.75   19.50
   7  -1  -8  122.75   24.56
  -7  -1   8   60.66   16.41
   7  -1  -9    8.38   15.40
  -7   1  -9    7.73    9.70
  -7  -1   9    9.42   12.64
  -7   1 -10   48.02   16.87
   7  -1 -10   96.19   23.80
  -7  -1  10   45.05   16.16
  -7   1 -11   17.00   12.71
  -7  -1  11   -4.32   12.88
   7  -1 -11    6.06   13.12
  -7  -1  12   54.70   16.52
   7  -1 -12   30.56   15.51
   7  -1 -13    0.28   14.13
  -7  -1  13   -2.29   10.82
   7  -1 -14    1.96   13.40
  -7  -1  14    8.53   12.13
   7  -1 -15   13.95   13.43
   7  -1 -16   48.39   20.53
   7   2 -15   17.84   16.12
   7   2 -14    7.86   12.76
  -7   2  14    3.10   14.22
   7   2 -13   26.08   12.52
  -7   2  13    0.08   12.62
   7   2 -12   25.75   16.04
  -7   2  12   41.31   20.15
   7   2 -11   33.44   15.67
  -7  -2 -11    8.36   10.50
  -7   2  11   36.00   14.59
   7   2 -10    3.03   10.38
  -7  -2 -10   -0.69    9.94
  -7   2  10   -7.39   11.77
   7   2  -9   27.27   13.96
  -7  -2  -9   36.30   14.87
  -7   2   9    8.66   13.67
  -7  -2  -8   14.15   13.03
   7   2  -8   43.43   16.24
  -7   2   8   15.78   14.48
  -7  -2  -7    4.59   11.45
   7   2  -7   21.28   13.60
  -7   2   7   16.46   11.79
  -7  -2  -6    9.76   11.65
   7   2  -6   43.83   16.84
  -7   2   6   25.25   15.38
  -7  -2  -5   30.44   14.32
  -7   2   5   31.03   15.56
   7   2  -5   28.59   13.16
  -7  -2  -4   16.05   11.13
  -7   2   4   35.37   14.33
   7   2  -4   27.62   16.04
   7   2  -3   36.03   15.47
  -7  -2  -3   52.00   15.23
  -7   2   3    7.96   12.49
   7   2  -2    6.98    7.70
  -7  -2  -2   19.85   13.00
  -7   2   2    1.32   11.72
  -7  -2  -1  102.92   22.89
   7   2  -1   88.54   18.32
  -7  -2   0    6.37    9.68
   7   2   0   14.36    8.66
  -7  -2   1   94.90   21.39
   7   2   1   85.64   19.19
   7  -2  -2   10.13   12.65
   7   2   2   10.77   12.72
   7   2   3   46.10   16.62
   7  -2  -3   14.53   15.73
   7  -2  -4   39.35   16.06
  -7   2  -4   45.82   15.48
   7  -2  -5   21.43   11.45
  -7   2  -5   14.61   10.59
  -7   2  -6   23.28   12.16
   7  -2  -6   41.99   15.83
  -7   2  -7   -7.89    8.25
   7  -2  -7   12.03   10.91
   7  -2  -8   40.76   14.78
  -7  -2   8   19.84   13.82
   7  -2  -9   50.27   15.22
  -7   2  -9   22.53   11.12
  -7  -2   9   15.83   11.74
   7  -2 -10   21.61   14.69
  -7   2 -10   24.73   13.07
  -7  -2  10   17.39   12.61
   7  -2 -11   -6.59   11.90
  -7  -2  11   -0.15   10.43
   7  -2 -12   73.61   21.53
  -7  -2  12   23.02   15.95
  -7  -2  13   14.63   13.57
   7  -2 -13    8.29   15.03
  -7  -2  14   11.31   12.53
   7  -2 -14   33.14   20.05
   7  -2 -15   32.60   19.12
   7  -2 -16   28.91   19.72
   7   3 -15   34.84   17.19
   7   3 -14   -5.55   11.85
  -7   3  14    5.38   12.05
   7   3 -13    5.85   14.80
  -7   3  13   24.23   16.19
   7   3 -12    6.12   13.63
  -7   3  12   25.35   17.95
   7   3 -11   26.03   15.99
  -7   3  11   -0.09   13.11
   7   3 -10   25.45   13.26
  -7  -3 -10    9.80   12.31
  -7   3  10   35.41   15.30
   7   3  -9   23.39   14.64
  -7  -3  -9   17.97   12.43
  -7   3   9   23.57   15.29
   7   3  -8   22.89   14.21
  -7  -3  -8   20.41   13.33
  -7   3   8  -13.42   13.01
   7   3  -7   -4.74    9.86
  -7  -3  -7    2.84   10.80
  -7   3   7    6.74   11.80
  -7  -3  -6   -7.27   11.03
   7   3  -6   -2.18   11.05
  -7   3   6   -8.23   11.83
  -7  -3  -5   18.36   12.56
   7   3  -5   31.65   12.26
  -7   3   5   51.84   14.68
  -7  -3  -4   -2.40   10.50
   7   3  -4    2.23   11.63
  -7   3   4   -2.43   10.94
  -7  -3  -3   13.24   13.10
  -7   3   3   32.24   12.34
   7   3  -3   38.45   16.98
   7   3  -2   11.76   11.66
  -7  -3  -2   21.45   12.36
  -7   3   2    0.76    9.20
  -7  -3  -1   40.68   15.67
  -7   3   1   91.77   18.41
   7   3  -1   63.44   16.03
   7   3   0   -4.63    9.31
  -7  -3   0   12.04   11.81
  -7   3   0   -2.75    9.65
  -7  -3   1   68.17   21.92
  -7   3  -1   85.00   17.32
   7   3   1   61.19   14.89
   7   3   2   12.77   11.86
  -7  -3   2   27.47   12.71
  -7   3  -2    6.53    9.14
   7  -3  -2    4.73   14.35
   7  -3  -3   25.49   17.05
  -7   3  -3   31.53   11.67
   7   3   3   56.60   18.56
   7  -3  -4    8.42   12.93
   7   3   4    2.39   10.35
  -7   3  -5   48.02   14.98
   7  -3  -5   20.21   12.15
   7  -3  -6    8.54   13.01
  -7   3  -6   11.17   10.64
   7  -3  -7   12.68   12.13
  -7   3  -7   14.22   10.61
  -7   3  -8   19.81   10.54
   7  -3  -8   -0.98   11.33
   7  -3  -9    3.45   11.45
   7  -3 -10   37.71   15.56
  -7  -3  10    4.76   11.38
   7  -3 -11    8.95   12.57
  -7  -3  11   11.80   11.73
   7  -3 -12   15.81   13.38
  -7  -3  12   15.14   14.16
   7  -3 -13   29.02   12.07
  -7  -3  13   28.41   16.00
   7  -3 -14   23.39   18.94
  -7  -3  14    7.89   11.92
   7  -3 -15    4.14   13.96
   7  -3 -16   -8.81   14.97
  -7   4  14   -9.67   12.60
   7   4 -14   24.42   17.89
  -7   4  13   14.71   15.46
   7   4 -13   -5.70   15.16
   7   4 -12    9.93   11.55
  -7   4  12   12.37   14.55
   7   4 -11  -12.07   13.69
  -7   4  11   -0.15   11.60
   7   4 -10   36.72   15.86
  -7   4  10   20.33   14.12
   7   4  -9   10.05   11.78
  -7  -4  -9   -0.48   11.43
  -7   4   9    4.60   13.21
   7   4  -8   14.15   12.76
  -7  -4  -8    5.40   10.25
  -7   4   8   -9.54   13.23
   7   4  -7    8.48   11.21
  -7  -4  -7   15.68   12.97
  -7   4   7   17.43   15.35
   7   4  -6   14.13   12.57
  -7  -4  -6    2.20   13.47
  -7   4   6   -1.88   11.30
   7   4  -5   20.12   11.84
  -7  -4  -5    5.19   10.18
  -7  -4  -4    6.91   10.46
   7   4  -4    1.64   11.34
  -7   4   4  -17.00   12.68
  -7  -4  -3   41.89   14.03
   7   4  -3   26.58   12.50
  -7  -4  -2   18.45   11.70
  -7   4   2   18.55   11.71
   7   4  -2   26.20   11.63
   7   4  -1   12.51    9.98
  -7  -4  -1   18.05   11.70
  -7   4   1  -14.51   10.09
   7   4   0   23.94   10.42
  -7  -4   0   25.22   12.04
  -7   4   0    3.00    8.82
   7   4   1   12.94    9.90
  -7  -4   1   12.13   10.14
  -7   4  -1  -10.66    9.50
  -7  -4   2   19.24   12.32
  -7   4  -2   16.83   11.76
   7   4   2   21.65   10.93
   7   4   3   13.01    9.35
  -7   4  -3    4.53    8.37
   7   4   4   -4.02   11.41
   7  -4  -4  -15.83   16.81
   7  -4  -5   20.77   17.95
   7   4   5   20.96   11.89
   7  -4  -6  -28.98   21.11
  -7   4  -7    8.17   10.02
   7  -4  -7   -5.29   14.15
   7  -4  -8   14.57   14.17
   7  -4  -9    6.28   11.37
   7  -4 -10   45.31   18.45
  -7  -4  11   -3.33   11.05
   7  -4 -11   16.97   14.26
   7  -4 -12   12.71   13.03
  -7  -4  12   18.76   14.77
   7  -4 -13   15.83   14.16
  -7  -4  13  -10.40   15.47
   7  -4 -14   29.39   15.73
  -7  -4  14  -10.30   15.66
   7  -4 -15   34.90   13.88
   7  -4 -16    8.37   13.53
   7   5 -14   37.47   19.23
  -7   5  14   42.99   18.77
   7   5 -13   41.45   17.46
  -7   5  13   12.33   14.41
   7   5 -12   12.92   12.70
  -7   5  12   38.94   17.93
  -7  -5 -11   11.95   10.65
  -7   5  11    0.74   12.98
   7   5 -11   16.10   13.70
  -7   5  10   28.78   15.94
   7   5 -10   16.12   12.81
   7   5  -9   20.25   13.59
  -7  -5  -9    8.45   11.25
  -7   5   9   17.90   16.19
   7   5  -8   11.80   12.19
  -7  -5  -8   -1.87    9.31
  -7   5   8   11.99   11.41
   7   5  -7   11.11   12.73
  -7  -5  -7   -4.03   11.26
  -7   5   7   38.73   16.93
   7   5  -6   28.56   13.81
  -7  -5  -6   12.62   12.09
  -7   5   6   31.74   14.54
   7   5  -5    6.03   10.77
  -7  -5  -5   -4.29   10.73
  -7   5   5   25.62   16.03
   7   5  -4   16.45   11.03
  -7  -5  -4   24.43   14.52
  -7   5   4   22.09   12.14
  -7  -5  -3   16.94   10.64
   7   5  -3   49.89   15.35
  -7   5   3   49.33   14.65
  -7  -5  -2   19.89   11.73
   7   5  -2   20.02   12.71
  -7   5   2   14.86   11.64
  -7  -5  -1   17.87   12.87
  -7   5   1   14.46   10.10
   7   5  -1    6.46   10.16
   7   5   0   28.33   14.08
  -7  -5   0   18.23    9.57
  -7   5   0   20.10   10.53
   7   5   1    8.39    7.98
  -7  -5   1   -6.82   11.18
  -7   5  -1   16.71    8.64
  -7  -5   2   18.17   14.81
   7   5   2   16.35    9.22
  -7   5  -2   11.99   10.13
  -7  -5   3   45.46   17.34
   7   5   3   22.23   10.16
   7   5   4   32.03   14.89
   7   5   5    4.14   13.88
   7  -5  -6   34.18   15.94
   7  -5  -7  -12.55   18.81
   7  -5  -8   -0.56   13.63
   7  -5  -9   12.89   16.23
   7  -5 -10   53.01   22.81
   7  -5 -11   -0.74   13.11
   7  -5 -12    0.41   14.03
  -7  -5  12   37.73   15.88
   7  -5 -13    5.89   11.65
  -7  -5  13    6.08   12.86
   7  -5 -14   45.20   18.28
   7  -5 -15    0.04   12.77
   7  -5 -16   12.78   13.70
  -7   6  14   -9.00   17.00
   7   6 -13   14.29   11.44
  -7   6  13   16.74   13.94
  -7  -6 -12    7.43    9.44
   7   6 -12    2.09   14.35
  -7   6  12    0.84   11.89
  -7  -6 -11   -1.19   11.32
   7   6 -11    2.86   11.74
  -7   6  11   -8.04   12.22
  -7  -6 -10    6.04   10.01
   7   6 -10   11.60   13.83
  -7   6  10   17.28   12.49
   7   6  -9   30.38   15.88
  -7   6   9   12.92   10.96
  -7  -6  -8   -1.84   10.32
  -7   6   8  -19.59   13.40
   7   6  -8    9.84   12.73
   7   6  -7   -4.56   10.36
  -7  -6  -7    7.80   10.95
  -7   6   7  -12.47   13.88
   7   6  -6   -3.30   10.32
  -7  -6  -6  -12.25   14.63
  -7   6   6   -1.74   13.69
   7   6  -5   -2.19   10.09
  -7   6   5    0.51   10.42
   7   6  -4    7.56   10.36
  -7  -6  -4   -3.39   11.93
  -7   6   4  -13.10   13.94
   7   6  -3   25.99   13.14
  -7  -6  -3    9.34   12.16
  -7   6   3   47.88   16.63
  -7  -6  -2   21.79   11.72
   7   6  -2    9.84   10.15
  -7   6   2   19.63   11.16
  -7  -6  -1   -0.49   10.14
   7   6  -1   11.12    9.86
  -7   6   1   24.45   11.48
  -7  -6   0   32.12   15.94
  -7   6   0   69.21   16.98
   7   6   0   41.09   13.75
   7   6   1   23.53   13.30
  -7  -6   1   19.42   12.69
  -7   6  -1    8.20    9.35
   7   6   2   25.95   11.36
  -7  -6   2   -1.24   10.73
  -7  -6   3   31.08   14.81
   7   6   3   11.35    9.48
   7   6   4    6.89    8.03
  -7  -6   4    2.04    9.43
   7   6   5   -1.29   11.20
   7   6   6   11.94   12.74
   7  -6  -8   15.65   15.66
   7  -6  -9   -6.40   19.32
   7  -6 -10   38.49   22.05
   7  -6 -11   27.26   18.92
   7  -6 -12    4.64   16.25
  -7  -6  13    8.86   13.01
   7  -6 -13   -6.36   18.70
   7  -6 -14    6.74   17.29
   7  -6 -15   40.23   18.05
   7  -6 -16   19.10   17.54
  -7  -7 -13   14.56   11.25
  -7   7  13  -15.32   14.73
  -7  -7 -12   21.82   13.63
   7   7 -12   10.30   13.13
  -7   7  12   26.45   15.92
  -7  -7 -11    6.52    9.51
   7   7 -11    5.81   11.56
  -7   7  11   11.73   15.13
  -7   7  10   65.22   22.17
   7   7 -10   84.86   21.12
   7   7  -9    3.42   12.70
  -7   7   9   -1.66   11.58
  -7  -7  -8    8.32   10.59
   7   7  -8   47.49   18.88
  -7   7   8   47.22   16.77
  -7  -7  -7   -2.89    9.50
   7   7  -7   -1.80   10.67
  -7  -7  -6   25.96   15.67
  -7   7   6   44.71   15.78
   7   7  -6   37.43   14.54
   7   7  -5   -9.36    9.77
  -7  -7  -5   21.35   18.32
  -7   7   5   -9.75   11.76
   7   7  -4   50.01   15.99
  -7  -7  -4   41.50   17.29
  -7   7   4   73.14   17.08
   7   7  -3   14.90    9.42
  -7  -7  -3    8.23   13.95
  -7   7   3   -5.67   10.46
   7   7  -2   38.04   14.47
  -7  -7  -2   10.33   11.00
  -7   7   2   37.80   12.80
  -7  -7  -1    1.43   10.85
   7   7  -1   10.54   11.18
  -7   7   1    8.29   10.24
   7   7   0   22.78   11.51
  -7   7   0   40.62   13.97
  -7  -7   1    4.67    8.50
   7   7   1   -2.29   12.17
   7   7   2   38.47   14.42
  -7  -7   2    2.84   11.09
   7   7   3  -12.55    9.63
  -7  -7   3    5.53   14.17
  -7  -7   4   19.25   12.95
   7   7   4   37.44   10.76
   7   7   5   14.80   11.22
   7   7   6   59.29   18.20
   7  -7 -12   23.14   16.78
   7  -7 -13   19.61   15.57
   7  -7 -14  -20.61   18.86
   7  -7 -15   44.14   24.90
   7  -7 -16   31.69   20.42
  -7  -8 -13   -5.48   10.66
  -7   8  13  -17.79   12.90
   7   8 -12   17.08   14.56
  -7   8  12   35.98   16.68
   7   8 -11   -5.76   12.79
  -7  -8 -11    6.52    9.76
  -7   8  11    5.42   12.32
  -7  -8 -10   -0.30    9.91
   7   8 -10    6.09   10.54
  -7   8  10    3.64   13.07
  -7  -8  -9    2.00    8.84
   7   8  -9   -6.65   11.03
  -7   8   9   19.98   13.26
   7   8  -8  -15.20   12.46
  -7   8   8    3.66   11.32
  -7  -8  -7   -8.46   10.87
   7   8  -7   11.76   13.88
  -7   8   7   -5.95   10.21
  -7  -8  -6  -10.43   10.15
   7   8  -6   -5.49   11.15
  -7  -8  -5   24.04   15.82
  -7   8   5    4.67   10.70
   7   8  -5    7.09    9.40
   7   8  -4   18.80   13.00
  -7  -8  -4   -1.23   13.25
  -7   8   4  -17.34   14.62
   7   8  -3   -3.42    9.45
  -7  -8  -3  -11.29   14.68
  -7   8   3    3.23   10.07
   7   8  -2   -4.50    9.25
  -7  -8  -2   -0.20   12.27
  -7   8   2    6.29   10.41
   7   8  -1    9.52   11.32
  -7  -8  -1    9.12    9.88
  -7   8   1    2.90    9.55
  -7  -8   0   21.10   14.03
   7   8   0   23.00   12.69
  -7  -8   1    8.43    8.55
   7   8   1    7.62    9.86
  -7  -8   2   -4.42    9.85
   7   8   2   -6.55   11.76
   7   8   3   -6.13    6.74
  -7  -8   3  -22.66   13.22
   7   8   4    7.80    7.95
  -7  -8   4   10.82   14.53
   7   8   5    2.55    7.98
   7   8   6   24.26   13.35
   7   8   7    6.73   10.06
  -7  -9 -13    1.85   10.37
  -7   9  12   20.41   14.06
  -7  -9 -12   13.20   13.46
  -7   9  11   15.84   12.84
   7   9 -11    4.27   10.94
  -7  -9 -11    2.91   11.99
   7   9 -10   -3.72   10.60
  -7  -9 -10   15.46   12.69
  -7   9  10   11.69   13.72
   7   9  -9   20.86   11.66
  -7  -9  -9   25.44   13.58
  -7   9   9   61.07   19.71
   7   9  -8   10.96    9.96
  -7   9   8   41.40   17.44
  -7  -9  -7  -11.30   14.29
   7   9  -7   -5.56   12.84
  -7   9   7    4.56   11.06
  -7  -9  -6    9.22   11.92
   7   9  -6   -0.21   10.26
  -7   9   6  -10.14   12.43
  -7  -9  -5   12.82   14.87
   7   9  -5   13.39   10.58
  -7   9   5   25.03   14.08
  -7  -9  -4   19.95   16.74
   7   9  -4    7.93   10.15
  -7   9   4   33.67   14.56
   7   9  -3   52.36   15.57
  -7   9   3   75.60   17.95
   7   9  -2   44.31   15.39
  -7  -9  -2    6.54   13.94
  -7   9   2   46.94   14.23
   7   9  -1   10.20   10.17
  -7  -9  -1   15.10   11.18
   7   9   0  -11.31    9.67
  -7  -9   0   10.67   12.15
  -7  -9   1    3.31   10.22
   7   9   1   -9.89   12.54
  -7  -9   2   25.65   15.10
   7   9   2   23.43   11.41
   7   9   3   55.60   15.38
  -7  -9   3   38.87   14.18
   7   9   4  -15.67   10.07
  -7  -9   4    2.38    9.95
  -7  -9   5    8.27   11.32
   7   9   5   18.68   10.41
   7   9   6   10.82    9.95
   7   9   7   10.51   10.15
  -7 -10 -13   10.21   12.36
  -7  10  12    6.54   13.52
  -7 -10 -12   12.16   12.30
  -7  10  11   12.96   12.20
  -7 -10 -11   14.92   12.82
  -7  10  10   14.18   13.63
   7  10 -10   18.18   13.59
  -7 -10 -10    2.92   10.36
  -7  10   9   -0.55   11.03
  -7 -10  -9   -9.71   10.17
  -7  10   8   20.76   13.73
   7  10  -8   13.85   11.68
  -7 -10  -8   21.11   13.82
  -7  10   7  -10.56   11.96
  -7 -10  -7    8.68   13.25
   7  10  -7   18.67   12.40
  -7  10   6   -0.19   10.79
  -7 -10  -6   -1.02   11.06
   7  10  -6    5.85   10.17
  -7  10   5    0.64    9.64
  -7 -10  -5   -0.99   11.68
   7  10  -5   -4.58   10.06
  -7  10   4   19.13   12.95
  -7 -10  -4   18.84   15.68
   7  10  -4   13.06   11.05
  -7 -10  -3   18.25   13.25
   7  10  -3    4.20    9.10
   7  10  -2    9.62   13.29
  -7 -10  -2    0.39   10.06
   7  10  -1    9.42   10.25
  -7 -10  -1    8.88   10.06
   7  10   0    1.31   10.02
  -7 -10   0   -3.84   13.21
   7  10   1   -7.01   10.19
  -7 -10   1    4.58   14.26
  -7 -10   2   -2.01    9.53
   7  10   2    4.17    9.62
   7  10   3   27.52   11.67
   7  10   4   14.52    7.88
  -7 -10   4   21.63   13.66
   7  10   5    4.34    6.78
  -7 -10   5   -5.36   11.47
   7  10   6    3.20    8.73
  -7 -11 -12  -15.21   13.25
  -7  11  11   24.63   15.10
  -7 -11 -11   11.14   13.63
  -7  11  10    8.27   12.17
  -7 -11 -10   22.57   13.15
  -7  11   9   13.71   11.67
   7  11  -9   24.34   13.82
  -7 -11  -9   -6.33   10.12
  -7  11   8    7.30   13.29
   7  11  -8    2.32   10.30
  -7 -11  -8   11.21   12.65
  -7  11   7   -1.83   11.79
  -7 -11  -7  -19.36   13.54
   7  11  -7    4.36    9.54
  -7  11   6   26.71   14.19
  -7 -11  -6   13.15   13.36
   7  11  -6   34.25   14.66
  -7  11   5   26.45   13.83
  -7 -11  -5   -3.95   12.69
   7  11  -5   26.94   13.92
  -7 -11  -4   10.08   12.51
   7  11  -4    3.02   10.16
  -7 -11  -3  -11.30   12.89
   7  11  -3  -22.28   13.46
   7  11  -2    0.73   10.11
  -7 -11  -2   17.45   13.77
   7  11  -1    8.52   11.74
  -7 -11  -1    0.73   10.70
   7  11   0    5.43    9.09
  -7 -11   0   22.12   13.16
   7  11   1  -14.07   11.60
  -7 -11   1   -2.70    9.57
  -7 -11   2   -8.15   10.55
   7  11   2   13.58    9.74
  -7 -11   3    1.34   10.24
   7  11   3    9.20    9.75
   7  11   4   -1.37    8.22
  -7 -11   4   15.84    9.52
   7  11   5   24.86   10.28
  -7 -11   5   24.92   17.65
  -7  12  11    8.73   12.27
  -7  12  10   27.63   14.67
  -7 -12 -10   19.98   14.91
  -7  12   9    2.36   11.12
  -7 -12  -9   12.79   12.75
  -7  12   8   16.45   11.60
   7  12  -8   -4.53   11.13
  -7 -12  -8    0.46    9.68
  -7  12   7    3.26    9.39
   7  12  -7   14.80   13.26
  -7  12   6   14.10   11.19
  -7 -12  -6    7.20   10.70
   7  12  -6   11.86   11.85
  -7 -12  -5    0.27   10.76
   7  12  -5   16.24   12.75
  -7 -12  -4  -23.88   14.80
   7  12  -4  -19.46   13.64
  -7 -12  -3   11.44   11.88
   7  12  -3   12.89   11.29
  -7 -12  -2   11.40   12.10
   7  12  -2    8.33   13.18
   7  12  -1   11.57   11.61
  -7 -12  -1   -2.87   11.97
   7  12   0   13.60   11.12
  -7 -12   0   12.25   15.05
   7  12   1  -18.44   10.92
  -7 -12   1   12.64   13.14
   7  12   2    1.80    9.52
  -7 -12   2    6.15   10.61
  -7 -12   3   -2.27    9.34
   7  12   3   25.45   13.51
  -7 -12   4  -11.77   12.32
   7  12   4    5.46   10.70
  -7 -12   5   -3.91   12.25
  -7 -12   6    8.70   14.72
  -7  13  10  -12.22   16.38
  -7  13   9   -0.44   12.56
  -7  13   8    1.32   12.18
   7  13  -6    0.08    9.75
   7  13  -5   12.85   11.88
  -7 -13  -4   -6.42   12.61
   7  13  -4   11.76   11.62
  -7 -13  -3    2.16   12.67
   7  13  -3    5.41    9.59
  -7 -13  -2   17.56   17.21
   7  13  -2   32.52   14.33
  -7 -13  -1    9.16   11.73
   7  13  -1   -1.33    8.84
   7  13   0    9.67   10.11
  -7 -13   0    8.11   11.52
   7  13   1   -1.21   10.63
  -7 -13   1   -9.05   13.73
   7  13   2   26.48   11.81
  -7 -13   2   25.43   14.63
  -7 -13   3   -5.19   10.29
   7  13   3   13.74   10.79
  -7 -13   4   -7.77   10.28
  -7 -13   5  -18.75   13.46
   7  14  -5    4.89   10.74
   7  14  -4   14.43   10.94
   7  14  -3   27.08   14.30
   7  14  -2   24.09   12.24
   7  14  -1   40.29   14.87
   7  14   0   -3.69   10.53
   7  14   1   26.11   12.82
   7  14   2   37.66   13.87
   7  15  -4   28.58   13.01
   7  15  -3    9.21   11.56
   7  15  -2  -11.41   12.76
   7  15  -1    5.01    9.92
   7  15   0    2.95   10.84
   7  16  -2  -24.96   14.83
   7  16  -1   -3.68   11.88
   8   0   0   24.88   16.40
   8   0  -1   22.94   14.12
   8   0  -2    8.51   14.42
   8   0  -3   34.17   18.99
  -8   0  -3    7.09   13.99
  -8   0   3    8.12   12.40
   8   0  -4   25.75   14.96
  -8   0  -4   -8.07   15.39
  -8   0   4   -0.19   13.04
  -8   0  -5   22.01   13.80
  -8   0   5  -23.34   15.83
   8   0  -5    0.81   11.51
  -8   0  -6    2.42   11.89
  -8   0   6    5.18   14.35
   8   0  -6   -7.09   12.27
  -8   0  -7   11.27   11.41
   8   0  -7   19.81   12.49
  -8   0   7  -13.72   15.05
   8   0  -8   -7.67   12.49
  -8   0  -8   -2.74    9.62
  -8   0   8    0.39   14.04
   8   0  -9   17.94   13.72
  -8   0  -9    5.22   12.35
  -8   0   9  -20.76   15.19
  -8   0  10    9.16   12.67
  -8  -1 -10   10.14   13.60
  -8   1  10   52.19   20.75
   8   1  -9   11.04   15.02
  -8  -1  -9   26.17   13.99
  -8   1   9    9.66   13.15
   8   1  -8   14.00   14.98
  -8  -1  -8    6.32   10.63
  -8   1   8   13.09   15.05
   8   1  -7   23.44   13.85
  -8  -1  -7   36.18   15.63
  -8   1   7   19.36   15.85
   8   1  -6   19.39   16.59
  -8  -1  -6    4.64   11.40
  -8   1   6    2.40   12.16
  -8  -1  -5    9.63   11.86
   8   1  -5    6.19   10.70
  -8   1   5   12.36   12.07
  -8  -1  -4   19.13   12.82
  -8   1   4   -5.59   12.36
   8   1  -4   -8.96   10.27
   8   1  -3   30.18   14.87
  -8   1   3   15.20   15.72
   8   1  -2   18.46   13.75
  -8  -1  -2    9.26   14.28
  -8   1   2   -0.58   10.51
  -8   1   1   -3.56   10.88
   8   1  -1    7.58   14.86
   8   1   0   -3.95   14.04
   8   1   1   10.51   17.18
   8  -1  -1   29.07   19.57
   8  -1  -2   -2.10   19.17
   8  -1  -3    1.99   16.78
   8  -1  -4   17.97   17.70
   8  -1  -5  -14.25   14.04
  -8   1  -5   -8.74   12.20
  -8  -1   5    2.92   12.63
   8  -1  -6    3.20   12.32
  -8   1  -6    1.88   11.38
  -8  -1   6   14.44   12.31
  -8   1  -7   17.02   13.09
  -8  -1   7  -23.03   16.92
   8  -1  -7   24.01   15.99
  -8  -1   8   -0.09   12.69
   8  -1  -8   -2.90   10.45
   8  -1  -9   25.19   15.34
  -8  -1   9   10.30   14.53
  -8  -1  10   19.83   15.93
  -8  -2 -11   13.73   12.88
  -8  -2 -10   34.39   17.89
  -8   2  10  -21.80   18.05
  -8  -2  -9   21.88   14.66
  -8   2   9   20.40   13.73
   8   2  -9   25.20   20.39
  -8  -2  -8   -2.86   11.80
  -8   2   8   19.69   14.14
   8   2  -8  -17.24   17.33
   8   2  -7   22.69   16.62
  -8  -2  -7   28.13   15.07
  -8   2   7   12.26   13.98
   8   2  -6    1.94   12.09
  -8  -2  -6   25.57   14.62
  -8   2   6  -12.43   13.94
   8   2  -5    0.97    9.46
  -8  -2  -5    4.70   10.98
  -8   2   5    2.84   10.84
   8   2  -4   -3.45   12.50
  -8  -2  -4   -6.09   11.64
  -8  -2  -3   22.65   11.83
   8   2  -3   40.26   14.88
  -8   2   3   47.40   18.86
   8   2  -2   30.69   12.95
  -8  -2  -2    7.84   16.04
  -8   2   2    2.91   13.14
   8   2  -1   14.15   12.65
  -8  -2  -1   17.42   14.01
  -8   2   1   23.77   13.39
  -8   2   0   17.29   15.13
   8   2   0   19.93   14.16
   8   2   1   24.88   17.84
  -8   2  -1    1.13   12.83
  -8   2  -2   19.11   12.02
   8   2   2   37.28   16.69
   8  -2  -3   56.99   23.86
   8  -2  -4   28.10   18.65
   8  -2  -5    7.58   16.13
  -8   2  -6   14.47   12.39
   8  -2  -6   21.58   18.18
   8  -2  -7   31.16   16.38
  -8  -2   7   45.63   16.38
   8  -2  -8  -13.58   15.06
  -8  -2   8  -14.39   11.60
  -8  -2   9    1.46   12.60
   8  -2  -9   -9.09   16.22
  -8  -2  10  -24.90   18.32
  -8  -3 -12  -17.80   16.91
  -8  -3 -11   26.78   16.20
  -8  -3 -10    7.64   14.93
  -8   3  10   25.85   20.70
  -8  -3  -9   -5.46   11.20
  -8   3   9   12.89   16.37
  -8  -3  -8   18.20   14.53
   8   3  -8   10.38   13.53
  -8   3   8   24.32   14.72
  -8  -3  -7   18.63   15.82
  -8   3   7  -26.68   16.83
   8   3  -7    6.92   13.32
  -8  -3  -6    2.40   10.75
  -8   3   6   34.78   15.94
   8   3  -6   33.00   19.55
   8   3  -5   25.65   15.64
  -8  -3  -5    8.19   11.83
  -8   3   5   10.53   12.52
   8   3  -4    6.02   10.79
  -8  -3  -4    4.19    9.10
  -8   3   4   -4.79   10.60
   8   3  -3   12.66   10.71
  -8  -3  -3   -7.22   11.38
  -8   3   3   -4.26   10.85
  -8  -3  -2   14.95   13.49
   8   3  -2  -21.50   12.55
  -8   3   2   -8.37   10.79
  -8  -3  -1   13.95   18.00
  -8   3   1  -11.40   11.00
   8   3  -1   24.11   12.97
   8   3   0   15.06   11.17
  -8  -3   0   18.95   14.74
  -8   3   0   14.52   12.07
  -8   3  -1   -1.70   10.98
   8   3   1   41.29   18.92
   8   3   2   21.86   13.70
   8  -3  -4   30.44   19.53
   8  -3  -5   24.78   18.90
   8  -3  -6   50.82   24.33
   8  -3  -7   12.99   19.54
  -8  -3   8    5.51   12.79
   8  -3  -8   28.98   21.04
   8  -3  -9    1.03   14.80
  -8  -3   9    6.57   13.93
  -8  -4 -13    0.89   13.70
  -8  -4 -12   -5.21   14.73
  -8  -4 -11   -4.81   13.04
  -8  -4 -10    6.59   12.94
  -8   4  10    5.83   13.96
  -8  -4  -9  -20.25   15.98
  -8   4   9  -25.14   20.68
  -8  -4  -8    7.87   12.09
   8   4  -8   23.19   16.59
  -8   4   8   -7.75   15.25
  -8  -4  -7   -3.66   13.29
   8   4  -7   -2.87   12.91
  -8   4   7   15.33   15.16
  -8  -4  -6  -16.30   12.81
   8   4  -6   29.72   17.26
  -8   4   6   16.45   13.52
  -8  -4  -5   22.69   15.18
  -8   4   5   36.29   18.15
   8   4  -5   43.09   20.72
   8   4  -4    5.61   12.18
  -8  -4  -4    7.25   10.54
  -8   4   4   -5.83   11.25
   8   4  -3   -1.25   10.02
  -8  -4  -3    2.04   10.08
  -8   4   3  -10.85   12.84
   8   4  -2   14.58   11.58
  -8  -4  -2   -0.58   10.77
  -8   4   2    9.78   11.46
  -8  -4  -1   34.76   17.07
   8   4  -1   16.78   10.70
  -8   4   1   30.10   14.69
  -8  -4   0   22.12   17.13
   8   4   0   13.22    9.95
   8   4   1   20.57   13.72
  -8  -4   1    8.72   13.38
   8   4   2   31.57   17.68
   8   4   3    0.19   13.60
   8  -4  -6   12.15   18.76
   8  -4  -7   -1.74   17.43
   8  -4  -8   42.74   23.32
   8  -4  -9   17.69   18.79
  -8  -4   9   -1.30   12.97
  -8  -5 -11   25.20   15.82
  -8  -5 -10   -8.94   15.78
  -8   5  10   38.54   18.43
  -8  -5  -9   16.11   16.33
  -8   5   9  -13.30   15.50
  -8  -5  -8   37.05   18.92
  -8   5   8  -15.41   14.51
  -8  -5  -7   15.26   15.04
   8   5  -7   -4.58   12.52
  -8   5   7  -14.59   12.55
  -8  -5  -6    2.16   11.57
   8   5  -6   -1.49   12.05
  -8   5   6    0.40   13.50
  -8  -5  -5   18.36   11.36
   8   5  -5   16.98   13.78
  -8   5   5   20.72   15.24
  -8  -5  -4   -6.77   15.59
  -8   5   4    0.22   15.12
   8   5  -4   16.99   17.73
   8   5  -3   13.75   15.31
  -8  -5  -3    3.95   12.13
  -8   5   3    2.42   14.97
   8   5  -2   32.17   16.61
  -8  -5  -2   32.08   13.65
  -8   5   2   27.42   15.10
   8   5  -1   18.74   11.47
  -8  -5  -1    4.73   13.54
  -8  -5   0   32.99   15.74
   8   5   0   43.13   14.07
   8   5   1   37.04   15.91
  -8  -5   1   23.52   14.93
   8   5   2   51.50   19.23
   8   5   3   18.83   15.29
   8   5   4  -16.88   15.26
  -8  -6 -10   14.21   14.75
  -8   6  10   14.42   16.57
  -8  -6  -9   23.16   16.55
  -8   6   9   29.10   17.21
  -8  -6  -8    0.55   14.92
  -8   6   8   35.02   15.46
   8   6  -7   -1.02   11.50
  -8  -6  -7   17.51   15.86
  -8   6   7   23.41   14.86
  -8  -6  -6  -12.77   15.91
   8   6  -6   17.15   12.23
  -8   6   6    4.12   11.68
  -8  -6  -5    6.82   11.45
  -8   6   5  -14.50   14.09
  -8  -6  -4    5.44   11.32
   8   6  -4   42.89   18.11
  -8   6   4   28.78   15.39
  -8  -6  -3    5.29   11.86
  -8   6   3    6.77   11.69
   8   6  -3    8.61   14.44
   8   6  -2   33.51   16.69
  -8  -6  -2   15.30   11.05
   8   6  -1    9.47   10.51
  -8  -6  -1   30.89   13.58
   8   6   0   -3.72    9.16
  -8  -6   0  -22.70   16.34
  -8  -6   1    6.32   14.24
   8   6   1   12.37   11.56
   8   6   2   33.91   13.72
  -8  -6   2   28.42   15.25
   8   6   3  -23.01   13.75
   8   6   4   17.00   14.34
  -8   7   9   16.37   16.65
  -8  -7  -8   11.82   15.80
  -8   7   8    8.53   13.22
  -8  -7  -7   -5.17   12.91
   8   7  -6   -2.66   11.58
  -8  -7  -6    9.52   13.55
  -8   7   6   -7.10   12.93
  -8  -7  -5   36.64   19.36
   8   7  -5   27.67   15.20
  -8   7   5    4.03   11.06
  -8  -7  -4   12.33   13.78
   8   7  -4    2.64   13.95
  -8   7   4   -1.61   11.69
  -8  -7  -3   20.25   16.41
   8   7  -3    5.84   12.09
  -8  -7  -2    2.81   11.59
   8   7  -2   -1.53   11.62
   8   7  -1    4.02   10.99
  -8  -7  -1   -0.59   11.21
   8   7   0    2.03    8.07
  -8  -7   0    8.41   11.74
   8   7   1   12.42   10.47
  -8  -7   1    1.20   12.72
  -8  -7   2   11.59   12.94
   8   7   2    3.61   10.26
   8   7   3    3.22   10.48
   8   7   4    9.11   13.60
   8   7   5   29.59   16.50
  -8   8   9  -12.06   13.84
  -8   8   8   23.91   15.88
  -8   8   7   27.24   15.24
  -8   8   6   -2.29   12.18
   8   8  -5   18.30   13.16
  -8  -8  -5    2.69   13.56
  -8   8   5   13.61   12.42
  -8  -8  -4  -18.95   17.21
   8   8  -4   28.18   16.51
  -8  -8  -3   -7.67   12.19
   8   8  -3   -5.15   11.12
  -8  -8  -2   13.93   15.83
   8   8  -2    1.81   12.28
  -8  -8  -1   -6.10   11.14
   8   8  -1    8.87   13.92
   8   8   0   -5.02   11.47
  -8  -8   0   -7.25   12.44
   8   8   1    1.59    8.73
  -8  -8   1   12.56   12.27
  -8  -8   2    8.61   16.26
   8   8   2    1.35    9.00
  -8  -8   3    8.58   14.13
   8   8   3    7.31    9.08
   8   8   4   11.55   14.45
   8   8   5   25.93   15.05
  -8   9   9  -18.03   16.94
  -8   9   8    4.91   12.42
  -8   9   7   17.85   14.51
   8   9  -4    0.37   11.68
   8   9  -3   11.07   13.66
   8   9  -2   25.45   15.06
   8   9  -1  -13.75   13.53
   8   9   0   29.48   14.31
   8   9   1   17.39   12.21
   8   9   2    5.68   11.05
   8   9   3    4.91   10.20
   8   9   4   20.03   13.12
   8   9   5   -9.63   13.34
   8  10  -3   22.64   11.75
   8  10  -2   -3.09   11.52
   8  10  -1   23.13   16.48
   8  10   0   13.39   14.43
   8  10   1   -6.98   14.72
   8  10   2  -10.35    9.22
   8  10   3   11.00    9.58
   8  10   4   -0.20    9.57
   8  11  -1   -3.00   10.94
   8  11   0   39.63   16.81
   8  11   1    1.85   12.34
   8  11   2   20.80   13.50
   8  11   3   32.48   13.04
   8  12   0   24.70   14.23
   8  12   1   11.22   12.16
  -9   0   1    5.89   14.49
  -9   0   2   25.26   18.98
  -9   0   3   38.97   24.95
  -9   0   4   27.29   17.10
  -9  -1  -5   10.18   13.36
  -9   1   4   -6.86   14.75
  -9   1   3    5.79   14.53
  -9   1   2   -0.13   16.07
  -9  -1   2   27.27   18.32
  -9  -1   3   13.54   16.41
  -9   2   5   -1.37   14.16
  -9   2   4   -1.92   12.48
  -9   2   3    6.17   12.10
  -9   3   5  -10.06   14.18
  -9   3   4   -3.46   13.69

TITL 2015sot0035_R_100K in P2(1)2(1)2(1)
REM P2(1)2(1)2(1) (#19 in standard setting)
CELL 0.71073   6.438524  17.461239  19.304510  90.0000  90.0000  90.0000
ZERR    9.00   0.000716   0.002396   0.001626   0.0000   0.0000   0.0000
LATT -1
SYMM -x+1/2,-y, z+1/2
SYMM -x, y+1/2,-z+1/2
SYMM  x+1/2,-y+1/2,-z
SFAC C H N O
UNIT 99.00 90.00 9.00 9.00
TREF
HKLF 4
END
_computing_structure_solution     'SHELXT 2014/4 (Sheldrick, 2014)'
;
_shelx_hkl_checksum              33161
_shelx_shelxl_version_number     2014/7
_olex2_date_sample_submission    2015-06-10
_olex2_diffrn_ambient_temperature_device 'Oxford Cryosystems'
_olex2_exptl_crystal_mounting_method
'The crystal was mounted on a MITIGEN holder in perfluoroether oil'
_olex2_submission_original_sample_id fals/7479/53.p3
_olex2_submission_special_instructions 'No special instructions were received'
loop_
_space_group_symop_operation_xyz
'x, y, z'
'-x+1/2, -y, z+1/2'
'-x, y+1/2, -z+1/2'
'x+1/2, -y+1/2, -z'
loop_
_atom_site_label
_atom_site_type_symbol
_atom_site_fract_x
_atom_site_fract_y
_atom_site_fract_z
_atom_site_U_iso_or_equiv
_atom_site_adp_type
_atom_site_occupancy
_atom_site_site_symmetry_order
_atom_site_calc_flag
_atom_site_refinement_flags_posn
Cl1 Cl -0.0771(5) 0.3355(2) 0.05087(15) 0.0522(9) Uani 1 1 d .
S1 S 0.8243(4) 0.57322(16) 0.24366(12) 0.0338(7) Uani 1 1 d .
O1 O 0.3445(12) 0.3364(4) 0.3897(3) 0.0314(16) Uani 1 1 d .
O2 O 0.4822(12) 0.4548(4) 0.3894(4) 0.0364(18) Uani 1 1 d .
O3 O 1.0622(11) 0.4596(5) 0.3011(4) 0.0385(18) Uani 1 1 d .
O4 O 0.6709(14) 0.6038(5) 0.1933(3) 0.045(2) Uani 1 1 d .
N1 N 0.7411(14) 0.4800(5) 0.2613(4) 0.0317(19) Uani 1 1 d .
C1 C 0.1311(19) 0.3655(6) 0.4876(6) 0.039(3) Uani 1 1 d .
H1 H 0.0228 0.3788 0.4564 0.047 Uiso 1 1 calc R
C2 C 0.098(2) 0.3692(7) 0.5592(5) 0.047(3) Uani 1 1 d .
H2 H -0.0324 0.3843 0.5773 0.057 Uiso 1 1 calc R
C3 C 0.263(2) 0.3500(7) 0.6039(5) 0.046(3) Uani 1 1 d .
H3 H 0.2444 0.3532 0.6526 0.055 Uiso 1 1 calc R
C4 C 0.451(2) 0.3266(7) 0.5775(6) 0.046(3) Uani 1 1 d .
H4 H 0.5600 0.3123 0.6080 0.055 Uiso 1 1 calc R
C5 C 0.4825(18) 0.3238(6) 0.5057(6) 0.037(3) Uani 1 1 d .
H5 H 0.6131 0.3092 0.4870 0.045 Uiso 1 1 calc R
C6 C 0.3192(17) 0.3428(6) 0.4631(5) 0.030(2) Uani 1 1 d .
C7 C 0.4355(16) 0.3986(6) 0.3596(5) 0.027(2) Uani 1 1 d .
C8 C 0.4677(17) 0.3818(6) 0.2818(5) 0.029(2) Uani 1 1 d .
H8 H 0.3350 0.3613 0.2623 0.035 Uiso 1 1 calc R
C9 C 0.6367(16) 0.3207(6) 0.2738(5) 0.031(2) Uani 1 1 d .
H9A H 0.5954 0.2737 0.2990 0.037 Uiso 1 1 calc R
H9B H 0.6536 0.3076 0.2243 0.037 Uiso 1 1 calc R
C10 C 0.8409(18) 0.3505(7) 0.3026(6) 0.039(3) Uani 1 1 d .
H10A H 0.8403 0.3431 0.3534 0.047 Uiso 1 1 calc R
H10B H 0.9548 0.3188 0.2835 0.047 Uiso 1 1 calc R
C11 C 0.8893(17) 0.4332(6) 0.2879(5) 0.032(2) Uani 1 1 d .
C12 C 0.5270(14) 0.4552(6) 0.2418(5) 0.030(2) Uani 1 1 d .
H12 H 0.4278 0.4967 0.2552 0.036 Uiso 1 1 calc R
C13 C 0.5084(17) 0.4417(6) 0.1626(5) 0.033(2) Uani 1 1 d .
H13A H 0.5764 0.4847 0.1380 0.039 Uiso 1 1 calc R
H13B H 0.5838 0.3942 0.1504 0.039 Uiso 1 1 calc R
C14 C 0.2834(16) 0.4350(6) 0.1374(5) 0.033(2) Uani 1 1 d .
H14A H 0.2046 0.4807 0.1527 0.039 Uiso 1 1 calc R
H14B H 0.2184 0.3894 0.1589 0.039 Uiso 1 1 calc R
C15 C 0.269(2) 0.4281(7) 0.0582(5) 0.048(3) Uani 1 1 d .
H15A H 0.3407 0.4724 0.0370 0.057 Uiso 1 1 calc R
H15B H 0.3430 0.3812 0.0435 0.057 Uiso 1 1 calc R
C16 C 0.048(2) 0.4249(8) 0.0304(6) 0.057(4) Uani 1 1 d .
H16A H 0.0506 0.4317 -0.0206 0.068 Uiso 1 1 calc R
H16B H -0.0335 0.4676 0.0504 0.068 Uiso 1 1 calc R
C17 C 0.764(2) 0.6272(6) 0.3257(5) 0.039(3) Uani 1 1 d .
C18 C 0.5341(18) 0.6341(7) 0.3366(6) 0.041(3) Uani 1 1 d .
H18A H 0.4670 0.6477 0.2927 0.061 Uiso 1 1 calc GR
H18B H 0.5062 0.6741 0.3710 0.061 Uiso 1 1 calc GR
H18C H 0.4789 0.5851 0.3531 0.061 Uiso 1 1 calc GR
C19 C 0.8779(19) 0.5889(7) 0.3870(5) 0.039(3) Uani 1 1 d .
H19A H 0.8211 0.5375 0.3946 0.059 Uiso 1 1 calc GR
H19B H 0.8584 0.6197 0.4289 0.059 Uiso 1 1 calc GR
H19C H 1.0264 0.5851 0.3765 0.059 Uiso 1 1 calc GR
C20 C 0.863(3) 0.7055(7) 0.3084(6) 0.061(4) Uani 1 1 d .
H20A H 1.0118 0.6988 0.3001 0.092 Uiso 1 1 calc GR
H20B H 0.8420 0.7407 0.3473 0.092 Uiso 1 1 calc GR
H20C H 0.7972 0.7267 0.2668 0.092 Uiso 1 1 calc GR
loop_
_atom_site_aniso_label
_atom_site_aniso_U_11
_atom_site_aniso_U_22
_atom_site_aniso_U_33
_atom_site_aniso_U_23
_atom_site_aniso_U_13
_atom_site_aniso_U_12
Cl1 0.058(2) 0.063(2) 0.0355(14) 0.0037(14) -0.0128(14) -0.0086(16)
S1 0.0398(14) 0.0437(15) 0.0180(10) 0.0049(11) -0.0006(11) -0.0061(11)
O1 0.039(4) 0.038(4) 0.017(3) 0.001(3) 0.002(3) -0.007(3)
O2 0.054(5) 0.030(4) 0.025(3) -0.004(3) 0.011(3) -0.006(3)
O3 0.031(4) 0.053(5) 0.032(4) -0.004(3) 0.004(3) 0.003(4)
O4 0.062(6) 0.054(5) 0.020(3) 0.011(3) -0.009(4) -0.012(4)
N1 0.041(5) 0.039(5) 0.015(3) -0.006(3) 0.000(4) -0.003(4)
C1 0.046(7) 0.040(6) 0.031(5) -0.003(5) -0.009(5) -0.006(5)
C2 0.066(8) 0.051(7) 0.025(5) -0.012(5) 0.012(6) -0.014(6)
C3 0.078(9) 0.040(7) 0.019(4) 0.003(5) 0.009(6) -0.008(6)
C4 0.074(9) 0.041(7) 0.023(5) 0.005(5) -0.001(6) -0.002(6)
C5 0.046(7) 0.038(6) 0.028(5) 0.002(5) 0.002(5) -0.002(5)
C6 0.035(5) 0.034(5) 0.022(4) 0.007(4) 0.003(4) -0.005(5)
C7 0.032(5) 0.023(5) 0.026(4) 0.001(4) -0.001(4) 0.003(4)
C8 0.036(6) 0.028(5) 0.024(4) 0.000(4) -0.005(4) -0.006(4)
C9 0.033(5) 0.037(6) 0.023(4) 0.000(4) 0.007(4) 0.000(4)
C10 0.037(6) 0.041(7) 0.040(6) -0.004(5) -0.007(5) 0.009(5)
C11 0.039(6) 0.041(6) 0.016(4) -0.007(4) 0.001(4) 0.011(5)
C12 0.025(5) 0.047(6) 0.018(4) 0.001(4) 0.003(4) 0.003(4)
C13 0.039(6) 0.042(6) 0.017(4) -0.002(4) 0.001(4) -0.007(5)
C14 0.037(6) 0.041(6) 0.021(4) 0.004(4) 0.001(4) -0.006(5)
C15 0.080(9) 0.045(7) 0.017(4) 0.009(5) -0.013(5) -0.022(6)
C16 0.094(11) 0.051(7) 0.026(5) 0.006(6) -0.027(6) -0.007(8)
C17 0.064(8) 0.028(6) 0.024(4) 0.003(4) -0.013(5) 0.001(5)
C18 0.038(7) 0.047(7) 0.037(6) 0.005(5) 0.007(5) 0.009(5)
C19 0.057(8) 0.050(7) 0.011(4) -0.003(4) -0.003(4) -0.006(5)
C20 0.108(13) 0.039(7) 0.036(6) 0.009(5) -0.013(8) -0.020(8)
loop_
_atom_type_symbol
_atom_type_description
_atom_type_scat_dispersion_real
_atom_type_scat_dispersion_imag
_atom_type_scat_source
C C 0.0033 0.0016 'International Tables Vol C Tables 4.2.6.8 and 6.1.1.4'
H H 0.0000 0.0000 'International Tables Vol C Tables 4.2.6.8 and 6.1.1.4'
Cl Cl 0.1484 0.1585 'International Tables Vol C Tables 4.2.6.8 and 6.1.1.4'
N N 0.0061 0.0033 'International Tables Vol C Tables 4.2.6.8 and 6.1.1.4'
O O 0.0106 0.0060 'International Tables Vol C Tables 4.2.6.8 and 6.1.1.4'
S S 0.1246 0.1234 'International Tables Vol C Tables 4.2.6.8 and 6.1.1.4'
loop_
_geom_angle_atom_site_label_1
_geom_angle_atom_site_label_2
_geom_angle_atom_site_label_3
_geom_angle
O4 S1 N1 105.0(5)
O4 S1 C17 103.5(5)
N1 S1 C17 103.9(4)
C7 O1 C6 114.1(7)
C11 N1 S1 114.8(8)
C11 N1 C12 124.7(9)
C12 N1 S1 120.3(7)
C2 C1 H1 120.3
C6 C1 H1 120.3
C6 C1 C2 119.3(11)
C1 C2 H2 120.6
C1 C2 C3 118.8(12)
C3 C2 H2 120.6
C2 C3 H3 119.8
C4 C3 C2 120.4(10)
C4 C3 H3 119.8
C3 C4 H4 119.8
C3 C4 C5 120.3(12)
C5 C4 H4 119.8
C4 C5 H5 120.9
C6 C5 C4 118.1(11)
C6 C5 H5 120.9
C1 C6 O1 117.9(9)
C1 C6 C5 123.0(10)
C5 C6 O1 119.1(9)
O1 C7 C8 108.7(8)
O2 C7 O1 124.5(9)
O2 C7 C8 126.8(9)
C7 C8 H8 108.7
C9 C8 C7 109.0(8)
C9 C8 H8 108.7
C9 C8 C12 110.6(8)
C12 C8 C7 111.2(8)
C12 C8 H8 108.7
C8 C9 H9A 109.7
C8 C9 H9B 109.7
H9A C9 H9B 108.2
C10 C9 C8 109.8(8)
C10 C9 H9A 109.7
C10 C9 H9B 109.7
C9 C10 H10A 108.3
C9 C10 H10B 108.3
H10A C10 H10B 107.4
C11 C10 C9 116.1(9)
C11 C10 H10A 108.3
C11 C10 H10B 108.3
O3 C11 N1 119.2(10)
O3 C11 C10 120.5(9)
N1 C11 C10 120.2(9)
N1 C12 C8 110.1(8)
N1 C12 H12 108.3
N1 C12 C13 111.3(8)
C8 C12 H12 108.3
C8 C12 C13 110.3(8)
C13 C12 H12 108.3
C12 C13 H13A 108.9
C12 C13 H13B 108.9
H13A C13 H13B 107.7
C14 C13 C12 113.4(8)
C14 C13 H13A 108.9
C14 C13 H13B 108.9
C13 C14 H14A 109.1
C13 C14 H14B 109.1
C13 C14 C15 112.3(9)
H14A C14 H14B 107.9
C15 C14 H14A 109.1
C15 C14 H14B 109.1
C14 C15 H15A 108.7
C14 C15 H15B 108.7
H15A C15 H15B 107.6
C16 C15 C14 114.3(11)
C16 C15 H15A 108.7
C16 C15 H15B 108.7
Cl1 C16 H16A 109.2
Cl1 C16 H16B 109.2
C15 C16 Cl1 111.8(9)
C15 C16 H16A 109.2
C15 C16 H16B 109.2
H16A C16 H16B 107.9
C18 C17 S1 111.2(8)
C18 C17 C19 113.3(10)
C18 C17 C20 111.5(11)
C19 C17 S1 109.2(8)
C20 C17 S1 100.2(8)
C20 C17 C19 110.7(10)
C17 C18 H18A 109.5
C17 C18 H18B 109.5
C17 C18 H18C 109.5
H18A C18 H18B 109.5
H18A C18 H18C 109.5
H18B C18 H18C 109.5
C17 C19 H19A 109.5
C17 C19 H19B 109.5
C17 C19 H19C 109.5
H19A C19 H19B 109.5
H19A C19 H19C 109.5
H19B C19 H19C 109.5
C17 C20 H20A 109.5
C17 C20 H20B 109.5
C17 C20 H20C 109.5
H20A C20 H20B 109.5
H20A C20 H20C 109.5
H20B C20 H20C 109.5
loop_
_geom_bond_atom_site_label_1
_geom_bond_atom_site_label_2
_geom_bond_distance
Cl1 C16 1.800(14)
S1 O4 1.485(8)
S1 N1 1.746(9)
S1 C17 1.883(11)
O1 C6 1.432(10)
O1 C7 1.364(12)
O2 C7 1.176(11)
O3 C11 1.232(13)
N1 C11 1.358(13)
N1 C12 1.493(13)
C1 H1 0.9500
C1 C2 1.399(14)
C1 C6 1.360(16)
C2 H2 0.9500
C2 C3 1.408(18)
C3 H3 0.9500
C3 C4 1.374(18)
C4 H4 0.9500
C4 C5 1.401(15)
C5 H5 0.9500
C5 C6 1.375(15)
C7 C8 1.545(13)
C8 H8 1.0000
C8 C9 1.531(14)
C8 C12 1.544(14)
C9 H9A 0.9900
C9 H9B 0.9900
C9 C10 1.519(15)
C10 H10A 0.9900
C10 H10B 0.9900
C10 C11 1.504(16)
C12 H12 1.0000
C12 C13 1.552(12)
C13 H13A 0.9900
C13 H13B 0.9900
C13 C14 1.533(14)
C14 H14A 0.9900
C14 H14B 0.9900
C14 C15 1.538(12)
C15 H15A 0.9900
C15 H15B 0.9900
C15 C16 1.521(18)
C16 H16A 0.9900
C16 H16B 0.9900
C17 C18 1.500(17)
C17 C19 1.546(14)
C17 C20 1.544(16)
C18 H18A 0.9800
C18 H18B 0.9800
C18 H18C 0.9800
C19 H19A 0.9800
C19 H19B 0.9800
C19 H19C 0.9800
C20 H20A 0.9800
C20 H20B 0.9800
C20 H20C 0.9800
