#------------------------------------------------------------------------------
#$Date: 2017-09-12 07:06:09 +0300 (Tue, 12 Sep 2017) $
#$Revision: 200749 $
#$URL: file:///home/coder/svn-repositories/cod/cif/1/54/63/1546381.cif $
#------------------------------------------------------------------------------
#
# This file is available in the Crystallography Open Database (COD),
# http://www.crystallography.net/
#
# All data on this site have been placed in the public domain by the
# contributors.
#
data_1546381
loop_
_publ_author_name
'Zhao, Quan-Qing'
'Chen, Jun'
'Yan, Dong-Mei'
'Chen, Jia-Rong'
'Xiao, Wen-Jing'
_publ_section_title
;
 Photocatalytic Hydrazonyl Radical-Mediated Radical Cyclization/Allylation
 Cascade: Synthesis of Dihydropyrazoles and Tetrahydropyridazines.
;
_journal_issue                   13
_journal_name_full               'Organic letters'
_journal_page_first              3620
_journal_page_last               3623
_journal_paper_doi               10.1021/acs.orglett.7b01609
_journal_volume                  19
_journal_year                    2017
_chemical_formula_moiety         'C24 H28 N2 O4 S'
_chemical_formula_sum            'C24 H28 N2 O4 S'
_chemical_formula_weight         440.54
_space_group_crystal_system      triclinic
_space_group_IT_number           2
_space_group_name_Hall           '-P 1'
_space_group_name_H-M_alt        'P -1'
_symmetry_space_group_name_Hall  '-P 1'
_symmetry_space_group_name_H-M   'P -1'
_atom_sites_solution_hydrogens   geom
_audit_creation_date             2016-12-28
_audit_creation_method
;
Olex2 1.2
(compiled 2016.11.30 svn.r3356 for OlexSys, GUI svn.r5269)
;
_cell_angle_alpha                93.5160(10)
_cell_angle_beta                 114.8320(10)
_cell_angle_gamma                111.0780(10)
_cell_formula_units_Z            2
_cell_length_a                   10.4274(9)
_cell_length_b                   11.0126(10)
_cell_length_c                   11.6840(10)
_cell_measurement_reflns_used    7949
_cell_measurement_temperature    100.15
_cell_measurement_theta_max      32.0243
_cell_measurement_theta_min      2.3782
_cell_volume                     1099.88(17)
_computing_molecular_graphics    'Olex2 (Dolomanov et al., 2009)'
_computing_publication_material  'Olex2 (Dolomanov et al., 2009)'
_computing_structure_refinement  'ShelXL (Sheldrick, 2015)'
_diffrn_ambient_temperature      100.15
_diffrn_measured_fraction_theta_full 0.990
_diffrn_measured_fraction_theta_max 0.984
_diffrn_measurement_device_type  'Bruker APEX-II CCD'
_diffrn_radiation_type           MoK\a
_diffrn_radiation_wavelength     0.71073
_diffrn_reflns_av_R_equivalents  0.0190
_diffrn_reflns_av_unetI/netI     0.0270
_diffrn_reflns_Laue_measured_fraction_full 0.990
_diffrn_reflns_Laue_measured_fraction_max 0.984
_diffrn_reflns_limit_h_max       12
_diffrn_reflns_limit_h_min       -14
_diffrn_reflns_limit_k_max       15
_diffrn_reflns_limit_k_min       -15
_diffrn_reflns_limit_l_max       15
_diffrn_reflns_limit_l_min       -14
_diffrn_reflns_number            10498
_diffrn_reflns_point_group_measured_fraction_full 0.990
_diffrn_reflns_point_group_measured_fraction_max 0.984
_diffrn_reflns_theta_full        25.242
_diffrn_reflns_theta_max         28.997
_diffrn_reflns_theta_min         1.984
_exptl_absorpt_coefficient_mu    0.181
_exptl_absorpt_correction_type   none
_exptl_crystal_colour            colourless
_exptl_crystal_colour_primary    colourless
_exptl_crystal_density_diffrn    1.330
_exptl_crystal_description       block
_exptl_crystal_F_000             468
_exptl_crystal_size_max          0.2
_exptl_crystal_size_mid          0.1
_exptl_crystal_size_min          0.1
_refine_diff_density_max         0.351
_refine_diff_density_min         -0.410
_refine_diff_density_rms         0.059
_refine_ls_extinction_method     none
_refine_ls_goodness_of_fit_ref   1.069
_refine_ls_hydrogen_treatment    constr
_refine_ls_matrix_type           full
_refine_ls_number_parameters     284
_refine_ls_number_reflns         5747
_refine_ls_number_restraints     0
_refine_ls_restrained_S_all      1.069
_refine_ls_R_factor_all          0.0382
_refine_ls_R_factor_gt           0.0343
_refine_ls_shift/su_max          0.001
_refine_ls_shift/su_mean         0.000
_refine_ls_structure_factor_coef Fsqd
_refine_ls_weighting_details
'w=1/[\s^2^(Fo^2^)+(0.0545P)^2^+0.3607P] where P=(Fo^2^+2Fc^2^)/3'
_refine_ls_weighting_scheme      calc
_refine_ls_wR_factor_gt          0.0986
_refine_ls_wR_factor_ref         0.1028
_reflns_Friedel_coverage         0.000
_reflns_number_gt                5196
_reflns_number_total             5747
_reflns_threshold_expression     'I > 2\s(I)'
_cod_data_source_file            ol7b01609_si_002.cif
_cod_data_source_block           mo_121619a_0m
_cod_depositor_comments          'Adding full bibliography for 1546381.cif.'
_cod_database_code               1546381
_shelx_space_group_comment
;
The symmetry employed for this shelxl refinement is uniquely defined
by the following loop, which should always be used as a source of
symmetry information in preference to the above space-group names.
They are only intended as comments.
;
_shelx_estimated_absorpt_t_max   0.982
_shelx_estimated_absorpt_t_min   0.965
_olex2_refinement_description
;
1. Fixed Uiso
 At 1.2 times of:
  All C(H) groups, All C(H,H) groups
 At 1.5 times of:
  All C(H,H,H) groups
2.a Ternary CH refined with riding coordinates:
 C9(H9)
2.b Secondary CH2 refined with riding coordinates:
 C12(H12A,H12B), C13(H13A,H13B)
2.c Aromatic/amide H refined with riding coordinates:
 C2(H2), C3(H3), C4(H4), C5(H5), C6(H6), C19(H19), C20(H20), C22(H22), C23(H23)
2.d X=CH2 refined with riding coordinates:
 C15(H15A,H15B)
2.e Idealised Me refined as rotating group:
 C10(H10A,H10B,H10C), C11(H11A,H11B,H11C), C17(H17A,H17B,H17C), C24(H24A,H24B,
 H24C)
;
_shelx_res_file
;
    mo_121619a_0m.res created by SHELXL-2014/7

TITL mo_121619A_0m in P-1
CELL 0.71073 10.4274 11.0126 11.684 93.516 114.832 111.078
ZERR 2 0.0009 0.001 0.001 0.001 0.001 0.001
LATT 1
SFAC C H N O S
UNIT 48 56 4 8 2

L.S. 4
PLAN  10
SIZE 0.2 0.1 0.1
TEMP -173
BOND $H
CONF
HTAB
fmap 2
acta
OMIT -3 58
OMIT -3 8 1
REM <olex2.extras>
REM <HklSrc "%.\\mo_121619A_0m.hkl">
REM </olex2.extras>

WGHT    0.054500    0.360700
FVAR       0.21227
C1    1    0.148404    0.316434   -0.008925    11.00000    0.01679    0.01964 =
         0.01689    0.00236    0.00741    0.00952
C2    1    0.059685    0.176662   -0.050524    11.00000    0.02011    0.02118 =
         0.02320   -0.00060    0.00992    0.00765
AFIX  43
H2    2    0.033783    0.129183    0.007544    11.00000   -1.20000
AFIX   0
C3    1    0.009340    0.106970   -0.175399    11.00000    0.02035    0.02725 =
         0.02642   -0.00698    0.00621    0.00967
AFIX  43
H3    2   -0.049779    0.012191   -0.202122    11.00000   -1.20000
AFIX   0
C4    1    0.045312    0.175680   -0.261435    11.00000    0.03052    0.04452 =
         0.01703   -0.00223    0.00564    0.02358
AFIX  43
H4    2    0.008932    0.128162   -0.347568    11.00000   -1.20000
AFIX   0
C5    1    0.133855    0.312900   -0.221772    11.00000    0.04180    0.04245 =
         0.01954    0.01027    0.01622    0.02598
AFIX  43
H5    2    0.159838    0.359516   -0.280263    11.00000   -1.20000
AFIX   0
C6    1    0.185465    0.383584   -0.095978    11.00000    0.03110    0.02634 =
         0.02026    0.00720    0.01358    0.01449
AFIX  43
H6    2    0.246278    0.478118   -0.069448    11.00000   -1.20000
AFIX   0
C7    1    0.198705    0.386494    0.124920    11.00000    0.01419    0.01477 =
         0.01696    0.00190    0.00662    0.00665
C8    1    0.283980    0.537418    0.188272    11.00000    0.01728    0.01434 =
         0.01720    0.00200    0.00634    0.00470
C9    1    0.258477    0.538329    0.310461    11.00000    0.01565    0.01548 =
         0.01801    0.00021    0.00606    0.00649
AFIX  13
H9    2    0.157436    0.544460    0.286834    11.00000   -1.20000
AFIX   0
C10   1    0.456462    0.581416    0.222329    11.00000    0.01825    0.02813 =
         0.02496    0.00093    0.01071    0.00219
AFIX 137
H10A  2    0.502669    0.536225    0.286765    11.00000   -1.50000
H10B  2    0.513560    0.678989    0.258455    11.00000   -1.50000
H10C  2    0.462810    0.557004    0.143417    11.00000   -1.50000
AFIX   0
C11   1    0.216792    0.626512    0.110703    11.00000    0.03537    0.01664 =
         0.02382    0.00501    0.00898    0.01164
AFIX 137
H11A  2    0.230017    0.625001    0.032474    11.00000   -1.50000
H11B  2    0.271914    0.718923    0.164749    11.00000   -1.50000
H11C  2    0.105449    0.592627    0.085247    11.00000   -1.50000
AFIX   0
C12   1    0.386706    0.649152    0.434606    11.00000    0.01692    0.02129 =
         0.02255   -0.00560    0.00493    0.00723
AFIX  23
H12A  2    0.421471    0.607116    0.507456    11.00000   -1.20000
H12B  2    0.477516    0.698108    0.421162    11.00000   -1.20000
AFIX   0
C13   1    0.332299    0.748606    0.471553    11.00000    0.01849    0.01958 =
         0.01911   -0.00202    0.00605    0.00780
AFIX  23
H13A  2    0.296951    0.789998    0.398289    11.00000   -1.20000
H13B  2    0.241533    0.699353    0.484951    11.00000   -1.20000
AFIX   0
C14   1    0.456862    0.858807    0.593205    11.00000    0.01921    0.01830 =
         0.02207   -0.00188    0.00912    0.00569
C15   1    0.603544    0.875825    0.661262    11.00000    0.01976    0.03277 =
         0.03653   -0.01288    0.00629    0.00852
AFIX  93
H15A  2    0.674107    0.947640    0.737310    11.00000   -1.20000
H15B  2    0.637993    0.816193    0.633938    11.00000   -1.20000
AFIX   0
C16   1    0.413978    0.957833    0.644096    11.00000    0.01856    0.01835 =
         0.02270   -0.00105    0.00834    0.00529
C17   1    0.211210    1.017175    0.622066    11.00000    0.02434    0.02065 =
         0.02178    0.00397    0.01004    0.01307
AFIX 137
H17A  2    0.262348    1.041879    0.717483    11.00000   -1.50000
H17B  2    0.097696    0.973818    0.587481    11.00000   -1.50000
H17C  2    0.239807    1.098185    0.590642    11.00000   -1.50000
AFIX   0
C18   1   -0.064720    0.293891    0.288478    11.00000    0.01726    0.02079 =
         0.01607    0.00685    0.00885    0.00871
C19   1   -0.131104    0.371242    0.318755    11.00000    0.02078    0.02549 =
         0.01764    0.00316    0.00875    0.01098
AFIX  43
H19   2   -0.070830    0.443634    0.394709    11.00000   -1.20000
AFIX   0
C20   1   -0.286763    0.341844    0.236875    11.00000    0.02162    0.02673 =
         0.02335    0.00638    0.01113    0.01363
AFIX  43
H20   2   -0.333325    0.392911    0.258968    11.00000   -1.20000
AFIX   0
C21   1   -0.375445    0.238822    0.123088    11.00000    0.01865    0.02274 =
         0.02150    0.00788    0.00811    0.00858
C22   1   -0.305329    0.163990    0.092729    11.00000    0.02048    0.01872 =
         0.02068    0.00278    0.00767    0.00574
AFIX  43
H22   2   -0.363878    0.094732    0.014378    11.00000   -1.20000
AFIX   0
C23   1   -0.151479    0.189320    0.175300    11.00000    0.02106    0.01767 =
         0.02194    0.00522    0.01092    0.00866
AFIX  43
H23   2   -0.105772    0.136234    0.155110    11.00000   -1.20000
AFIX   0
C24   1   -0.543528    0.209095    0.035048    11.00000    0.02050    0.03417 =
         0.03314    0.00439    0.00486    0.01213
AFIX 137
H24A  2   -0.609581    0.151520    0.067832    11.00000   -1.50000
H24B  2   -0.575177    0.162939   -0.053236    11.00000   -1.50000
H24C  2   -0.555184    0.293485    0.033268    11.00000   -1.50000
AFIX   0
N1    3    0.179632    0.314090    0.203915    11.00000    0.01749    0.01620 =
         0.01558    0.00117    0.00791    0.00714
N2    3    0.238302    0.400059    0.326697    11.00000    0.01775    0.01649 =
         0.01555    0.00151    0.00827    0.00703
O1    4    0.139147    0.200581    0.406098    11.00000    0.02503    0.02842 =
         0.02581    0.01494    0.01408    0.01598
O2    4    0.184418    0.425070    0.511709    11.00000    0.02369    0.03788 =
         0.01387    0.00190    0.00757    0.01507
O3    4    0.260971    0.925317    0.578744    11.00000    0.01985    0.02014 =
         0.01920   -0.00036    0.00678    0.00963
O4    4    0.504718    1.055625    0.734539    11.00000    0.02197    0.02969 =
         0.04495   -0.01909    0.00615    0.00552
S1    5    0.129936    0.326334    0.396164    11.00000    0.01802    0.02409 =
         0.01415    0.00600    0.00798    0.01100
HKLF 4

REM  mo_121619A_0m in P-1
REM R1 =  0.0343 for    5196 Fo > 4sig(Fo)  and  0.0382 for all    5747 data
REM    284 parameters refined using      0 restraints

END

WGHT      0.0543      0.3609

REM Instructions for potential hydrogen bonds
HTAB C12 O2
EQIV $1 -x, -y+1, -z+1
HTAB C17 O1_$1
EQIV $2 x, y+1, z
HTAB C17 O1_$2
HTAB C19 O2_$1

REM Highest difference peak  0.351,  deepest hole -0.410,  1-sigma level  0.059
Q1    1   0.0257  0.3103  0.3336  11.00000  0.05    0.35
Q2    1  -0.0924  0.3393  0.2900  11.00000  0.05    0.33
Q3    1   0.1018  0.2438 -0.0330  11.00000  0.05    0.32
Q4    1  -0.2186  0.1926  0.1286  11.00000  0.05    0.32
Q5    1   0.0347  0.1440 -0.1147  11.00000  0.05    0.30
Q6    1  -0.2031  0.3628  0.2787  11.00000  0.05    0.30
Q7    1   0.1276  0.2525  0.4033  11.00000  0.05    0.29
Q8    1   0.2801  0.5411  0.2540  11.00000  0.05    0.27
Q9    1  -0.3350  0.1991  0.1122  11.00000  0.05    0.27
Q10   1   0.2320  0.4649  0.1522  11.00000  0.05    0.27
;
_shelx_res_checksum              43345
_shelx_hkl_file
;
  -1   0   0   26.86    0.69
  -1   0   0   25.53    0.70
  -2   0   0   92.02    2.47
  -2   0   0   93.38    2.42
  -3   0   0  214.35    5.57
  -4   0   0    1.96    0.07
  -4   0   0    1.92    0.07
  -5   0   0    0.02    0.02
  -5   0   0   -0.01    0.02
  -6   0   0    3.69    0.11
  -6   0   0    3.52    0.12
  -6   0   0    3.58    0.13
  -7   0   0   13.25    0.38
  -7   0   0   13.56    0.39
  -8   0   0    5.02    0.18
  -8   0   0    4.86    0.17
  -9   0   0    2.13    0.10
  -9   0   0    2.14    0.11
 -10   0   0    1.47    0.10
 -11   0   0    1.80    0.11
 -12   0   0    5.02    0.22
 -12   1   0    2.13    0.13
 -11   1   0    0.32    0.06
 -10   1   0    7.55    0.26
   9  -1   0    2.22    0.10
  -9   1   0    2.14    0.11
  -8   1   0    3.69    0.15
  -7   1   0   -0.01    0.02
  -7   1   0   -0.02    0.02
  -6   1   0    0.75    0.03
  -6   1   0    0.71    0.05
  -6   1   0    0.68    0.04
  -5   1   0   21.36    0.58
  -5   1   0   22.44    0.60
  -5   1   0   21.28    0.60
  -4   1   0   23.53    0.64
  -4   1   0   25.11    0.67
  -3   1   0  200.35    5.72
  -3   1   0  202.61    5.50
   2  -1   0  964.92   24.43
  -2   1   0  816.73   24.95
  -2   1   0 1000.00   25.58
   1  -1   0   18.07    0.47
  -1   1   0   18.24    0.48
  -1   1   0   17.36    0.50
   0  -1   0   26.93    0.76
   0   1   0   31.04    0.81
  -1  -1   0   83.94    2.16
  -1  -1   0   81.59    2.20
   1   1   0   82.67    2.28
  -2  -1   0   28.14    0.77
  -2  -1   0   29.49    0.75
   2   1   0   28.91    0.79
  -3  -1   0    7.73    0.21
   3   1   0    7.62    0.22
  -4  -1   0   86.76    2.23
  -4  -1   0   84.64    2.28
   4   1   0   86.40    2.35
  -5  -1   0   10.43    0.30
  -5  -1   0   10.53    0.30
  -6  -1   0    0.17    0.03
  -6  -1   0    0.17    0.03
  -7  -1   0    2.71    0.11
  -7  -1   0    2.74    0.11
  -8  -1   0    1.73    0.09
  -8  -1   0    1.53    0.09
  -9  -1   0    2.30    0.12
 -10  -1   0    1.18    0.09
 -11  -1   0    1.26    0.10
 -12  -1   0    2.06    0.13
 -12   2   0    1.54    0.11
 -11   2   0    5.51    0.22
 -10   2   0    2.34    0.12
   9  -2   0    0.41    0.05
  -9   2   0    0.35    0.05
   8  -2   0    0.05    0.03
  -8   2   0    0.01    0.03
   6  -2   0    0.20    0.03
  -6   2   0    0.14    0.03
  -6   2   0    0.29    0.03
   5  -2   0   86.35    2.26
  -5   2   0   87.06    2.30
  -5   2   0   87.60    2.38
   4  -2   0  395.61   11.80
  -4   2   0  491.45   12.71
  -4   2   0  481.74   12.08
   3  -2   0   51.59    1.34
  -3   2   0   50.85    1.42
  -3   2   0   52.85    1.37
   2  -2   0  232.41    6.18
  -2   2   0  241.90    6.30
  -2   2   0  240.90    6.52
   1  -2   0  182.07    5.55
  -1   2   0  230.92    5.67
  -1   2   0  231.36    5.89
   0  -2   0   72.42    1.90
   0  -2   0   70.20    1.87
   0   2   0   71.38    1.98
  -1  -2   0    1.11    0.04
  -1  -2   0    1.10    0.04
   1   2   0    1.41    0.05
  -2  -2   0   28.18    0.75
  -2  -2   0   28.70    0.76
   2   2   0   29.04    0.79
  -3  -2   0   19.67    0.53
  -3  -2   0   19.69    0.53
   3   2   0   19.67    0.55
  -4  -2   0   15.46    0.43
  -4  -2   0   15.40    0.42
   4   2   0   15.05    0.43
  -5  -2   0    7.39    0.23
  -5  -2   0    7.51    0.22
   5   2   0    7.53    0.22
  -6  -2   0   28.24    0.76
  -6  -2   0   28.16    0.78
  -7  -2   0    0.51    0.05
  -7  -2   0    0.56    0.05
  -8  -2   0    0.02    0.03
  -8  -2   0   -0.01    0.03
  -9  -2   0   -0.03    0.03
 -10  -2   0    8.63    0.30
 -11  -2   0    0.36    0.07
 -13   3   0    0.14    0.06
 -12   3   0    0.79    0.09
 -11   3   0    3.42    0.16
  10  -3   0    2.20    0.10
 -10   3   0    2.01    0.11
   9  -3   0    2.96    0.12
  -9   3   0    2.93    0.13
   8  -3   0    2.39    0.10
  -8   3   0    2.45    0.11
   7  -3   0    3.88    0.13
  -7   3   0    3.59    0.14
  -7   3   0    3.74    0.12
   6  -3   0  107.23    2.77
  -6   3   0  107.39    2.83
  -6   3   0  105.46    2.92
   5  -3   0    7.88    0.23
  -5   3   0    8.04    0.23
  -5   3   0    7.99    0.24
  -4   3   0   26.36    0.70
  -4   3   0   25.69    0.72
   3  -3   0  258.86    6.73
  -3   3   0  255.83    7.10
  -3   3   0  262.55    6.87
   2  -3   0   59.36    1.54
  -2   3   0   59.39    1.56
  -2   3   0   58.49    1.62
  -1   3   0    8.23    0.24
   0  -3   0   62.86    1.66
   0  -3   0   63.22    1.68
   0   3   0   62.92    1.75
  -1  -3   0   18.70    0.49
  -1  -3   0   18.81    0.50
   1   3   0   18.46    0.52
  -2  -3   0   17.19    0.46
  -3  -3   0   31.83    0.85
  -3  -3   0   31.24    0.83
   3   3   0   31.45    0.88
  -4  -3   0   17.47    0.48
  -4  -3   0   17.62    0.48
   4   3   0   17.25    0.50
  -5  -3   0   10.70    0.32
  -5  -3   0   11.08    0.31
   5   3   0   10.61    0.32
  -6  -3   0   22.84    0.64
  -6  -3   0   23.65    0.65
  -7  -3   0    1.05    0.07
  -7  -3   0    1.07    0.07
  -8  -3   0    8.71    0.27
  -8  -3   0    8.57    0.28
  -9  -3   0    5.58    0.21
 -10  -3   0    0.86    0.08
 -11  -3   0    2.53    0.14
 -13   4   0    2.63    0.15
 -12   4   0    1.74    0.12
 -11   4   0    1.64    0.11
  10  -4   0    1.32    0.08
 -10   4   0    1.40    0.09
   9  -4   0    4.28    0.15
  -9   4   0    4.20    0.17
   8  -4   0    0.06    0.03
  -8   4   0    0.00    0.03
   7  -4   0    4.09    0.14
  -7   4   0    4.07    0.15
   6  -4   0   54.50    1.44
  -6   4   0   55.71    1.48
   5  -4   0  148.37    3.94
  -5   4   0  151.97    4.00
   4  -4   0    9.39    0.26
  -4   4   0    9.59    0.27
  -3   4   0    9.33    0.27
   1  -4   0    3.97    0.12
   0  -4   0  108.47    2.83
   0  -4   0  110.22    2.88
   0   4   0  105.56    2.97
  -1  -4   0   26.52    0.69
  -1  -4   0   26.20    0.70
   1   4   0   25.91    0.73
  -2  -4   0    4.73    0.14
  -2  -4   0    4.51    0.14
   2   4   0    4.54    0.15
  -3  -4   0    6.70    0.20
  -3  -4   0    6.69    0.20
   3   4   0    6.63    0.21
  -4  -4   0    1.67    0.07
  -4  -4   0    1.71    0.08
   4   4   0    1.66    0.08
  -5  -4   0    8.06    0.25
  -5  -4   0    7.94    0.24
   5   4   0    8.15    0.25
  -6  -4   0   17.33    0.49
  -6  -4   0   17.26    0.50
  -7  -4   0    1.32    0.08
  -7  -4   0    1.30    0.08
  -8  -4   0    1.07    0.08
  -9  -4   0    4.49    0.18
 -10  -4   0    2.97    0.15
 -13   5   0    0.05    0.06
 -12   5   0    1.27    0.11
  11  -5   0    1.58    0.10
 -11   5   0    1.64    0.11
  10  -5   0    0.46    0.05
 -10   5   0    0.46    0.06
   9  -5   0    1.76    0.09
  -9   5   0    1.69    0.09
   8  -5   0   41.85    1.12
  -8   5   0   42.11    1.15
   7  -5   0    4.26    0.15
  -7   5   0    4.28    0.15
  -7   5   0    4.41    0.16
   6  -5   0    1.25    0.06
  -6   5   0    1.38    0.07
  -6   5   0    1.26    0.07
   5  -5   0   19.15    0.52
  -5   5   0   19.27    0.55
  -5   5   0   19.57    0.54
   4  -5   0    1.60    0.06
  -4   5   0    1.51    0.07
  -4   5   0    1.64    0.08
   3  -5   0   80.23    2.02
  -3   5   0   75.71    2.11
  -3   5   0   74.19    2.03
   1  -5   0   40.11    1.05
   1  -5   0   40.27    1.07
  -1   5   0   40.25    1.12
   0  -5   0    7.80    0.22
   0  -5   0    7.61    0.22
   0   5   0    7.51    0.24
  -1  -5   0   13.70    0.38
   1   5   0   13.96    0.41
  -2  -5   0    0.28    0.03
  -2  -5   0    0.24    0.03
   2   5   0    0.22    0.04
  -3  -5   0    0.04    0.02
  -3  -5   0    0.04    0.02
   3   5   0    0.06    0.03
  -4  -5   0    3.25    0.12
  -4  -5   0    3.32    0.12
   4   5   0    3.49    0.13
  -5  -5   0    4.12    0.15
  -5  -5   0    4.03    0.15
   5   5   0    4.34    0.15
  -6  -5   0    0.11    0.04
  -6  -5   0    0.17    0.04
  -7  -5   0   11.10    0.34
  -7  -5   0   10.71    0.33
  -8  -5   0    0.69    0.07
  -9  -5   0    4.48    0.19
 -10  -5   0    0.01    0.04
 -13   6   0    0.19    0.06
 -12   6   0    5.85    0.23
  11  -6   0   21.34    0.59
 -11   6   0   20.74    0.63
  10  -6   0    6.90    0.23
 -10   6   0    6.91    0.25
   9  -6   0    2.68    0.11
  -9   6   0    2.44    0.12
   8  -6   0    4.27    0.15
  -8   6   0    4.52    0.16
  -8   6   0    4.16    0.16
   7  -6   0   56.04    1.48
  -7   6   0   56.21    1.51
  -7   6   0   56.11    1.55
   6  -6   0    0.14    0.03
  -6   6   0    0.26    0.04
  -6   6   0    0.24    0.04
   5  -6   0    2.93    0.10
  -5   6   0    2.89    0.11
  -5   6   0    2.97    0.12
   4  -6   0   22.18    0.59
  -4   6   0   21.65    0.63
  -4   6   0   22.09    0.60
   3  -6   0   46.23    1.21
  -3   6   0   46.69    1.23
  -3   6   0   45.82    1.29
   2  -6   0    1.97    0.07
  -2   6   0    2.07    0.10
   1  -6   0   39.72    1.03
  -1   6   0   38.81    1.10
   0  -6   0   17.73    0.48
   0   6   0   17.40    0.51
  -1  -6   0   29.53    0.79
  -1  -6   0   29.77    0.78
   1   6   0   28.49    0.83
  -2  -6   0    0.04    0.02
  -2  -6   0    0.02    0.02
   2   6   0    0.07    0.04
  -3  -6   0   -0.02    0.03
  -3  -6   0    0.04    0.02
   3   6   0    0.00    0.04
  -4  -6   0   28.81    0.77
  -4  -6   0   27.17    0.76
   4   6   0   27.97    0.80
  -5  -6   0   27.64    0.76
  -5  -6   0   26.85    0.75
  -6  -6   0    0.36    0.05
  -6  -6   0    0.37    0.05
  -7  -6   0    0.76    0.07
  -8  -6   0    2.89    0.14
  -9  -6   0    0.11    0.05
 -13   7   0    3.83    0.19
 -12   7   0    0.60    0.08
  11  -7   0    0.44    0.06
 -11   7   0    0.52    0.07
  10  -7   0    9.86    0.30
 -10   7   0    9.50    0.32
   9  -7   0   24.92    0.68
  -9   7   0   24.69    0.71
   8  -7   0   32.42    0.87
  -8   7   0   32.09    0.92
  -8   7   0   32.20    0.89
   7  -7   0    2.70    0.11
  -7   7   0    2.89    0.13
  -7   7   0    2.89    0.12
   6  -7   0    7.30    0.22
  -6   7   0    7.03    0.22
  -6   7   0    7.24    0.24
   5  -7   0   16.05    0.44
  -5   7   0   15.31    0.47
  -5   7   0   15.94    0.44
   4  -7   0    1.13    0.06
  -4   7   0    1.16    0.08
  -4   7   0    1.13    0.06
  -3   7   0   56.04    1.56
   2  -7   0   64.35    1.68
   1  -7   0    4.46    0.14
   1  -7   0    4.50    0.14
  -1   7   0    4.45    0.17
   0  -7   0    3.76    0.13
   0  -7   0    3.83    0.12
   0   7   0    3.74    0.15
  -1  -7   0    0.18    0.02
  -1  -7   0    0.13    0.03
   1   7   0    0.13    0.04
  -2  -7   0    9.52    0.28
  -2  -7   0    9.48    0.27
   2   7   0    9.31    0.30
  -3  -7   0    9.55    0.29
  -3  -7   0    9.29    0.28
   3   7   0    9.19    0.30
  -4  -7   0    1.08    0.08
  -4  -7   0    1.10    0.07
   4   7   0    1.23    0.09
  -5  -7   0   13.82    0.41
  -5  -7   0   13.95    0.41
  -6  -7   0    0.61    0.06
  -6  -7   0    0.67    0.07
  -7  -7   0    1.59    0.10
 -13   8   0    1.68    0.12
  12  -8   0    1.51    0.10
 -12   8   0    1.64    0.12
  11  -8   0    3.75    0.15
 -11   8   0    3.71    0.17
  10  -8   0    0.24    0.05
   9  -8   0    2.96    0.12
  -9   8   0    2.71    0.13
   8  -8   0    0.22    0.04
  -8   8   0    0.17    0.05
  -8   8   0    0.15    0.05
   7  -8   0   37.01    0.98
  -7   8   0   36.64    1.01
  -7   8   0   36.55    1.04
   6  -8   0   13.83    0.39
  -6   8   0   13.55    0.42
  -6   8   0   13.75    0.40
   5  -8   0   63.31    1.65
  -5   8   0   62.09    1.75
  -5   8   0   63.25    1.68
  -4   8   0    6.94    0.24
  -4   8   0    7.11    0.21
   2  -8   0    6.27    0.19
   2  -8   0    6.09    0.19
   1  -8   0    0.41    0.04
   1  -8   0    0.30    0.04
  -1   8   0    0.32    0.06
   0  -8   0   21.77    0.59
   0  -8   0   21.83    0.59
   0   8   0   21.24    0.63
  -1  -8   0   19.01    0.53
  -1  -8   0   18.86    0.52
   1   8   0   18.92    0.56
  -2  -8   0    0.21    0.03
  -3  -8   0   51.26    1.38
  -3  -8   0   52.53    1.39
   3   8   0   51.55    1.46
  -4  -8   0    0.04    0.03
  -4  -8   0    0.02    0.04
   4   8   0    0.06    0.05
  -5  -8   0    2.98    0.14
 -13   9   0    2.23    0.14
  12  -9   0    2.93    0.14
 -12   9   0    2.87    0.16
  11  -9   0    0.01    0.04
 -11   9   0   -0.04    0.05
  10  -9   0    1.56    0.09
 -10   9   0    1.42    0.10
   9  -9   0    1.20    0.08
  -9   9   0    1.28    0.09
  -9   9   0    1.31    0.11
   8  -9   0    5.61    0.19
  -8   9   0    5.70    0.21
  -8   9   0    5.59    0.20
   7  -9   0   20.84    0.58
  -7   9   0   20.78    0.62
  -7   9   0   21.04    0.59
   6  -9   0   11.64    0.34
  -6   9   0   11.93    0.35
  -6   9   0   11.91    0.38
   5  -9   0    4.82    0.16
  -5   9   0    4.80    0.16
  -5   9   0    4.84    0.19
   4  -9   0    9.59    0.28
  -4   9   0    9.65    0.32
   3  -9   0    6.89    0.21
  -3   9   0    6.71    0.24
   2  -9   0    2.08    0.08
   2  -9   0    1.86    0.09
  -2   9   0    1.94    0.12
   1  -9   0   12.88    0.36
   1  -9   0   12.47    0.36
  -1   9   0   12.48    0.40
   0  -9   0    0.84    0.06
   0  -9   0    0.79    0.05
   0   9   0    0.71    0.07
  -1  -9   0   23.55    0.65
  -1  -9   0   23.97    0.65
   1   9   0   23.20    0.70
  -2  -9   0    0.43    0.05
  -3  -9   0    0.20    0.05
   3   9   0    0.21    0.06
  -4  -9   0    7.30    0.25
  -5  -9   0    1.42    0.10
 -13  10   0    0.04    0.06
  12 -10   0    0.56    0.07
 -12  10   0    0.59    0.08
  11 -10   0    0.07    0.04
 -11  10   0    0.00    0.05
  10 -10   0    0.06    0.04
 -10  10   0    0.07    0.05
   9 -10   0   14.10    0.41
  -9  10   0   14.32    0.45
  -9  10   0   13.79    0.43
   8 -10   0    1.17    0.08
  -8  10   0    1.40    0.09
  -8  10   0    1.31    0.11
   7 -10   0    5.27    0.18
  -7  10   0    5.55    0.19
  -7  10   0    5.43    0.21
   6 -10   0    6.73    0.22
  -6  10   0    6.81    0.22
  -6  10   0    6.57    0.25
   5 -10   0    0.81    0.06
  -5  10   0    0.68    0.08
   4 -10   0    2.69    0.11
  -4  10   0    2.86    0.15
   3 -10   0   18.88    0.53
  -3  10   0   18.94    0.57
   2 -10   0   12.10    0.35
  -2  10   0   12.21    0.39
   1 -10   0   80.39    2.10
  -1  10   0   79.74    2.23
   0 -10   0    0.02    0.03
   0  10   0    0.04    0.05
  -1 -10   0    0.54    0.06
   1  10   0    0.56    0.07
  -2 -10   0    8.08    0.26
   2  10   0    7.93    0.28
  -3 -10   0    1.66    0.10
   3  10   0    1.86    0.12
  -4 -10   0    0.27    0.06
 -13  11   0    0.27    0.07
  12 -11   0    0.56    0.07
 -12  11   0    0.36    0.07
  11 -11   0    3.76    0.16
 -11  11   0    3.94    0.17
  10 -11   0    0.33    0.05
 -10  11   0    0.34    0.06
   9 -11   0    2.65    0.12
  -9  11   0    2.64    0.13
  -9  11   0    2.63    0.14
   8 -11   0    3.85    0.15
  -8  11   0    3.90    0.18
  -8  11   0    4.19    0.16
   7 -11   0    0.19    0.04
  -7  11   0    0.13    0.04
  -7  11   0    0.11    0.06
   6 -11   0    0.48    0.05
  -6  11   0    0.58    0.08
   5 -11   0    0.31    0.04
  -5  11   0    0.30    0.07
   4 -11   0    1.97    0.09
  -4  11   0    2.20    0.13
   3 -11   0    3.44    0.13
  -3  11   0    3.36    0.16
   2 -11   0   17.95    0.51
  -2  11   0   18.25    0.56
   1 -11   0   10.81    0.33
  -1  11   0   10.89    0.36
   0 -11   0    1.59    0.09
   0  11   0    1.72    0.11
  -1 -11   0    0.45    0.06
   1  11   0    0.51    0.07
  -2 -11   0    0.62    0.07
   2  11   0    0.74    0.08
  -3 -11   0    9.64    0.31
  -4 -11   0    5.03    0.20
  13 -12   0   -0.06    0.04
  12 -12   0   -0.01    0.04
  11 -12   0    0.33    0.06
  10 -12   0    2.70    0.13
   9 -12   0    0.02    0.04
  -9  12   0    0.01    0.06
   8 -12   0    0.11    0.04
  -8  12   0    0.11    0.06
   7 -12   0    1.52    0.09
  -7  12   0    1.46    0.12
   6 -12   0    4.54    0.17
  -6  12   0    4.42    0.20
   5 -12   0    1.33    0.08
  -5  12   0    1.41    0.11
   4 -12   0    0.04    0.03
  -4  12   0   -0.01    0.05
   3 -12   0    0.70    0.07
  -3  12   0    0.83    0.09
   2 -12   0    5.73    0.20
  -2  12   0    5.92    0.23
   1 -12   0    0.59    0.06
  -1  12   0    0.60    0.08
   0 -12   0    0.00    0.04
   0  12   0    0.02    0.05
  -1 -12   0    3.18    0.14
   1  12   0    3.29    0.16
  -2 -12   0    1.41    0.10
   2  12   0    1.53    0.12
  -3 -12   0    0.37    0.06
  12 -13   0    2.36    0.13
  11 -13   0    1.40    0.10
  10 -13   0    1.40    0.09
 -10  13   0    1.30    0.12
   9 -13   0    2.63    0.13
  -9  13   0    2.66    0.16
   8 -13   0    0.05    0.04
  -8  13   0    0.01    0.06
   7 -13   0    3.21    0.14
  -7  13   0    3.17    0.17
   6 -13   0    0.05    0.04
  -6  13   0    0.01    0.06
   5 -13   0    0.06    0.04
  -5  13   0    0.10    0.06
   4 -13   0    0.27    0.05
  -4  13   0    0.25    0.07
   3 -13   0    0.03    0.04
  -3  13   0    0.11    0.06
   2 -13   0    0.45    0.06
  -2  13   0    0.42    0.08
   1 -13   0    6.91    0.24
  -1  13   0    6.85    0.27
   0 -13   0    2.15    0.12
   0  13   0    2.30    0.14
  -1 -13   0    1.16    0.09
   1  13   0    1.27    0.12
  -2 -13   0   21.24    0.62
  11 -14   0    3.29    0.15
  10 -14   0    0.77    0.08
 -10  14   0    0.60    0.09
   9 -14   0    2.21    0.12
  -9  14   0    2.22    0.15
   8 -14   0    0.69    0.07
  -8  14   0    0.67    0.09
   7 -14   0    0.12    0.05
  -7  14   0    0.04    0.07
   6 -14   0    0.03    0.04
  -6  14   0    0.02    0.06
   5 -14   0   -0.02    0.04
  -5  14   0    0.05    0.06
   4 -14   0    0.06    0.04
  -4  14   0   -0.01    0.06
   3 -14   0    0.02    0.04
  -3  14   0    0.06    0.07
   2 -14   0    1.80    0.11
  -2  14   0    2.02    0.14
   1 -14   0    4.40    0.18
  -1  14   0    4.78    0.22
   0 -14   0    7.24    0.26
   0  14   0    7.43    0.29
  -1 -14   0    1.55    0.11
   1  14   0    1.58    0.13
 -10  15   0    0.33    0.08
   9 -15   0    0.08    0.05
  -9  15   0    0.02    0.07
   8 -15   0    0.81    0.08
  -8  15   0    0.67    0.10
   7 -15   0    2.74    0.14
  -7  15   0    2.76    0.17
   6 -15   0    0.01    0.04
  -6  15   0    0.05    0.07
   5 -15   0    1.87    0.11
  -5  15   0    1.76    0.14
   4 -15   0    0.34    0.06
  -4  15   0    0.22    0.08
   3 -15   0    5.11    0.20
  -3  15   0    5.16    0.24
   2 -15   0    5.82    0.22
  -2  15   0    5.78    0.25
  -1  15  -1    4.97    0.24
   1 -15   1    4.94    0.20
  -2  15  -1    0.22    0.08
   2 -15   1    0.16    0.05
  -3  15  -1    1.99    0.15
   3 -15   1    1.75    0.11
  -4  15  -1    1.88    0.14
   4 -15   1    1.76    0.11
  -5  15  -1    0.09    0.07
   5 -15   1    0.10    0.05
  -6  15  -1    0.47    0.09
   6 -15   1    0.51    0.07
  -7  15  -1    1.71    0.14
   7 -15   1    1.89    0.11
  -8  15  -1    4.17    0.21
   8 -15   1    4.20    0.18
   1  14  -1    5.72    0.25
  -1 -14   1    5.69    0.22
   0  14  -1    2.54    0.16
   0 -14   1    2.23    0.12
  -1  14  -1    1.24    0.12
   1 -14   1    1.09    0.09
  -2  14  -1   14.78    0.49
   2 -14   1   14.81    0.44
  -3  14  -1    0.11    0.07
   3 -14   1    0.06    0.05
  -4  14  -1    0.42    0.08
   4 -14   1    0.48    0.06
  -5  14  -1    4.32    0.21
   5 -14   1    4.62    0.18
  -6  14  -1    3.74    0.19
   6 -14   1    3.56    0.15
  -7  14  -1    1.69    0.13
   7 -14   1    1.95    0.11
  -8  14  -1    1.39    0.12
   8 -14   1    1.37    0.10
  -9  14  -1    7.68    0.30
   9 -14   1    8.11    0.27
  10 -14   1    0.02    0.05
   2  13  -1    1.34    0.12
  -2 -13   1    1.44    0.10
   1  13  -1    1.89    0.14
  -1 -13   1    1.70    0.10
   0  13  -1    2.47    0.15
   0 -13   1    2.53    0.12
  -1  13  -1    5.13    0.22
   1 -13   1    4.77    0.18
  -2  13  -1    6.91    0.27
   2 -13   1    7.00    0.24
  -3  13  -1    0.36    0.07
   3 -13   1    0.38    0.05
  -4  13  -1    0.89    0.09
   4 -13   1    0.93    0.07
  -5  13  -1    0.10    0.06
   5 -13   1    0.06    0.04
  -6  13  -1    9.55    0.34
   6 -13   1    9.45    0.30
  -7  13  -1    0.41    0.07
   7 -13   1    0.34    0.05
  -8  13  -1    0.08    0.06
   8 -13   1    0.01    0.04
  -9  13  -1    0.54    0.08
   9 -13   1    0.88    0.08
  10 -13   1    3.23    0.15
  11 -13   1    2.71    0.14
   3  12  -1    3.90    0.18
  -3 -12   1    3.78    0.16
   2  12  -1   10.44    0.36
  -2 -12   1   10.15    0.33
   1  12  -1    0.91    0.10
  -1 -12   1    1.11    0.08
   0  12  -1    6.81    0.26
   0 -12   1    6.68    0.23
  -1  12  -1    1.05    0.10
   1 -12   1    1.09    0.08
  -2  12  -1    0.21    0.07
   2 -12   1    0.28    0.04
  -3  12  -1    0.06    0.05
   3 -12   1    0.03    0.03
  -4  12  -1    3.72    0.17
   4 -12   1    3.69    0.14
  -5  12  -1    0.71    0.08
   5 -12   1    0.71    0.07
  -6  12  -1    0.51    0.07
   6 -12   1    0.61    0.06
  -7  12  -1    0.07    0.05
   7 -12   1    0.10    0.04
  -8  12  -1    0.67    0.07
  -8  12  -1    0.70    0.08
   8 -12   1    0.57    0.06
  -9  12  -1    6.21    0.24
  -9  12  -1    5.84    0.22
   9 -12   1    5.76    0.21
 -10  12  -1    0.70    0.08
  10 -12   1    0.95    0.08
 -11  12  -1    0.28    0.07
  11 -12   1    0.29    0.06
 -12  12  -1    0.95    0.10
  12 -12   1    1.14    0.09
   3  11  -1    5.99    0.24
  -3 -11   1    5.66    0.21
   2  11  -1    1.17    0.11
  -2 -11   1    1.10    0.08
   1  11  -1    0.13    0.06
  -1 -11   1    0.20    0.04
   0  11  -1    1.71    0.12
   0 -11   1    1.68    0.09
  -1  11  -1    1.84    0.12
   1 -11   1    1.83    0.09
  -2  11  -1   33.19    0.98
   2 -11   1   34.28    0.91
  -3  11  -1    0.08    0.05
   3 -11   1    0.05    0.03
  -4  11  -1    6.00    0.23
   4 -11   1    6.13    0.20
  -5  11  -1    3.06    0.15
   5 -11   1    2.81    0.12
  -6  11  -1    1.23    0.10
   6 -11   1    1.16    0.08
  -7  11  -1    1.30    0.10
  -7  11  -1    1.05    0.09
   7 -11   1    1.06    0.08
  -8  11  -1    0.66    0.07
  -8  11  -1    0.71    0.08
   8 -11   1    0.79    0.07
  -9  11  -1    0.46    0.06
   9 -11   1    0.44    0.06
 -10  11  -1   -0.03    0.05
  10 -11   1   -0.03    0.04
 -11  11  -1    0.65    0.08
  11 -11   1    0.72    0.07
 -12  11  -1    0.02    0.06
  12 -11   1   -0.02    0.04
  13 -11   1    0.63    0.08
  -4 -10   1    3.80    0.16
   3  10  -1    0.07    0.05
  -3 -10   1    0.10    0.04
   2  10  -1    2.32    0.13
  -2 -10   1    2.31    0.11
   1  10  -1    2.01    0.12
  -1 -10   1    2.13    0.10
   0  10  -1   11.01    0.36
   0 -10   1   11.15    0.32
   0 -10   1   10.77    0.33
  -1  10  -1   14.44    0.46
   1 -10   1   14.54    0.42
   1 -10   1   14.84    0.41
  -2  10  -1    0.32    0.06
   2 -10   1    0.22    0.04
   2 -10   1    0.27    0.04
  -3  10  -1    1.18    0.09
   3 -10   1    1.23    0.07
  -4  10  -1    0.37    0.06
   4 -10   1    0.35    0.04
  -5  10  -1    1.81    0.11
   5 -10   1    1.65    0.09
  -6  10  -1    0.04    0.04
  -6  10  -1    0.03    0.05
   6 -10   1    0.10    0.03
  -7  10  -1    4.36    0.18
  -7  10  -1    4.06    0.16
   7 -10   1    4.41    0.16
  -8  10  -1   -0.03    0.04
  -8  10  -1    0.00    0.04
   8 -10   1   -0.08    0.03
  -9  10  -1    1.38    0.10
   9 -10   1    1.40    0.09
 -10  10  -1    0.21    0.06
  10 -10   1    0.23    0.05
 -11  10  -1    0.47    0.08
  11 -10   1    0.51    0.07
 -12  10  -1    0.68    0.09
  12 -10   1    0.90    0.08
 -13  10  -1    0.03    0.06
   4   9  -1    2.58    0.14
  -4  -9   1    2.71    0.11
  -4  -9   1    2.71    0.12
   3   9  -1    7.09    0.26
  -3  -9   1    7.48    0.24
  -3  -9   1    7.83    0.24
   2   9  -1   21.60    0.65
  -2  -9   1   21.72    0.61
  -2  -9   1   22.17    0.61
   1   9  -1    9.23    0.31
  -1  -9   1    9.78    0.28
  -1  -9   1    9.18    0.28
   0   9  -1   18.76    0.57
   0  -9   1   19.11    0.52
   0  -9   1   18.58    0.52
  -1   9  -1   25.90    0.75
   1  -9   1   25.60    0.70
   1  -9   1   25.81    0.70
  -2   9  -1   19.60    0.58
   2  -9   1   19.27    0.54
   2  -9   1   19.87    0.54
  -3   9  -1    4.47    0.18
   3  -9   1    4.74    0.15
  -4   9  -1    0.35    0.06
   4  -9   1    0.48    0.05
  -5   9  -1    2.70    0.14
  -5   9  -1    2.81    0.11
   5  -9   1    2.67    0.11
  -6   9  -1    0.09    0.05
  -6   9  -1    0.05    0.04
   6  -9   1    0.02    0.03
  -7   9  -1    1.31    0.10
  -7   9  -1    1.17    0.09
   7  -9   1    1.21    0.08
  -8   9  -1    4.33    0.17
  -8   9  -1    4.62    0.18
   8  -9   1    4.22    0.16
  -9   9  -1    0.15    0.05
   9  -9   1    0.11    0.04
 -10   9  -1    0.19    0.05
  10  -9   1    0.28    0.05
 -11   9  -1    4.21    0.18
  11  -9   1    4.09    0.17
 -12   9  -1    1.65    0.13
  12  -9   1    1.49    0.10
 -13   9  -1    2.24    0.15
  -6  -8   1    0.47    0.05
  -5  -8   1   10.57    0.32
  -5  -8   1   10.44    0.33
   4   8  -1    5.40    0.21
  -4  -8   1    5.45    0.19
  -4  -8   1    5.45    0.18
   3   8  -1    5.20    0.20
  -3  -8   1    4.98    0.17
  -3  -8   1    4.82    0.17
   2   8  -1   20.31    0.62
  -2  -8   1   20.99    0.58
  -2  -8   1   21.14    0.58
   1   8  -1    1.32    0.10
  -1  -8   1    1.28    0.07
  -1  -8   1    1.36    0.07
   0   8  -1    3.51    0.15
   0  -8   1    3.37    0.12
   0  -8   1    3.45    0.12
  -1   8  -1    2.14    0.12
   1  -8   1    2.82    0.10
   1  -8   1    2.94    0.10
  -2   8  -1   -0.01    0.01
   2  -8   1    0.02    0.02
  -3   8  -1   16.81    0.50
  -4   8  -1    0.07    0.04
  -4   8  -1    0.07    0.03
  -5   8  -1    4.16    0.15
  -5   8  -1    3.94    0.16
   5  -8   1    4.03    0.14
  -6   8  -1   33.88    0.94
  -6   8  -1   35.14    0.98
   6  -8   1   33.81    0.92
  -7   8  -1    0.04    0.04
  -7   8  -1    0.00    0.04
   7  -8   1    0.04    0.03
  -8   8  -1    1.66    0.11
  -8   8  -1    1.54    0.09
   8  -8   1    1.50    0.09
  -9   8  -1    3.86    0.16
   9  -8   1    3.51    0.14
 -10   8  -1    6.39    0.24
  10  -8   1    6.60    0.22
 -11   8  -1    3.23    0.16
  11  -8   1    3.69    0.15
 -12   8  -1    2.95    0.16
  12  -8   1    2.85    0.14
 -13   8  -1    7.98    0.30
  -8  -7   1    1.07    0.09
  -7  -7   1    9.93    0.32
  -6  -7   1    1.96    0.10
   5   7  -1   12.50    0.39
  -5  -7   1   12.75    0.38
  -5  -7   1   12.56    0.37
   4   7  -1   11.63    0.37
  -4  -7   1   11.57    0.34
  -4  -7   1   11.91    0.34
   3   7  -1    0.92    0.09
  -3  -7   1    1.04    0.06
  -3  -7   1    1.04    0.07
   2   7  -1    1.06    0.09
  -2  -7   1    1.13    0.06
  -2  -7   1    1.09    0.06
   1   7  -1   28.18    0.80
  -1  -7   1   28.24    0.76
  -1  -7   1   27.73    0.75
   0   7  -1    0.00    0.04
  -1   7  -1    0.34    0.05
   1  -7   1    0.41    0.04
   1  -7   1    0.41    0.04
  -2   7  -1    0.15    0.04
   2  -7   1    0.14    0.03
  -3   7  -1    7.56    0.25
  -3   7  -1    7.61    0.23
  -4   7  -1   35.10    0.98
  -4   7  -1   35.28    0.94
   4  -7   1   34.09    0.92
  -5   7  -1    0.80    0.06
  -5   7  -1    0.71    0.06
   5  -7   1    0.69    0.05
  -6   7  -1   37.52    1.07
  -6   7  -1   38.01    1.04
   6  -7   1   38.45    1.01
  -7   7  -1   34.10    0.94
  -7   7  -1   34.00    0.96
   7  -7   1   33.67    0.91
  -8   7  -1    0.27    0.05
   8  -7   1    0.29    0.04
  -9   7  -1    0.20    0.05
   9  -7   1    0.19    0.04
 -10   7  -1    3.53    0.16
  10  -7   1    3.75    0.15
 -11   7  -1    7.29    0.27
  11  -7   1    7.66    0.25
 -12   7  -1    0.30    0.07
  12  -7   1    0.41    0.06
 -13   7  -1    0.20    0.07
 -10  -6   1    0.33    0.06
  -9  -6   1    0.75    0.08
  -8  -6   1    0.04    0.04
  -7  -6   1    0.55    0.06
  -6  -6   1   -0.03    0.03
  -6  -6   1    0.03    0.03
   5   6  -1   10.39    0.32
  -5  -6   1   10.69    0.31
  -5  -6   1    9.45    0.30
   4   6  -1    5.91    0.20
  -4  -6   1    5.72    0.18
  -4  -6   1    5.61    0.19
   3   6  -1    5.02    0.18
  -3  -6   1    5.19    0.17
  -3  -6   1    5.25    0.17
   2   6  -1    9.52    0.30
  -2  -6   1    9.94    0.28
  -2  -6   1    9.77    0.28
   1   6  -1    0.07    0.03
  -1  -6   1    0.07    0.02
  -1  -6   1    0.05    0.02
   0   6  -1   11.43    0.35
   0  -6   1   11.87    0.33
   0  -6   1   11.48    0.32
   1  -6   1    4.60    0.14
  -2   6  -1  122.75    3.45
   2  -6   1  125.22    3.23
  -3   6  -1   13.36    0.40
  -3   6  -1   13.21    0.37
  -4   6  -1   16.46    0.47
  -4   6  -1   16.23    0.45
   4  -6   1   15.69    0.44
  -5   6  -1    6.99    0.22
  -5   6  -1    7.12    0.22
   5  -6   1    6.66    0.21
  -6   6  -1    0.07    0.04
  -6   6  -1    0.07    0.03
   6  -6   1    0.04    0.03
  -7   6  -1   34.96    0.99
  -7   6  -1   35.59    0.97
   7  -6   1   35.28    0.95
  -8   6  -1    1.93    0.10
   8  -6   1    2.27    0.10
  -9   6  -1   10.65    0.34
   9  -6   1   10.54    0.32
 -10   6  -1    5.43    0.21
  10  -6   1    5.31    0.19
 -11   6  -1    2.88    0.15
  11  -6   1    2.98    0.13
 -12   6  -1    6.12    0.24
 -13   6  -1    0.04    0.06
 -10  -5   1    4.62    0.19
  -9  -5   1   -0.01    0.04
  -8  -5   1    6.27    0.22
  -7  -5   1    0.26    0.04
  -6  -5   1    0.06    0.03
  -6  -5   1    0.05    0.03
   5   5  -1   27.72    0.80
  -5  -5   1   27.73    0.76
  -5  -5   1   28.32    0.77
   4   5  -1    5.52    0.18
  -4  -5   1    5.32    0.17
  -4  -5   1    5.06    0.17
   3   5  -1   12.61    0.38
  -3  -5   1   12.36    0.36
  -3  -5   1   12.75    0.35
   2   5  -1    4.99    0.17
  -2  -5   1    5.00    0.15
  -2  -5   1    4.97    0.15
   1   5  -1    3.10    0.12
  -1  -5   1    3.18    0.10
  -1  -5   1    3.09    0.10
   0   5  -1   18.59    0.53
   0  -5   1   18.51    0.49
   1  -5   1    8.55    0.24
  -2   5  -1   18.69    0.49
  -2   5  -1   18.48    0.51
   2  -5   1   16.22    0.48
  -3   5  -1   17.87    0.50
  -3   5  -1   17.90    0.52
   3  -5   1   18.64    0.49
  -4   5  -1    4.40    0.15
  -4   5  -1    4.28    0.14
   4  -5   1    4.27    0.14
  -5   5  -1    0.41    0.04
  -5   5  -1    0.40    0.04
   5  -5   1    0.33    0.03
  -6   5  -1   56.52    1.56
  -6   5  -1   57.74    1.52
   6  -5   1   55.62    1.49
  -7   5  -1   20.23    0.58
  -7   5  -1   19.97    0.58
   7  -5   1   20.79    0.56
  -8   5  -1    0.73    0.06
   8  -5   1    0.65    0.06
  -9   5  -1    0.71    0.07
   9  -5   1    0.83    0.07
 -10   5  -1    3.05    0.14
  10  -5   1    2.86    0.13
 -11   5  -1    0.18    0.05
  11  -5   1    0.11    0.04
 -12   5  -1    0.48    0.08
 -13   5  -1    0.21    0.07
 -11  -4   1    1.70    0.12
 -10  -4   1    0.75    0.08
  -9  -4   1    0.15    0.04
  -8  -4   1    0.11    0.04
  -7  -4   1   14.47    0.41
  -7  -4   1   14.50    0.43
  -6  -4   1   54.99    1.45
  -6  -4   1   52.25    1.41
   5   4  -1    0.02    0.03
  -5  -4   1    0.01    0.02
  -5  -4   1    0.04    0.02
   4   4  -1    4.63    0.16
  -4  -4   1    4.44    0.15
  -4  -4   1    4.68    0.15
   3   4  -1    6.97    0.23
  -3  -4   1    7.46    0.21
  -3  -4   1    7.32    0.21
   2   4  -1    6.09    0.19
  -2  -4   1    6.22    0.18
  -2  -4   1    6.13    0.18
   1   4  -1   47.00    1.31
  -1  -4   1   47.68    1.23
   0   4  -1    9.37    0.29
   0  -4   1    9.69    0.26
   0  -4   1   10.11    0.27
  -2   4  -1    0.39    0.04
  -2   4  -1    0.36    0.03
  -3   4  -1    0.89    0.05
  -3   4  -1    0.98    0.06
   3  -4   1    1.00    0.05
  -4   4  -1   62.09    1.64
  -4   4  -1   60.85    1.69
   4  -4   1   61.57    1.60
  -5   4  -1   11.09    0.32
  -5   4  -1   10.93    0.32
   5  -4   1   10.93    0.31
  -6   4  -1    0.15    0.03
  -6   4  -1    0.19    0.04
   6  -4   1    0.19    0.03
  -7   4  -1    3.80    0.14
   7  -4   1    3.77    0.14
  -8   4  -1    1.62    0.09
   8  -4   1    1.64    0.08
  -9   4  -1   13.09    0.41
   9  -4   1   13.42    0.39
 -10   4  -1    9.61    0.32
  10  -4   1    9.63    0.30
 -11   4  -1    0.77    0.08
  11  -4   1    0.77    0.07
 -12   4  -1    9.78    0.34
 -11  -3   1    0.04    0.05
 -10  -3   1    0.66    0.07
  -9  -3   1    0.30    0.05
  -8  -3   1   11.68    0.36
  -7  -3   1    8.82    0.26
  -7  -3   1    8.57    0.27
   6   3  -1    0.25    0.04
  -6  -3   1    0.14    0.03
  -6  -3   1    0.12    0.03
   5   3  -1    2.74    0.11
  -5  -3   1    2.97    0.11
  -5  -3   1    2.92    0.10
   4   3  -1    1.65    0.07
  -4  -3   1    1.76    0.07
  -4  -3   1    1.72    0.07
   3   3  -1    0.12    0.03
  -3  -3   1    0.14    0.02
  -3  -3   1    0.13    0.02
   2   3  -1   10.43    0.30
  -2  -3   1   10.40    0.28
   1   3  -1    0.44    0.04
  -1  -3   1    0.40    0.03
  -1  -3   1    0.42    0.03
   0  -3   1  157.13    4.09
  -1   3  -1    1.12    0.05
  -1   3  -1    1.08    0.06
   1  -3   1    1.08    0.05
  -2   3  -1  109.67    2.92
  -2   3  -1  109.47    3.03
  -3   3  -1    1.73    0.07
  -3   3  -1    1.60    0.07
  -4   3  -1    2.35    0.09
  -4   3  -1    2.42    0.08
   4  -3   1    2.31    0.09
  -5   3  -1   19.84    0.56
  -5   3  -1   20.60    0.55
   5  -3   1   19.45    0.54
  -6   3  -1   15.63    0.44
   6  -3   1   16.05    0.44
   7  -3   1   27.23    0.74
  -8   3  -1    0.33    0.05
   8  -3   1    0.37    0.05
  -9   3  -1    0.27    0.05
   9  -3   1    0.29    0.05
 -10   3  -1    2.14    0.12
  10  -3   1    2.37    0.11
 -11   3  -1    0.18    0.05
 -12   3  -1    5.22    0.22
 -11  -2   1    0.13    0.05
 -10  -2   1    8.03    0.28
  -9  -2   1   -0.02    0.03
  -8  -2   1    2.48    0.11
  -8  -2   1    2.45    0.10
  -7  -2   1    7.36    0.24
  -7  -2   1    7.45    0.23
  -6  -2   1    2.30    0.09
  -6  -2   1    2.15    0.09
   5   2  -1    9.69    0.29
  -5  -2   1    9.86    0.28
  -5  -2   1    9.64    0.27
   4   2  -1    1.80    0.07
  -4  -2   1    1.82    0.07
  -4  -2   1    1.80    0.07
   3   2  -1    4.57    0.15
  -3  -2   1    4.71    0.14
  -3  -2   1    4.71    0.14
   2   2  -1   10.78    0.32
  -2  -2   1   11.36    0.30
  -2  -2   1   11.07    0.30
   1   2  -1   44.81    1.22
  -1  -2   1   44.07    1.17
  -1  -2   1   44.39    1.16
   0  -2   1   47.59    1.25
  -1   2  -1  110.82    3.05
  -1   2  -1  110.10    2.94
  -2   2  -1    8.06    0.23
  -2   2  -1    7.78    0.22
   2  -2   1    8.04    0.22
  -3   2  -1    0.06    0.02
   3  -2   1    0.04    0.02
  -4   2  -1  117.53    3.22
   4  -2   1  117.98    3.07
  -5   2  -1    0.28    0.03
  -6   2  -1    2.37    0.10
  -7   2  -1    1.61    0.09
   7  -2   1    1.81    0.08
  -8   2  -1    0.81    0.07
   8  -2   1    0.80    0.06
  -9   2  -1    3.90    0.16
   9  -2   1    3.75    0.15
 -10   2  -1    5.16    0.20
  10  -2   1    5.16    0.19
 -11   2  -1    0.03    0.05
 -12   2  -1    0.83    0.09
 -12  -1   1    4.41    0.20
 -11  -1   1    0.01    0.04
 -10  -1   1    0.12    0.04
  -9  -1   1    0.07    0.03
  -8  -1   1    5.65    0.20
  -8  -1   1    5.65    0.18
  -7  -1   1    0.07    0.03
  -7  -1   1    0.21    0.03
  -6  -1   1    0.29    0.03
  -6  -1   1    0.26    0.03
  -5  -1   1  119.38    3.25
  -5  -1   1  122.50    3.12
   4   1  -1   49.78    1.35
  -4  -1   1   49.40    1.31
  -4  -1   1   48.53    1.28
   3   1  -1    1.05    0.05
  -3  -1   1    1.05    0.04
   2   1  -1    6.12    0.18
  -2  -1   1    6.43    0.17
  -2  -1   1    6.41    0.18
   1   1  -1   24.58    0.69
  -1  -1   1   25.28    0.66
  -1  -1   1   24.94    0.65
   0   1  -1   65.91    1.83
   0  -1   1   66.51    1.72
  -1   1  -1  228.27    6.36
  -2   1  -1   61.89    1.62
  -2   1  -1   60.20    1.67
  -2   1  -1   60.74    1.58
  -4   1  -1  151.50    3.91
  -4   1  -1  148.50    4.02
  -5   1  -1   52.66    1.36
  -5   1  -1   51.14    1.39
  -6   1  -1    7.87    0.24
  -6   1  -1    7.89    0.24
  -7   1  -1   21.61    0.60
  -7   1  -1   21.10    0.59
  -8   1  -1    0.25    0.04
  -8   1  -1    0.25    0.04
  -9   1  -1    0.17    0.04
 -10   1  -1    3.88    0.17
 -11   1  -1    5.41    0.22
 -12   1  -1   -0.04    0.05
 -12   0   1    0.08    0.05
 -11   0   1    5.77    0.22
 -10   0   1    0.86    0.08
  -9   0   1    0.09    0.04
  -8   0   1   27.60    0.74
  -8   0   1   27.36    0.77
  -7   0   1   12.09    0.35
  -7   0   1   12.79    0.37
  -6   0   1    0.11    0.02
  -6   0   1    0.11    0.02
  -5   0   1    0.22    0.03
  -5   0   1    0.24    0.02
  -4   0   1    5.69    0.16
  -2   0   1    0.84    0.03
  -1   0   1   13.07    0.35
   0   0  -1   65.03    1.64
   0   0  -1   60.92    1.67
  -1   0  -1    0.41    0.02
  -1   0  -1    0.45    0.02
  -2   0  -1   32.00    0.82
  -2   0  -1   31.11    0.84
  -3   0  -1   50.50    1.32
  -4   0  -1   76.69    1.96
  -4   0  -1   73.90    1.99
  -5   0  -1    5.25    0.17
  -5   0  -1    5.23    0.17
  -6   0  -1    8.71    0.26
  -6   0  -1    9.05    0.27
  -7   0  -1    0.08    0.03
  -7   0  -1    0.01    0.03
  -8   0  -1    4.69    0.18
  -8   0  -1    5.07    0.17
  -9   0  -1    3.96    0.16
  -9   0  -1    4.01    0.15
 -10   0  -1    0.20    0.05
 -11   0  -1    0.79    0.09
 -13   1   1    0.85    0.10
 -12   1   1    0.79    0.09
 -11   1   1    1.12    0.09
 -10   1   1    4.67    0.18
   9  -1  -1    2.60    0.11
  -9   1   1    2.61    0.12
   8  -1  -1    1.37    0.07
  -8   1   1    1.42    0.08
  -6   1   1   18.01    0.50
  -5   1   1    0.08    0.02
  -5   1   1    0.15    0.02
   4  -1  -1   39.34    1.04
  -4   1   1   40.88    1.10
  -4   1   1   40.11    1.07
   3  -1  -1  192.09    5.07
  -3   1   1  197.09    5.19
  -3   1   1  197.30    5.36
   2  -1  -1   37.10    0.97
  -2   1   1   36.85    0.98
  -2   1   1   37.43    1.02
   1  -1  -1   98.54    2.78
  -1   1   1   98.93    2.60
   0  -1  -1  147.24    4.04
   0   1   1  147.17    4.32
  -1  -1  -1  177.43    4.69
  -1  -1  -1  179.92    4.62
   1   1   1  174.59    4.85
  -2  -1  -1  182.11    4.78
  -2  -1  -1  178.65    4.69
   2   1   1  178.94    4.92
  -3  -1  -1    0.07    0.02
  -3  -1  -1    0.08    0.02
   3   1   1    0.08    0.01
  -4  -1  -1    0.53    0.04
  -4  -1  -1    0.49    0.04
   4   1   1    0.55    0.03
  -5  -1  -1    0.07    0.02
  -5  -1  -1    0.04    0.02
  -6  -1  -1    0.06    0.03
  -6  -1  -1    0.12    0.03
  -7  -1  -1   17.53    0.50
  -7  -1  -1   17.63    0.51
  -8  -1  -1    1.10    0.08
  -8  -1  -1    1.16    0.08
  -9  -1  -1    3.45    0.14
  -9  -1  -1    3.49    0.15
 -10  -1  -1    3.24    0.15
 -11  -1  -1    1.19    0.10
 -13   2   1    6.72    0.26
 -12   2   1    0.16    0.06
 -11   2   1   11.72    0.38
 -10   2   1    0.23    0.05
   9  -2  -1   20.06    0.55
  -9   2   1   19.75    0.57
   8  -2  -1    3.13    0.12
  -8   2   1    3.21    0.13
   7  -2  -1    0.00    0.02
  -7   2   1    0.03    0.02
  -7   2   1    0.02    0.02
   6  -2  -1    1.74    0.07
  -6   2   1    1.78    0.07
  -6   2   1    1.60    0.08
  -5   2   1   23.94    0.66
  -5   2   1   24.40    0.67
   4  -2  -1   27.12    0.71
  -4   2   1   27.27    0.75
  -4   2   1   27.03    0.73
   3  -2  -1   11.26    0.30
  -3   2   1   10.95    0.31
  -3   2   1   11.19    0.30
   2  -2  -1   15.61    0.41
  -2   2   1   15.62    0.44
  -2   2   1   15.85    0.42
   1  -2  -1  243.11    6.11
  -1   2   1  228.89    6.31
   0  -2  -1   18.13    0.49
   0   2   1   18.61    0.51
  -1  -2  -1   75.32    2.03
  -1  -2  -1   75.88    2.00
   1   2   1   77.36    2.11
  -2  -2  -1    7.02    0.20
  -2  -2  -1    6.85    0.20
   2   2   1    7.22    0.21
  -3  -2  -1    2.65    0.09
  -3  -2  -1    2.69    0.09
   3   2   1    2.59    0.09
  -4  -2  -1   17.88    0.48
  -4  -2  -1   17.85    0.49
   4   2   1   17.03    0.49
  -5  -2  -1   78.88    2.08
  -5  -2  -1   80.14    2.12
  -6  -2  -1   21.34    0.59
  -6  -2  -1   21.38    0.60
  -7  -2  -1    0.05    0.03
  -7  -2  -1    0.08    0.03
  -8  -2  -1    5.99    0.21
  -8  -2  -1    6.07    0.21
  -9  -2  -1    0.16    0.05
 -10  -2  -1    1.63    0.11
 -11  -2  -1    0.84    0.09
 -13   3   1    0.00    0.05
 -12   3   1    1.55    0.11
 -11   3   1   14.40    0.45
 -10   3   1    0.60    0.07
   9  -3  -1    1.02    0.06
  -9   3   1    0.92    0.07
   8  -3  -1    0.06    0.03
  -8   3   1   -0.01    0.03
   7  -3  -1    2.89    0.10
  -7   3   1    2.92    0.11
   6  -3  -1   49.21    1.30
  -6   3   1   50.51    1.34
  -5   3   1    0.22    0.02
  -5   3   1    0.16    0.02
   4  -3  -1   13.37    0.35
  -4   3   1   13.08    0.37
  -4   3   1   12.96    0.36
   3  -3  -1   12.48    0.32
  -3   3   1   11.91    0.33
  -3   3   1   12.01    0.34
   2  -3  -1   42.23    1.12
  -2   3   1   42.67    1.17
  -2   3   1   42.50    1.12
   1  -3  -1    2.04    0.06
   0  -3  -1    0.02    0.01
   0  -3  -1    0.04    0.01
   0   3   1    0.09    0.02
  -1  -3  -1    0.52    0.03
  -1  -3  -1    0.53    0.03
   1   3   1    0.52    0.05
  -2  -3  -1    2.01    0.07
   2   3   1    1.89    0.08
  -3  -3  -1   39.67    1.08
  -3  -3  -1   41.71    1.07
   3   3   1   40.28    1.12
  -4  -3  -1   14.61    0.41
  -4  -3  -1   14.57    0.41
   4   3   1   14.51    0.42
  -5  -3  -1    6.83    0.21
  -5  -3  -1    6.67    0.21
  -6  -3  -1    7.98    0.25
  -6  -3  -1    7.90    0.25
  -7  -3  -1    0.86    0.07
  -7  -3  -1    0.78    0.07
  -8  -3  -1    2.16    0.11
  -8  -3  -1    2.05    0.11
  -9  -3  -1    5.99    0.23
 -10  -3  -1    0.32    0.06
 -13   4   1   14.93    0.48
 -12   4   1    0.83    0.09
 -11   4   1    3.25    0.15
  10  -4  -1    5.07    0.17
 -10   4   1    4.92    0.19
   9  -4  -1    0.05    0.03
  -9   4   1   -0.01    0.03
   8  -4  -1   98.99    2.56
  -8   4   1   96.41    2.62
  -8   4   1   99.63    2.69
   7  -4  -1    7.46    0.23
  -7   4   1    7.81    0.24
  -7   4   1    7.62    0.23
   6  -4  -1    6.87    0.20
  -6   4   1    6.95    0.21
  -6   4   1    6.84    0.21
   5  -4  -1    7.55    0.21
  -5   4   1    7.06    0.22
  -5   4   1    7.58    0.22
   4  -4  -1    0.00    0.01
  -4   4   1    0.03    0.02
  -4   4   1   -0.02    0.01
  -3   4   1   80.37    2.12
   1  -4  -1    4.23    0.12
  -1   4   1    4.11    0.14
   0  -4  -1   20.05    0.52
   0  -4  -1   19.58    0.52
   0   4   1   19.25    0.56
  -1  -4  -1   99.89    2.70
  -1  -4  -1  102.56    2.64
   1   4   1  101.50    2.82
  -2  -4  -1   13.33    0.37
  -2  -4  -1   13.76    0.38
   2   4   1   13.47    0.39
  -3  -4  -1    1.21    0.06
  -3  -4  -1    1.19    0.05
   3   4   1    1.17    0.07
  -4  -4  -1    7.41    0.23
  -4  -4  -1    7.70    0.23
   4   4   1    7.42    0.23
  -5  -4  -1    0.37    0.04
  -5  -4  -1    0.32    0.04
  -6  -4  -1    7.42    0.24
  -6  -4  -1    7.51    0.24
  -7  -4  -1    2.67    0.12
  -7  -4  -1    2.61    0.12
  -8  -4  -1    0.22    0.05
  -9  -4  -1    0.08    0.05
 -10  -4  -1    1.10    0.10
 -13   5   1    0.03    0.05
 -12   5   1    8.31    0.30
 -11   5   1    2.16    0.12
  10  -5  -1    9.63    0.29
 -10   5   1    9.35    0.31
   9  -5  -1    2.96    0.12
  -9   5   1    2.98    0.13
   8  -5  -1    1.04    0.06
  -8   5   1    0.81    0.07
  -8   5   1    1.06    0.07
   7  -5  -1    0.94    0.06
  -7   5   1    0.97    0.06
  -7   5   1    0.93    0.06
   6  -5  -1   20.99    0.57
  -6   5   1   21.48    0.61
  -6   5   1   21.54    0.59
   5  -5  -1    9.79    0.27
  -5   5   1    9.71    0.29
  -5   5   1    9.85    0.28
   4  -5  -1   76.16    2.00
  -4   5   1   75.47    2.00
  -4   5   1   75.64    2.08
   3  -5  -1   60.75    1.59
  -3   5   1   61.23    1.69
  -3   5   1   61.67    1.62
   2  -5  -1    8.65    0.24
   1  -5  -1   15.74    0.43
   1  -5  -1   15.85    0.42
  -1   5   1   15.75    0.46
   0  -5  -1   80.81    2.11
   0  -5  -1   79.04    2.07
   0   5   1   77.75    2.18
  -1  -5  -1   10.93    0.30
   1   5   1   10.49    0.32
  -2  -5  -1    0.11    0.02
  -2  -5  -1    0.29    0.03
   2   5   1    0.11    0.03
  -3  -5  -1    1.59    0.08
  -3  -5  -1    1.72    0.07
   3   5   1    1.68    0.09
  -4  -5  -1    1.13    0.07
  -4  -5  -1    1.17    0.06
   4   5   1    1.10    0.08
  -5  -5  -1   39.25    1.07
  -5  -5  -1   39.15    1.06
  -6  -5  -1    4.27    0.16
  -6  -5  -1    4.36    0.17
  -7  -5  -1    3.68    0.15
  -7  -5  -1    3.75    0.15
  -8  -5  -1    2.71    0.13
  -9  -5  -1    0.31    0.06
 -13   6   1    0.47    0.08
 -12   6   1   19.48    0.59
  11  -6  -1    3.26    0.13
 -11   6   1    3.07    0.15
  10  -6  -1    0.08    0.04
 -10   6   1    0.14    0.05
   9  -6  -1   15.46    0.43
  -9   6   1   14.95    0.45
   8  -6  -1   19.92    0.54
  -8   6   1   19.38    0.56
  -8   6   1   19.60    0.57
   7  -6  -1   73.32    1.94
  -7   6   1   75.06    1.99
  -7   6   1   74.84    2.05
   6  -6  -1    1.33    0.07
  -6   6   1    1.50    0.08
  -6   6   1    1.48    0.07
   5  -6  -1   12.73    0.35
  -5   6   1   12.83    0.36
  -5   6   1   12.50    0.38
   4  -6  -1   11.01    0.31
  -4   6   1   10.88    0.33
  -4   6   1   11.23    0.31
   3  -6  -1   10.16    0.28
  -3   6   1    9.77    0.28
  -3   6   1    9.71    0.30
  -2   6   1    2.39    0.11
   1  -6  -1    2.47    0.09
   1  -6  -1    2.59    0.08
  -1   6   1    2.52    0.11
   0  -6  -1    0.69    0.05
   0   6   1    0.72    0.07
  -1  -6  -1    0.29    0.04
  -1  -6  -1    0.29    0.03
   1   6   1    0.27    0.04
  -2  -6  -1    0.31    0.03
  -2  -6  -1    0.35    0.04
   2   6   1    0.26    0.05
  -3  -6  -1    1.16    0.07
  -3  -6  -1    1.19    0.06
   3   6   1    1.08    0.08
  -4  -6  -1    6.88    0.21
  -4  -6  -1    6.53    0.23
   4   6   1    7.07    0.23
  -5  -6  -1    3.25    0.14
  -5  -6  -1    3.11    0.13
  -6  -6  -1    0.22    0.05
  -6  -6  -1    0.19    0.04
  -7  -6  -1    1.36    0.09
 -14   7   1    1.83    0.13
 -13   7   1    1.38    0.12
 -12   7   1    0.35    0.07
  11  -7  -1   13.34    0.38
 -11   7   1   12.17    0.40
  10  -7  -1   17.27    0.49
 -10   7   1   17.62    0.52
   9  -7  -1    8.77    0.27
  -9   7   1    8.80    0.28
  -9   7   1    8.80    0.28
   8  -7  -1   39.26    1.06
  -8   7   1   39.67    1.12
  -8   7   1   40.78    1.09
   7  -7  -1    7.85    0.24
  -7   7   1    8.08    0.26
  -7   7   1    7.78    0.24
   6  -7  -1    1.56    0.07
  -6   7   1    1.80    0.09
  -6   7   1    1.69    0.08
   5  -7  -1    0.13    0.03
  -5   7   1    0.14    0.03
   4  -7  -1    0.17    0.03
  -4   7   1    0.27    0.05
  -4   7   1    0.13    0.03
   3  -7  -1    6.99    0.20
  -3   7   1    5.94    0.22
   2  -7  -1   25.35    0.66
   2  -7  -1   21.28    0.66
  -2   7   1   27.50    0.72
   1  -7  -1    6.23    0.19
  -1   7   1    6.47    0.22
   0  -7  -1    0.02    0.02
   0  -7  -1    0.02    0.01
   0   7   1   -0.01    0.04
  -1  -7  -1    0.13    0.02
  -1  -7  -1    0.16    0.03
   1   7   1    0.09    0.04
  -2  -7  -1    4.62    0.15
  -2  -7  -1    4.69    0.17
   2   7   1    4.72    0.18
  -3  -7  -1    6.13    0.19
  -3  -7  -1    6.09    0.21
   3   7   1    6.25    0.22
  -4  -7  -1    3.53    0.15
  -4  -7  -1    3.52    0.13
  -5  -7  -1   10.46    0.33
  -6  -7  -1    8.75    0.29
 -14   8   1    0.03    0.06
 -13   8   1   10.51    0.36
 -12   8   1   16.29    0.50
  11  -8  -1    2.29    0.11
 -11   8   1    2.12    0.12
  10  -8  -1    2.24    0.10
 -10   8   1    2.22    0.12
   9  -8  -1    0.66    0.06
  -9   8   1    0.69    0.07
  -9   8   1    0.72    0.07
   8  -8  -1   14.89    0.42
  -8   8   1   14.78    0.45
  -8   8   1   14.78    0.43
   7  -8  -1   -0.01    0.03
  -7   8   1    0.01    0.03
  -7   8   1    0.05    0.04
   6  -8  -1    7.92    0.24
  -6   8   1    8.14    0.27
  -6   8   1    7.80    0.24
   5  -8  -1    0.03    0.02
  -5   8   1    0.06    0.05
  -5   8   1    0.10    0.03
   4  -8  -1    0.01    0.02
  -4   8   1    0.06    0.05
   3  -8  -1    0.00    0.01
   2  -8  -1    0.21    0.02
  -2   8   1    0.26    0.06
   1  -8  -1    2.94    0.11
   1  -8  -1    2.98    0.10
  -1   8   1    2.85    0.14
   0  -8  -1    1.72    0.07
   0  -8  -1    1.76    0.09
   0   8   1    1.62    0.11
  -1  -8  -1    7.34    0.22
  -1  -8  -1    7.19    0.23
   1   8   1    7.45    0.25
  -2  -8  -1    1.12    0.08
   2   8   1    1.23    0.10
  -3  -8  -1   17.93    0.52
   3   8   1   18.27    0.54
  -4  -8  -1    4.29    0.17
  -5  -8  -1    0.05    0.04
 -14   9   1    3.51    0.18
 -13   9   1    0.14    0.06
  12  -9  -1    3.14    0.14
 -12   9   1    3.28    0.16
  11  -9  -1    0.49    0.06
 -11   9   1    0.62    0.07
  10  -9  -1    0.06    0.03
 -10   9   1    0.13    0.05
   9  -9  -1    0.07    0.03
  -9   9   1    0.06    0.04
  -9   9   1    0.02    0.05
   8  -9  -1    9.53    0.29
  -8   9   1    9.71    0.32
  -8   9   1    9.64    0.30
   7  -9  -1   -0.05    0.03
  -7   9   1   -0.02    0.03
  -7   9   1   -0.02    0.05
   6  -9  -1   14.48    0.42
  -6   9   1   14.92    0.46
  -6   9   1   15.06    0.42
   5  -9  -1   12.60    0.37
  -5   9   1   13.06    0.41
  -5   9   1   13.06    0.37
   4  -9  -1    8.20    0.24
  -4   9   1    7.73    0.28
   3  -9  -1   29.51    0.80
   3  -9  -1   29.75    0.80
  -3   9   1   30.11    0.87
   2  -9  -1    0.07    0.03
  -2   9   1   -0.02    0.05
   1  -9  -1    5.15    0.17
  -1   9   1    5.21    0.20
   0  -9  -1    0.15    0.04
   0   9   1    0.21    0.05
  -1  -9  -1    3.82    0.15
   1   9   1    3.51    0.16
  -2  -9  -1    7.12    0.24
   2   9   1    7.44    0.26
  -3  -9  -1    5.57    0.20
   3   9   1    5.52    0.21
  -4  -9  -1    3.88    0.17
  -5  -9  -1    2.00    0.12
 -14  10   1    5.38    0.23
 -13  10   1    1.89    0.13
  12 -10  -1    0.61    0.07
 -12  10   1    0.50    0.08
  11 -10  -1    0.88    0.08
 -11  10   1    0.94    0.09
  10 -10  -1    0.22    0.04
 -10  10   1    0.20    0.06
 -10  10   1    0.16    0.05
   9 -10  -1    0.40    0.05
  -9  10   1    0.31    0.07
  -9  10   1    0.36    0.06
   8 -10  -1    3.73    0.14
  -8  10   1    3.61    0.14
  -8  10   1    3.45    0.17
   7 -10  -1    2.26    0.10
  -7  10   1    2.22    0.10
  -7  10   1    2.22    0.13
   6 -10  -1    0.49    0.05
  -6  10   1    0.62    0.06
  -6  10   1    0.43    0.07
   5 -10  -1    3.28    0.13
  -5  10   1    3.37    0.16
   4 -10  -1    0.77    0.06
  -4  10   1    0.56    0.08
   3 -10  -1    1.46    0.08
  -3  10   1    1.40    0.10
   2 -10  -1    3.95    0.14
  -2  10   1    3.65    0.17
   1 -10  -1    5.87    0.20
  -1  10   1    5.89    0.22
   0 -10  -1   -0.01    0.03
   0  10   1    0.02    0.05
  -1 -10  -1    0.76    0.07
   1  10   1    0.65    0.08
  -2 -10  -1    9.58    0.31
   2  10   1    9.74    0.33
  -3 -10  -1   -0.01    0.04
  -4 -10  -1    0.98    0.09
 -13  11   1    0.85    0.10
  12 -11  -1    0.01    0.04
 -12  11   1   -0.04    0.05
  11 -11  -1    1.30    0.09
 -11  11   1    1.27    0.10
  10 -11  -1   -0.07    0.03
 -10  11   1    0.00    0.05
 -10  11   1   -0.07    0.06
   9 -11  -1    0.02    0.04
  -9  11   1   -0.02    0.05
   8 -11  -1    0.41    0.05
  -8  11   1    0.32    0.07
   7 -11  -1    6.11    0.21
  -7  11   1    6.20    0.24
   6 -11  -1    0.87    0.06
  -6  11   1    0.72    0.09
   5 -11  -1    1.10    0.07
  -5  11   1    1.11    0.11
   4 -11  -1    0.15    0.04
  -4  11   1    0.18    0.06
   3 -11  -1    0.17    0.04
  -3  11   1    0.17    0.06
   2 -11  -1    6.92    0.23
  -2  11   1    6.85    0.26
   1 -11  -1   -0.08    0.03
  -1  11   1    0.01    0.05
   0 -11  -1    2.09    0.11
   0  11   1    2.27    0.13
  -1 -11  -1    2.17    0.11
   1  11   1    2.31    0.13
  -2 -11  -1    0.08    0.04
   2  11   1    0.04    0.05
  -3 -11  -1    0.38    0.06
  -4 -11  -1    0.39    0.07
  12 -12  -1    1.40    0.10
  11 -12  -1   -0.05    0.04
  10 -12  -1    4.71    0.18
 -10  12   1    4.69    0.21
   9 -12  -1    0.39    0.06
  -9  12   1    0.27    0.07
   8 -12  -1    2.33    0.11
  -8  12   1    2.12    0.14
   7 -12  -1    6.47    0.22
  -7  12   1    6.61    0.26
   6 -12  -1    4.84    0.17
  -6  12   1    4.60    0.21
   5 -12  -1    0.18    0.04
  -5  12   1    0.20    0.07
   4 -12  -1    1.43    0.09
  -4  12   1    1.22    0.11
   3 -12  -1   29.48    0.80
  -3  12   1   28.81    0.87
   2 -12  -1    2.18    0.11
  -2  12   1    2.17    0.13
   1 -12  -1    2.97    0.13
  -1  12   1    2.81    0.15
   0 -12  -1    0.04    0.04
   0  12   1    0.09    0.06
  -1 -12  -1    2.06    0.12
   1  12   1    2.01    0.13
  -2 -12  -1    0.44    0.07
  -3 -12  -1    2.44    0.13
  12 -13  -1    0.20    0.05
  11 -13  -1    2.14    0.12
  10 -13  -1    0.02    0.04
 -10  13   1   -0.05    0.06
   9 -13  -1    7.85    0.26
  -9  13   1    8.14    0.31
   8 -13  -1    1.51    0.09
  -8  13   1    1.65    0.13
   7 -13  -1    0.83    0.07
  -7  13   1    0.69    0.09
   6 -13  -1    5.68    0.20
  -6  13   1    5.33    0.23
   5 -13  -1    6.69    0.23
  -5  13   1    6.68    0.27
   4 -13  -1    0.66    0.07
  -4  13   1    0.72    0.09
   3 -13  -1    3.69    0.15
  -3  13   1    3.67    0.18
   2 -13  -1    0.50    0.06
  -2  13   1    0.61    0.09
   1 -13  -1    0.15    0.05
  -1  13   1    0.16    0.07
   0 -13  -1    0.75    0.08
   0  13   1    0.87    0.09
  -1 -13  -1    0.08    0.05
   1  13   1    0.09    0.06
  -2 -13  -1   -0.02    0.05
  11 -14  -1    8.73    0.29
  10 -14  -1    0.09    0.04
 -10  14   1    0.03    0.07
   9 -14  -1   10.65    0.34
  -9  14   1   10.63    0.38
   8 -14  -1    8.21    0.28
  -8  14   1    8.18    0.32
   7 -14  -1    4.30    0.17
  -7  14   1    4.18    0.21
   6 -14  -1    0.97    0.08
  -6  14   1    0.87    0.10
   5 -14  -1    3.95    0.17
  -5  14   1    4.18    0.20
   4 -14  -1    1.44    0.09
  -4  14   1    1.67    0.13
   3 -14  -1    2.89    0.14
  -3  14   1    3.13    0.17
   2 -14  -1   -0.02    0.04
  -2  14   1    0.08    0.07
   1 -14  -1    0.91    0.09
  -1  14   1    1.03    0.11
   0 -14  -1    0.26    0.06
   0  14   1    0.29    0.08
 -10  15   1    3.31    0.19
   9 -15  -1    5.73    0.22
  -9  15   1    5.72    0.26
   8 -15  -1    0.16    0.05
  -8  15   1    0.05    0.07
   7 -15  -1    8.40    0.29
  -7  15   1    8.45    0.33
   6 -15  -1    0.68    0.08
  -6  15   1    0.75    0.10
   5 -15  -1    5.74    0.22
  -5  15   1    6.09    0.26
   4 -15  -1    0.46    0.07
  -4  15   1    0.50    0.09
   3 -15  -1   -0.03    0.04
  -3  15   1   -0.06    0.06
   2 -15  -1    0.02    0.05
  -2  15   1    0.03    0.07
   0 -15   2    0.23    0.05
  -1  15  -2    2.75    0.17
   1 -15   2    2.70    0.14
  -2  15  -2    6.79    0.28
   2 -15   2    6.46    0.24
  -3  15  -2    0.14    0.07
   3 -15   2    0.00    0.04
  -4  15  -2    6.50    0.27
   4 -15   2    6.29    0.23
  -5  15  -2    0.22    0.08
   5 -15   2    0.13    0.05
  -6  15  -2    0.20    0.07
   6 -15   2    0.10    0.05
  -7  15  -2    0.30    0.08
   7 -15   2    0.40    0.06
  -8  15  -2    0.18    0.07
   8 -15   2    0.09    0.05
  -9  15  -2    2.61    0.16
   2  14  -2    0.07    0.06
   1  14  -2    0.64    0.09
  -1 -14   2    0.80    0.08
   0  14  -2    2.68    0.16
   0 -14   2    2.70    0.13
  -1  14  -2    6.26    0.26
   1 -14   2    6.17    0.22
  -2  14  -2    6.37    0.26
   2 -14   2    5.89    0.22
  -3  14  -2    0.49    0.08
   3 -14   2    0.36    0.06
  -4  14  -2    0.45    0.08
   4 -14   2    0.47    0.06
  -5  14  -2    1.77    0.13
   5 -14   2    1.83    0.10
  -6  14  -2    3.63    0.18
   6 -14   2    3.66    0.16
  -7  14  -2    0.78    0.09
   7 -14   2    0.73    0.07
  -8  14  -2    0.60    0.09
   8 -14   2    0.59    0.07
   9 -14   2    6.44    0.23
  10 -14   2    0.04    0.05
   3  13  -2    0.06    0.06
   2  13  -2    0.46    0.08
  -2 -13   2    0.42    0.06
   1  13  -2   -0.03    0.06
  -1 -13   2    0.03    0.04
   0  13  -2    0.02    0.06
   0 -13   2   -0.01    0.04
  -1  13  -2    8.58    0.31
   1 -13   2    7.89    0.27
  -2  13  -2    1.56    0.12
   2 -13   2    1.48    0.09
  -3  13  -2    1.05    0.10
   3 -13   2    1.15    0.08
  -4  13  -2    1.35    0.11
   4 -13   2    1.43    0.09
  -5  13  -2    0.67    0.08
   5 -13   2    0.63    0.07
  -6  13  -2    0.02    0.05
   6 -13   2   -0.01    0.04
  -7  13  -2    3.29    0.16
   7 -13   2    3.12    0.14
  -8  13  -2    2.47    0.13
  -8  13  -2    2.38    0.14
   8 -13   2    2.21    0.12
  -9  13  -2    0.14    0.06
   9 -13   2    0.18    0.05
 -10  13  -2    0.45    0.08
  10 -13   2    0.37    0.06
 -11  13  -2    0.03    0.06
  11 -13   2    0.15    0.05
   3  12  -2    0.67    0.09
   2  12  -2    4.87    0.21
  -2 -12   2    4.98    0.19
   1  12  -2    3.29    0.17
  -1 -12   2    3.17    0.14
   0  12  -2    9.19    0.33
   0 -12   2    9.39    0.29
  -1  12  -2   12.00    0.40
   1 -12   2   11.82    0.36
  -2  12  -2    0.36    0.07
   2 -12   2    0.28    0.05
  -3  12  -2    0.07    0.05
   3 -12   2   -0.01    0.03
  -4  12  -2    1.51    0.11
   4 -12   2    1.36    0.08
  -5  12  -2    3.74    0.17
   5 -12   2    3.51    0.14
  -6  12  -2    5.01    0.21
   6 -12   2    5.19    0.18
  -7  12  -2    0.84    0.08
  -7  12  -2    0.85    0.09
   7 -12   2    0.87    0.07
  -8  12  -2    0.94    0.09
  -8  12  -2    1.09    0.10
   8 -12   2    1.01    0.08
  -9  12  -2    0.23    0.06
   9 -12   2    0.27    0.05
 -10  12  -2    0.13    0.06
  10 -12   2    0.06    0.05
 -11  12  -2    0.47    0.08
  11 -12   2    0.47    0.07
 -12  12  -2    0.04    0.06
   4  11  -2    0.12    0.06
   3  11  -2    4.82    0.21
  -3 -11   2    5.07    0.18
   2  11  -2    3.72    0.17
  -2 -11   2    3.75    0.15
   1  11  -2    0.00    0.05
  -1 -11   2    0.04    0.03
   0  11  -2    0.56    0.08
   0 -11   2    0.59    0.06
  -1  11  -2    1.65    0.12
   1 -11   2    1.73    0.09
   1 -11   2    1.76    0.08
  -2  11  -2    3.91    0.17
   2 -11   2    3.74    0.14
   2 -11   2    3.98    0.14
  -3  11  -2    0.52    0.07
   3 -11   2    0.61    0.05
   3 -11   2    0.61    0.06
  -4  11  -2    2.76    0.14
   4 -11   2    2.82    0.12
  -5  11  -2    2.18    0.12
   5 -11   2    2.33    0.11
  -6  11  -2    0.09    0.05
  -6  11  -2    0.08    0.05
   6 -11   2    0.11    0.04
  -7  11  -2    0.71    0.07
  -7  11  -2    0.64    0.07
   7 -11   2    0.73    0.07
  -8  11  -2    0.01    0.05
  -8  11  -2    0.00    0.04
   8 -11   2    0.15    0.04
  -9  11  -2    0.02    0.05
   9 -11   2   -0.01    0.04
 -10  11  -2    2.88    0.15
  10 -11   2    2.73    0.13
 -11  11  -2    2.78    0.15
  11 -11   2    2.91    0.14
 -12  11  -2    0.00    0.06
  12 -11   2    0.06    0.05
   4  10  -2   12.75    0.42
   3  10  -2    0.00    0.05
  -3 -10   2    0.01    0.03
  -3 -10   2    0.00    0.03
   2  10  -2    3.67    0.16
  -2 -10   2    3.53    0.13
  -2 -10   2    3.41    0.14
   1  10  -2    1.61    0.11
  -1 -10   2    1.71    0.08
  -1 -10   2    1.68    0.09
   0  10  -2    1.23    0.10
   0 -10   2    1.53    0.08
   0 -10   2    1.59    0.07
  -1  10  -2    0.55    0.07
   1 -10   2    0.66    0.05
   1 -10   2    0.60    0.06
  -2  10  -2    1.33    0.10
   2 -10   2    1.20    0.07
   2 -10   2    1.05    0.06
  -3  10  -2    0.08    0.05
   3 -10   2    0.02    0.03
  -4  10  -2    6.10    0.23
   4 -10   2    6.10    0.20
  -5  10  -2    0.32    0.05
  -5  10  -2    0.47    0.06
   5 -10   2    0.43    0.05
  -6  10  -2   10.66    0.33
  -6  10  -2   10.46    0.34
   6 -10   2   10.54    0.32
  -7  10  -2    2.34    0.12
  -7  10  -2    2.16    0.11
   7 -10   2    2.01    0.10
  -8  10  -2    0.01    0.04
  -8  10  -2    0.02    0.04
   8 -10   2   -0.04    0.04
  -9  10  -2    0.12    0.05
   9 -10   2    0.15    0.05
 -10  10  -2    4.75    0.20
  10 -10   2    4.95    0.19
 -11  10  -2    2.34    0.14
  11 -10   2    2.47    0.13
 -12  10  -2   -0.05    0.06
  12 -10   2   -0.04    0.05
  -6  -9   2    0.11    0.04
   5   9  -2    0.01    0.05
  -5  -9   2    0.04    0.03
   4   9  -2    1.08    0.10
  -4  -9   2    1.10    0.08
  -4  -9   2    1.09    0.07
   3   9  -2    0.48    0.07
  -3  -9   2    0.58    0.06
  -3  -9   2    0.62    0.05
   2   9  -2    0.63    0.07
  -2  -9   2    0.71    0.06
  -2  -9   2    0.80    0.06
   1   9  -2    0.26    0.06
  -1  -9   2    0.40    0.04
  -1  -9   2    0.33    0.04
   0   9  -2    5.35    0.21
   0  -9   2    5.51    0.18
   0  -9   2    5.60    0.18
  -1   9  -2   10.70    0.35
   1  -9   2   10.63    0.31
   1  -9   2   10.55    0.31
  -2   9  -2    4.95    0.19
   2  -9   2    4.82    0.16
  -3   9  -2    2.23    0.12
   3  -9   2    2.09    0.09
  -4   9  -2    2.31    0.12
   4  -9   2    2.47    0.10
  -5   9  -2    3.95    0.15
  -5   9  -2    3.71    0.16
   5  -9   2    3.85    0.14
  -6   9  -2    2.72    0.12
  -6   9  -2    2.60    0.13
   6  -9   2    2.63    0.11
  -7   9  -2   33.87    0.98
  -7   9  -2   34.60    0.95
   7  -9   2   34.25    0.93
  -8   9  -2   35.29    0.98
   8  -9   2   34.40    0.95
  -9   9  -2    6.39    0.24
   9  -9   2    6.48    0.22
 -10   9  -2    0.03    0.05
  10  -9   2    0.07    0.05
 -11   9  -2    0.44    0.07
  11  -9   2    0.44    0.07
 -12   9  -2    0.05    0.06
  12  -9   2    0.01    0.05
  -8  -8   2    0.09    0.05
  -7  -8   2   -0.03    0.04
  -6  -8   2    2.02    0.11
   5   8  -2    8.17    0.29
  -5  -8   2    8.23    0.26
  -5  -8   2    8.40    0.26
   4   8  -2   -0.08    0.04
  -4  -8   2    0.03    0.03
  -4  -8   2   -0.01    0.02
   3   8  -2    2.74    0.14
  -3  -8   2    3.14    0.12
  -3  -8   2    3.29    0.12
   2   8  -2   12.83    0.41
  -2  -8   2   13.76    0.38
  -2  -8   2   13.14    0.38
   1   8  -2   18.05    0.54
  -1  -8   2   17.76    0.50
  -1  -8   2   18.39    0.50
   0   8  -2    3.49    0.15
   0  -8   2    3.51    0.12
   0  -8   2    3.57    0.12
   1  -8   2    5.17    0.16
   1  -8   2    5.23    0.17
  -2   8  -2   46.36    1.28
   2  -8   2   44.72    1.20
  -3   8  -2    0.03    0.04
   3  -8   2    0.00    0.02
  -4   8  -2    0.14    0.04
  -4   8  -2    0.06    0.03
  -5   8  -2    0.00    0.04
  -5   8  -2    0.00    0.04
   5  -8   2   -0.02    0.03
  -6   8  -2   91.37    2.57
  -6   8  -2   93.90    2.49
   6  -8   2   94.32    2.43
  -7   8  -2    1.15    0.09
  -7   8  -2    1.26    0.09
   7  -8   2    1.19    0.08
  -8   8  -2    0.04    0.04
   8  -8   2    0.02    0.04
  -9   8  -2    5.95    0.22
   9  -8   2    5.88    0.21
 -10   8  -2    6.53    0.25
  10  -8   2    6.81    0.23
 -11   8  -2    4.90    0.21
  11  -8   2    5.22    0.20
 -12   8  -2    0.36    0.07
  12  -8   2    0.42    0.07
  -9  -7   2    0.35    0.06
  -8  -7   2    1.63    0.10
  -7  -7   2    0.53    0.06
  -6  -7   2    5.53    0.20
   5   7  -2    0.12    0.05
  -5  -7   2    0.13    0.03
  -5  -7   2    0.15    0.03
   4   7  -2    3.78    0.16
  -4  -7   2    4.06    0.14
  -4  -7   2    4.07    0.14
   3   7  -2    5.01    0.19
  -3  -7   2    5.10    0.17
  -3  -7   2    5.06    0.17
   2   7  -2    0.96    0.08
  -2  -7   2    0.88    0.06
  -2  -7   2    0.84    0.05
   1   7  -2   12.27    0.38
  -1  -7   2   12.42    0.35
  -1  -7   2   12.48    0.35
   0   7  -2    2.98    0.13
   0  -7   2    2.89    0.10
   0  -7   2    2.79    0.10
  -1   7  -2    2.19    0.11
   1  -7   2    2.18    0.08
  -2   7  -2   24.23    0.70
   2  -7   2   24.54    0.65
  -3   7  -2   16.52    0.47
  -3   7  -2   16.29    0.49
   3  -7   2   16.95    0.46
  -4   7  -2   77.20    2.18
  -4   7  -2   80.84    2.10
  -5   7  -2   23.51    0.65
  -5   7  -2   23.08    0.67
   5  -7   2   23.02    0.63
  -6   7  -2    0.86    0.07
  -6   7  -2    0.85    0.08
   6  -7   2    0.86    0.07
  -7   7  -2   17.58    0.50
  -7   7  -2   17.05    0.50
   7  -7   2   16.86    0.49
  -8   7  -2    1.24    0.09
   8  -7   2    1.24    0.08
  -9   7  -2    0.03    0.04
   9  -7   2   -0.03    0.03
 -10   7  -2    7.88    0.28
  10  -7   2    8.33    0.27
 -11   7  -2   -0.01    0.05
  11  -7   2   -0.01    0.04
 -12   7  -2    2.54    0.15
  12  -7   2    2.61    0.14
 -10  -6   2    0.69    0.08
  -9  -6   2    0.16    0.05
  -8  -6   2    0.06    0.04
  -7  -6   2    0.03    0.03
   6   6  -2   16.66    0.51
  -6  -6   2   16.91    0.49
   5   6  -2    4.44    0.17
  -5  -6   2    4.46    0.15
  -5  -6   2    4.24    0.15
   4   6  -2    0.45    0.05
  -4  -6   2    0.44    0.04
  -4  -6   2    0.43    0.04
   3   6  -2    9.94    0.31
  -3  -6   2    9.96    0.28
  -3  -6   2    9.47    0.29
   2   6  -2    5.50    0.19
  -2  -6   2    5.41    0.17
  -2  -6   2    5.37    0.17
   1   6  -2   28.24    0.81
  -1  -6   2   28.15    0.77
  -1  -6   2   28.70    0.75
   0   6  -2    0.65    0.06
   0  -6   2    0.80    0.04
   0  -6   2    0.64    0.04
  -1   6  -2    0.88    0.07
   1  -6   2    1.19    0.05
  -2   6  -2  143.36    3.98
   2  -6   2  142.51    3.73
  -3   6  -2   33.60    0.89
  -3   6  -2   32.37    0.93
  -4   6  -2    3.36    0.13
  -4   6  -2    3.43    0.12
   4  -6   2    3.21    0.12
  -5   6  -2   26.93    0.75
  -5   6  -2   27.61    0.77
   5  -6   2   27.35    0.74
  -6   6  -2   43.24    1.17
  -6   6  -2   43.24    1.20
   6  -6   2   42.50    1.14
  -7   6  -2    0.08    0.04
   7  -6   2    0.16    0.04
  -8   6  -2   12.66    0.39
   8  -6   2   12.34    0.37
  -9   6  -2    7.60    0.26
   9  -6   2    7.47    0.25
 -10   6  -2    5.43    0.21
  10  -6   2    5.41    0.20
 -11   6  -2    0.53    0.08
  11  -6   2    0.56    0.07
 -12   6  -2    8.50    0.31
 -10  -5   2    6.20    0.23
  -9  -5   2    0.62    0.07
  -8  -5   2    0.13    0.04
  -7  -5   2    5.45    0.19
   6   5  -2   -0.01    0.04
  -6  -5   2    0.03    0.03
  -6  -5   2    0.13    0.03
   5   5  -2    3.84    0.15
  -5  -5   2    3.80    0.13
  -5  -5   2    3.87    0.14
   4   5  -2    1.05    0.08
  -4  -5   2    0.97    0.06
  -4  -5   2    0.98    0.05
   3   5  -2    4.21    0.15
  -3  -5   2    4.28    0.13
  -3  -5   2    4.23    0.14
   2   5  -2   13.52    0.40
  -2  -5   2   13.51    0.38
  -2  -5   2   13.74    0.37
   1   5  -2    2.56    0.10
  -1  -5   2    2.13    0.08
  -1  -5   2    2.24    0.08
   0  -5   2   45.69    1.19
   0  -5   2   45.60    1.22
  -1   5  -2   26.93    0.77
   1  -5   2   27.56    0.72
  -2   5  -2    0.04    0.03
  -2   5  -2    0.03    0.02
   2  -5   2    0.01    0.02
  -3   5  -2   50.60    1.34
  -3   5  -2   49.75    1.39
  -4   5  -2   14.45    0.40
  -4   5  -2   14.02    0.41
   4  -5   2   13.82    0.39
  -5   5  -2   14.96    0.43
  -5   5  -2   14.66    0.43
   5  -5   2   15.14    0.42
  -6   5  -2   17.66    0.50
   6  -5   2   17.45    0.49
  -7   5  -2    0.24    0.05
   7  -5   2    0.27    0.04
  -8   5  -2    2.54    0.12
   8  -5   2    2.54    0.11
  -9   5  -2   -0.03    0.04
   9  -5   2    0.05    0.04
 -10   5  -2   11.46    0.38
  10  -5   2   12.08    0.37
 -11   5  -2    0.96    0.09
  11  -5   2    0.97    0.09
 -12   5  -2    1.45    0.12
 -11  -4   2    0.92    0.09
 -10  -4   2    0.35    0.06
  -9  -4   2    0.03    0.04
  -8  -4   2    0.01    0.03
  -7  -4   2    4.02    0.15
   6   4  -2    1.64    0.09
  -6  -4   2    1.61    0.07
  -6  -4   2    1.47    0.08
   5   4  -2    1.98    0.09
  -5  -4   2    2.02    0.09
  -5  -4   2    2.02    0.08
   4   4  -2    0.08    0.03
  -4  -4   2    0.06    0.02
  -4  -4   2    0.09    0.02
   3   4  -2    0.65    0.06
  -3  -4   2    0.54    0.04
  -3  -4   2    0.57    0.04
   2   4  -2    5.64    0.18
  -2  -4   2    5.60    0.17
  -2  -4   2    5.70    0.16
   1   4  -2    9.40    0.28
  -1  -4   2    9.35    0.25
  -1   4  -2   83.68    2.24
   1  -4   2   84.79    2.21
  -2   4  -2    1.30    0.06
   2  -4   2    1.66    0.06
  -3   4  -2    3.32    0.11
  -3   4  -2    3.24    0.11
   3  -4   2    3.23    0.11
  -4   4  -2   36.51    1.03
  -4   4  -2   39.09    1.05
   4  -4   2   38.46    1.01
  -5   4  -2    1.88    0.08
  -5   4  -2    1.81    0.08
   5  -4   2    1.83    0.08
  -6   4  -2    1.92    0.07
   6  -4   2    1.71    0.08
  -7   4  -2    8.41    0.27
   7  -4   2    8.28    0.26
  -8   4  -2   12.89    0.39
   8  -4   2   12.54    0.38
  -9   4  -2    3.04    0.14
   9  -4   2    3.02    0.13
 -10   4  -2    1.99    0.12
  10  -4   2    2.11    0.11
 -11   4  -2    0.45    0.07
  11  -4   2    0.39    0.06
 -12   4  -2    0.04    0.05
 -11  -3   2    3.82    0.17
 -10  -3   2    0.02    0.04
  -9  -3   2    2.30    0.11
  -8  -3   2    3.63    0.14
  -7  -3   2    0.58    0.05
  -7  -3   2    0.64    0.06
   6   3  -2   24.21    0.69
  -6  -3   2   24.06    0.67
  -6  -3   2   24.13    0.65
   5   3  -2    9.16    0.28
  -5  -3   2    9.42    0.27
  -5  -3   2    8.75    0.26
   4   3  -2    2.91    0.11
  -4  -3   2    2.98    0.10
  -4  -3   2    2.99    0.10
   3   3  -2    2.56    0.10
  -3  -3   2    2.66    0.09
  -3  -3   2    2.74    0.08
   2   3  -2    0.02    0.02
  -2  -3   2    0.02    0.01
  -2  -3   2    0.02    0.01
   1   3  -2   74.64    2.08
  -1  -3   2   74.34    1.96
  -1  -3   2   76.48    2.01
   0   3  -2  187.09    5.05
   0  -3   2  178.60    4.75
  -1   3  -2    5.92    0.17
  -1   3  -2    5.34    0.16
   1  -3   2    5.72    0.16
  -2   3  -2    1.03    0.05
  -2   3  -2    0.99    0.05
  -3   3  -2    1.59    0.06
   3  -3   2    1.46    0.06
  -4   3  -2   17.37    0.47
   4  -3   2   16.65    0.46
  -5   3  -2   11.24    0.32
   5  -3   2   11.20    0.32
  -7   3  -2    2.70    0.12
   7  -3   2    2.58    0.11
  -8   3  -2    0.79    0.07
   8  -3   2    0.80    0.07
  -9   3  -2    1.30    0.09
   9  -3   2    1.23    0.08
 -10   3  -2    0.07    0.05
  10  -3   2    0.02    0.04
 -11   3  -2   -0.01    0.05
 -12   3  -2    1.14    0.11
 -12  -2   2    1.53    0.11
 -11  -2   2   -0.02    0.04
 -10  -2   2    0.43    0.06
  -9  -2   2    3.69    0.15
  -8  -2   2    5.99    0.20
  -7  -2   2    0.08    0.03
  -7  -2   2    0.09    0.03
  -6  -2   2   12.31    0.36
  -6  -2   2   12.39    0.34
   5   2  -2   16.18    0.47
  -5  -2   2   16.65    0.44
  -5  -2   2   16.75    0.46
   4   2  -2    6.01    0.19
  -4  -2   2    6.04    0.17
  -4  -2   2    6.14    0.18
   3   2  -2    5.60    0.18
  -3  -2   2    5.91    0.16
  -3  -2   2    5.67    0.17
   2   2  -2   31.60    0.89
  -2  -2   2   33.06    0.83
  -2  -2   2   31.87    0.86
  -1  -2   2  901.45   23.57
  -1  -2   2  832.67   22.68
   0   2  -2    7.13    0.21
   0  -2   2    7.43    0.20
  -1   2  -2    2.70    0.09
   1  -2   2    2.78    0.09
  -2   2  -2   91.10    2.50
  -3   2  -2   47.79    1.26
  -3   2  -2   48.72    1.32
  -4   2  -2   23.97    0.66
  -4   2  -2   24.93    0.67
  -4   2  -2   24.95    0.67
  -5   2  -2    2.60    0.10
  -5   2  -2    2.55    0.10
  -6   2  -2   20.81    0.58
  -6   2  -2   21.55    0.60
  -7   2  -2    0.32    0.05
  -8   2  -2    7.49    0.25
   8  -2   2    7.20    0.24
  -9   2  -2    0.18    0.05
   9  -2   2    0.21    0.05
 -10   2  -2    2.03    0.12
  10  -2   2    2.14    0.11
 -11   2  -2    8.68    0.31
 -12   2  -2    0.92    0.10
 -12  -1   2    0.37    0.07
 -11  -1   2    6.11    0.23
 -10  -1   2    1.69    0.10
  -9  -1   2    0.02    0.03
  -8  -1   2   17.15    0.50
  -7  -1   2   23.37    0.64
  -7  -1   2   22.77    0.62
  -6  -1   2    1.02    0.06
  -6  -1   2    1.19    0.05
  -5  -1   2    1.56    0.06
  -5  -1   2    1.46    0.06
  -4  -1   2   13.76    0.32
  -4  -1   2    9.95    0.33
   3   1  -2   11.38    0.33
  -3  -1   2   11.52    0.30
   2   1  -2  217.26    6.07
  -2  -1   2  224.58    5.69
   0   1  -2   49.89    1.40
   0   1  -2   50.99    1.36
   0   1  -2   52.19    1.33
  -1   1  -2  128.37    3.38
  -1   1  -2  128.48    3.54
  -1   1  -2  130.74    3.44
  -2   1  -2    0.05    0.01
  -2   1  -2    0.00    0.01
  -2   1  -2   -0.01    0.01
  -3   1  -2  162.70    4.38
  -3   1  -2  164.90    4.28
  -4   1  -2   20.38    0.55
  -4   1  -2   20.32    0.56
  -5   1  -2    6.17    0.19
  -5   1  -2    5.98    0.19
  -6   1  -2   14.88    0.43
  -6   1  -2   14.44    0.42
  -7   1  -2    1.66    0.09
  -7   1  -2    1.64    0.08
  -8   1  -2    4.95    0.18
  -8   1  -2    4.61    0.17
  -9   1  -2    3.07    0.14
 -10   1  -2    2.42    0.13
  10  -1   2    2.42    0.12
 -11   1  -2    9.82    0.34
 -12   0   2    3.00    0.15
 -11   0   2    0.11    0.05
 -10   0   2    6.09    0.22
  -9   0   2    4.16    0.16
  -8   0   2   19.22    0.55
  -6   0   2    8.66    0.24
  -4   0   2  117.89    3.00
  -4   0   2  113.79    3.10
   3   0  -2   49.71    1.28
  -3   0   2   49.62    1.31
  -2   0   2   53.25    1.42
   1   0  -2   46.84    1.22
  -1   0   2   46.88    1.36
   0   0  -2   26.36    0.72
   0   0  -2   28.12    0.71
  -1   0  -2   12.24    0.33
   1   0   2   12.19    0.34
  -2   0  -2    1.18    0.05
  -2   0  -2    1.24    0.05
  -3   0  -2   22.94    0.61
  -3   0  -2   22.84    0.62
  -4   0  -2    2.97    0.11
  -4   0  -2    2.84    0.10
  -5   0  -2   27.00    0.75
  -5   0  -2   28.07    0.74
  -6   0  -2    2.20    0.10
  -6   0  -2    2.13    0.10
  -7   0  -2    6.63    0.22
  -7   0  -2    6.72    0.22
  -8   0  -2    2.08    0.11
  -8   0  -2    1.95    0.10
  -9   0  -2   19.13    0.55
  -9   0  -2   18.67    0.56
 -10   0  -2    0.23    0.06
 -11   0  -2    0.17    0.06
 -13   1   2    2.20    0.14
 -12   1   2    5.13    0.21
 -11   1   2    5.29    0.20
 -10   1   2   12.83    0.40
  -9   1   2   23.67    0.67
   8  -1  -2   14.83    0.41
  -8   1   2   14.87    0.43
  -7   1   2    8.97    0.27
   6  -1  -2  130.55    3.39
  -6   1   2  129.66    3.46
   5  -1  -2   11.66    0.32
  -5   1   2   12.10    0.34
  -5   1   2   11.92    0.33
   4  -1  -2   15.35    0.41
  -4   1   2   15.87    0.44
  -4   1   2   15.30    0.42
   3  -1  -2    7.79    0.21
  -3   1   2    7.80    0.23
  -3   1   2    7.85    0.22
   2  -1  -2    5.62    0.15
  -2   1   2    5.70    0.16
  -2   1   2    5.69    0.17
   1  -1  -2  177.74    4.53
  -1   1   2  171.89    4.68
  -1   1   2  174.43    4.80
   0  -1  -2  116.73    3.13
   0  -1  -2  121.52    3.10
   0   1   2  116.79    3.25
  -1  -1  -2    6.34    0.18
   1   1   2    6.32    0.18
  -2  -1  -2   52.73    1.42
  -2  -1  -2   54.12    1.40
   2   1   2   54.38    1.47
  -3  -1  -2   13.51    0.37
  -3  -1  -2   13.60    0.38
   3   1   2   13.43    0.37
  -4  -1  -2    6.18    0.19
  -4  -1  -2    6.12    0.19
  -5  -1  -2   33.40    0.92
  -5  -1  -2   34.35    0.91
  -6  -1  -2    0.31    0.04
  -6  -1  -2    0.31    0.04
  -7  -1  -2   27.82    0.77
  -7  -1  -2   28.45    0.79
  -8  -1  -2    1.78    0.10
  -8  -1  -2    1.91    0.10
  -9  -1  -2   -0.04    0.04
  -9  -1  -2    0.01    0.04
 -10  -1  -2    6.93    0.26
 -11  -1  -2    0.21    0.06
 -13   2   2    1.80    0.12
 -12   2   2    0.01    0.04
 -11   2   2   14.61    0.45
 -10   2   2   13.02    0.40
   9  -2  -2    5.73    0.18
  -9   2   2    5.89    0.20
   8  -2  -2   13.81    0.39
  -8   2   2   14.10    0.40
  -8   2   2   13.98    0.41
   7  -2  -2   26.79    0.71
  -7   2   2   26.97    0.74
  -7   2   2   27.12    0.75
   6  -2  -2    3.27    0.10
   5  -2  -2   15.20    0.41
  -5   2   2   15.50    0.42
   4  -2  -2    7.78    0.21
  -4   2   2    7.67    0.22
  -4   2   2    7.86    0.23
   3  -2  -2  124.80    3.30
  -3   2   2  129.44    3.37
  -3   2   2  126.48    3.50
   2  -2  -2   16.96    0.45
  -2   2   2   17.21    0.45
   1  -2  -2   70.55    1.87
  -1   2   2   71.77    1.97
   0  -2  -2   81.18    2.11
   0   2   2   78.15    2.21
  -1  -2  -2    6.20    0.18
  -1  -2  -2    6.12    0.17
   1   2   2    5.94    0.18
  -2  -2  -2    0.06    0.02
   2   2   2    0.11    0.02
  -3  -2  -2    0.26    0.03
  -3  -2  -2    0.27    0.03
   3   2   2    0.33    0.03
  -4  -2  -2    4.90    0.15
  -4  -2  -2    4.74    0.16
   4   2   2    4.56    0.14
  -5  -2  -2   69.41    1.86
  -5  -2  -2   70.18    1.83
  -6  -2  -2    3.60    0.14
  -6  -2  -2    3.45    0.14
  -7  -2  -2    0.28    0.05
  -7  -2  -2    0.15    0.04
  -8  -2  -2    4.74    0.19
  -8  -2  -2    5.14    0.19
  -9  -2  -2    5.36    0.21
  -9  -2  -2    5.60    0.21
 -10  -2  -2    0.01    0.05
 -13   3   2    4.71    0.21
 -12   3   2    1.62    0.11
 -11   3   2   -0.01    0.04
 -10   3   2    4.46    0.17
   9  -3  -2   15.96    0.44
  -9   3   2   15.66    0.46
   8  -3  -2   12.91    0.36
  -8   3   2   13.00    0.38
  -8   3   2   12.94    0.38
   7  -3  -2   46.56    1.24
  -7   3   2   47.28    1.27
  -7   3   2   48.35    1.31
  -6   3   2    2.19    0.08
  -6   3   2    2.34    0.09
   5  -3  -2   13.42    0.38
  -5   3   2   14.84    0.39
   4  -3  -2    2.29    0.07
  -4   3   2    2.29    0.08
   3  -3  -2    0.05    0.01
  -3   3   2    0.03    0.01
  -3   3   2    0.04    0.01
   2  -3  -2    1.49    0.05
  -2   3   2    1.45    0.04
   1  -3  -2   23.03    0.60
  -1   3   2   22.74    0.64
   0  -3  -2   28.37    0.74
   0   3   2   27.56    0.77
  -1  -3  -2   63.96    1.70
  -1  -3  -2   65.07    1.67
   1   3   2   63.25    1.76
  -2  -3  -2    4.69    0.15
   2   3   2    4.37    0.14
  -3  -3  -2   30.88    0.84
  -3  -3  -2   31.69    0.84
   3   3   2   31.24    0.87
  -4  -3  -2    0.98    0.06
  -4  -3  -2    0.92    0.05
   4   3   2    0.92    0.05
  -5  -3  -2    8.31    0.26
  -5  -3  -2    8.14    0.25
  -6  -3  -2   13.03    0.38
  -6  -3  -2   12.49    0.38
  -7  -3  -2    0.19    0.04
  -7  -3  -2    0.18    0.04
  -8  -3  -2    5.49    0.21
  -8  -3  -2    5.47    0.20
  -9  -3  -2    6.09    0.23
 -10  -3  -2   -0.04    0.04
 -14   4   2   -0.02    0.05
 -13   4   2    0.71    0.08
 -12   4   2    8.94    0.31
 -11   4   2    1.15    0.09
 -10   4   2    2.71    0.13
   9  -4  -2    2.56    0.10
  -9   4   2    2.37    0.11
   8  -4  -2   24.82    0.67
  -8   4   2   25.90    0.71
  -8   4   2   24.90    0.70
   7  -4  -2    9.00    0.25
  -7   4   2    8.93    0.27
  -7   4   2    8.91    0.27
   6  -4  -2    2.91    0.10
  -6   4   2    2.77    0.10
  -6   4   2    3.01    0.10
   5  -4  -2    2.05    0.07
  -5   4   2    1.95    0.07
  -5   4   2    2.14    0.08
  -4   4   2   11.55    0.32
  -4   4   2   11.38    0.33
   2  -4  -2    4.11    0.13
  -2   4   2    4.63    0.14
   1  -4  -2    4.68    0.13
  -1   4   2    4.48    0.15
   0  -4  -2   17.50    0.46
   0  -4  -2   17.32    0.47
   0   4   2   17.21    0.50
  -1  -4  -2   27.42    0.73
  -1  -4  -2   27.94    0.73
   1   4   2   26.55    0.76
  -2  -4  -2    0.06    0.02
  -2  -4  -2    0.05    0.02
   2   4   2    0.00    0.03
  -3  -4  -2    1.42    0.06
  -3  -4  -2    1.52    0.08
   3   4   2    1.41    0.08
  -4  -4  -2   24.49    0.67
  -4  -4  -2   24.20    0.67
  -5  -4  -2    1.12    0.07
  -5  -4  -2    1.12    0.08
  -6  -4  -2    0.09    0.04
  -6  -4  -2    0.08    0.03
  -7  -4  -2   14.91    0.45
  -7  -4  -2   15.57    0.46
  -8  -4  -2    0.09    0.04
  -8  -4  -2    0.12    0.05
  -9  -4  -2    4.57    0.19
 -14   5   2    1.05    0.10
 -13   5   2    0.18    0.06
 -12   5   2    7.45    0.27
 -11   5   2   41.61    1.16
  10  -5  -2   22.14    0.60
 -10   5   2   21.52    0.63
   9  -5  -2   16.94    0.47
  -9   5   2   17.20    0.49
  -9   5   2   16.25    0.49
   8  -5  -2   45.70    1.23
  -8   5   2   46.78    1.30
  -8   5   2   47.44    1.26
   7  -5  -2    0.05    0.02
  -7   5   2    0.00    0.02
  -7   5   2    0.00    0.02
   6  -5  -2    1.97    0.07
  -6   5   2    1.95    0.08
  -6   5   2    1.96    0.08
   5  -5  -2    9.10    0.26
  -5   5   2    9.35    0.26
  -5   5   2    9.03    0.28
   4  -5  -2   13.16    0.35
  -4   5   2   12.72    0.38
  -4   5   2   12.77    0.35
   3  -5  -2   55.75    1.47
  -3   5   2   55.48    1.47
   2  -5  -2    0.51    0.04
   2  -5  -2    0.54    0.03
  -2   5   2    0.64    0.05
   1  -5  -2    0.54    0.02
  -1   5   2    0.47    0.05
   0  -5  -2    0.75    0.05
   0  -5  -2    0.75    0.03
   0   5   2    0.77    0.07
  -1  -5  -2    0.90    0.06
   1   5   2    0.89    0.07
  -2  -5  -2    0.08    0.03
  -2  -5  -2    0.02    0.02
   2   5   2   -0.05    0.03
  -3  -5  -2    0.62    0.06
  -3  -5  -2    0.54    0.04
   3   5   2    0.58    0.05
  -4  -5  -2   26.76    0.74
  -4  -5  -2   27.13    0.74
  -5  -5  -2    0.00    0.03
  -5  -5  -2   -0.02    0.03
  -6  -5  -2    0.55    0.06
  -6  -5  -2    0.52    0.06
  -7  -5  -2   -0.03    0.03
  -7  -5  -2    0.03    0.04
 -14   6   2    4.20    0.20
 -13   6   2    4.59    0.20
 -12   6   2    5.20    0.21
 -11   6   2    2.89    0.14
  10  -6  -2    4.52    0.15
 -10   6   2    4.31    0.17
   9  -6  -2    0.08    0.03
  -9   6   2   -0.02    0.03
  -9   6   2    0.00    0.04
   8  -6  -2    0.09    0.03
  -8   6   2    0.12    0.04
  -8   6   2    0.14    0.04
   7  -6  -2   17.39    0.47
  -7   6   2   17.07    0.50
  -7   6   2   17.43    0.49
   6  -6  -2    2.93    0.10
  -6   6   2    2.62    0.11
  -6   6   2    2.65    0.10
   5  -6  -2    1.14    0.05
  -5   6   2    1.12    0.05
  -5   6   2    1.18    0.07
   4  -6  -2   20.27    0.54
  -4   6   2   20.12    0.58
  -4   6   2   20.05    0.54
   3  -6  -2    3.49    0.11
   2  -6  -2    3.89    0.11
   2  -6  -2    3.81    0.13
  -2   6   2    3.98    0.14
   1  -6  -2   17.24    0.47
   1  -6  -2   17.63    0.48
  -1   6   2   17.83    0.51
   0  -6  -2    1.80    0.08
   0  -6  -2    1.72    0.06
   0   6   2    1.90    0.10
  -1  -6  -2   10.43    0.29
  -1  -6  -2   10.77    0.31
   1   6   2   10.39    0.33
  -2  -6  -2    8.86    0.26
  -2  -6  -2    9.02    0.27
   2   6   2    8.83    0.28
  -3  -6  -2    3.02    0.12
  -3  -6  -2    2.94    0.11
   3   6   2    3.19    0.13
  -4  -6  -2    5.38    0.19
  -4  -6  -2    5.18    0.18
  -5  -6  -2    0.41    0.05
  -5  -6  -2    0.44    0.06
  -6  -6  -2    8.29    0.28
  -7  -6  -2    2.28    0.12
 -14   7   2    5.00    0.22
 -13   7   2   15.17    0.48
 -12   7   2   10.19    0.34
  11  -7  -2    7.60    0.24
 -11   7   2    7.73    0.27
  10  -7  -2    0.40    0.05
 -10   7   2    0.38    0.05
   9  -7  -2    3.93    0.14
  -9   7   2    4.08    0.16
  -9   7   2    3.81    0.15
   8  -7  -2    2.97    0.12
  -8   7   2    3.21    0.13
  -8   7   2    3.18    0.13
   7  -7  -2    3.11    0.11
  -7   7   2    3.22    0.12
  -7   7   2    3.10    0.13
   6  -7  -2    0.52    0.05
  -6   7   2    0.48    0.05
  -6   7   2    0.78    0.07
   5  -7  -2   28.60    0.76
  -5   7   2   28.30    0.81
  -5   7   2   28.45    0.77
   4  -7  -2   31.51    0.84
  -4   7   2   31.87    0.90
  -4   7   2   31.30    0.84
   3  -7  -2    0.61    0.05
  -3   7   2    0.48    0.06
   2  -7  -2    6.39    0.18
  -2   7   2    6.35    0.22
   1  -7  -2   13.12    0.43
   1  -7  -2   16.73    0.42
  -1   7   2   16.84    0.47
   0  -7  -2    0.12    0.03
   0   7   2    0.10    0.05
  -1  -7  -2    2.98    0.12
  -1  -7  -2    3.13    0.10
   1   7   2    2.81    0.13
  -2  -7  -2    0.01    0.03
   2   7   2    0.02    0.04
  -3  -7  -2    6.58    0.22
   3   7   2    6.59    0.23
  -4  -7  -2    9.48    0.31
  -5  -7  -2    2.35    0.12
  -6  -7  -2    4.19    0.18
 -14   8   2    9.40    0.34
 -13   8   2    3.55    0.17
 -12   8   2    0.28    0.06
  11  -8  -2    3.72    0.14
 -11   8   2    3.79    0.16
  10  -8  -2    3.09    0.12
 -10   8   2    3.12    0.14
 -10   8   2    3.30    0.14
   9  -8  -2    1.00    0.07
  -9   8   2    0.97    0.08
  -9   8   2    1.01    0.07
   8  -8  -2   15.99    0.46
  -8   8   2   16.38    0.49
  -8   8   2   16.76    0.47
   7  -8  -2   12.65    0.36
  -7   8   2   12.91    0.37
  -7   8   2   12.98    0.40
   6  -8  -2    2.93    0.11
  -6   8   2    3.18    0.11
  -6   8   2    3.10    0.14
   5  -8  -2    3.64    0.13
  -5   8   2    3.89    0.16
  -5   8   2    3.88    0.13
   4  -8  -2    0.01    0.02
  -3   8   2   13.85    0.43
  -2   8   2   67.08    1.87
   1  -8  -2   21.71    0.60
  -1   8   2   21.79    0.64
   0  -8  -2    0.04    0.03
   0   8   2    0.03    0.05
  -1  -8  -2   18.12    0.51
   1   8   2   17.68    0.54
  -2  -8  -2    3.25    0.14
   2   8   2    3.60    0.15
  -3  -8  -2    1.28    0.09
  -4  -8  -2    4.93    0.19
  -5  -8  -2    3.41    0.16
  -6  -8  -2    0.32    0.06
 -14   9   2    1.06    0.11
 -13   9   2    2.55    0.14
 -12   9   2    4.00    0.17
  11  -9  -2    3.03    0.13
 -11   9   2    3.38    0.15
  10  -9  -2    3.56    0.14
 -10   9   2    3.81    0.15
 -10   9   2    3.34    0.16
   9  -9  -2    5.81    0.19
  -9   9   2    5.67    0.20
  -9   9   2    5.42    0.21
   8  -9  -2    3.79    0.14
  -8   9   2    3.99    0.14
  -8   9   2    3.51    0.16
   7  -9  -2    0.04    0.03
  -7   9   2   -0.04    0.05
  -7   9   2   -0.04    0.03
   6  -9  -2    8.97    0.27
  -6   9   2    9.17    0.31
  -6   9   2    9.17    0.27
   5  -9  -2   14.39    0.41
  -5   9   2   14.39    0.45
   4  -9  -2    2.65    0.11
  -4   9   2    2.71    0.14
   3  -9  -2   82.19    2.17
  -3   9   2   83.61    2.30
   2  -9  -2    3.06    0.12
  -2   9   2    2.92    0.15
   1  -9  -2   11.33    0.33
  -1   9   2   11.11    0.36
   0  -9  -2    0.43    0.05
   0   9   2    0.58    0.07
  -1  -9  -2    0.30    0.05
   1   9   2    0.29    0.06
  -2  -9  -2    7.69    0.26
   2   9   2    8.41    0.28
  -3  -9  -2    2.06    0.11
  -4  -9  -2    3.79    0.17
  -5  -9  -2    1.50    0.11
 -14  10   2    0.59    0.09
 -13  10   2    1.43    0.11
  12 -10  -2    0.35    0.05
 -12  10   2    0.36    0.07
  11 -10  -2    0.22    0.05
 -11  10   2    0.22    0.06
  10 -10  -2    0.21    0.04
 -10  10   2    0.16    0.05
 -10  10   2    0.19    0.07
   9 -10  -2    0.62    0.06
  -9  10   2    0.48    0.06
  -9  10   2    0.35    0.07
   8 -10  -2    2.46    0.11
  -8  10   2    2.43    0.14
   7 -10  -2   23.18    0.64
  -7  10   2   23.22    0.70
   6 -10  -2    2.80    0.11
  -6  10   2    2.55    0.14
   5 -10  -2    9.45    0.29
  -5  10   2    9.97    0.33
   4 -10  -2    1.26    0.07
  -4  10   2    1.33    0.11
   3 -10  -2    6.87    0.22
  -3  10   2    6.94    0.26
   2 -10  -2    0.40    0.05
  -2  10   2    0.21    0.06
   1 -10  -2    0.07    0.04
  -1  10   2    0.12    0.06
   0 -10  -2    0.25    0.05
   0  10   2    0.25    0.06
  -1 -10  -2    1.15    0.08
   1  10   2    1.24    0.10
  -2 -10  -2    3.16    0.14
  -3 -10  -2    0.96    0.08
  -4 -10  -2    0.59    0.08
  -5 -10  -2    0.70    0.08
  12 -11  -2   -0.06    0.04
  11 -11  -2   -0.01    0.03
  10 -11  -2   16.58    0.48
 -10  11   2   16.50    0.53
   9 -11  -2    1.19    0.08
  -9  11   2    0.95    0.10
   8 -11  -2    0.77    0.07
  -8  11   2    0.56    0.08
   7 -11  -2   17.97    0.52
  -7  11   2   18.47    0.57
   6 -11  -2    1.03    0.07
  -6  11   2    1.00    0.10
   5 -11  -2    0.04    0.03
  -5  11   2    0.00    0.06
   4 -11  -2    2.88    0.12
  -4  11   2    2.24    0.14
   3 -11  -2    3.28    0.13
  -3  11   2    3.31    0.16
   2 -11  -2    3.32    0.14
  -2  11   2    3.72    0.17
   1 -11  -2    0.02    0.03
  -1  11   2    0.06    0.05
   0 -11  -2    0.22    0.05
   0  11   2    0.36    0.07
  -1 -11  -2    8.96    0.30
   1  11   2    9.48    0.32
  -2 -11  -2   -0.06    0.04
  -3 -11  -2    2.99    0.15
  -4 -11  -2    1.12    0.10
  12 -12  -2   10.67    0.34
  11 -12  -2    3.08    0.14
 -11  12   2    2.78    0.17
  10 -12  -2    1.05    0.08
 -10  12   2    1.03    0.11
   9 -12  -2    3.68    0.15
  -9  12   2    3.54    0.18
   8 -12  -2    0.08    0.04
  -8  12   2   -0.10    0.06
   7 -12  -2    0.01    0.03
  -7  12   2   -0.06    0.06
   6 -12  -2    2.42    0.12
  -6  12   2    2.79    0.16
   5 -12  -2    0.42    0.05
  -5  12   2    0.52    0.08
   4 -12  -2    1.83    0.10
  -4  12   2    1.76    0.13
   3 -12  -2    0.14    0.04
  -3  12   2    0.20    0.07
   2 -12  -2    0.08    0.04
  -2  12   2   -0.01    0.05
   1 -12  -2    0.02    0.04
  -1  12   2    0.12    0.06
   0 -12  -2    0.46    0.06
   0  12   2    0.45    0.08
  -1 -12  -2    2.41    0.13
   1  12   2    2.36    0.14
  -2 -12  -2    0.02    0.05
  -3 -12  -2    5.84    0.23
  12 -13  -2    0.12    0.05
  11 -13  -2    0.04    0.04
 -11  13   2   -0.10    0.07
  10 -13  -2    2.13    0.11
 -10  13   2    2.22    0.16
   9 -13  -2    1.50    0.09
  -9  13   2    1.54    0.14
   8 -13  -2    9.68    0.31
  -8  13   2    9.54    0.35
   7 -13  -2    1.79    0.10
  -7  13   2    1.60    0.14
   6 -13  -2    0.05    0.04
  -6  13   2    0.11    0.07
   5 -13  -2    3.15    0.14
  -5  13   2    3.21    0.17
   4 -13  -2    1.13    0.08
  -4  13   2    1.08    0.11
   3 -13  -2    0.14    0.05
  -3  13   2    0.12    0.07
   2 -13  -2    5.46    0.20
  -2  13   2    5.09    0.22
   1 -13  -2    1.52    0.10
  -1  13   2    1.51    0.13
   0 -13  -2    0.21    0.05
   0  13   2    0.41    0.08
  -1 -13  -2    0.01    0.04
  11 -14  -2    0.70    0.08
 -11  14   2    0.58    0.10
  10 -14  -2    0.54    0.07
 -10  14   2    0.41    0.10
   9 -14  -2    2.32    0.12
  -9  14   2    2.13    0.16
   8 -14  -2    0.13    0.05
  -8  14   2    0.15    0.08
   7 -14  -2    1.07    0.09
  -7  14   2    0.94    0.11
   6 -14  -2    1.00    0.09
  -6  14   2    1.11    0.11
   5 -14  -2    1.05    0.09
  -5  14   2    0.94    0.11
   4 -14  -2    6.12    0.22
  -4  14   2    6.03    0.26
   3 -14  -2    0.22    0.05
  -3  14   2    0.19    0.08
   2 -14  -2    0.33    0.06
  -2  14   2    0.36    0.08
   1 -14  -2    0.85    0.09
  -1  14   2    0.83    0.10
   0  14   2    0.12    0.07
  10 -15  -2   12.32    0.39
 -10  15   2   12.26    0.44
   9 -15  -2    3.11    0.15
  -9  15   2    3.05    0.19
   8 -15  -2    2.46    0.13
  -8  15   2    2.56    0.17
   7 -15  -2    5.13    0.21
  -7  15   2    5.50    0.25
   6 -15  -2    2.29    0.13
  -6  15   2    2.55    0.17
   5 -15  -2    0.61    0.07
  -5  15   2    0.60    0.10
   4 -15  -2    1.03    0.09
  -4  15   2    1.10    0.11
   3 -15  -2    0.74    0.08
  -3  15   2    0.78    0.10
   0 -15   3    0.11    0.05
  -1  15  -3    0.99    0.11
   1 -15   3    1.14    0.09
  -2  15  -3    1.87    0.15
   2 -15   3    1.74    0.11
  -3  15  -3    3.95    0.20
   3 -15   3    3.94    0.17
  -4  15  -3    0.26    0.08
   4 -15   3    0.18    0.05
  -5  15  -3   12.48    0.44
   5 -15   3   12.69    0.39
  -6  15  -3    3.73    0.19
   6 -15   3    3.74    0.16
  -7  15  -3    0.16    0.07
   7 -15   3    0.17    0.05
  -8  15  -3    1.60    0.13
   2  14  -3    0.08    0.06
   1  14  -3    0.05    0.06
  -1 -14   3    0.05    0.04
   0  14  -3    1.00    0.11
   0 -14   3    0.84    0.08
  -1  14  -3    1.79    0.14
   1 -14   3    1.82    0.11
  -2  14  -3    0.12    0.07
   2 -14   3    0.19    0.05
  -3  14  -3    6.73    0.27
   3 -14   3    6.62    0.23
  -4  14  -3    0.23    0.07
   4 -14   3    0.14    0.05
  -5  14  -3    0.33    0.07
   5 -14   3    0.25    0.05
  -6  14  -3    0.01    0.06
   6 -14   3    0.02    0.04
  -7  14  -3    0.05    0.06
   7 -14   3   -0.01    0.04
  -8  14  -3    4.40    0.20
   8 -14   3    4.22    0.18
   9 -14   3    0.04    0.05
   3  13  -3    0.06    0.06
   2  13  -3    0.10    0.06
   1  13  -3    0.96    0.10
  -1 -13   3    0.96    0.08
   0  13  -3    0.47    0.09
   0 -13   3    0.72    0.07
  -1  13  -3   26.91    0.82
   1 -13   3   27.40    0.75
  -2  13  -3    0.06    0.06
   2 -13   3    0.06    0.04
  -3  13  -3    0.59    0.08
   3 -13   3    0.69    0.07
  -4  13  -3    0.50    0.08
   4 -13   3    0.49    0.06
  -5  13  -3    2.81    0.15
   5 -13   3    2.68    0.13
  -6  13  -3    0.90    0.09
   6 -13   3    0.78    0.08
  -7  13  -3    0.65    0.08
   7 -13   3    0.57    0.07
  -8  13  -3   11.25    0.39
  -8  13  -3   12.12    0.39
   8 -13   3   12.17    0.37
  -9  13  -3    3.26    0.16
   9 -13   3    2.97    0.15
 -10  13  -3    2.44    0.15
  10 -13   3    2.53    0.14
 -11  13  -3    2.86    0.16
   4  12  -3    0.83    0.09
   3  12  -3   -0.04    0.05
   2  12  -3    0.22    0.06
  -2 -12   3    0.31    0.05
   1  12  -3    2.14    0.14
  -1 -12   3    2.12    0.11
   0  12  -3   10.35    0.36
   0 -12   3   10.60    0.32
  -1  12  -3    5.30    0.22
   1 -12   3    5.45    0.19
   1 -12   3    5.49    0.18
  -2  12  -3    0.27    0.06
   2 -12   3    0.27    0.04
  -3  12  -3    0.58    0.08
   3 -12   3    0.68    0.06
   3 -12   3    0.65    0.06
  -4  12  -3    0.05    0.05
   4 -12   3    0.00    0.03
  -5  12  -3    3.69    0.17
   5 -12   3    3.73    0.15
  -6  12  -3    8.77    0.31
   6 -12   3    8.85    0.28
  -7  12  -3    1.82    0.12
  -7  12  -3    1.76    0.11
   7 -12   3    1.84    0.10
  -8  12  -3    4.72    0.19
   8 -12   3    4.64    0.18
  -9  12  -3    2.14    0.13
   9 -12   3    2.27    0.12
 -10  12  -3    2.11    0.13
  10 -12   3    2.05    0.12
 -11  12  -3    0.20    0.07
  11 -12   3    0.28    0.06
   4  11  -3    0.14    0.06
   3  11  -3    4.63    0.20
  -3 -11   3    4.54    0.17
   2  11  -3    1.07    0.10
  -2 -11   3    1.13    0.08
  -2 -11   3    1.17    0.07
   1  11  -3    0.11    0.06
  -1 -11   3    0.13    0.03
  -1 -11   3    0.09    0.04
   0  11  -3    8.75    0.31
   0 -11   3    8.66    0.27
   0 -11   3    8.66    0.27
  -1  11  -3   -0.04    0.05
   1 -11   3   -0.02    0.03
   1 -11   3   -0.01    0.03
  -2  11  -3    5.00    0.21
   2 -11   3    5.15    0.17
   2 -11   3    5.09    0.18
  -3  11  -3    0.03    0.05
   3 -11   3    0.01    0.03
  -4  11  -3    0.01    0.05
   4 -11   3    0.02    0.03
  -5  11  -3    0.01    0.04
   5 -11   3   -0.06    0.03
  -6  11  -3    2.96    0.14
  -6  11  -3    3.19    0.14
   6 -11   3    2.97    0.13
  -7  11  -3    5.58    0.22
  -7  11  -3    5.61    0.21
   7 -11   3    5.85    0.20
  -8  11  -3    0.61    0.08
   8 -11   3    0.67    0.07
  -9  11  -3   -0.10    0.05
   9 -11   3   -0.05    0.04
 -10  11  -3    1.36    0.11
  10 -11   3    1.33    0.10
 -11  11  -3    3.14    0.17
  11 -11   3    3.02    0.15
   5  10  -3   -0.03    0.05
  -5 -10   3    0.02    0.03
   4  10  -3    2.88    0.15
  -4 -10   3    2.90    0.12
   3  10  -3    0.32    0.06
  -3 -10   3    0.44    0.05
  -3 -10   3    0.49    0.05
   2  10  -3    0.93    0.09
  -2 -10   3    1.00    0.07
  -2 -10   3    1.05    0.07
   1  10  -3    0.06    0.05
  -1 -10   3    0.07    0.03
  -1 -10   3    0.08    0.03
   0  10  -3    4.00    0.18
   0 -10   3    4.19    0.15
   0 -10   3    4.39    0.15
  -1  10  -3    0.31    0.06
   1 -10   3    0.37    0.04
   1 -10   3    0.37    0.04
  -2  10  -3    1.33    0.10
   2 -10   3    1.35    0.07
  -3  10  -3    1.55    0.10
   3 -10   3    1.56    0.08
  -4  10  -3   17.07    0.52
   4 -10   3   17.11    0.48
  -5  10  -3    6.88    0.25
  -5  10  -3    7.29    0.24
   5 -10   3    7.02    0.23
  -6  10  -3    0.15    0.05
  -6  10  -3   -0.03    0.05
   6 -10   3    0.08    0.04
  -7  10  -3    4.12    0.17
  -7  10  -3    4.11    0.17
   7 -10   3    4.25    0.16
  -8  10  -3    1.10    0.09
   8 -10   3    1.01    0.08
  -9  10  -3    6.94    0.26
   9 -10   3    7.27    0.25
 -10  10  -3    0.83    0.09
  10 -10   3    0.88    0.08
 -11  10  -3    0.43    0.08
  11 -10   3    0.35    0.07
 -12  10  -3    5.27    0.24
  12 -10   3    5.66    0.22
  -7  -9   3    1.90    0.11
  -6  -9   3   13.01    0.40
   5   9  -3    0.07    0.05
  -5  -9   3    0.08    0.04
   4   9  -3    0.61    0.07
  -4  -9   3    0.61    0.06
  -4  -9   3    0.59    0.06
   3   9  -3    2.11    0.12
  -3  -9   3    2.16    0.10
  -3  -9   3    2.09    0.10
   2   9  -3    4.61    0.19
  -2  -9   3    4.47    0.16
  -2  -9   3    4.44    0.15
   1   9  -3    1.21    0.10
  -1  -9   3    1.35    0.07
  -1  -9   3    1.24    0.07
   0   9  -3    6.54    0.24
   0  -9   3    6.75    0.21
   0  -9   3    6.53    0.20
  -1   9  -3    6.75    0.24
   1  -9   3    6.54    0.20
   1  -9   3    6.54    0.21
  -2   9  -3    3.80    0.16
   2  -9   3    4.07    0.14
  -3   9  -3    7.85    0.27
   3  -9   3    8.16    0.24
  -4   9  -3    0.00    0.04
  -4   9  -3    0.13    0.04
   4  -9   3    0.12    0.03
  -5   9  -3    1.77    0.10
  -5   9  -3    1.95    0.11
   5  -9   3    2.05    0.09
  -6   9  -3   52.80    1.47
  -6   9  -3   52.06    1.42
   6  -9   3   52.08    1.39
  -7   9  -3    1.50    0.10
  -7   9  -3    1.51    0.10
   7  -9   3    1.31    0.08
  -8   9  -3   15.38    0.46
   8  -9   3   14.87    0.45
  -9   9  -3   17.66    0.54
   9  -9   3   17.94    0.52
 -10   9  -3    4.21    0.19
  10  -9   3    4.30    0.18
 -11   9  -3    2.01    0.13
  11  -9   3    2.03    0.12
 -12   9  -3    3.26    0.18
  12  -9   3    3.32    0.16
  -9  -8   3    4.03    0.18
  -8  -8   3    0.54    0.07
  -7  -8   3    1.40    0.09
   6   8  -3    1.17    0.10
  -6  -8   3    1.07    0.08
   5   8  -3    1.72    0.11
  -5  -8   3    1.80    0.09
   4   8  -3    1.12    0.09
  -4  -8   3    1.19    0.07
  -4  -8   3    1.13    0.07
   3   8  -3    0.46    0.06
  -3  -8   3    0.58    0.05
  -3  -8   3    0.56    0.05
   2   8  -3    8.01    0.28
  -2  -8   3    8.13    0.24
  -2  -8   3    7.93    0.25
   1   8  -3    6.22    0.23
  -1  -8   3    6.25    0.19
  -1  -8   3    6.25    0.20
   0  -8   3    6.20    0.19
   0  -8   3    6.05    0.19
  -1   8  -3   11.78    0.41
   1  -8   3   15.40    0.38
  -2   8  -3    5.60    0.20
   2  -8   3    5.68    0.18
  -3   8  -3    3.22    0.14
   3  -8   3    3.32    0.12
  -4   8  -3    4.87    0.17
  -4   8  -3    5.01    0.17
   4  -8   3    3.99    0.15
  -5   8  -3    0.31    0.05
  -5   8  -3    0.29    0.05
   5  -8   3    0.28    0.04
  -6   8  -3    0.84    0.08
  -6   8  -3    0.93    0.08
   6  -8   3    1.03    0.07
  -7   8  -3    1.39    0.09
   7  -8   3    1.19    0.08
  -8   8  -3    7.22    0.25
   8  -8   3    6.99    0.24
  -9   8  -3    3.66    0.17
   9  -8   3    3.68    0.15
 -10   8  -3   17.77    0.55
  10  -8   3   18.52    0.54
 -11   8  -3    0.89    0.10
  11  -8   3    0.97    0.09
 -12   8  -3    0.46    0.08
  12  -8   3    0.48    0.07
  -9  -7   3    0.06    0.04
  -8  -7   3    1.54    0.10
  -7  -7   3    0.73    0.07
   6   7  -3    8.50    0.29
  -6  -7   3    8.32    0.27
   5   7  -3    0.14    0.04
  -5  -7   3    0.14    0.03
  -5  -7   3    0.13    0.03
   4   7  -3    0.03    0.04
  -4  -7   3    0.05    0.02
  -4  -7   3   -0.01    0.02
   3   7  -3    4.10    0.17
  -3  -7   3    4.23    0.14
  -3  -7   3    4.35    0.15
   2   7  -3   28.43    0.81
  -2  -7   3   27.84    0.75
  -2  -7   3   27.86    0.77
   1   7  -3    1.16    0.09
  -1  -7   3    1.33    0.06
  -1  -7   3    1.31    0.07
   0  -7   3   16.22    0.46
   0  -7   3   16.25    0.44
  -1   7  -3   29.03    0.82
   1  -7   3   28.61    0.77
  -2   7  -3   16.96    0.51
   2  -7   3   17.41    0.47
  -3   7  -3    2.36    0.11
  -3   7  -3    2.73    0.11
   3  -7   3    2.51    0.10
  -4   7  -3   18.93    0.53
  -4   7  -3   18.58    0.55
  -5   7  -3   29.03    0.80
  -5   7  -3   29.37    0.82
   5  -7   3   28.20    0.78
  -6   7  -3   18.74    0.54
  -6   7  -3   18.83    0.54
   6  -7   3   18.43    0.52
  -7   7  -3   19.16    0.56
   7  -7   3   19.14    0.54
  -8   7  -3   15.44    0.46
   8  -7   3   14.61    0.44
  -9   7  -3    2.33    0.13
   9  -7   3    2.66    0.12
 -10   7  -3    0.31    0.07
  10  -7   3    0.23    0.05
 -11   7  -3    0.39    0.07
  11  -7   3    0.23    0.06
 -12   7  -3    1.45    0.12
  12  -7   3    1.44    0.11
 -10  -6   3    0.16    0.05
  -9  -6   3    1.52    0.10
  -8  -6   3    2.72    0.13
  -7  -6   3   13.19    0.40
   6   6  -3    2.86    0.13
  -6  -6   3    2.78    0.12
   5   6  -3    5.54    0.20
  -5  -6   3    5.53    0.18
  -5  -6   3    5.72    0.19
   4   6  -3    3.53    0.15
  -4  -6   3    3.42    0.12
  -4  -6   3    3.45    0.13
   3   6  -3    4.68    0.18
  -3  -6   3    4.81    0.15
  -3  -6   3    4.77    0.16
   2   6  -3   10.14    0.32
  -2  -6   3   10.39    0.29
  -2  -6   3   10.53    0.30
   1   6  -3   12.96    0.38
  -1  -6   3   12.43    0.35
  -1  -6   3   12.54    0.36
   0   6  -3    9.61    0.33
   0  -6   3   11.07    0.31
   0  -6   3   11.64    0.30
  -1   6  -3    2.48    0.11
   1  -6   3    2.64    0.09
  -2   6  -3    7.96    0.24
  -2   6  -3    7.58    0.25
   2  -6   3    7.97    0.23
  -3   6  -3   24.34    0.69
  -3   6  -3   25.37    0.71
   3  -6   3   25.58    0.68
  -4   6  -3    1.29    0.08
  -4   6  -3    1.17    0.08
  -5   6  -3   11.23    0.34
  -5   6  -3   11.19    0.34
   5  -6   3   11.21    0.33
  -6   6  -3   39.41    1.09
  -6   6  -3   38.85    1.07
   6  -6   3   38.68    1.05
  -7   6  -3   11.32    0.35
   7  -6   3   10.65    0.33
  -8   6  -3   15.14    0.45
   8  -6   3   14.38    0.43
  -9   6  -3    6.82    0.25
   9  -6   3    6.70    0.23
 -10   6  -3    3.50    0.17
  10  -6   3    3.65    0.16
 -11   6  -3    4.20    0.19
  11  -6   3    3.95    0.17
 -12   6  -3    0.27    0.07
  12  -6   3    0.28    0.06
 -11  -5   3    0.22    0.06
 -10  -5   3    0.20    0.05
  -9  -5   3    1.61    0.10
  -8  -5   3    6.05    0.21
   7   5  -3    4.91    0.19
  -7  -5   3    4.82    0.18
   6   5  -3    1.69    0.10
  -6  -5   3    1.87    0.09
   5   5  -3    3.52    0.14
  -5  -5   3    3.43    0.13
  -5  -5   3    3.34    0.12
   4   5  -3   12.45    0.38
  -4  -5   3   12.72    0.35
  -4  -5   3   12.72    0.36
   3   5  -3    1.17    0.08
  -3  -5   3    1.20    0.05
  -3  -5   3    1.14    0.06
   2   5  -3    0.00    0.03
  -2  -5   3    0.05    0.02
  -2  -5   3    0.06    0.02
   1   5  -3    4.73    0.16
  -1  -5   3    4.46    0.13
  -1  -5   3    4.49    0.14
   0   5  -3    5.35    0.18
   0  -5   3    5.18    0.15
  -1   5  -3   31.54    0.88
   1  -5   3   31.25    0.83
  -2   5  -3    4.32    0.14
  -2   5  -3    4.45    0.15
   2  -5   3    4.28    0.14
  -3   5  -3   22.01    0.61
  -3   5  -3   21.05    0.59
  -4   5  -3   88.82    2.35
  -4   5  -3   89.64    2.43
   4  -5   3   87.26    2.31
  -5   5  -3    0.25    0.04
   5  -5   3    0.44    0.04
  -6   5  -3   14.05    0.42
   6  -5   3   14.43    0.41
  -7   5  -3    0.32    0.05
   7  -5   3    0.35    0.05
  -8   5  -3    0.98    0.08
   8  -5   3    0.91    0.07
  -9   5  -3    2.74    0.14
   9  -5   3    2.65    0.13
 -10   5  -3    2.42    0.14
  10  -5   3    2.62    0.13
 -11   5  -3    7.93    0.30
  11  -5   3    8.28    0.28
 -12   5  -3    1.34    0.11
 -11  -4   3    5.46    0.22
 -10  -4   3    0.04    0.04
  -9  -4   3   -0.01    0.03
  -8  -4   3    1.22    0.08
   7   4  -3   12.15    0.37
  -7  -4   3   11.72    0.36
   6   4  -3    2.15    0.11
  -6  -4   3    2.11    0.08
  -6  -4   3    2.15    0.09
   5   4  -3   12.21    0.37
  -5  -4   3   11.65    0.33
  -5  -4   3   12.27    0.35
   4   4  -3    6.70    0.22
  -4  -4   3    6.76    0.19
  -4  -4   3    6.79    0.21
   3   4  -3    2.37    0.10
  -3  -4   3    2.63    0.09
  -3  -4   3    2.26    0.08
   2   4  -3    1.03    0.07
  -2  -4   3    1.10    0.04
  -2  -4   3    1.19    0.05
  -1  -4   3    0.71    0.03
  -1  -4   3    0.68    0.04
   0   4  -3    2.42    0.09
   0  -4   3    2.50    0.08
  -1   4  -3   28.71    0.77
   1  -4   3   28.39    0.75
  -2   4  -3   14.81    0.41
   2  -4   3   14.70    0.40
  -3   4  -3   87.28    2.39
  -3   4  -3   86.11    2.30
  -4   4  -3    1.48    0.06
   4  -4   3    1.44    0.07
  -5   4  -3   12.98    0.37
   5  -4   3   12.74    0.37
   6  -4   3    3.87    0.14
  -7   4  -3    9.00    0.29
   7  -4   3    8.76    0.28
  -8   4  -3    7.58    0.26
   8  -4   3    7.27    0.25
  -9   4  -3    2.40    0.13
   9  -4   3    2.27    0.12
 -10   4  -3    3.53    0.16
  10  -4   3    3.56    0.15
 -11   4  -3    2.74    0.15
  11  -4   3    2.76    0.14
 -12   4  -3    1.40    0.12
 -12  -3   3    0.31    0.06
 -11  -3   3    0.02    0.04
 -10  -3   3    0.04    0.04
  -9  -3   3    1.40    0.09
  -8  -3   3    2.52    0.11
  -7  -3   3    3.20    0.13
   6   3  -3   10.82    0.34
  -6  -3   3   11.10    0.32
  -6  -3   3   10.95    0.30
   5   3  -3   59.99    1.63
  -5  -3   3   57.28    1.53
  -5  -3   3   59.43    1.57
   4   3  -3   14.89    0.42
  -4  -3   3   14.25    0.40
  -4  -3   3   14.07    0.38
   3   3  -3    6.84    0.22
  -3  -3   3    7.31    0.19
  -3  -3   3    7.12    0.21
   2   3  -3    8.92    0.27
  -2  -3   3    9.19    0.24
  -2  -3   3    9.21    0.26
   0   3  -3   18.47    0.55
   0  -3   3   20.55    0.52
  -1   3  -3  105.21    2.91
   1  -3   3  105.11    2.75
  -2   3  -3    0.00    0.02
  -2   3  -3   -0.02    0.01
   2  -3   3    0.02    0.02
  -3   3  -3   23.47    0.64
  -3   3  -3   22.99    0.63
   3  -3   3   22.47    0.62
  -4   3  -3    3.54    0.12
  -4   3  -3    3.57    0.11
   4  -3   3    3.39    0.12
  -5   3  -3    0.00    0.03
   5  -3   3    0.00    0.03
  -6   3  -3   15.32    0.44
   6  -3   3   14.95    0.43
  -7   3  -3    4.08    0.16
   7  -3   3    3.93    0.15
  -8   3  -3   -0.01    0.04
   8  -3   3    0.04    0.04
  -9   3  -3    1.14    0.09
   9  -3   3    1.23    0.09
 -10   3  -3    2.49    0.14
  10  -3   3    2.46    0.13
 -11   3  -3    4.15    0.19
  11  -3   3    4.39    0.18
 -12  -2   3    4.52    0.20
 -11  -2   3    0.25    0.05
 -10  -2   3    2.46    0.12
  -9  -2   3    5.02    0.18
  -8  -2   3    1.53    0.08
  -7  -2   3    7.63    0.24
  -6  -2   3    2.27    0.08
  -6  -2   3    2.23    0.09
   5   2  -3   21.22    0.60
  -5  -2   3   21.71    0.58
  -5  -2   3   20.43    0.55
   4   2  -3   34.33    0.95
  -4  -2   3   33.93    0.91
  -4  -2   3   33.38    0.88
   3   2  -3    0.27    0.03
  -3  -2   3    0.31    0.02
   2   2  -3  285.37    7.95
  -2  -2   3  293.06    7.64
   1   2  -3  465.10   13.74
  -1  -2   3  475.04   12.46
   0   2  -3  154.48    4.26
   0   2  -3  151.74    4.36
   0  -2   3  157.17    4.03
  -2   2  -3    6.79    0.18
  -2   2  -3    5.18    0.18
  -3   2  -3   38.85    1.02
  -3   2  -3   38.35    1.04
  -3   2  -3   39.34    1.06
  -4   2  -3    4.40    0.15
  -4   2  -3    4.61    0.15
  -5   2  -3    1.85    0.09
  -5   2  -3    1.96    0.09
  -6   2  -3    2.46    0.11
  -6   2  -3    2.57    0.11
  -7   2  -3    2.56    0.11
  -7   2  -3    2.60    0.12
  -8   2  -3    0.21    0.05
  -9   2  -3    1.60    0.10
   9  -2   3    1.71    0.10
 -10   2  -3    0.58    0.08
  10  -2   3    0.57    0.07
 -11   2  -3    0.10    0.06
 -12  -1   3    0.08    0.05
 -11  -1   3    0.99    0.08
 -10  -1   3    0.74    0.07
  -9  -1   3    4.04    0.16
  -8  -1   3    0.04    0.03
  -6  -1   3   18.17    0.48
  -4  -1   3   24.12    0.68
  -4  -1   3   26.16    0.65
   3   1  -3  120.68    3.39
  -3  -1   3  125.58    3.30
  -2  -1   3   81.55    2.14
  -2  -1   3   83.80    2.21
   1   1  -3  425.18   12.49
   1   1  -3  430.25   11.46
   0   1  -3  198.99    5.31
   0   1  -3  194.15    5.03
   0   1  -3  186.74    5.13
  -1   1  -3   21.12    0.62
  -1   1  -3   26.01    0.64
  -2   1  -3    0.01    0.01
  -2   1  -3    0.04    0.01
  -3   1  -3   14.31    0.40
  -3   1  -3   14.15    0.40
  -4   1  -3    2.14    0.09
  -4   1  -3    2.17    0.09
  -5   1  -3    0.65    0.05
  -5   1  -3    0.62    0.05
  -6   1  -3    1.83    0.09
  -6   1  -3    1.95    0.09
  -7   1  -3    0.20    0.04
  -7   1  -3    0.16    0.04
  -8   1  -3   -0.02    0.03
  -8   1  -3   -0.04    0.03
  -9   1  -3    6.66    0.24
  -9   1  -3    6.42    0.23
 -10   1  -3    3.81    0.18
  10  -1   3    4.14    0.17
 -11   1  -3    0.04    0.05
 -13   0   3    2.86    0.15
 -12   0   3    2.59    0.14
 -11   0   3    5.01    0.20
 -10   0   3    1.68    0.10
  -9   0   3    8.74    0.28
  -8   0   3   19.27    0.55
   7   0  -3    3.85    0.12
   6   0  -3   79.29    2.06
  -6   0   3   79.99    2.11
   5   0  -3  114.70    2.94
  -5   0   3  112.40    3.02
  -4   0   3    1.55    0.06
  -3   0   3   38.23    1.01
   2   0  -3  256.43    6.52
  -2   0   3  249.05    6.68
   1   0  -3    0.25    0.02
   0   0  -3    7.46    0.20
   0   0  -3    6.64    0.20
  -1   0  -3    4.59    0.14
   1   0   3    4.63    0.13
  -2   0  -3    6.19    0.18
   2   0   3    6.05    0.17
  -3   0  -3   55.75    1.51
  -3   0  -3   57.59    1.49
  -4   0  -3    5.04    0.17
  -4   0  -3    5.34    0.17
  -5   0  -3    6.90    0.22
  -5   0  -3    6.98    0.22
  -6   0  -3    4.95    0.18
  -6   0  -3    5.05    0.18
  -7   0  -3    4.72    0.17
  -7   0  -3    4.93    0.18
  -8   0  -3    1.21    0.09
  -8   0  -3    1.17    0.08
  -9   0  -3    1.59    0.10
  -9   0  -3    1.70    0.11
 -10   0  -3   16.11    0.50
 -10   0  -3   16.17    0.49
 -11   0  -3   10.61    0.37
 -13   1   3    0.10    0.05
 -12   1   3    0.18    0.05
 -11   1   3    0.92    0.08
 -10   1   3   14.16    0.43
  -9   1   3    1.65    0.09
  -8   1   3   57.53    1.55
  -8   1   3   58.13    1.60
   7  -1  -3   35.40    0.94
  -7   1   3   36.25    1.00
  -7   1   3   36.42    0.98
   6  -1  -3    2.92    0.09
  -6   1   3    2.92    0.10
   5  -1  -3   52.72    1.36
  -5   1   3   52.49    1.40
   4  -1  -3    9.18    0.24
  -4   1   3    9.36    0.26
   3  -1  -3   43.37    1.10
  -3   1   3   41.78    1.13
   1  -1  -3   40.20    1.05
  -1   1   3   40.75    1.11
   0  -1  -3    4.21    0.12
   0  -1  -3    4.18    0.13
   0   1   3    4.19    0.13
  -1  -1  -3   19.15    0.52
   1   1   3   19.30    0.53
  -2  -1  -3   -0.01    0.02
  -2  -1  -3    0.00    0.01
   2   1   3    0.05    0.01
  -3  -1  -3    0.03    0.02
  -3  -1  -3    0.15    0.02
  -4  -1  -3    3.21    0.12
  -4  -1  -3    3.45    0.12
  -5  -1  -3   31.11    0.87
  -5  -1  -3   32.35    0.86
  -6  -1  -3   -0.04    0.03
  -6  -1  -3   -0.02    0.03
  -7  -1  -3   19.80    0.56
  -7  -1  -3   19.44    0.57
  -8  -1  -3   27.66    0.78
  -8  -1  -3   28.14    0.80
  -9  -1  -3   14.61    0.45
  -9  -1  -3   14.04    0.44
 -10  -1  -3    7.35    0.27
 -13   2   3   -0.04    0.05
 -12   2   3    2.67    0.14
 -11   2   3    4.06    0.17
 -10   2   3   14.81    0.44
  -9   2   3    3.38    0.12
  -9   2   3    3.34    0.13
   8  -2  -3    7.07    0.21
  -8   2   3    7.21    0.23
  -8   2   3    7.44    0.23
  -7   2   3   10.91    0.32
  -7   2   3   10.57    0.31
   6  -2  -3   46.77    1.21
  -6   2   3   47.17    1.24
  -6   2   3   45.77    1.29
   5  -2  -3   10.99    0.29
  -5   2   3   11.17    0.31
  -5   2   3   10.71    0.32
   4  -2  -3   51.83    1.37
  -4   2   3   53.70    1.39
  -3   2   3    0.13    0.01
   2  -2  -3    4.38    0.12
  -2   2   3    4.27    0.12
  -2   2   3    4.30    0.13
   1  -2  -3   31.22    0.83
   1  -2  -3   32.10    0.83
  -1   2   3   31.43    0.87
   0  -2  -3   70.37    1.84
   0   2   3   68.25    2.04
  -1  -2  -3   35.65    0.89
  -1  -2  -3   29.45    0.88
   1   2   3   34.93    0.92
  -2  -2  -3    1.39    0.06
  -2  -2  -3    0.97    0.05
   2   2   3    1.32    0.06
  -3  -2  -3   -0.01    0.02
  -3  -2  -3    0.01    0.02
   3   2   3   -0.03    0.02
  -4  -2  -3    6.30    0.20
  -4  -2  -3    6.49    0.20
  -5  -2  -3    3.64    0.13
  -5  -2  -3    3.59    0.14
  -6  -2  -3   14.46    0.43
  -6  -2  -3   14.47    0.43
  -7  -2  -3    3.34    0.14
  -7  -2  -3    2.99    0.14
  -8  -2  -3    2.83    0.14
  -8  -2  -3    2.74    0.14
  -9  -2  -3   14.54    0.45
  -9  -2  -3   14.69    0.46
 -10  -2  -3    2.02    0.13
 -14   3   3    4.90    0.22
 -13   3   3    2.18    0.13
 -12   3   3   15.87    0.49
 -11   3   3    1.19    0.09
 -10   3   3    0.18    0.04
  -9   3   3    8.78    0.27
  -9   3   3    8.70    0.27
   8  -3  -3    6.01    0.18
  -8   3   3    6.20    0.20
  -8   3   3    6.08    0.20
  -7   3   3    3.83    0.13
  -7   3   3    3.83    0.13
   6  -3  -3    3.65    0.12
  -6   3   3    4.72    0.14
  -6   3   3    4.53    0.14
   5  -3  -3   37.28    0.97
  -5   3   3   37.34    1.04
  -5   3   3   37.38    1.00
   4  -3  -3   15.84    0.42
  -4   3   3   15.53    0.45
  -4   3   3   16.00    0.43
   3  -3  -3   16.04    0.42
  -3   3   3   15.79    0.42
   2  -3  -3   13.62    0.37
   1  -3  -3   79.14    2.27
  -1   3   3   92.14    2.35
   0  -3  -3    0.61    0.03
   0   3   3    0.60    0.04
  -1  -3  -3   11.17    0.31
  -1  -3  -3   11.11    0.30
   1   3   3   10.77    0.32
  -2  -3  -3    1.92    0.07
  -2  -3  -3    1.87    0.08
   2   3   3    1.91    0.08
  -3  -3  -3    4.06    0.15
  -3  -3  -3    4.18    0.14
   3   3   3    4.27    0.14
  -4  -3  -3   55.30    1.49
  -4  -3  -3   56.32    1.48
  -5  -3  -3    1.06    0.07
  -5  -3  -3    0.98    0.07
  -6  -3  -3   13.22    0.40
  -6  -3  -3   13.06    0.39
  -7  -3  -3   17.11    0.51
  -7  -3  -3   17.45    0.51
  -8  -3  -3    2.01    0.12
  -8  -3  -3    1.83    0.11
  -9  -3  -3    0.17    0.06
 -14   4   3    0.35    0.07
 -13   4   3    7.10    0.26
 -12   4   3    0.07    0.05
 -11   4   3    6.45    0.23
 -10   4   3    1.36    0.08
   9  -4  -3    0.10    0.03
  -9   4   3    0.07    0.03
  -9   4   3    0.06    0.04
   8  -4  -3   75.20    1.96
  -8   4   3   74.97    2.01
  -8   4   3   76.14    2.08
   7  -4  -3    0.87    0.05
  -7   4   3    0.84    0.05
  -7   4   3    1.11    0.06
   6  -4  -3    4.31    0.13
  -6   4   3    4.04    0.14
  -6   4   3    4.07    0.13
   5  -4  -3   18.08    0.52
  -5   4   3   20.40    0.56
  -5   4   3   20.20    0.53
   4  -4  -3   19.13    0.55
  -4   4   3   21.91    0.56
  -4   4   3   21.70    0.59
   3  -4  -3    4.54    0.13
  -3   4   3    4.52    0.13
   2  -4  -3    1.74    0.07
  -2   4   3    1.67    0.07
   1  -4  -3   12.11    0.34
   1  -4  -3   12.17    0.32
  -1   4   3   12.22    0.35
   0  -4  -3   -0.01    0.01
   0  -4  -3    0.01    0.01
   0   4   3    0.02    0.02
  -1  -4  -3    4.95    0.16
  -1  -4  -3    4.49    0.14
   1   4   3    5.06    0.16
  -2  -4  -3    0.53    0.04
  -2  -4  -3    0.50    0.05
   2   4   3    0.49    0.04
  -3  -4  -3    7.00    0.23
  -3  -4  -3    7.03    0.21
   3   4   3    7.14    0.22
  -4  -4  -3   10.23    0.32
  -4  -4  -3   10.67    0.31
  -5  -4  -3   11.55    0.36
  -5  -4  -3   11.79    0.35
  -6  -4  -3    2.06    0.11
  -6  -4  -3    2.27    0.11
  -7  -4  -3    2.90    0.14
  -7  -4  -3    2.73    0.13
  -8  -4  -3    6.19    0.23
  -8  -4  -3    6.28    0.23
 -14   5   3    0.52    0.08
 -13   5   3    0.52    0.07
 -12   5   3    0.62    0.07
 -11   5   3    3.66    0.15
 -10   5   3    4.95    0.18
   9  -5  -3   49.12    1.28
  -9   5   3   48.77    1.32
  -9   5   3   47.89    1.35
   8  -5  -3    4.22    0.14
  -8   5   3    4.53    0.15
  -8   5   3    4.37    0.15
   7  -5  -3   16.13    0.43
  -7   5   3   15.83    0.45
  -7   5   3   16.13    0.47
   6  -5  -3    0.45    0.03
  -6   5   3    0.49    0.04
  -6   5   3    0.43    0.04
   5  -5  -3    1.40    0.06
  -5   5   3    1.35    0.07
  -5   5   3    1.40    0.06
   4  -5  -3    0.09    0.02
  -4   5   3    0.09    0.02
  -4   5   3    0.15    0.03
   3  -5  -3   12.75    0.35
  -3   5   3   12.83    0.37
   2  -5  -3    4.70    0.14
  -2   5   3    4.59    0.16
   1  -5  -3    9.03    0.29
   1  -5  -3   10.91    0.28
  -1   5   3   11.14    0.31
   0  -5  -3    9.15    0.26
   0  -5  -3    9.62    0.28
   0   5   3    9.31    0.29
  -1  -5  -3   17.92    0.49
   1   5   3   17.46    0.51
  -2  -5  -3    5.40    0.19
  -2  -5  -3    5.71    0.17
   2   5   3    5.62    0.19
  -3  -5  -3   16.09    0.46
  -3  -5  -3   17.10    0.48
  -4  -5  -3   -0.02    0.02
  -4  -5  -3   -0.01    0.03
  -5  -5  -3    1.51    0.09
  -5  -5  -3    1.50    0.08
  -6  -5  -3    0.28    0.05
  -7  -5  -3    0.23    0.05
 -14   6   3   -0.07    0.05
 -13   6   3    1.64    0.11
 -12   6   3    5.83    0.22
 -11   6   3    0.06    0.04
  10  -6  -3    0.20    0.04
 -10   6   3    0.22    0.05
 -10   6   3    0.29    0.04
   9  -6  -3   74.93    1.93
  -9   6   3   74.86    2.05
  -9   6   3   72.71    1.98
   8  -6  -3    0.58    0.05
  -8   6   3    0.61    0.05
  -8   6   3    0.58    0.06
   7  -6  -3    1.39    0.06
  -7   6   3    1.46    0.07
  -7   6   3    1.48    0.08
   6  -6  -3    0.26    0.03
  -6   6   3    0.24    0.03
  -6   6   3    0.23    0.04
   5  -6  -3    6.76    0.20
  -5   6   3    7.06    0.22
  -5   6   3    6.81    0.20
   4  -6  -3   10.40    0.29
  -4   6   3   10.24    0.28
   3  -6  -3    1.27    0.04
   3  -6  -3    1.23    0.06
  -3   6   3    1.34    0.07
   2  -6  -3    4.54    0.12
   2  -6  -3    4.59    0.15
  -2   6   3    4.56    0.16
   1  -6  -3   40.08    1.07
  -1   6   3   41.30    1.14
   0  -6  -3   12.91    0.38
   0  -6  -3   13.39    0.36
   0   6   3   13.61    0.40
  -1  -6  -3    3.09    0.10
  -1  -6  -3    3.07    0.12
   1   6   3    3.18    0.13
  -2  -6  -3   13.98    0.40
  -2  -6  -3   13.56    0.38
   2   6   3   13.66    0.41
  -3  -6  -3    0.18    0.04
  -4  -6  -3    0.30    0.05
  -5  -6  -3   -0.01    0.04
  -6  -6  -3    0.84    0.08
  -7  -6  -3    3.38    0.16
 -14   7   3    0.74    0.09
 -13   7   3    1.29    0.10
 -12   7   3    2.31    0.12
 -11   7   3    6.04    0.22
  10  -7  -3    0.59    0.05
 -10   7   3    0.58    0.06
 -10   7   3    0.54    0.06
   9  -7  -3    2.38    0.10
  -9   7   3    2.43    0.12
  -9   7   3    2.36    0.11
   8  -7  -3    0.63    0.05
  -8   7   3    0.71    0.06
  -8   7   3    0.58    0.06
   7  -7  -3   16.46    0.46
  -7   7   3   16.99    0.50
  -7   7   3   16.69    0.47
   6  -7  -3   15.96    0.44
  -6   7   3   16.28    0.48
  -6   7   3   16.17    0.45
   5  -7  -3   20.08    0.55
  -5   7   3   20.77    0.59
  -5   7   3   20.15    0.55
   4  -7  -3   36.09    0.96
   3  -7  -3   20.80    0.57
  -3   7   3   20.74    0.61
  -1   7   3   10.12    0.32
   0  -7  -3   16.26    0.46
   0   7   3   15.81    0.48
  -1  -7  -3    0.50    0.05
   1   7   3    0.46    0.06
  -2  -7  -3    9.34    0.30
   2   7   3    9.50    0.30
  -3  -7  -3    8.34    0.28
  -4  -7  -3    0.34    0.06
  -5  -7  -3   11.26    0.36
  -6  -7  -3    1.07    0.09
 -14   8   3    0.71    0.09
 -13   8   3    8.13    0.29
 -12   8   3    0.79    0.08
  11  -8  -3    3.06    0.12
 -11   8   3    3.05    0.14
  10  -8  -3    4.63    0.16
 -10   8   3    4.79    0.17
 -10   8   3    4.76    0.18
   9  -8  -3    2.85    0.11
  -9   8   3    2.72    0.13
  -9   8   3    2.84    0.12
   8  -8  -3    0.07    0.03
  -8   8   3    0.09    0.04
  -8   8   3    0.12    0.03
   7  -8  -3    2.36    0.10
  -7   8   3    2.47    0.12
  -7   8   3    2.52    0.10
   6  -8  -3   12.23    0.35
  -6   8   3   12.24    0.35
  -6   8   3   12.63    0.38
   5  -8  -3   26.32    0.69
  -5   8   3   25.11    0.74
   4  -8  -3    0.12    0.03
  -4   8   3    0.10    0.04
   3  -8  -3   89.74    2.36
  -3   8   3   91.08    2.50
   2  -8  -3   30.56    0.83
  -2   8   3   31.26    0.89
   1  -8  -3    6.61    0.21
  -1   8   3    6.32    0.24
   0  -8  -3    0.05    0.04
   0   8   3    0.13    0.05
  -1  -8  -3    6.96    0.23
   1   8   3    7.00    0.24
  -2  -8  -3    0.20    0.04
   2   8   3    0.26    0.05
  -3  -8  -3    1.54    0.10
  -4  -8  -3    1.87    0.11
  -5  -8  -3    3.28    0.16
  -6  -8  -3    3.01    0.15
 -14   9   3    0.22    0.07
 -13   9   3    0.62    0.08
 -12   9   3    5.54    0.21
  11  -9  -3    0.13    0.04
 -11   9   3    0.06    0.04
 -11   9   3    0.08    0.05
  10  -9  -3    1.51    0.08
 -10   9   3    1.39    0.11
 -10   9   3    1.39    0.09
   9  -9  -3    0.84    0.06
  -9   9   3    0.84    0.08
  -9   9   3    0.85    0.07
   8  -9  -3   13.09    0.37
  -8   9   3   12.84    0.41
   7  -9  -3    4.46    0.15
  -7   9   3    4.35    0.18
   6  -9  -3    1.32    0.07
  -6   9   3    1.22    0.10
   5  -9  -3   10.60    0.31
  -5   9   3   10.75    0.35
   4  -9  -3    0.73    0.06
  -4   9   3    0.70    0.08
   3  -9  -3    4.54    0.16
  -3   9   3    4.57    0.19
   2  -9  -3   10.11    0.30
  -2   9   3    9.82    0.33
   1  -9  -3    5.97    0.20
  -1   9   3    5.79    0.22
   0  -9  -3    1.56    0.09
   0   9   3    1.52    0.11
  -1  -9  -3    1.87    0.10
   1   9   3    1.90    0.11
  -2  -9  -3    1.07    0.08
  -3  -9  -3    4.13    0.18
  -4  -9  -3    4.75    0.20
  -5  -9  -3    0.29    0.06
  11 -10  -3    2.16    0.10
 -11  10   3    1.97    0.14
  10 -10  -3    3.04    0.12
 -10  10   3    3.11    0.16
   9 -10  -3    0.69    0.06
  -9  10   3    0.65    0.08
   8 -10  -3    6.04    0.20
  -8  10   3    5.82    0.23
   7 -10  -3   15.12    0.43
  -7  10   3   14.60    0.47
   6 -10  -3   13.90    0.40
  -6  10   3   14.24    0.45
   5 -10  -3    0.61    0.06
  -5  10   3    0.54    0.07
   4 -10  -3    8.75    0.27
  -4  10   3    8.86    0.31
   3 -10  -3   33.46    0.90
  -3  10   3   32.74    0.96
   2 -10  -3    5.75    0.20
  -2  10   3    5.72    0.23
   1 -10  -3    0.49    0.06
  -1  10   3    0.43    0.07
   0 -10  -3    1.02    0.08
   0  10   3    1.09    0.10
  -1 -10  -3    3.81    0.16
   1  10   3    4.02    0.17
  -2 -10  -3    7.08    0.25
  -3 -10  -3    0.95    0.09
  -4 -10  -3    4.95    0.21
  11 -11  -3    0.94    0.07
 -11  11   3    0.89    0.10
  10 -11  -3    5.21    0.18
 -10  11   3    5.21    0.22
   9 -11  -3    1.44    0.08
  -9  11   3    1.35    0.12
   8 -11  -3    2.88    0.12
  -8  11   3    2.82    0.16
   7 -11  -3    0.67    0.06
  -7  11   3    0.51    0.08
   6 -11  -3    4.88    0.17
  -6  11   3    4.86    0.21
   5 -11  -3    0.96    0.07
  -5  11   3    0.79    0.09
   4 -11  -3    4.38    0.16
  -4  11   3    4.40    0.20
   3 -11  -3    2.31    0.11
  -3  11   3    2.35    0.14
   2 -11  -3    3.42    0.14
  -2  11   3    3.25    0.16
   1 -11  -3    0.01    0.04
  -1  11   3   -0.03    0.05
   0 -11  -3    0.10    0.04
   0  11   3    0.06    0.05
  -1 -11  -3    1.66    0.10
  -2 -11  -3    1.66    0.11
  -3 -11  -3    0.21    0.06
  12 -12  -3    3.77    0.16
  11 -12  -3   -0.02    0.03
 -11  12   3   -0.11    0.07
  10 -12  -3    0.99    0.08
 -10  12   3    0.85    0.10
   9 -12  -3    0.01    0.04
  -9  12   3    0.03    0.07
   8 -12  -3    7.07    0.24
  -8  12   3    7.33    0.28
   7 -12  -3    0.20    0.04
  -7  12   3    0.18    0.07
   6 -12  -3    0.90    0.07
  -6  12   3    0.78    0.10
   5 -12  -3    7.65    0.25
  -5  12   3    7.43    0.29
   4 -12  -3    0.04    0.04
  -4  12   3    0.08    0.07
   3 -12  -3    0.04    0.03
  -3  12   3    0.06    0.06
   2 -12  -3    0.00    0.04
  -2  12   3    0.01    0.06
   1 -12  -3    0.43    0.06
  -1  12   3    0.43    0.08
   0 -12  -3    1.80    0.11
   0  12   3    1.87    0.13
  -1 -12  -3    0.23    0.06
  -2 -12  -3    0.69    0.08
  12 -13  -3    0.36    0.06
  11 -13  -3    0.14    0.05
 -11  13   3    0.16    0.08
  10 -13  -3    1.01    0.08
 -10  13   3    0.96    0.11
   9 -13  -3    0.07    0.04
  -9  13   3    0.05    0.08
   8 -13  -3    3.90    0.16
  -8  13   3    3.73    0.20
   7 -13  -3    0.10    0.04
  -7  13   3    0.11    0.07
   6 -13  -3    1.25    0.09
  -6  13   3    1.41    0.13
   5 -13  -3    0.31    0.05
  -5  13   3    0.33    0.08
   4 -13  -3    4.81    0.19
  -4  13   3    5.04    0.22
   3 -13  -3    0.41    0.06
  -3  13   3    0.31    0.08
   2 -13  -3    4.62    0.18
  -2  13   3    4.35    0.21
   1 -13  -3    0.19    0.05
  -1  13   3    0.24    0.07
   0 -13  -3    0.07    0.05
  12 -14  -3    0.13    0.05
 -12  14   3    0.00    0.08
  11 -14  -3    0.03    0.05
 -11  14   3   -0.06    0.08
  10 -14  -3    1.90    0.11
 -10  14   3    1.82    0.16
   9 -14  -3    1.96    0.11
  -9  14   3    1.99    0.16
   8 -14  -3    0.62    0.07
  -8  14   3    0.57    0.10
   7 -14  -3    0.21    0.05
  -7  14   3    0.37    0.09
   6 -14  -3   19.88    0.58
  -6  14   3   20.04    0.64
   5 -14  -3    0.95    0.08
  -5  14   3    0.95    0.11
   4 -14  -3    0.62    0.07
  -4  14   3    0.45    0.09
   3 -14  -3    4.07    0.18
  -3  14   3    4.15    0.20
   2 -14  -3    0.41    0.07
  -2  14   3    0.42    0.09
  -1  14   3    0.21    0.07
  10 -15  -3    2.62    0.14
   9 -15  -3    0.03    0.05
  -9  15   3    0.04    0.09
   8 -15  -3    8.14    0.28
  -8  15   3    8.27    0.33
   7 -15  -3   -0.02    0.04
  -7  15   3    0.05    0.08
   6 -15  -3    0.47    0.07
  -6  15   3    0.50    0.10
   5 -15  -3    0.05    0.05
  -5  15   3    0.08    0.08
  -4  15   3    1.13    0.12
   0 -15   4    0.24    0.06
  -1  15  -4    1.55    0.15
   1 -15   4    1.59    0.10
  -2  15  -4    0.06    0.07
   2 -15   4    0.06    0.05
  -3  15  -4    0.13    0.07
   3 -15   4    0.06    0.05
  -4  15  -4    0.12    0.07
   4 -15   4    0.06    0.04
  -5  15  -4    0.66    0.09
   5 -15   4    0.75    0.08
  -6  15  -4    0.73    0.10
   6 -15   4    0.68    0.08
  -7  15  -4    0.58    0.09
   7 -15   4    0.56    0.07
   2  14  -4    0.05    0.06
   1  14  -4    0.56    0.09
   0  14  -4    1.81    0.14
   0 -14   4    1.64    0.10
  -1  14  -4    1.56    0.13
   1 -14   4    1.60    0.10
  -2  14  -4    0.02    0.06
   2 -14   4    0.04    0.04
  -3  14  -4    0.82    0.10
   3 -14   4    0.82    0.08
  -4  14  -4    1.57    0.13
   4 -14   4    1.56    0.10
  -5  14  -4    3.12    0.17
   5 -14   4    3.34    0.15
  -6  14  -4    0.08    0.06
   6 -14   4    0.00    0.04
  -7  14  -4    0.10    0.06
   7 -14   4    0.04    0.04
   8 -14   4    2.40    0.13
   4  13  -4    0.28    0.07
   3  13  -4    0.18    0.06
   2  13  -4   -0.03    0.05
   1  13  -4    0.10    0.06
  -1 -13   4    0.08    0.04
   0  13  -4    2.29    0.15
   0 -13   4    2.31    0.11
  -1  13  -4    2.90    0.17
   1 -13   4    2.93    0.13
  -2  13  -4    0.28    0.07
   2 -13   4    0.25    0.05
   2 -13   4    0.25    0.05
  -3  13  -4    1.16    0.11
   3 -13   4    1.26    0.09
   3 -13   4    1.11    0.08
  -4  13  -4    2.35    0.14
   4 -13   4    2.35    0.12
  -5  13  -4    1.79    0.12
   5 -13   4    1.64    0.10
  -6  13  -4    1.46    0.12
   6 -13   4    1.50    0.10
  -7  13  -4    8.69    0.32
   7 -13   4    9.06    0.29
  -8  13  -4    7.97    0.29
   8 -13   4    8.32    0.28
  -9  13  -4    0.91    0.10
   9 -13   4    1.05    0.10
 -10  13  -4    6.72    0.27
   4  12  -4    0.26    0.07
   3  12  -4    1.18    0.11
   2  12  -4    0.27    0.07
  -2 -12   4    0.26    0.05
   1  12  -4    0.48    0.08
  -1 -12   4    0.58    0.06
  -1 -12   4    0.58    0.06
   0  12  -4    1.62    0.12
   0 -12   4    1.64    0.09
   0 -12   4    1.52    0.08
  -1  12  -4    0.85    0.09
   1 -12   4    1.03    0.07
   1 -12   4    0.92    0.07
  -2  12  -4    0.10    0.05
   2 -12   4    0.07    0.04
   2 -12   4    0.04    0.03
  -3  12  -4    0.09    0.05
   3 -12   4    0.10    0.04
  -4  12  -4    0.37    0.07
   4 -12   4    0.40    0.05
  -5  12  -4    6.84    0.26
   5 -12   4    7.07    0.23
  -6  12  -4    1.47    0.11
   6 -12   4    1.58    0.10
  -7  12  -4    0.06    0.05
  -7  12  -4    0.07    0.06
   7 -12   4    0.04    0.04
  -8  12  -4    7.40    0.27
   8 -12   4    7.48    0.26
  -9  12  -4   -0.02    0.05
   9 -12   4   -0.04    0.05
 -10  12  -4    5.24    0.23
  10 -12   4    5.53    0.21
   5  11  -4    1.27    0.11
   4  11  -4    2.49    0.15
  -4 -11   4    2.72    0.12
   3  11  -4    0.01    0.05
  -3 -11   4    0.00    0.03
   2  11  -4    8.00    0.30
  -2 -11   4    8.14    0.25
  -2 -11   4    8.18    0.26
   1  11  -4    2.96    0.16
  -1 -11   4    2.99    0.12
  -1 -11   4    3.04    0.12
   0  11  -4    1.27    0.11
   0 -11   4    1.36    0.08
   0 -11   4    1.26    0.07
  -1  11  -4    0.54    0.07
   1 -11   4    0.51    0.05
   1 -11   4    0.57    0.05
  -2  11  -4    0.38    0.07
   2 -11   4    0.40    0.05
   2 -11   4    0.41    0.05
  -3  11  -4    7.89    0.29
   3 -11   4    8.32    0.26
  -4  11  -4    2.79    0.14
   4 -11   4    3.01    0.12
  -5  11  -4    1.10    0.10
   5 -11   4    1.05    0.08
  -6  11  -4   27.31    0.81
  -6  11  -4   27.54    0.78
   6 -11   4   27.34    0.76
  -7  11  -4    0.26    0.06
   7 -11   4    0.15    0.04
  -8  11  -4    1.83    0.12
   8 -11   4    1.83    0.10
  -9  11  -4    1.20    0.11
   9 -11   4    1.22    0.10
 -10  11  -4    0.02    0.06
  10 -11   4   -0.02    0.05
 -11  11  -4    0.12    0.07
  11 -11   4    0.17    0.06
  -7 -10   4    2.60    0.13
  -6 -10   4    7.51    0.26
   5  10  -4    1.25    0.10
  -5 -10   4    1.07    0.08
   4  10  -4    3.03    0.15
  -4 -10   4    3.02    0.13
   3  10  -4    0.42    0.07
  -3 -10   4    0.42    0.05
  -3 -10   4    0.43    0.05
   2  10  -4    1.75    0.12
  -2 -10   4    1.76    0.09
  -2 -10   4    1.81    0.09
   1  10  -4    0.04    0.05
  -1 -10   4    0.05    0.03
  -1 -10   4    0.14    0.03
   0  10  -4    0.03    0.05
   0 -10   4    0.06    0.03
   0 -10   4    0.04    0.03
  -1  10  -4    9.86    0.32
   1 -10   4    9.33    0.29
   1 -10   4    9.32    0.28
  -2  10  -4    5.28    0.20
   2 -10   4    5.02    0.17
  -3  10  -4    0.58    0.06
   3 -10   4    0.51    0.05
  -4  10  -4    1.13    0.09
   4 -10   4    0.99    0.07
  -5  10  -4    3.14    0.14
  -5  10  -4    3.26    0.15
   5 -10   4    3.13    0.13
  -6  10  -4    0.27    0.06
  -6  10  -4    0.25    0.05
   6 -10   4    0.33    0.05
  -7  10  -4    1.92    0.12
   7 -10   4    1.93    0.10
  -8  10  -4    0.76    0.08
   8 -10   4    0.78    0.08
  -9  10  -4    6.69    0.26
   9 -10   4    7.01    0.25
 -10  10  -4   19.96    0.61
  10 -10   4   19.75    0.58
 -11  10  -4    0.05    0.06
  11 -10   4    0.10    0.06
  -8  -9   4    0.61    0.07
  -7  -9   4    7.89    0.27
   6   9  -4    4.26    0.19
  -6  -9   4    4.34    0.17
   5   9  -4    1.93    0.12
  -5  -9   4    2.05    0.10
   4   9  -4    0.16    0.05
  -4  -9   4    0.15    0.03
   3   9  -4    1.49    0.10
  -3  -9   4    1.35    0.07
  -3  -9   4    1.23    0.07
   2   9  -4   13.62    0.44
  -2  -9   4   14.18    0.39
  -2  -9   4   13.90    0.40
   1   9  -4    0.09    0.05
  -1  -9   4    0.13    0.03
  -1  -9   4    0.03    0.03
   0   9  -4    4.11    0.17
   0  -9   4    3.83    0.14
   0  -9   4    3.80    0.13
  -1   9  -4    0.08    0.05
   1  -9   4    0.02    0.03
   1  -9   4    0.05    0.03
  -2   9  -4   16.33    0.50
   2  -9   4   16.07    0.45
  -3   9  -4    0.98    0.09
   3  -9   4    1.14    0.07
  -4   9  -4    4.45    0.17
  -4   9  -4    4.13    0.17
   4  -9   4    4.35    0.16
  -5   9  -4    0.06    0.04
  -5   9  -4    0.02    0.04
   5  -9   4    0.11    0.04
  -6   9  -4    0.50    0.06
  -6   9  -4    0.41    0.06
   6  -9   4    0.42    0.05
  -7   9  -4    2.27    0.12
   7  -9   4    2.21    0.11
  -8   9  -4    4.97    0.20
   8  -9   4    5.16    0.19
  -9   9  -4    0.42    0.07
   9  -9   4    0.55    0.07
 -10   9  -4    6.23    0.25
  10  -9   4    5.92    0.23
 -11   9  -4    0.94    0.10
  11  -9   4    0.94    0.09
  -9  -8   4    0.38    0.06
  -8  -8   4    0.20    0.05
  -7  -8   4    9.42    0.31
   6   8  -4    0.74    0.08
  -6  -8   4    0.86    0.07
   5   8  -4    1.57    0.11
  -5  -8   4    1.77    0.09
   4   8  -4    7.24    0.26
  -4  -8   4    7.13    0.23
  -4  -8   4    7.58    0.23
   3   8  -4    1.16    0.09
  -3  -8   4    1.29    0.07
  -3  -8   4    1.23    0.07
   2   8  -4    4.74    0.19
  -2  -8   4    4.98    0.16
  -2  -8   4    4.94    0.17
   1   8  -4    0.64    0.07
  -1  -8   4    0.77    0.06
  -1  -8   4    0.65    0.05
   0   8  -4    0.87    0.08
   0  -8   4    1.15    0.06
   0  -8   4    1.33    0.07
  -1   8  -4    5.92    0.21
   1  -8   4    5.56    0.18
  -2   8  -4    6.04    0.22
   2  -8   4    6.04    0.19
  -3   8  -4    0.19    0.04
  -3   8  -4    0.14    0.04
   3  -8   4    0.13    0.03
  -4   8  -4    1.45    0.09
  -4   8  -4    1.36    0.09
   4  -8   4    1.49    0.08
  -5   8  -4   46.55    1.31
  -5   8  -4   47.58    1.28
   5  -8   4   46.61    1.25
  -6   8  -4   23.35    0.66
  -6   8  -4   22.79    0.67
   6  -8   4   22.97    0.64
  -7   8  -4    8.10    0.28
   7  -8   4    8.22    0.27
  -8   8  -4   22.76    0.67
   8  -8   4   22.75    0.65
  -9   8  -4    6.27    0.24
   9  -8   4    5.74    0.22
 -10   8  -4    1.22    0.11
  10  -8   4    1.14    0.09
 -11   8  -4    6.01    0.25
  11  -8   4    6.61    0.24
  12  -8   4    2.49    0.14
 -10  -7   4    3.14    0.15
  -9  -7   4    1.41    0.10
  -8  -7   4    1.85    0.11
   7   7  -4   11.40    0.37
  -7  -7   4   11.13    0.35
   6   7  -4    2.98    0.14
  -6  -7   4    2.92    0.12
   5   7  -4    3.14    0.15
  -5  -7   4    3.05    0.12
   4   7  -4    2.59    0.13
  -4  -7   4    2.60    0.11
  -4  -7   4    2.63    0.10
   3   7  -4    5.83    0.22
  -3  -7   4    5.87    0.19
  -3  -7   4    5.90    0.18
   2   7  -4    1.17    0.09
  -2  -7   4    1.06    0.06
  -2  -7   4    1.06    0.06
  -1  -7   4   -0.02    0.03
  -1  -7   4   -0.02    0.02
   0   7  -4    5.51    0.21
   0  -7   4    6.84    0.19
   0  -7   4    6.70    0.20
  -1   7  -4    0.02    0.04
   1  -7   4    0.04    0.02
  -2   7  -4   14.19    0.43
   2  -7   4   14.01    0.39
  -3   7  -4    3.62    0.14
  -3   7  -4    3.56    0.14
   3  -7   4    3.70    0.13
  -4   7  -4    0.09    0.04
   4  -7   4    0.06    0.03
  -5   7  -4   31.51    0.89
  -5   7  -4   31.73    0.88
   5  -7   4   31.44    0.86
  -6   7  -4    1.90    0.11
   6  -7   4    1.98    0.10
  -7   7  -4   11.46    0.36
   7  -7   4   11.33    0.35
  -8   7  -4    3.39    0.15
   8  -7   4    3.25    0.14
  -9   7  -4    9.47    0.32
   9  -7   4    9.42    0.31
 -10   7  -4    0.45    0.07
  10  -7   4    0.40    0.06
 -11   7  -4    1.31    0.11
  11  -7   4    1.31    0.10
  12  -7   4    0.02    0.05
 -10  -6   4    0.94    0.09
  -9  -6   4    1.46    0.10
  -8  -6   4    1.22    0.09
   7   6  -4    3.80    0.17
  -7  -6   4    3.95    0.15
   6   6  -4    7.20    0.25
  -6  -6   4    7.16    0.23
   5   6  -4    0.53    0.06
  -5  -6   4    0.44    0.05
   4   6  -4    0.45    0.06
  -4  -6   4    0.42    0.05
  -4  -6   4    0.46    0.04
   3   6  -4    0.16    0.05
  -3  -6   4    0.20    0.03
  -3  -6   4    0.17    0.03
   2   6  -4    0.24    0.05
  -2  -6   4    0.26    0.03
  -2  -6   4    0.30    0.03
  -1  -6   4   23.45    0.64
  -1  -6   4   22.90    0.61
   0   6  -4   13.85    0.41
   0  -6   4   13.83    0.38
  -1   6  -4    0.81    0.06
   1  -6   4    0.88    0.05
  -2   6  -4    0.14    0.03
  -2   6  -4    0.10    0.03
   2  -6   4    0.15    0.03
  -3   6  -4   16.49    0.47
  -3   6  -4   16.25    0.48
   3  -6   4   16.56    0.46
  -4   6  -4   22.93    0.65
  -4   6  -4   23.24    0.66
  -5   6  -4   16.51    0.48
  -5   6  -4   16.87    0.48
   5  -6   4   16.28    0.47
  -6   6  -4    3.70    0.15
   6  -6   4    3.94    0.15
  -7   6  -4   15.13    0.46
   7  -6   4   15.14    0.45
  -8   6  -4    3.14    0.15
   8  -6   4    3.09    0.14
  -9   6  -4   -0.03    0.04
   9  -6   4    0.01    0.04
 -10   6  -4    0.09    0.06
  10  -6   4    0.12    0.05
 -11   6  -4    1.99    0.14
  11  -6   4    2.15    0.13
  12  -6   4    0.28    0.06
 -11  -5   4    0.31    0.06
 -10  -5   4    1.58    0.10
  -9  -5   4    1.27    0.09
  -8  -5   4   11.21    0.35
   7   5  -4   18.26    0.54
  -7  -5   4   17.05    0.51
   6   5  -4    0.74    0.07
  -6  -5   4    0.64    0.06
   5   5  -4    0.58    0.06
  -5  -5   4    0.63    0.04
  -5  -5   4    0.61    0.05
   4   5  -4    1.08    0.08
  -4  -5   4    1.03    0.05
  -4  -5   4    0.99    0.06
   3   5  -4    3.66    0.14
  -3  -5   4    3.56    0.13
  -3  -5   4    3.63    0.11
   2   5  -4   39.54    1.09
  -2  -5   4   38.05    1.01
  -2  -5   4   38.96    1.05
   1   5  -4    1.90    0.09
  -1  -5   4    1.99    0.07
  -1  -5   4    2.08    0.08
   0   5  -4    1.19    0.07
   0  -5   4    1.15    0.05
  -1   5  -4    1.88    0.09
   1  -5   4    1.93    0.07
  -2   5  -4   14.47    0.41
  -2   5  -4   14.50    0.42
   2  -5   4   14.41    0.40
  -3   5  -4    4.07    0.14
  -3   5  -4    3.97    0.14
   3  -5   4    4.02    0.14
  -4   5  -4    0.16    0.03
   5  -5   4    7.63    0.24
  -6   5  -4    0.28    0.05
   6  -5   4    0.30    0.05
  -7   5  -4    0.67    0.07
   7  -5   4    0.95    0.07
  -8   5  -4    0.89    0.08
   8  -5   4    0.84    0.08
  -9   5  -4    2.53    0.14
   9  -5   4    2.80    0.13
 -10   5  -4    2.35    0.13
  10  -5   4    2.23    0.12
 -11   5  -4    3.17    0.17
  11  -5   4    3.45    0.16
 -11  -4   4    0.10    0.05
 -10  -4   4    0.19    0.05
  -9  -4   4    0.93    0.08
  -8  -4   4    0.36    0.05
   7   4  -4    0.31    0.05
  -7  -4   4    0.22    0.04
   6   4  -4    1.65    0.09
  -6  -4   4    1.70    0.08
   5   4  -4    0.88    0.07
  -5  -4   4    0.85    0.04
  -5  -4   4    0.81    0.05
   4   4  -4    0.11    0.03
  -4  -4   4    0.11    0.02
  -4  -4   4    0.08    0.02
   3   4  -4    7.04    0.23
  -3  -4   4    7.18    0.20
  -3  -4   4    7.43    0.22
   2   4  -4   53.10    1.47
  -2  -4   4   51.88    1.37
  -2  -4   4   54.08    1.41
   1   4  -4   20.75    0.59
  -1  -4   4   20.23    0.54
  -1  -4   4   20.28    0.56
   0   4  -4    5.25    0.17
   0  -4   4    5.33    0.16
  -1   4  -4   18.74    0.53
   1  -4   4   18.38    0.50
  -2   4  -4    0.03    0.01
  -2   4  -4    0.02    0.01
   2  -4   4    0.06    0.02
  -3   4  -4    5.41    0.19
   3  -4   4    7.01    0.19
  -4   4  -4   10.26    0.28
  -4   4  -4    9.24    0.29
   4  -4   4    9.01    0.28
  -5   4  -4    6.85    0.23
   5  -4   4    7.70    0.23
  -6   4  -4    1.26    0.08
   6  -4   4    1.26    0.08
  -7   4  -4    3.97    0.16
   7  -4   4    3.96    0.16
  -8   4  -4    0.16    0.05
   8  -4   4    0.19    0.05
  -9   4  -4    0.09    0.05
   9  -4   4    0.00    0.04
 -10   4  -4    0.56    0.08
  10  -4   4    0.59    0.07
 -11   4  -4    7.85    0.30
  11  -4   4    7.81    0.28
 -12  -3   4    0.15    0.06
 -11  -3   4    1.96    0.12
 -10  -3   4    0.18    0.05
  -9  -3   4    6.57    0.23
  -8  -3   4    0.65    0.06
  -7  -3   4   12.42    0.37
   6   3  -4   13.12    0.40
  -6  -3   4   13.06    0.38
   5   3  -4    8.93    0.28
  -5  -3   4    8.52    0.24
  -5  -3   4    8.86    0.26
   4   3  -4    1.23    0.07
  -4  -3   4    1.18    0.04
  -4  -3   4    1.18    0.06
   3   3  -4    9.59    0.29
  -3  -3   4    9.17    0.25
  -3  -3   4    9.14    0.27
  -2  -3   4    8.99    0.24
   1   3  -4   18.68    0.53
  -1  -3   4   18.57    0.49
   0  -3   4    1.88    0.07
  -1   3  -4    3.22    0.12
  -1   3  -4    3.78    0.12
   1  -3   4    3.56    0.11
  -2   3  -4   23.62    0.66
  -2   3  -4   23.85    0.65
   2  -3   4   23.65    0.64
  -3   3  -4   21.28    0.58
  -3   3  -4   20.11    0.57
  -4   3  -4   24.24    0.65
  -4   3  -4   22.87    0.65
   4  -3   4   23.22    0.64
  -5   3  -4    7.05    0.23
  -6   3  -4    0.80    0.07
   6  -3   4    0.79    0.06
  -7   3  -4    2.16    0.11
   7  -3   4    2.02    0.11
  -8   3  -4    1.23    0.09
   8  -3   4    1.09    0.08
  -9   3  -4    0.70    0.08
   9  -3   4    0.74    0.07
 -10   3  -4    2.70    0.15
  10  -3   4    2.68    0.14
 -11   3  -4    0.39    0.08
  11  -3   4    0.32    0.07
 -12  -2   4    1.61    0.11
 -11  -2   4    1.44    0.10
 -10  -2   4    4.32    0.17
  -9  -2   4    0.65    0.06
  -8  -2   4    5.22    0.18
  -7  -2   4    0.57    0.05
   5   2  -4   10.92    0.33
  -5  -2   4   10.67    0.28
   4   2  -4   14.38    0.42
  -4  -2   4   14.13    0.37
   3   2  -4    8.40    0.26
  -3  -2   4    8.58    0.22
  -3  -2   4    8.53    0.24
  -2  -2   4   33.57    0.89
  -2  -2   4   34.96    0.92
  -1  -2   4    0.68    0.03
   0   2  -4   17.98    0.51
  -1   2  -4    8.47    0.25
  -1   2  -4    8.67    0.25
  -1   2  -4    8.90    0.25
  -2   2  -4   19.39    0.53
  -2   2  -4   20.12    0.55
  -2   2  -4   19.12    0.54
  -3   2  -4    0.31    0.03
  -4   2  -4    7.44    0.23
  -4   2  -4    7.60    0.23
  -5   2  -4    7.60    0.24
  -5   2  -4    7.24    0.23
  -6   2  -4    0.03    0.03
  -6   2  -4    0.08    0.04
  -7   2  -4    6.80    0.24
  -7   2  -4    6.88    0.23
  -8   2  -4    2.81    0.14
  -9   2  -4    0.16    0.05
   9  -2   4    0.17    0.05
 -10   2  -4    4.84    0.21
  10  -2   4    5.08    0.20
 -11   2  -4    1.54    0.12
 -13  -1   4    0.81    0.09
 -12  -1   4   -0.01    0.04
 -11  -1   4    0.54    0.07
 -10  -1   4    5.24    0.19
  -9  -1   4    8.18    0.26
  -8  -1   4    4.18    0.15
   6   1  -4   26.72    0.70
  -6  -1   4   27.37    0.74
  -5  -1   4   22.79    0.62
  -4  -1   4    4.95    0.15
  -3  -1   4   74.97    1.99
  -3  -1   4   79.48    2.06
  -2  -1   4   42.31    1.12
   1   1  -4    0.52    0.03
   0   1  -4   21.73    0.57
   0   1  -4   21.21    0.58
  -1   1  -4   51.42    1.34
  -2   1  -4    4.19    0.15
  -2   1  -4    5.27    0.15
  -3   1  -4    6.98    0.21
  -3   1  -4    6.91    0.21
  -4   1  -4    2.64    0.11
  -4   1  -4    2.65    0.11
  -5   1  -4    3.10    0.12
  -5   1  -4    3.04    0.12
  -6   1  -4    9.89    0.31
  -6   1  -4    9.39    0.30
  -7   1  -4    1.87    0.10
  -7   1  -4    1.72    0.10
  -8   1  -4    0.21    0.05
  -8   1  -4    0.27    0.05
  -9   1  -4   -0.04    0.04
  -9   1  -4   -0.03    0.04
 -10   1  -4    0.03    0.05
  10  -1   4    0.11    0.05
 -13   0   4    3.79    0.18
 -12   0   4    8.89    0.31
 -11   0   4    0.60    0.07
 -10   0   4    2.84    0.13
  -9   0   4    1.69    0.09
  -8   0   4   26.21    0.73
  -7   0   4   21.89    0.61
   6   0  -4   18.46    0.48
  -6   0   4   18.36    0.51
  -5   0   4    3.12    0.10
  -4   0   4    3.27    0.10
   3   0  -4   41.71    1.07
  -3   0   4   41.43    1.10
   2   0  -4    8.16    0.22
  -2   0   4    8.14    0.23
   1   0  -4   24.99    0.66
   0   0  -4   13.99    0.38
  -1   0  -4    0.36    0.03
   1   0   4    0.41    0.02
  -2   0  -4   62.86    1.66
   2   0   4   62.20    1.70
  -3   0  -4   41.68    1.13
  -3   0  -4   42.00    1.11
  -4   0  -4   26.63    0.74
  -4   0  -4   26.99    0.73
  -5   0  -4   37.76    1.03
  -5   0  -4   37.88    1.02
  -6   0  -4    1.04    0.08
  -6   0  -4    1.16    0.08
  -7   0  -4   -0.01    0.03
  -7   0  -4    0.02    0.04
  -8   0  -4    2.57    0.13
  -8   0  -4    2.61    0.13
  -9   0  -4    8.67    0.29
  -9   0  -4    8.63    0.30
 -10   0  -4    0.26    0.07
 -10   0  -4    0.36    0.06
 -13   1   4    3.39    0.17
 -12   1   4   -0.01    0.04
 -11   1   4    0.72    0.07
 -10   1   4   19.60    0.57
  -9   1   4    0.03    0.03
  -9   1   4    0.08    0.03
  -8   1   4   11.89    0.35
  -8   1   4   12.03    0.36
   7  -1  -4    1.92    0.06
  -7   1   4    2.02    0.08
  -7   1   4    1.93    0.08
   6  -1  -4    7.10    0.19
  -6   1   4    7.41    0.22
   5  -1  -4    5.69    0.15
  -5   1   4    5.79    0.17
   4  -1  -4   15.15    0.39
  -4   1   4   14.69    0.41
   3  -1  -4   24.62    0.64
  -3   1   4   24.65    0.66
   2  -1  -4    5.77    0.16
  -2   1   4    5.53    0.16
  -2   1   4    5.49    0.17
   1  -1  -4  105.84    2.74
   1  -1  -4  104.30    3.03
  -1   1   4  104.45    2.86
   0  -1  -4    6.72    0.20
   0  -1  -4    7.13    0.20
   0   1   4    7.15    0.20
  -1  -1  -4   19.06    0.51
  -1  -1  -4   17.22    0.50
   1   1   4   19.47    0.52
  -2  -1  -4    3.70    0.12
  -2  -1  -4    3.60    0.13
   2   1   4    3.59    0.11
  -3  -1  -4   53.00    1.38
  -3  -1  -4   51.49    1.40
  -4  -1  -4    1.52    0.08
  -4  -1  -4    1.68    0.08
  -5  -1  -4    7.92    0.25
  -5  -1  -4    8.20    0.26
  -6  -1  -4    2.13    0.11
  -6  -1  -4    2.13    0.11
  -7  -1  -4    3.50    0.15
  -7  -1  -4    3.34    0.15
  -8  -1  -4    0.25    0.06
  -8  -1  -4    0.26    0.06
  -9  -1  -4    0.80    0.08
  -9  -1  -4    0.89    0.09
 -10  -1  -4    0.65    0.08
 -14   2   4    2.65    0.15
 -13   2   4    0.08    0.05
 -12   2   4    3.14    0.15
 -11   2   4    0.71    0.07
 -10   2   4    2.17    0.10
  -9   2   4    0.04    0.03
  -9   2   4    0.01    0.03
  -8   2   4   22.41    0.63
  -8   2   4   21.39    0.61
   7  -2  -4    0.53    0.03
  -7   2   4    0.50    0.04
  -7   2   4    0.55    0.04
   6  -2  -4    2.85    0.09
  -6   2   4    2.97    0.11
  -6   2   4    2.96    0.10
   5  -2  -4    2.95    0.09
  -5   2   4    3.00    0.11
  -5   2   4    3.01    0.10
   4  -2  -4   15.20    0.39
  -4   2   4   14.91    0.43
  -4   2   4   14.61    0.40
   3  -2  -4   21.37    0.55
  -3   2   4   20.85    0.56
   2  -2  -4   28.54    0.73
  -2   2   4   28.00    0.74
  -2   2   4   27.18    0.78
   1  -2  -4   40.83    1.18
   1  -2  -4   47.96    1.19
  -1   2   4   46.39    1.24
   0  -2  -4   11.26    0.31
   0  -2  -4   11.23    0.30
   0   2   4   10.86    0.32
  -1  -2  -4   81.48    2.20
   1   2   4   84.77    2.29
  -2  -2  -4    1.38    0.07
  -2  -2  -4    1.43    0.06
   2   2   4    1.29    0.06
  -3  -2  -4   12.00    0.35
  -3  -2  -4   12.15    0.35
  -4  -2  -4   10.75    0.32
  -4  -2  -4   10.82    0.32
  -5  -2  -4   12.94    0.38
  -5  -2  -4   12.94    0.39
  -6  -2  -4    0.89    0.07
  -6  -2  -4    0.87    0.08
  -7  -2  -4    0.06    0.04
  -7  -2  -4   -0.02    0.04
  -8  -2  -4    4.27    0.18
  -8  -2  -4    4.34    0.18
  -9  -2  -4    2.84    0.15
  -9  -2  -4    2.81    0.15
 -10  -2  -4    2.63    0.15
 -14   3   4    0.62    0.09
 -13   3   4    0.53    0.07
 -12   3   4    5.92    0.22
 -11   3   4    0.72    0.07
 -10   3   4    0.23    0.04
 -10   3   4    0.23    0.04
  -9   3   4   29.94    0.84
  -9   3   4   30.69    0.86
  -8   3   4    1.68    0.08
  -8   3   4    1.74    0.08
   7  -3  -4    0.13    0.02
  -7   3   4    0.12    0.03
  -7   3   4    0.15    0.03
   6  -3  -4    0.00    0.01
  -6   3   4    0.00    0.01
  -6   3   4   -0.01    0.02
   5  -3  -4   30.09    0.79
  -5   3   4   30.69    0.81
  -5   3   4   30.09    0.85
   4  -3  -4  157.67    4.06
  -4   3   4  158.81    4.11
  -4   3   4  150.16    4.25
  -3   3   4   10.42    0.31
  -3   3   4   10.52    0.28
   2  -3  -4   -0.01    0.01
  -2   3   4    0.07    0.02
   1  -3  -4   76.45    1.99
   1  -3  -4   76.04    1.98
  -1   3   4   74.15    2.07
   0  -3  -4    2.01    0.07
   0  -3  -4    1.95    0.08
   0   3   4    1.96    0.08
  -1  -3  -4    5.77    0.18
  -1  -3  -4    4.98    0.17
   1   3   4    6.54    0.18
  -2  -3  -4    0.01    0.02
  -2  -3  -4    0.03    0.02
   2   3   4   -0.01    0.03
  -3  -3  -4   25.91    0.72
  -3  -3  -4   26.47    0.72
  -4  -3  -4    3.96    0.15
  -4  -3  -4    4.10    0.15
  -5  -3  -4   16.88    0.48
  -5  -3  -4   16.21    0.48
  -6  -3  -4    0.63    0.06
  -6  -3  -4    0.85    0.08
  -7  -3  -4    1.12    0.09
  -7  -3  -4    1.20    0.09
  -8  -3  -4    0.41    0.07
  -8  -3  -4    0.41    0.07
 -14   4   4    0.78    0.09
 -13   4   4    0.09    0.05
 -12   4   4    0.17    0.05
 -11   4   4    0.37    0.05
 -10   4   4    0.54    0.06
 -10   4   4    0.55    0.05
  -9   4   4    8.48    0.27
  -9   4   4    8.93    0.28
   8  -4  -4    1.47    0.06
  -8   4   4    1.53    0.07
  -8   4   4    1.49    0.08
   7  -4  -4    0.17    0.02
  -7   4   4    0.18    0.03
   6  -4  -4    0.21    0.02
  -6   4   4    0.20    0.03
  -6   4   4    0.21    0.02
   5  -4  -4   52.18    1.35
  -5   4   4   51.39    1.43
  -5   4   4   51.07    1.36
   4  -4  -4    0.31    0.03
  -4   4   4    0.33    0.02
   3  -4  -4   10.85    0.30
  -3   4   4   10.89    0.32
   2  -4  -4   28.34    0.76
  -2   4   4   28.60    0.80
   1  -4  -4   31.10    0.81
   1  -4  -4   29.84    0.80
  -1   4   4   30.62    0.85
   0  -4  -4   20.04    0.53
   0   4   4   19.69    0.56
  -1  -4  -4    0.09    0.03
   1   4   4    0.18    0.04
  -2  -4  -4    8.92    0.26
  -2  -4  -4    8.60    0.27
   2   4   4    8.86    0.27
  -3  -4  -4    6.89    0.23
  -3  -4  -4    6.94    0.21
  -4  -4  -4   12.72    0.37
  -4  -4  -4   12.84    0.39
  -5  -4  -4    0.09    0.03
  -5  -4  -4    0.12    0.04
  -6  -4  -4    1.31    0.09
  -6  -4  -4    1.43    0.10
  -7  -4  -4    1.50    0.11
  -8  -4  -4    0.09    0.05
 -14   5   4    7.45    0.28
 -13   5   4    1.14    0.10
 -12   5   4    1.04    0.08
 -11   5   4    0.83    0.07
 -10   5   4    0.15    0.04
 -10   5   4    0.30    0.04
   9  -5  -4    1.82    0.07
  -9   5   4    1.67    0.09
  -9   5   4    1.87    0.09
   8  -5  -4   29.94    0.79
  -8   5   4   30.01    0.85
  -8   5   4   29.88    0.82
   7  -5  -4    1.94    0.07
  -7   5   4    1.97    0.09
  -7   5   4    1.95    0.08
   6  -5  -4    8.81    0.25
  -6   5   4    9.10    0.25
  -6   5   4    8.93    0.28
   5  -5  -4   21.77    0.59
  -5   5   4   22.39    0.63
  -5   5   4   22.43    0.60
   4  -5  -4    3.62    0.12
  -4   5   4    3.47    0.10
   3  -5  -4   11.76    0.33
  -3   5   4   11.71    0.35
   2  -5  -4   31.91    0.84
  -2   5   4   31.46    0.89
   1  -5  -4    0.08    0.01
   1  -5  -4    0.05    0.02
  -1   5   4    0.09    0.03
   0  -5  -4    8.75    0.24
   0   5   4    8.64    0.27
  -1  -5  -4   14.78    0.42
   1   5   4   14.45    0.43
  -2  -5  -4    0.29    0.03
  -2  -5  -4    0.29    0.05
   2   5   4    0.33    0.05
  -3  -5  -4    3.51    0.14
  -4  -5  -4    3.70    0.15
  -5  -5  -4    1.57    0.10
  -6  -5  -4    1.07    0.09
  -7  -5  -4    4.64    0.20
  -8  -5  -4    1.58    0.12
 -14   6   4    4.45    0.19
 -13   6   4    1.01    0.09
 -12   6   4    1.11    0.09
 -11   6   4    0.09    0.04
 -10   6   4    1.47    0.08
 -10   6   4    1.40    0.09
   9  -6  -4   33.72    0.91
  -9   6   4   34.13    0.98
  -9   6   4   35.52    0.94
   8  -6  -4    5.14    0.16
  -8   6   4    5.01    0.18
  -8   6   4    5.11    0.17
   7  -6  -4    1.45    0.06
  -7   6   4    1.35    0.06
  -7   6   4    1.46    0.08
   6  -6  -4    2.36    0.09
  -6   6   4    2.49    0.09
  -6   6   4    2.61    0.11
   5  -6  -4    4.96    0.15
  -5   6   4    4.87    0.17
  -5   6   4    4.80    0.14
   4  -6  -4   19.70    0.54
  -4   6   4   20.05    0.57
   3  -6  -4   57.87    1.51
  -3   6   4   57.10    1.59
   2  -6  -4   24.45    0.66
  -2   6   4   23.93    0.69
   0  -6  -4    0.84    0.07
   0   6   4    0.98    0.09
  -1  -6  -4   29.63    0.81
   1   6   4   29.09    0.84
  -2  -6  -4    9.37    0.32
   2   6   4   11.08    0.32
  -3  -6  -4    2.09    0.11
  -4  -6  -4    0.74    0.07
  -5  -6  -4    0.28    0.06
  -6  -6  -4   -0.04    0.04
  -7  -6  -4    0.12    0.05
 -15   7   4    2.31    0.14
 -14   7   4    0.01    0.05
 -13   7   4    2.75    0.14
 -12   7   4    0.02    0.04
 -11   7   4    4.00    0.16
 -11   7   4    3.75    0.15
  10  -7  -4    9.36    0.27
 -10   7   4    9.17    0.30
 -10   7   4    9.24    0.29
   9  -7  -4    3.24    0.11
  -9   7   4    3.09    0.12
  -9   7   4    3.21    0.13
   8  -7  -4   17.09    0.48
  -8   7   4   17.63    0.49
  -8   7   4   17.49    0.52
   7  -7  -4   12.55    0.36
  -7   7   4   13.03    0.36
  -7   7   4   12.73    0.39
   6  -7  -4   18.64    0.51
  -6   7   4   19.33    0.55
  -6   7   4   18.60    0.51
   5  -7  -4    0.33    0.04
   4  -7  -4   32.39    0.83
  -4   7   4   29.20    0.87
   3  -7  -4    1.56    0.08
  -3   7   4    1.59    0.09
   2  -7  -4    8.58    0.26
  -2   7   4    8.56    0.28
   1  -7  -4   33.65    0.91
  -1   7   4   33.66    0.96
   0  -7  -4   33.29    0.90
   0   7   4   32.59    0.94
  -1  -7  -4   15.71    0.47
   1   7   4   16.80    0.49
  -2  -7  -4   -0.03    0.03
  -3  -7  -4    8.78    0.29
  -4  -7  -4    0.20    0.05
  -5  -7  -4    2.78    0.14
  -6  -7  -4    0.54    0.08
 -15   8   4    0.03    0.06
 -14   8   4    0.19    0.06
 -13   8   4    1.87    0.12
 -12   8   4    1.91    0.11
 -11   8   4    1.50    0.10
 -11   8   4    1.50    0.10
  10  -8  -4    3.98    0.14
 -10   8   4    3.75    0.15
 -10   8   4    3.99    0.16
   9  -8  -4    2.16    0.09
  -9   8   4    2.05    0.11
  -9   8   4    1.95    0.09
   8  -8  -4   15.64    0.44
  -8   8   4   15.53    0.48
  -8   8   4   15.93    0.44
   7  -8  -4    9.70    0.28
  -7   8   4    9.42    0.31
   6  -8  -4    3.57    0.13
  -6   8   4    3.75    0.15
   5  -8  -4    7.30    0.23
  -5   8   4    7.60    0.25
   4  -8  -4    3.91    0.14
  -4   8   4    4.19    0.16
   3  -8  -4   49.22    1.30
  -3   8   4   49.08    1.38
   2  -8  -4   15.80    0.45
  -2   8   4   15.72    0.48
   1  -8  -4    0.95    0.07
  -1   8   4    1.01    0.10
   0  -8  -4   18.04    0.52
   0   8   4   18.46    0.55
  -1  -8  -4    1.19    0.08
   1   8   4    1.12    0.09
  -2  -8  -4    0.23    0.05
  -3  -8  -4    0.15    0.05
  -4  -8  -4    4.07    0.18
  -5  -8  -4    0.98    0.09
  -6  -8  -4    1.03    0.10
  11  -9  -4   19.54    0.55
 -11   9   4   19.70    0.60
  10  -9  -4    0.61    0.06
 -10   9   4    0.61    0.07
   9  -9  -4    2.60    0.11
  -9   9   4    2.60    0.13
   8  -9  -4   22.29    0.61
  -8   9   4   22.23    0.66
   7  -9  -4    3.31    0.12
  -7   9   4    3.25    0.15
   6  -9  -4    1.37    0.08
  -6   9   4    1.49    0.10
   5  -9  -4   17.08    0.48
  -5   9   4   17.09    0.52
   4  -9  -4   36.03    0.96
  -4   9   4   35.34    1.03
   3  -9  -4    7.32    0.24
  -3   9   4    7.54    0.27
   2  -9  -4    9.65    0.29
  -2   9   4    8.99    0.31
   1  -9  -4    8.44    0.27
  -1   9   4    8.40    0.29
   0  -9  -4    4.23    0.17
   0   9   4    4.42    0.18
  -1  -9  -4    0.03    0.04
   1   9   4   -0.05    0.05
  -2  -9  -4   -0.01    0.04
  -3  -9  -4    4.03    0.18
  -4  -9  -4    3.82    0.18
  -5  -9  -4    0.12    0.05
  11 -10  -4    0.70    0.06
 -11  10   4    0.42    0.08
  10 -10  -4    2.96    0.12
 -10  10   4    2.61    0.14
   9 -10  -4    0.14    0.04
  -9  10   4   -0.02    0.05
   8 -10  -4   -0.01    0.03
  -8  10   4    0.02    0.05
   7 -10  -4    9.28    0.29
  -7  10   4    9.59    0.32
   6 -10  -4    2.63    0.11
  -6  10   4    2.69    0.14
   5 -10  -4    7.26    0.23
  -5  10   4    7.05    0.26
   4 -10  -4   25.43    0.71
  -4  10   4   26.10    0.77
   3 -10  -4    0.35    0.05
  -3  10   4    0.34    0.07
   2 -10  -4    1.46    0.09
  -2  10   4    1.42    0.12
   1 -10  -4    0.01    0.04
  -1  10   4    0.02    0.06
   0 -10  -4    0.58    0.06
   0  10   4    0.68    0.08
  -1 -10  -4    0.00    0.04
  -2 -10  -4    4.07    0.18
  -3 -10  -4    0.06    0.05
  -4 -10  -4    2.02    0.13
 -12  11   4   -0.16    0.06
  11 -11  -4    3.79    0.15
 -11  11   4    3.63    0.18
  10 -11  -4    2.49    0.11
 -10  11   4    2.29    0.14
   9 -11  -4    5.06    0.18
  -9  11   4    4.93    0.21
   8 -11  -4    0.02    0.03
  -8  11   4   -0.04    0.06
   7 -11  -4    0.27    0.05
  -7  11   4    0.21    0.07
   6 -11  -4   14.20    0.42
  -6  11   4   14.59    0.47
   5 -11  -4    1.21    0.08
  -5  11   4    1.36    0.12
   4 -11  -4   10.92    0.33
  -4  11   4   10.56    0.37
   3 -11  -4    1.03    0.07
  -3  11   4    0.82    0.10
   2 -11  -4    0.32    0.05
  -2  11   4    0.39    0.08
   1 -11  -4    1.42    0.09
  -1  11   4    1.54    0.11
   0 -11  -4    0.43    0.06
   0  11   4    0.58    0.08
  -1 -11  -4    0.04    0.04
  -2 -11  -4    0.45    0.07
 -12  12   4    1.80    0.15
  11 -12  -4    1.40    0.09
 -11  12   4    1.19    0.12
  10 -12  -4    0.48    0.06
 -10  12   4    0.43    0.09
   9 -12  -4    1.87    0.10
  -9  12   4    1.72    0.15
   8 -12  -4    5.02    0.19
  -8  12   4    5.34    0.23
   7 -12  -4    1.87    0.10
  -7  12   4    1.73    0.14
   6 -12  -4   -0.01    0.03
  -6  12   4   -0.03    0.07
   5 -12  -4    1.87    0.10
  -5  12   4    1.70    0.14
   4 -12  -4    0.51    0.06
  -4  12   4    0.54    0.09
   3 -12  -4    0.18    0.05
  -3  12   4    0.22    0.07
   2 -12  -4    0.21    0.05
  -2  12   4    0.21    0.07
   1 -12  -4    0.14    0.05
  -1  12   4    0.15    0.06
   0 -12  -4    0.07    0.05
  -1 -12  -4    0.34    0.06
  12 -13  -4    0.22    0.05
 -12  13   4    0.15    0.09
  11 -13  -4   14.33    0.43
 -11  13   4   13.90    0.48
  10 -13  -4    8.15    0.27
 -10  13   4    8.05    0.32
   9 -13  -4    0.45    0.06
  -9  13   4    0.35    0.09
   8 -13  -4    2.74    0.13
  -8  13   4    2.64    0.17
   7 -13  -4    0.16    0.05
  -7  13   4    0.14    0.08
   6 -13  -4    0.27    0.05
  -6  13   4    0.20    0.08
   5 -13  -4    1.85    0.11
  -5  13   4    1.49    0.14
   4 -13  -4    5.55    0.21
  -4  13   4    5.33    0.24
   3 -13  -4    0.03    0.04
  -3  13   4    0.00    0.07
   2 -13  -4    0.18    0.05
  -2  13   4    0.12    0.07
   1 -13  -4    0.09    0.05
  -1  13   4    0.06    0.07
  12 -14  -4    0.02    0.04
 -12  14   4   -0.04    0.08
  11 -14  -4    2.97    0.14
 -11  14   4    2.53    0.19
  10 -14  -4    2.88    0.14
 -10  14   4    2.28    0.18
   9 -14  -4    0.66    0.07
  -9  14   4    0.72    0.11
   8 -14  -4    0.59    0.07
  -8  14   4    0.64    0.11
   7 -14  -4    0.01    0.04
  -7  14   4   -0.11    0.07
   6 -14  -4   11.92    0.38
  -6  14   4   12.30    0.43
   5 -14  -4    2.03    0.12
  -5  14   4    2.04    0.16
   4 -14  -4    0.63    0.07
  -4  14   4    0.55    0.10
   3 -14  -4    0.06    0.05
  -3  14   4   -0.02    0.07
  -2  14   4    0.09    0.07
   9 -15  -4    1.35    0.10
   8 -15  -4    0.28    0.06
  -8  15   4    0.35    0.10
   7 -15  -4    0.01    0.05
  -7  15   4   -0.04    0.07
   6 -15  -4    0.36    0.07
  -6  15   4    0.34    0.09
   1 -15   5    0.43    0.06
  -2  15  -5    2.62    0.17
   2 -15   5    2.37    0.12
  -3  15  -5    4.80    0.23
   3 -15   5    4.64    0.18
  -4  15  -5    2.28    0.15
   4 -15   5    2.11    0.12
  -5  15  -5    0.14    0.07
   5 -15   5    0.12    0.05
  -6  15  -5    2.88    0.17
   6 -15   5    2.64    0.14
   1  14  -5    6.32    0.27
   0  14  -5   -0.01    0.06
   0 -14   5    0.00    0.04
  -1  14  -5    2.22    0.15
   1 -14   5    2.26    0.11
  -2  14  -5    2.51    0.16
   2 -14   5    2.44    0.12
  -3  14  -5    0.18    0.07
   3 -14   5    0.13    0.05
  -4  14  -5    5.30    0.24
   4 -14   5    5.52    0.20
   4 -14   5    5.55    0.21
  -5  14  -5    2.20    0.14
   5 -14   5    2.01    0.11
  -6  14  -5    0.40    0.07
   6 -14   5    0.29    0.06
   7 -14   5    2.72    0.14
   4  13  -5    1.19    0.12
   3  13  -5    0.35    0.08
   2  13  -5    0.21    0.07
   1  13  -5    6.84    0.28
  -1 -13   5    6.70    0.23
   0  13  -5    4.01    0.20
   0 -13   5    4.51    0.17
   0 -13   5    4.45    0.16
  -1  13  -5    3.11    0.17
   1 -13   5    2.93    0.13
   1 -13   5    3.04    0.13
  -2  13  -5    0.40    0.08
   2 -13   5    0.38    0.05
   2 -13   5    0.41    0.06
  -3  13  -5    0.56    0.08
   3 -13   5    0.51    0.06
   3 -13   5    0.49    0.06
  -4  13  -5    1.16    0.11
   4 -13   5    1.02    0.08
  -5  13  -5    3.33    0.17
   5 -13   5    3.03    0.14
  -6  13  -5    1.65    0.12
   6 -13   5    1.47    0.10
   7 -13   5    0.19    0.06
  -8  13  -5    0.41    0.08
   8 -13   5    0.49    0.07
  -9  13  -5    0.10    0.07
   9 -13   5    0.30    0.07
   5  12  -5    2.24    0.15
   4  12  -5    0.11    0.06
   3  12  -5    2.06    0.14
  -3 -12   5    2.03    0.10
   2  12  -5    0.30    0.07
  -2 -12   5    0.28    0.05
   1  12  -5    3.91    0.19
  -1 -12   5    3.99    0.15
  -1 -12   5    3.85    0.15
   0  12  -5    5.75    0.24
   0 -12   5    5.52    0.19
   0 -12   5    5.48    0.19
  -1  12  -5    1.78    0.12
   1 -12   5    1.64    0.09
   1 -12   5    1.62    0.09
  -2  12  -5    2.55    0.14
   2 -12   5    2.37    0.11
   2 -12   5    2.54    0.12
  -3  12  -5   14.02    0.45
   3 -12   5   13.75    0.41
  -4  12  -5    0.06    0.05
   4 -12   5   -0.01    0.04
  -5  12  -5    8.85    0.32
   5 -12   5    9.11    0.29
  -6  12  -5    0.63    0.08
   6 -12   5    0.59    0.07
  -7  12  -5   -0.02    0.06
   7 -12   5    0.02    0.04
  -8  12  -5    2.42    0.14
   8 -12   5    2.61    0.13
  -9  12  -5    1.11    0.11
   9 -12   5    1.24    0.10
 -10  12  -5    0.43    0.08
  -6 -11   5    0.48    0.06
   5  11  -5    3.44    0.18
  -5 -11   5    3.79    0.15
   4  11  -5    0.61    0.08
  -4 -11   5    0.58    0.06
   3  11  -5    4.37    0.20
  -3 -11   5    4.32    0.16
   2  11  -5    2.49    0.14
  -2 -11   5    2.35    0.11
  -2 -11   5    2.46    0.11
   1  11  -5    1.21    0.11
  -1 -11   5    1.19    0.08
  -1 -11   5    1.27    0.07
   0  11  -5    2.82    0.15
   0 -11   5    2.75    0.11
   0 -11   5    2.70    0.12
  -1  11  -5    3.07    0.16
   1 -11   5    3.12    0.12
   1 -11   5    3.01    0.13
  -2  11  -5    0.51    0.07
   2 -11   5    0.67    0.06
  -3  11  -5   10.85    0.36
   3 -11   5   10.74    0.32
  -4  11  -5    3.21    0.15
   4 -11   5    3.25    0.14
  -5  11  -5   22.82    0.69
   5 -11   5   23.05    0.64
  -6  11  -5    1.19    0.10
  -6  11  -5    1.19    0.10
   6 -11   5    1.02    0.08
  -7  11  -5    3.67    0.17
   7 -11   5    3.82    0.16
  -8  11  -5    0.41    0.07
   8 -11   5    0.41    0.06
  -9  11  -5    0.93    0.10
   9 -11   5    1.13    0.10
 -10  11  -5    0.48    0.08
  10 -11   5    0.45    0.08
  -7 -10   5    1.17    0.09
   6  10  -5    1.58    0.12
  -6 -10   5    1.62    0.10
   5  10  -5    4.89    0.21
  -5 -10   5    4.61    0.18
   4  10  -5    0.09    0.05
  -4 -10   5    0.17    0.04
   3  10  -5    3.73    0.18
  -3 -10   5    3.80    0.15
   2  10  -5    3.56    0.17
  -2 -10   5    3.26    0.13
  -2 -10   5    3.35    0.13
   1  10  -5    1.66    0.11
  -1 -10   5    1.51    0.08
  -1 -10   5    1.50    0.08
   0  10  -5    1.61    0.11
   0 -10   5    1.48    0.09
   0 -10   5    1.40    0.08
  -1  10  -5   19.76    0.60
   1 -10   5   19.78    0.54
   1 -10   5   19.60    0.56
  -2  10  -5    6.90    0.25
   2 -10   5    7.04    0.22
  -3  10  -5    0.31    0.06
   3 -10   5    0.30    0.05
  -4  10  -5    2.35    0.12
   4 -10   5    2.24    0.11
  -5  10  -5   10.52    0.34
  -5  10  -5   10.27    0.34
   5 -10   5   10.36    0.32
  -6  10  -5    9.46    0.32
  -6  10  -5    9.78    0.32
   6 -10   5    9.58    0.31
  -7  10  -5    1.97    0.12
   7 -10   5    2.01    0.11
  -8  10  -5    0.79    0.09
   8 -10   5    1.13    0.09
  -9  10  -5    3.53    0.17
   9 -10   5    3.44    0.16
 -10  10  -5    0.12    0.07
  10 -10   5    0.16    0.06
  -8  -9   5   -0.02    0.04
  -7  -9   5    4.38    0.17
   6   9  -5    2.35    0.14
  -6  -9   5    2.54    0.12
   5   9  -5    1.52    0.11
  -5  -9   5    1.48    0.08
   4   9  -5   -0.03    0.04
  -4  -9   5    0.05    0.03
   3   9  -5    2.67    0.14
  -3  -9   5    2.80    0.11
  -3  -9   5    2.61    0.11
   2   9  -5    0.17    0.05
  -2  -9   5    0.09    0.03
  -2  -9   5    0.15    0.03
   1   9  -5   21.68    0.64
  -1  -9   5   20.64    0.59
  -1  -9   5   20.94    0.57
   0   9  -5   35.92    1.03
   0  -9   5   35.44    0.95
   0  -9   5   35.60    0.98
  -1   9  -5   13.59    0.43
   1  -9   5   13.89    0.39
  -2   9  -5   17.80    0.55
   2  -9   5   18.39    0.51
  -3   9  -5   45.02    1.28
   3  -9   5   45.29    1.20
  -4   9  -5    0.09    0.04
  -4   9  -5    0.15    0.05
   4  -9   5    0.09    0.04
  -5   9  -5    2.57    0.12
  -5   9  -5    2.69    0.13
   5  -9   5    2.42    0.12
  -6   9  -5    3.27    0.15
   6  -9   5    3.26    0.14
  -7   9  -5    0.16    0.05
   7  -9   5    0.15    0.05
  -8   9  -5   -0.08    0.05
   8  -9   5    0.14    0.05
  -9   9  -5    0.32    0.07
   9  -9   5    0.20    0.06
 -10   9  -5   -0.04    0.05
  10  -9   5   -0.04    0.05
  11  -9   5    4.61    0.20
  -9  -8   5    4.18    0.18
  -8  -8   5    1.61    0.10
   7   8  -5    8.53    0.31
  -7  -8   5    8.30    0.28
   6   8  -5    1.47    0.11
  -6  -8   5    1.50    0.09
   5   8  -5    0.57    0.07
  -5  -8   5    0.59    0.06
   4   8  -5    0.86    0.09
  -4  -8   5    0.90    0.07
   3   8  -5   31.03    0.91
  -3  -8   5   31.61    0.83
  -3  -8   5   30.39    0.85
   2   8  -5   37.45    1.07
  -2  -8   5   36.38    1.01
  -2  -8   5   37.54    0.98
   1   8  -5    0.35    0.06
  -1  -8   5    0.33    0.05
  -1  -8   5    0.41    0.04
   0   8  -5   77.26    2.10
   0  -8   5   73.00    1.96
   0  -8   5   75.40    2.01
  -1   8  -5   27.66    0.81
   1  -8   5   28.07    0.75
  -2   8  -5    0.17    0.05
   2  -8   5    0.17    0.04
  -3   8  -5    5.21    0.19
  -3   8  -5    5.00    0.18
   3  -8   5    5.10    0.17
  -4   8  -5    7.47    0.25
  -4   8  -5    7.86    0.26
   4  -8   5    7.69    0.24
  -5   8  -5    5.30    0.19
  -5   8  -5    5.33    0.20
   5  -8   5    5.40    0.19
  -6   8  -5   -0.10    0.04
   6  -8   5    0.03    0.04
  -7   8  -5   10.29    0.34
   7  -8   5   10.23    0.33
  -8   8  -5    3.95    0.18
   8  -8   5    4.08    0.17
  -9   8  -5   12.78    0.42
   9  -8   5   12.90    0.40
 -10   8  -5    0.01    0.06
  10  -8   5    0.00    0.05
 -11   8  -5    1.37    0.12
  11  -8   5    1.32    0.11
 -10  -7   5   -0.02    0.04
  -9  -7   5    0.24    0.05
  -8  -7   5    1.32    0.09
   7   7  -5    1.48    0.11
  -7  -7   5    1.53    0.09
   6   7  -5    2.61    0.14
  -6  -7   5    2.66    0.12
   5   7  -5   11.39    0.37
  -5  -7   5   11.10    0.34
   4   7  -5   20.70    0.63
  -4  -7   5   20.44    0.59
  -4  -7   5   21.61    0.57
   3   7  -5   11.38    0.36
  -3  -7   5   11.15    0.31
  -3  -7   5   10.74    0.33
   2   7  -5   46.00    1.27
  -2  -7   5   43.88    1.17
  -2  -7   5   44.58    1.21
  -1  -7   5   63.71    1.67
  -1  -7   5   64.64    1.72
   0   7  -5    2.19    0.11
   0  -7   5    2.23    0.09
  -1   7  -5    3.15    0.14
   1  -7   5    3.22    0.11
  -2   7  -5   12.02    0.36
   2  -7   5   11.48    0.34
  -3   7  -5    6.24    0.22
  -3   7  -5    6.57    0.22
   3  -7   5    6.79    0.21
  -4   7  -5    6.20    0.21
  -4   7  -5    6.29    0.21
   4  -7   5    6.42    0.21
  -5   7  -5    3.61    0.14
  -5   7  -5    3.58    0.15
   5  -7   5    3.53    0.14
  -6   7  -5    3.17    0.14
   6  -7   5    3.10    0.13
  -7   7  -5    5.86    0.22
   7  -7   5    5.83    0.21
  -8   7  -5   -0.09    0.04
   8  -7   5    0.02    0.04
  -9   7  -5   13.60    0.43
   9  -7   5   13.24    0.42
 -10   7  -5    3.38    0.17
  10  -7   5    3.32    0.16
 -11   7  -5    1.81    0.13
  11  -7   5    1.79    0.12
 -10  -6   5    0.58    0.07
  -9  -6   5    0.09    0.05
   8   6  -5    3.98    0.18
  -8  -6   5    4.12    0.16
   7   6  -5    0.15    0.05
  -7  -6   5    0.09    0.04
   6   6  -5   17.56    0.54
  -6  -6   5   17.51    0.51
   5   6  -5    0.18    0.05
  -5  -6   5    0.16    0.04
   4   6  -5   44.31    1.28
  -4  -6   5   47.14    1.19
  -4  -6   5   44.70    1.23
   3   6  -5   73.46    2.05
  -3  -6   5   72.72    1.97
  -3  -6   5   75.34    1.91
  -2  -6   5    0.08    0.02
  -2  -6   5    0.06    0.03
   1   6  -5   18.87    0.56
  -1  -6   5   18.73    0.51
  -1  -6   5   19.06    0.53
   0   6  -5   20.61    0.60
   0  -6   5   20.57    0.55
  -1   6  -5    0.28    0.04
   1  -6   5    0.37    0.04
  -2   6  -5   37.04    1.01
  -2   6  -5   34.21    0.98
   2  -6   5   36.58    0.96
  -3   6  -5    8.80    0.27
   3  -6   5    8.64    0.26
  -4   6  -5    8.30    0.28
   4  -6   5    9.87    0.28
  -5   6  -5    0.15    0.04
   5  -6   5    0.09    0.04
  -6   6  -5    0.12    0.04
   6  -6   5    0.13    0.04
  -7   6  -5    8.75    0.29
   7  -6   5    8.67    0.28
  -8   6  -5    0.30    0.06
   8  -6   5    0.32    0.06
  -9   6  -5    2.13    0.13
   9  -6   5    2.27    0.13
 -10   6  -5    0.01    0.05
  10  -6   5    0.00    0.05
 -11   6  -5    0.22    0.07
  11  -6   5    0.31    0.07
 -11  -5   5    0.07    0.05
 -10  -5   5    0.08    0.04
  -9  -5   5    0.05    0.04
  -8  -5   5    2.44    0.12
   7   5  -5    5.73    0.22
  -7  -5   5    5.70    0.20
   6   5  -5   68.91    1.91
  -6  -5   5   67.65    1.83
   5   5  -5   11.63    0.36
  -5  -5   5   11.27    0.34
   4   5  -5    1.84    0.10
  -4  -5   5    1.85    0.07
  -4  -5   5    1.79    0.09
   3   5  -5   11.83    0.37
  -3  -5   5   11.38    0.32
  -3  -5   5   12.16    0.34
  -2  -5   5   56.14    1.49
  -2  -5   5   59.10    1.54
   1   5  -5   25.60    0.73
  -1  -5   5   25.43    0.67
   0   5  -5   37.54    1.08
   0  -5   5   39.22    1.01
  -1   5  -5   18.39    0.54
   1  -5   5   18.85    0.51
  -2   5  -5    0.12    0.03
   2  -5   5    0.18    0.03
  -3   5  -5    0.93    0.06
   3  -5   5    0.89    0.06
  -5   5  -5    5.63    0.20
   5  -5   5    5.62    0.19
  -6   5  -5    7.69    0.26
   6  -5   5    8.20    0.26
  -7   5  -5    0.01    0.04
   7  -5   5    0.05    0.04
  -8   5  -5    5.20    0.20
   8  -5   5    4.96    0.20
  -9   5  -5    6.24    0.24
   9  -5   5    6.11    0.23
 -10   5  -5    6.73    0.26
  10  -5   5    6.81    0.25
 -11   5  -5    0.42    0.08
  11  -5   5    0.42    0.07
 -11  -4   5    0.00    0.04
 -10  -4   5    0.04    0.04
  -9  -4   5    3.44    0.15
  -8  -4   5   13.39    0.40
  -7  -4   5    9.96    0.31
   6   4  -5    2.62    0.12
  -6  -4   5    2.59    0.11
   5   4  -5   34.64    0.97
  -5  -4   5   32.92    0.89
  -5  -4   5   34.59    0.93
   4   4  -5   24.07    0.69
  -4  -4   5   24.24    0.62
  -4  -4   5   22.85    0.65
   3   4  -5   31.63    0.89
  -3  -4   5   31.17    0.85
  -3  -4   5   30.81    0.81
   2   4  -5  229.99    6.45
  -2  -4   5  261.84    6.06
  -2  -4   5  207.11    6.23
   1   4  -5   37.28    1.05
  -1  -4   5   37.43    0.98
   0   4  -5    8.72    0.27
   0  -4   5    8.89    0.25
  -1   4  -5   45.39    1.22
  -1   4  -5   45.22    1.26
   1  -4   5   45.84    1.20
  -2   4  -5    8.80    0.26
  -2   4  -5    8.77    0.27
   2  -4   5    8.75    0.26
  -3   4  -5    7.16    0.22
   3  -4   5    6.72    0.22
  -4   4  -5    0.16    0.04
  -4   4  -5    0.27    0.03
  -5   4  -5    0.37    0.05
   5  -4   5    0.33    0.05
  -6   4  -5    6.46    0.22
   6  -4   5    6.32    0.22
  -7   4  -5    1.05    0.08
   7  -4   5    0.90    0.07
  -8   4  -5    3.29    0.15
   8  -4   5    3.23    0.15
  -9   4  -5    0.80    0.08
   9  -4   5    0.66    0.07
 -10   4  -5    1.06    0.10
  10  -4   5    1.24    0.10
  11  -4   5   -0.06    0.04
 -12  -3   5    0.22    0.06
 -11  -3   5    0.42    0.06
 -10  -3   5    3.48    0.15
  -9  -3   5    0.94    0.08
  -8  -3   5    7.89    0.26
  -7  -3   5   12.59    0.37
   6   3  -5   14.00    0.43
   5   3  -5    0.26    0.04
  -5  -3   5    0.27    0.02
   4   3  -5   36.02    1.01
  -4  -3   5   35.49    0.93
   3   3  -5   54.03    1.49
  -3  -3   5   54.13    1.39
  -3  -3   5   52.94    1.43
   2   3  -5   46.41    1.30
  -2  -3   5   45.75    1.22
  -2  -3   5   48.52    1.25
   1   3  -5  148.38    4.17
  -1  -3   5  152.91    3.92
   0   3  -5    2.32    0.09
   0  -3   5    2.47    0.09
  -1   3  -5    9.20    0.27
   1  -3   5    9.45    0.27
  -2   3  -5    7.34    0.23
  -2   3  -5    7.99    0.24
   2  -3   5    7.99    0.23
  -3   3  -5    0.58    0.05
  -3   3  -5    0.56    0.04
  -4   3  -5    4.14    0.15
  -5   3  -5    7.71    0.25
  -6   3  -5    1.02    0.08
  -7   3  -5    3.21    0.15
   7  -3   5    3.45    0.15
  -8   3  -5    3.63    0.16
   8  -3   5    3.72    0.16
  -9   3  -5    0.45    0.07
   9  -3   5    0.48    0.07
 -10   3  -5    0.57    0.08
  10  -3   5    0.68    0.08
  11  -3   5    0.61    0.08
 -12  -2   5    4.14    0.18
 -11  -2   5    0.94    0.08
 -10  -2   5    8.62    0.29
  -9  -2   5   19.54    0.56
  -8  -2   5    0.33    0.04
  -7  -2   5   20.49    0.58
  -5  -2   5    3.59    0.12
   4   2  -5   27.24    0.78
  -4  -2   5   27.48    0.74
  -3  -2   5  210.25    5.43
  -3  -2   5  210.24    5.60
   2   2  -5   37.07    1.05
  -2  -2   5   38.42    1.00
  -2  -2   5   36.86    0.97
   1   2  -5    5.87    0.19
  -1  -2   5    5.76    0.17
   0   2  -5    4.41    0.14
   0   2  -5    4.46    0.14
  -1   2  -5    5.46    0.17
  -1   2  -5    5.31    0.17
  -2   2  -5   53.98    1.41
  -2   2  -5   53.15    1.43
  -3   2  -5    0.06    0.03
  -4   2  -5    5.91    0.20
  -5   2  -5    3.60    0.14
  -5   2  -5    3.44    0.14
  -6   2  -5    1.46    0.09
  -6   2  -5    1.25    0.08
  -7   2  -5    0.09    0.04
  -7   2  -5    0.00    0.03
  -8   2  -5    3.46    0.16
  -9   2  -5   -0.06    0.04
   9  -2   5    0.05    0.05
 -10   2  -5    1.47    0.12
  10  -2   5    1.56    0.11
 -13  -1   5    1.01    0.10
 -12  -1   5    9.53    0.32
 -11  -1   5    7.99    0.27
 -10  -1   5    3.04    0.13
  -9  -1   5    2.28    0.11
  -8  -1   5    8.04    0.25
  -7  -1   5    1.96    0.09
  -6  -1   5    4.59    0.15
  -5  -1   5  110.49    2.92
  -4  -1   5   28.34    0.76
  -3  -1   5  102.24    2.72
  -3  -1   5  103.35    2.66
   2   1  -5  150.56    3.87
  -2  -1   5  146.67    3.98
   1   1  -5   -0.01    0.01
   0   1  -5    0.62    0.04
  -1   1  -5   14.11    0.40
  -1   1  -5   14.33    0.40
  -2   1  -5    0.01    0.02
  -2   1  -5    0.03    0.02
  -3   1  -5   24.66    0.68
  -4   1  -5   71.86    1.92
  -4   1  -5   71.30    1.88
  -5   1  -5    4.51    0.17
  -5   1  -5    4.38    0.17
  -6   1  -5   15.05    0.45
  -6   1  -5   15.23    0.45
  -7   1  -5    2.04    0.11
  -7   1  -5    2.08    0.11
  -8   1  -5    0.16    0.05
  -9   1  -5   11.96    0.39
  -9   1  -5   11.80    0.38
 -10   1  -5    0.97    0.10
  10  -1   5    1.04    0.10
 -13   0   5    1.61    0.11
 -12   0   5    5.07    0.20
 -11   0   5    0.00    0.04
 -10   0   5    3.07    0.13
  -9   0   5    4.35    0.16
  -8   0   5    6.74    0.22
  -7   0   5  100.56    2.66
  -6   0   5    0.10    0.02
  -5   0   5   75.63    2.00
   4   0  -5  101.05    2.61
  -4   0   5  102.07    2.70
   3   0  -5   -0.03    0.01
  -3   0   5   -0.04    0.01
   2   0  -5    3.08    0.10
  -2   0   5    2.98    0.10
   0   0  -5   12.76    0.35
  -1   0  -5   40.64    1.07
  -1   0  -5   40.03    1.08
   1   0   5   40.86    1.11
  -2   0  -5   23.57    0.72
  -2   0  -5   28.34    0.73
   2   0   5   28.47    0.74
  -3   0  -5   48.83    1.31
  -4   0  -5    0.98    0.07
  -4   0  -5    1.08    0.08
  -5   0  -5   -0.07    0.03
  -5   0  -5    0.00    0.03
  -6   0  -5    2.32    0.11
  -6   0  -5    2.10    0.11
  -7   0  -5   21.13    0.61
  -7   0  -5   20.92    0.61
  -8   0  -5    9.84    0.33
  -8   0  -5    9.95    0.33
  -9   0  -5    0.05    0.05
  -9   0  -5    0.03    0.05
 -10   0  -5    3.45    0.17
 -14   1   5    4.05    0.19
 -13   1   5    4.53    0.19
 -12   1   5    0.09    0.04
 -11   1   5    0.15    0.04
 -10   1   5    8.37    0.27
 -10   1   5    8.70    0.28
  -9   1   5    3.41    0.13
  -9   1   5    3.19    0.13
  -8   1   5    1.41    0.08
  -8   1   5    1.52    0.08
  -7   1   5   26.60    0.73
  -6   1   5   26.26    0.71
   5  -1  -5    0.19    0.02
  -5   1   5    0.14    0.02
   4  -1  -5    4.40    0.12
  -4   1   5    4.37    0.13
   3  -1  -5    7.29    0.20
  -3   1   5    7.18    0.20
   2  -1  -5   29.69    0.77
  -2   1   5   28.57    0.81
   1  -1  -5  179.44    4.77
   1  -1  -5  181.01    4.68
  -1   1   5  174.94    4.93
   0  -1  -5  123.32    3.34
   0  -1  -5  128.16    3.31
   0   1   5  126.08    3.47
  -1  -1  -5   20.00    0.52
  -1  -1  -5   17.43    0.52
   1   1   5   19.56    0.53
  -2  -1  -5   80.92    2.10
   2   1   5   77.70    2.17
  -3  -1  -5   11.71    0.35
  -3  -1  -5   12.41    0.35
  -4  -1  -5    0.21    0.04
  -4  -1  -5    0.12    0.04
  -5  -1  -5   57.78    1.56
  -5  -1  -5   57.65    1.54
  -6  -1  -5    2.74    0.13
  -6  -1  -5    3.00    0.14
  -7  -1  -5    3.88    0.17
  -7  -1  -5    3.69    0.16
  -8  -1  -5    0.00    0.04
  -8  -1  -5   -0.01    0.04
  -9  -1  -5    0.63    0.08
  -9  -1  -5    0.65    0.08
 -14   2   5    2.82    0.15
 -13   2   5    0.10    0.05
 -12   2   5    1.59    0.10
 -11   2   5    2.99    0.13
 -10   2   5    0.66    0.06
 -10   2   5    0.64    0.06
  -9   2   5   71.89    1.94
  -9   2   5   68.44    1.88
  -8   2   5   30.79    0.85
  -8   2   5   31.47    0.88
   7  -2  -5    1.12    0.04
  -7   2   5    1.12    0.07
  -7   2   5    1.10    0.06
   6  -2  -5    0.01    0.01
  -6   2   5    0.01    0.02
  -6   2   5    0.08    0.02
   5  -2  -5    5.96    0.17
  -5   2   5    5.92    0.19
  -5   2   5    6.09    0.17
   4  -2  -5   22.43    0.58
  -4   2   5   21.49    0.59
   3  -2  -5  150.98    3.98
  -3   2   5  155.54    4.05
  -3   2   5  152.24    4.24
   2  -2  -5    2.87    0.09
  -2   2   5    2.70    0.10
  -2   2   5    2.66    0.08
   1  -2  -5   61.83    1.61
   1  -2  -5   62.43    1.60
  -1   2   5   59.12    1.68
   0  -2  -5   32.88    0.88
   0  -2  -5   33.39    0.88
   0   2   5   32.63    0.91
  -1  -2  -5    0.21    0.03
  -1  -2  -5    0.33    0.04
   1   2   5    0.30    0.03
  -2  -2  -5   21.43    0.57
   2   2   5   20.19    0.58
  -3  -2  -5   73.29    1.93
  -3  -2  -5   71.50    1.91
  -4  -2  -5    2.21    0.11
  -4  -2  -5    2.47    0.11
  -5  -2  -5    8.40    0.27
  -5  -2  -5    8.11    0.27
  -6  -2  -5   19.22    0.55
  -6  -2  -5   18.66    0.56
  -7  -2  -5   15.84    0.47
  -7  -2  -5   15.04    0.47
  -8  -2  -5    3.02    0.15
  -8  -2  -5    3.02    0.15
  -9  -2  -5    1.10    0.10
 -14   3   5    1.13    0.10
 -13   3   5    0.02    0.04
 -12   3   5    5.00    0.19
 -11   3   5    4.42    0.17
 -10   3   5   10.09    0.31
 -10   3   5   10.31    0.32
  -9   3   5    3.97    0.15
  -9   3   5    3.78    0.14
  -8   3   5    3.19    0.12
  -8   3   5    3.25    0.13
   7  -3  -5    0.12    0.02
  -7   3   5    0.13    0.03
  -7   3   5    0.11    0.02
   6  -3  -5   12.84    0.35
  -6   3   5   13.38    0.36
  -6   3   5   13.04    0.39
   5  -3  -5   12.75    0.34
  -5   3   5   12.70    0.35
  -5   3   5   12.79    0.38
   4  -3  -5    0.00    0.00
  -4   3   5    0.01    0.01
  -4   3   5    0.01    0.01
   3  -3  -5   21.89    0.57
  -3   3   5   21.06    0.61
  -3   3   5   21.34    0.57
   2  -3  -5   23.74    0.63
  -2   3   5   23.58    0.62
  -2   3   5   23.71    0.67
   1  -3  -5   70.30    1.81
   1  -3  -5   69.15    1.83
  -1   3   5   68.55    1.90
   0  -3  -5   20.39    0.56
   0  -3  -5   21.65    0.57
   0   3   5   20.57    0.59
  -1  -3  -5   16.61    0.46
  -2  -3  -5    3.17    0.11
  -2  -3  -5    3.05    0.13
   2   3   5    3.19    0.12
  -3  -3  -5   23.61    0.67
  -3  -3  -5   24.02    0.66
  -4  -3  -5   19.14    0.55
  -4  -3  -5   19.25    0.54
  -5  -3  -5    0.86    0.08
  -5  -3  -5    0.93    0.07
  -6  -3  -5    3.60    0.16
  -6  -3  -5    3.50    0.15
  -7  -3  -5    4.03    0.18
  -8  -3  -5    0.18    0.06
 -14   4   5    0.71    0.08
 -13   4   5    6.68    0.24
 -12   4   5    1.37    0.09
 -11   4   5    2.08    0.10
 -11   4   5    1.85    0.10
 -10   4   5   24.38    0.69
 -10   4   5   23.05    0.67
  -9   4   5    0.54    0.05
  -9   4   5    0.61    0.06
   8  -4  -5    0.25    0.02
  -8   4   5    0.18    0.03
  -8   4   5    0.24    0.04
   7  -4  -5   14.11    0.38
  -7   4   5   13.85    0.39
  -7   4   5   13.81    0.41
   6  -4  -5    9.23    0.25
  -6   4   5    9.15    0.26
  -6   4   5    8.71    0.28
   5  -4  -5    3.87    0.12
  -5   4   5    3.84    0.11
  -5   4   5    3.73    0.13
   4  -4  -5   67.17    1.75
  -4   4   5   66.92    1.75
  -4   4   5   65.83    1.84
   3  -4  -5   16.57    0.46
  -3   4   5   17.03    0.48
   2  -4  -5   23.89    0.64
  -2   4   5   23.37    0.67
   1  -4  -5   35.04    0.93
   1  -4  -5   34.94    0.93
  -1   4   5   35.29    0.98
   0  -4  -5    0.24    0.02
   0   4   5    0.26    0.03
  -1  -4  -5   60.86    1.78
   1   4   5   73.36    1.85
  -2  -4  -5   34.51    0.93
  -2  -4  -5   34.30    0.94
  -3  -4  -5   21.15    0.59
  -3  -4  -5   20.97    0.60
  -4  -4  -5    5.41    0.20
  -5  -4  -5    3.53    0.16
  -6  -4  -5    0.09    0.05
  -7  -4  -5    1.89    0.12
  -8  -4  -5   -0.01    0.05
 -15   5   5    1.26    0.11
 -14   5   5    3.41    0.16
 -13   5   5    2.16    0.12
 -12   5   5    2.86    0.13
 -11   5   5    0.09    0.04
 -11   5   5    0.10    0.04
 -10   5   5    3.89    0.15
 -10   5   5    3.88    0.15
  -9   5   5    0.94    0.07
  -9   5   5    1.06    0.06
   8  -5  -5    8.95    0.26
  -8   5   5    9.26    0.29
  -8   5   5    9.63    0.27
   7  -5  -5   11.21    0.31
  -7   5   5   11.51    0.32
  -7   5   5   11.41    0.35
   6  -5  -5    0.03    0.02
  -6   5   5    0.02    0.02
  -6   5   5    0.00    0.02
   5  -5  -5    3.48    0.12
  -5   5   5    3.59    0.10
   4  -5  -5    0.10    0.02
  -4   5   5    0.12    0.03
   3  -5  -5   26.14    0.70
  -3   5   5   26.29    0.74
   2  -5  -5    0.08    0.02
  -2   5   5    0.11    0.03
   1  -5  -5   55.66    1.47
  -1   5   5   55.82    1.54
   0   5   5   34.63    0.97
  -1  -5  -5   11.15    0.34
   1   5   5   11.33    0.34
  -2  -5  -5   47.71    1.28
  -3  -5  -5    0.12    0.04
  -4  -5  -5    4.65    0.19
  -5  -5  -5    3.46    0.16
  -6  -5  -5    0.07    0.05
  -7  -5  -5    0.59    0.08
 -15   6   5    2.02    0.13
 -14   6   5    5.26    0.21
 -13   6   5    1.26    0.10
 -12   6   5    0.67    0.07
 -11   6   5    0.63    0.06
 -11   6   5    0.60    0.06
 -10   6   5    0.10    0.04
 -10   6   5    0.11    0.04
   9  -6  -5    2.41    0.09
  -9   6   5    2.33    0.10
  -9   6   5    2.30    0.11
   8  -6  -5    0.00    0.02
  -8   6   5    0.02    0.03
  -8   6   5   -0.04    0.02
   7  -6  -5    3.41    0.12
  -7   6   5    3.62    0.12
  -7   6   5    3.51    0.14
   6  -6  -5   13.79    0.38
  -6   6   5   13.82    0.38
  -6   6   5   13.87    0.41
   4  -6  -5   69.24    1.79
  -4   6   5   68.16    1.90
   3  -6  -5   70.55    1.85
  -3   6   5   70.86    1.95
   2  -6  -5    7.16    0.23
  -2   6   5    7.38    0.24
   1  -6  -5    1.27    0.07
  -1   6   5    1.26    0.08
   0  -6  -5   55.07    1.48
   0   6   5   56.71    1.56
  -1  -6  -5   10.58    0.33
   1   6   5   10.58    0.33
  -2  -6  -5    0.63    0.07
  -3  -6  -5    4.96    0.19
  -4  -6  -5    0.36    0.06
  -5  -6  -5    0.23    0.06
  -6  -6  -5    2.01    0.13
 -15   7   5    1.49    0.11
 -14   7   5    0.77    0.09
 -13   7   5    2.03    0.12
 -12   7   5    0.25    0.05
 -11   7   5    1.33    0.09
 -11   7   5    1.42    0.09
 -10   7   5    1.46    0.08
 -10   7   5    1.40    0.09
   9  -7  -5    3.15    0.11
  -9   7   5    3.09    0.12
  -9   7   5    3.00    0.13
   8  -7  -5    0.03    0.03
  -8   7   5   -0.01    0.03
  -8   7   5    0.01    0.03
   7  -7  -5    1.74    0.08
  -7   7   5    1.63    0.09
   6  -7  -5    1.32    0.07
  -6   7   5    1.41    0.08
   5  -7  -5    0.86    0.05
  -5   7   5    0.63    0.06
   4  -7  -5    3.24    0.12
  -4   7   5    3.42    0.14
   3  -7  -5   22.29    0.61
  -3   7   5   22.41    0.65
   2  -7  -5  115.70    3.02
  -2   7   5  116.17    3.19
   1  -7  -5   13.89    0.40
  -1   7   5   13.53    0.42
   0  -7  -5    0.22    0.05
   0   7   5    0.23    0.06
  -1  -7  -5    7.00    0.24
   1   7   5    7.05    0.24
  -2  -7  -5    0.05    0.04
  -3  -7  -5    0.05    0.04
  -4  -7  -5    2.11    0.12
  -5  -7  -5    0.21    0.06
  -6  -7  -5    3.72    0.18
 -15   8   5    0.96    0.10
 -14   8   5    0.38    0.07
 -13   8   5    1.40    0.10
 -12   8   5    3.77    0.16
 -12   8   5    3.72    0.17
 -11   8   5    4.53    0.18
  10  -8  -5   -0.03    0.02
 -10   8   5   -0.01    0.04
   9  -8  -5    8.11    0.24
  -9   8   5    7.67    0.27
   8  -8  -5    4.78    0.16
  -8   8   5    4.72    0.18
   7  -8  -5    6.78    0.21
  -7   8   5    6.61    0.23
   6  -8  -5    0.35    0.04
  -6   8   5    0.35    0.05
   5  -8  -5    0.90    0.06
  -5   8   5    0.96    0.08
   4  -8  -5  192.39    5.04
  -4   8   5  195.17    5.35
   3  -8  -5    5.26    0.18
  -3   8   5    5.21    0.20
   2  -8  -5    2.34    0.11
  -2   8   5    2.47    0.13
   1  -8  -5    6.21    0.22
  -1   8   5    6.58    0.24
   0  -8  -5    4.62    0.18
   0   8   5    4.95    0.19
  -1  -8  -5    1.62    0.10
  -2  -8  -5   10.11    0.33
  -3  -8  -5    9.05    0.31
  -4  -8  -5    0.08    0.05
  -5  -8  -5    0.17    0.06
 -12   9   5    0.32    0.07
 -11   9   5    9.71    0.33
  10  -9  -5    1.55    0.08
 -10   9   5    1.34    0.11
   9  -9  -5    0.79    0.06
  -9   9   5    0.71    0.08
   8  -9  -5    1.32    0.07
  -8   9   5    1.25    0.10
   7  -9  -5    4.99    0.17
  -7   9   5    4.74    0.19
   6  -9  -5   40.19    1.09
  -6   9   5   41.74    1.17
   5  -9  -5   10.01    0.30
  -5   9   5   10.09    0.33
   4  -9  -5    3.35    0.13
  -4   9   5    3.22    0.15
   3  -9  -5   16.06    0.47
  -3   9   5   16.55    0.50
   2  -9  -5    0.95    0.07
  -2   9   5    0.81    0.09
   1  -9  -5    1.98    0.11
  -1   9   5    2.13    0.13
   0  -9  -5   22.13    0.64
   0   9   5   22.46    0.67
  -1  -9  -5    0.01    0.04
  -2  -9  -5    0.04    0.04
  -3  -9  -5    1.72    0.12
  -4  -9  -5    3.14    0.16
 -12  10   5    6.08    0.24
 -11  10   5    0.10    0.06
  10 -10  -5    0.02    0.03
 -10  10   5    0.03    0.05
   9 -10  -5    6.49    0.21
  -9  10   5    5.88    0.24
   8 -10  -5   24.76    0.69
  -8  10   5   25.51    0.75
   7 -10  -5    8.19    0.26
  -7  10   5    8.50    0.29
   6 -10  -5    2.88    0.12
  -6  10   5    2.83    0.15
   5 -10  -5    4.09    0.16
  -5  10   5    4.39    0.19
   4 -10  -5    4.93    0.18
  -4  10   5    5.04    0.21
   3 -10  -5    0.66    0.06
  -3  10   5    0.56    0.08
   2 -10  -5    6.01    0.22
  -2  10   5    6.05    0.24
   1 -10  -5    0.08    0.04
  -1  10   5    0.01    0.06
   0 -10  -5    0.64    0.07
  -1 -10  -5    2.92    0.15
  -2 -10  -5   10.54    0.36
  -3 -10  -5    0.17    0.06
 -12  11   5    1.51    0.14
  11 -11  -5    0.69    0.07
 -11  11   5    0.53    0.09
  10 -11  -5    3.69    0.15
 -10  11   5    3.43    0.17
   9 -11  -5    0.13    0.04
  -9  11   5    0.09    0.06
   8 -11  -5    0.03    0.03
  -8  11   5    0.02    0.06
   7 -11  -5    1.63    0.09
  -7  11   5    1.67    0.12
   6 -11  -5    3.23    0.13
  -6  11   5    2.90    0.16
   5 -11  -5    0.83    0.07
  -5  11   5    0.87    0.10
   4 -11  -5    0.12    0.04
  -4  11   5    0.10    0.07
   3 -11  -5    3.65    0.15
  -3  11   5    3.46    0.18
   2 -11  -5    0.22    0.05
  -2  11   5    0.27    0.07
   1 -11  -5    0.66    0.07
  -1  11   5    0.51    0.08
   0 -11  -5    6.74    0.25
  -1 -11  -5    0.44    0.07
  -2 -11  -5    3.64    0.18
 -12  12   5   -0.08    0.07
  11 -12  -5    0.08    0.04
 -11  12   5   -0.10    0.07
  10 -12  -5    3.28    0.14
 -10  12   5    3.02    0.18
   9 -12  -5    4.73    0.18
  -9  12   5    5.06    0.22
   8 -12  -5    3.90    0.16
  -8  12   5    4.13    0.20
   7 -12  -5    0.25    0.05
  -7  12   5    0.17    0.08
   6 -12  -5    0.08    0.04
  -6  12   5   -0.02    0.07
   5 -12  -5    2.52    0.12
  -5  12   5    2.54    0.16
   4 -12  -5    2.71    0.13
  -4  12   5    2.69    0.16
   3 -12  -5   11.00    0.35
  -3  12   5   10.96    0.39
   2 -12  -5    3.61    0.16
  -2  12   5    3.63    0.18
   1 -12  -5    0.58    0.07
  -1  12   5    0.67    0.09
   0 -12  -5    1.37    0.11
 -13  13   5    0.93    0.12
 -12  13   5    0.11    0.08
  11 -13  -5    3.20    0.14
 -11  13   5    2.84    0.19
  10 -13  -5    3.74    0.16
 -10  13   5    3.63    0.20
   9 -13  -5   -0.04    0.04
  -9  13   5   -0.06    0.07
   8 -13  -5    1.04    0.08
  -8  13   5    1.09    0.12
   7 -13  -5    0.09    0.04
  -7  13   5    0.04    0.08
   6 -13  -5    1.93    0.11
  -6  13   5    1.94    0.15
   5 -13  -5   10.55    0.34
  -5  13   5   10.59    0.38
   4 -13  -5    0.06    0.04
  -4  13   5   -0.01    0.07
   3 -13  -5    0.53    0.07
  -3  13   5    0.59    0.10
   2 -13  -5   -0.02    0.04
  -2  13   5   -0.04    0.07
  11 -14  -5    6.86    0.25
 -11  14   5    6.91    0.31
  10 -14  -5    2.05    0.12
 -10  14   5    1.64    0.16
   9 -14  -5    0.26    0.05
  -9  14   5    0.11    0.09
   8 -14  -5    1.64    0.10
  -8  14   5    1.22    0.13
   7 -14  -5    1.03    0.09
  -7  14   5    0.83    0.12
   6 -14  -5    0.03    0.04
  -6  14   5   -0.01    0.08
   5 -14  -5    0.84    0.08
  -5  14   5    0.71    0.11
   4 -14  -5    1.41    0.10
  -4  14   5    1.43    0.14
  -3  14   5    1.95    0.15
  -2  14   5    0.01    0.06
   1 -15   6    0.10    0.04
  -2  15  -6    0.28    0.08
   2 -15   6    0.26    0.06
  -3  15  -6    2.84    0.17
   3 -15   6    2.82    0.14
  -4  15  -6    2.70    0.16
   4 -15   6    2.37    0.13
  -5  15  -6    0.33    0.08
   5 -15   6    0.24    0.06
  -6  15  -6    0.71    0.09
   1  14  -6    0.10    0.07
   0  14  -6    6.33    0.27
   0 -14   6    6.15    0.22
  -1  14  -6    0.91    0.11
   1 -14   6    0.82    0.07
   1 -14   6    0.84    0.08
  -2  14  -6    2.45    0.15
   2 -14   6    2.29    0.12
   2 -14   6    2.22    0.12
  -3  14  -6    0.04    0.06
   3 -14   6   -0.02    0.04
   3 -14   6    0.01    0.04
  -4  14  -6    0.33    0.07
   4 -14   6    0.18    0.06
  -5  14  -6    4.03    0.20
   5 -14   6    3.84    0.17
  -6  14  -6    0.42    0.08
   6 -14   6    0.39    0.07
   7 -14   6    1.63    0.11
   3  13  -6    2.11    0.15
   2  13  -6    0.12    0.07
  -2 -13   6    0.10    0.04
   1  13  -6    1.84    0.14
  -1 -13   6    2.02    0.11
   0  13  -6    0.17    0.07
   0 -13   6    0.18    0.04
   0 -13   6    0.20    0.05
  -1  13  -6    0.45    0.08
   1 -13   6    0.47    0.06
   1 -13   6    0.36    0.05
  -2  13  -6    0.15    0.06
   2 -13   6    0.11    0.04
   2 -13   6    0.03    0.04
  -3  13  -6    2.07    0.14
   3 -13   6    2.09    0.11
   3 -13   6    1.92    0.11
  -4  13  -6    5.60    0.23
   4 -13   6    5.35    0.20
  -5  13  -6    3.19    0.16
   5 -13   6    3.10    0.14
   6 -13   6   -0.04    0.05
   7 -13   6    2.17    0.13
  -8  13  -6    0.11    0.07
   8 -13   6    0.17    0.06
   5  12  -6    1.25    0.12
  -5 -12   6    1.19    0.09
   4  12  -6    3.02    0.17
  -4 -12   6    3.08    0.14
   3  12  -6    0.11    0.06
  -3 -12   6    0.02    0.03
   2  12  -6    0.23    0.07
  -2 -12   6    0.29    0.05
   1  12  -6    0.40    0.08
  -1 -12   6    0.60    0.06
  -1 -12   6    0.53    0.06
   0  12  -6    3.52    0.18
   0 -12   6    3.51    0.14
   0 -12   6    3.65    0.15
  -1  12  -6    3.35    0.17
   1 -12   6    3.05    0.14
   1 -12   6    3.14    0.13
  -2  12  -6    0.69    0.08
   2 -12   6    0.71    0.07
   2 -12   6    0.72    0.07
  -3  12  -6    0.12    0.05
   3 -12   6    0.13    0.04
  -4  12  -6    2.99    0.15
   4 -12   6    2.86    0.13
  -5  12  -6    2.77    0.15
   5 -12   6    2.82    0.13
   6 -12   6    1.41    0.10
  -7  12  -6    1.28    0.11
   7 -12   6    1.52    0.10
  -8  12  -6    0.60    0.09
   8 -12   6    0.65    0.08
  -9  12  -6    2.35    0.15
   9 -12   6    2.52    0.14
   6  11  -6    0.60    0.09
  -6 -11   6    0.57    0.07
   5  11  -6    0.47    0.08
  -5 -11   6    0.38    0.05
   4  11  -6    0.02    0.05
  -4 -11   6    0.02    0.03
   3  11  -6    3.14    0.17
  -3 -11   6    3.30    0.14
   2  11  -6   -0.03    0.05
  -2 -11   6    0.01    0.03
   1  11  -6    0.31    0.07
  -1 -11   6    0.39    0.05
  -1 -11   6    0.41    0.05
   0  11  -6    0.60    0.08
   0 -11   6    0.55    0.06
   0 -11   6    0.61    0.06
  -1  11  -6    1.08    0.10
   1 -11   6    1.03    0.08
   1 -11   6    1.08    0.07
  -2  11  -6    5.76    0.23
   2 -11   6    6.10    0.20
  -3  11  -6    0.11    0.05
   3 -11   6    0.20    0.05
  -4  11  -6    0.84    0.08
   4 -11   6    0.89    0.08
  -5  11  -6    3.46    0.16
   5 -11   6    3.38    0.14
  -6  11  -6    3.98    0.18
   6 -11   6    4.04    0.17
  -7  11  -6    1.73    0.12
   7 -11   6    1.75    0.11
  -8  11  -6   -0.12    0.05
   8 -11   6    0.03    0.05
  -9  11  -6    2.66    0.15
   9 -11   6    2.28    0.14
   7  10  -6    0.01    0.06
  -7 -10   6    0.01    0.04
   6  10  -6    0.17    0.07
  -6 -10   6    0.21    0.05
   5  10  -6    0.20    0.06
  -5 -10   6    0.20    0.04
   4  10  -6    0.04    0.05
  -4 -10   6    0.13    0.04
   3  10  -6    0.01    0.05
  -3 -10   6    0.01    0.03
   2  10  -6    0.05    0.05
  -2 -10   6   -0.02    0.03
  -2 -10   6    0.10    0.03
   1  10  -6    0.71    0.08
  -1 -10   6    0.75    0.07
  -1 -10   6    0.86    0.06
   0  10  -6    6.73    0.26
   0 -10   6    6.73    0.23
   0 -10   6    7.06    0.22
  -1  10  -6    0.57    0.07
   1 -10   6    0.61    0.06
  -2  10  -6    0.57    0.07
   2 -10   6    0.58    0.06
  -3  10  -6    2.08    0.12
   3 -10   6    2.22    0.11
  -4  10  -6    1.37    0.10
   4 -10   6    1.45    0.09
  -5  10  -6    2.72    0.14
  -5  10  -6    2.40    0.13
   5 -10   6    2.57    0.12
  -6  10  -6    3.77    0.17
   6 -10   6    3.82    0.16
  -7  10  -6    6.18    0.24
   7 -10   6    6.30    0.23
  -8  10  -6    0.53    0.08
   8 -10   6    0.65    0.08
  -9  10  -6    0.41    0.08
   9 -10   6    0.46    0.07
 -10  10  -6    0.55    0.09
  10 -10   6    0.39    0.07
  -8  -9   6    3.11    0.15
   7   9  -6    1.89    0.13
  -7  -9   6    1.87    0.11
   6   9  -6    0.32    0.07
  -6  -9   6    0.27    0.05
   5   9  -6    0.40    0.07
  -5  -9   6    0.40    0.05
   4   9  -6    3.56    0.17
  -4  -9   6    3.48    0.14
   3   9  -6    2.28    0.13
  -3  -9   6    2.45    0.11
   2   9  -6    2.14    0.13
  -2  -9   6    2.07    0.09
  -2  -9   6    1.94    0.10
   1   9  -6    0.54    0.07
  -1  -9   6    0.52    0.05
  -1  -9   6    0.63    0.05
   0   9  -6   -0.07    0.04
   0  -9   6    0.01    0.03
   0  -9   6    0.05    0.03
  -1   9  -6   12.04    0.39
   1  -9   6   12.27    0.35
  -2   9  -6    0.65    0.07
   2  -9   6    0.65    0.06
  -3   9  -6   16.11    0.50
   3  -9   6   16.39    0.46
  -4   9  -6   26.04    0.76
  -4   9  -6   25.95    0.74
   4  -9   6   26.18    0.72
  -5   9  -6   -0.01    0.05
  -5   9  -6    0.05    0.04
   5  -9   6    0.09    0.04
  -6   9  -6    0.31    0.06
   6  -9   6    0.30    0.05
  -7   9  -6    3.31    0.16
   7  -9   6    3.09    0.14
  -8   9  -6    2.74    0.15
   8  -9   6    2.93    0.14
  -9   9  -6    0.89    0.10
   9  -9   6    0.95    0.09
 -10   9  -6    0.04    0.06
  10  -9   6   -0.02    0.05
  -9  -8   6    0.14    0.05
  -8  -8   6    9.71    0.32
   7   8  -6    0.11    0.06
  -7  -8   6    0.11    0.04
   6   8  -6    3.83    0.18
  -6  -8   6    3.93    0.15
   5   8  -6    0.91    0.09
  -5  -8   6    0.93    0.07
   4   8  -6    0.96    0.09
  -4  -8   6    1.01    0.07
   3   8  -6    9.43    0.32
  -3  -8   6    9.39    0.27
  -3  -8   6    9.14    0.29
   2   8  -6    3.99    0.17
  -2  -8   6    3.80    0.15
  -2  -8   6    3.86    0.13
   1   8  -6   19.39    0.58
  -1  -8   6   18.73    0.54
  -1  -8   6   19.22    0.52
   0   8  -6    0.59    0.07
   0  -8   6    0.69    0.06
  -1   8  -6   18.29    0.55
   1  -8   6   18.46    0.51
  -2   8  -6   23.57    0.69
   2  -8   6   23.09    0.64
  -3   8  -6    2.52    0.12
  -3   8  -6    2.27    0.11
   3  -8   6    2.42    0.11
  -4   8  -6    5.32    0.19
  -4   8  -6    5.45    0.20
   4  -8   6    5.28    0.19
  -5   8  -6    6.60    0.23
   5  -8   6    6.45    0.22
  -6   8  -6    4.96    0.20
   6  -8   6    5.04    0.19
  -7   8  -6    4.86    0.20
   7  -8   6    4.81    0.19
  -8   8  -6    0.37    0.07
   8  -8   6    0.28    0.06
  -9   8  -6    0.46    0.08
   9  -8   6    0.43    0.07
 -10   8  -6    3.06    0.17
  10  -8   6    3.28    0.16
 -10  -7   6    0.31    0.06
  -9  -7   6    0.12    0.05
   8   7  -6   15.24    0.49
  -8  -7   6   14.72    0.46
   7   7  -6    0.01    0.05
  -7  -7   6    0.07    0.04
   6   7  -6    0.03    0.04
  -6  -7   6    0.07    0.03
   5   7  -6    8.22    0.28
  -5  -7   6    7.47    0.25
   4   7  -6    2.13    0.13
  -4  -7   6    2.33    0.10
   3   7  -6    3.39    0.16
  -3  -7   6    3.61    0.14
  -3  -7   6    3.54    0.12
   2   7  -6    0.45    0.06
  -2  -7   6    0.61    0.05
  -2  -7   6    0.47    0.05
   1   7  -6   12.15    0.38
  -1  -7   6   11.91    0.35
  -1  -7   6   11.51    0.33
   0   7  -6   38.27    1.10
   0  -7   6   38.85    1.02
  -1   7  -6    3.13    0.14
   1  -7   6    3.27    0.12
  -2   7  -6   20.12    0.58
   2  -7   6   19.52    0.55
  -3   7  -6   18.67    0.55
  -3   7  -6   19.20    0.56
   3  -7   6   18.90    0.53
  -4   7  -6    1.54    0.10
  -4   7  -6    1.73    0.09
   4  -7   6    1.69    0.09
  -5   7  -6   -0.02    0.04
   5  -7   6   -0.01    0.03
  -6   7  -6    0.16    0.05
   6  -7   6    0.18    0.05
  -7   7  -6    7.97    0.28
   7  -7   6    8.25    0.28
  -8   7  -6    3.58    0.17
   8  -7   6    3.65    0.16
  -9   7  -6    3.80    0.18
   9  -7   6    3.99    0.18
 -10   7  -6   -0.01    0.06
  10  -7   6   -0.02    0.05
 -10  -6   6    1.49    0.10
  -9  -6   6    2.10    0.12
  -8  -6   6    0.26    0.05
   7   6  -6    2.29    0.13
  -7  -6   6    2.28    0.11
   6   6  -6    4.37    0.18
  -6  -6   6    4.29    0.16
   5   6  -6   17.96    0.55
  -5  -6   6   18.30    0.52
   4   6  -6   -0.02    0.04
  -4  -6   6   -0.03    0.03
  -4  -6   6   -0.01    0.02
   3   6  -6   12.56    0.38
  -3  -6   6   11.68    0.35
  -3  -6   6   11.95    0.33
  -2  -6   6   39.52    1.07
  -2  -6   6   39.00    1.03
   1   6  -6    1.84    0.10
  -1  -6   6    1.72    0.07
  -1  -6   6    1.78    0.09
   0   6  -6   12.61    0.39
   0  -6   6   13.12    0.36
  -1   6  -6    9.05    0.29
   1  -6   6    8.77    0.26
  -2   6  -6    3.90    0.15
   2  -6   6    3.97    0.14
  -3   6  -6    7.87    0.28
  -3   6  -6    9.53    0.28
   3  -6   6    9.30    0.28
  -4   6  -6    8.25    0.26
  -4   6  -6    8.43    0.27
   4  -6   6    8.39    0.27
  -5   6  -6   10.83    0.34
   5  -6   6   10.64    0.33
  -6   6  -6    0.16    0.05
   6  -6   6    0.20    0.05
  -7   6  -6    3.09    0.15
   7  -6   6    3.33    0.15
  -8   6  -6    3.01    0.15
   8  -6   6    3.02    0.15
  -9   6  -6    2.10    0.13
   9  -6   6    2.15    0.12
 -10   6  -6    7.46    0.29
  10  -6   6    7.16    0.27
 -11  -5   6    0.59    0.07
 -10  -5   6    3.19    0.15
  -9  -5   6    0.17    0.05
  -8  -5   6    0.55    0.06
   7   5  -6    0.18    0.05
  -7  -5   6    0.16    0.04
   6   5  -6    5.82    0.22
  -6  -5   6    5.77    0.20
   5   5  -6    0.08    0.05
  -5  -5   6    0.13    0.03
   4   5  -6    4.42    0.18
  -4  -5   6    4.83    0.16
  -4  -5   6    4.58    0.14
  -3  -5   6    4.40    0.13
   2   5  -6   91.31    2.51
  -2  -5   6   90.35    2.35
   1   5  -6    7.66    0.25
  -1  -5   6    7.53    0.22
   0   5  -6    1.42    0.08
   0  -5   6    1.36    0.06
  -1   5  -6    0.50    0.05
   1  -5   6    0.50    0.04
  -2   5  -6   56.75    1.47
  -2   5  -6   44.98    1.42
   2  -5   6   56.59    1.40
  -3   5  -6    1.59    0.08
  -3   5  -6    1.63    0.09
   3  -5   6    1.63    0.09
  -4   5  -6    0.01    0.04
   4  -5   6   -0.04    0.03
  -5   5  -6    8.50    0.28
   5  -5   6    8.70    0.28
  -6   5  -6    0.46    0.06
   6  -5   6    0.44    0.06
  -7   5  -6    0.60    0.07
   7  -5   6    0.56    0.07
  -8   5  -6    0.08    0.05
   8  -5   6    0.12    0.05
  -9   5  -6    1.26    0.11
   9  -5   6    1.21    0.10
 -10   5  -6   -0.03    0.05
  10  -5   6    0.01    0.05
 -12  -4   6    2.46    0.14
 -11  -4   6    3.12    0.15
 -10  -4   6    1.56    0.10
  -9  -4   6    2.07    0.11
  -8  -4   6   10.72    0.33
  -7  -4   6    1.72    0.09
   6   4  -6    1.24    0.09
  -6  -4   6    1.34    0.07
   4   4  -6    5.39    0.20
  -4  -4   6    5.37    0.15
  -3  -4   6    2.45    0.08
   2   4  -6   12.08    0.37
  -2  -4   6   11.61    0.32
  -2  -4   6   12.00    0.34
   1   4  -6   22.97    0.66
  -1  -4   6   23.01    0.61
   0   4  -6   18.73    0.55
   0  -4   6   19.18    0.52
  -1   4  -6    6.90    0.22
  -1   4  -6    6.53    0.21
   1  -4   6    6.72    0.21
  -2   4  -6    0.13    0.03
  -2   4  -6    0.12    0.03
   2  -4   6    0.13    0.03
  -3   4  -6    1.51    0.07
  -3   4  -6    1.54    0.09
   3  -4   6    1.63    0.08
  -4   4  -6    0.75    0.07
   4  -4   6    0.68    0.06
  -5   4  -6    3.00    0.13
   5  -4   6    2.99    0.13
  -6   4  -6    0.20    0.05
   6  -4   6    0.22    0.05
  -7   4  -6    1.45    0.10
   7  -4   6    1.35    0.09
  -8   4  -6    1.75    0.11
   8  -4   6    1.59    0.11
  -9   4  -6    0.33    0.07
   9  -4   6    0.17    0.06
 -10   4  -6    0.31    0.07
  10  -4   6    0.35    0.07
 -12  -3   6    1.79    0.12
 -11  -3   6    2.85    0.14
 -10  -3   6    0.49    0.06
  -9  -3   6    2.21    0.11
  -8  -3   6    1.26    0.08
  -7  -3   6    4.08    0.15
  -6  -3   6    4.20    0.15
   5   3  -6    0.37    0.05
  -5  -3   6    0.27    0.03
   4   3  -6    3.18    0.13
  -4  -3   6    3.11    0.11
  -4  -3   6    3.08    0.09
  -3  -3   6   22.89    0.61
  -3  -3   6   23.97    0.64
   2   3  -6   45.86    1.25
  -2  -3   6   43.65    1.16
  -2  -3   6   44.50    1.20
   1   3  -6   29.22    0.81
  -1  -3   6   28.14    0.76
   0   3  -6    9.34    0.28
   0  -3   6    9.17    0.27
  -1   3  -6   16.42    0.46
  -1   3  -6   15.94    0.45
   1  -3   6   15.68    0.44
  -2   3  -6    0.86    0.06
  -3   3  -6    1.02    0.07
  -3   3  -6    0.90    0.06
  -4   3  -6    2.26    0.11
  -4   3  -6    2.18    0.10
  -5   3  -6    6.70    0.23
  -6   3  -6    0.08    0.04
  -7   3  -6    2.46    0.13
   7  -3   6    2.48    0.12
  -8   3  -6    4.18    0.18
   8  -3   6    3.86    0.17
  -9   3  -6    1.37    0.11
   9  -3   6    1.54    0.11
 -10   3  -6    0.19    0.06
  10  -3   6    0.22    0.06
 -13  -2   6    0.50    0.08
 -12  -2   6    2.11    0.12
 -11  -2   6    4.37    0.18
 -10  -2   6    1.74    0.10
  -9  -2   6    0.98    0.07
  -8  -2   6    0.13    0.03
  -7  -2   6   15.06    0.43
  -6  -2   6    1.20    0.06
  -5  -2   6    0.69    0.05
  -4  -2   6    0.31    0.02
  -4  -2   6    0.21    0.03
  -3  -2   6    8.81    0.24
  -3  -2   6    9.15    0.26
  -2  -2   6    3.23    0.10
   1   2  -6   10.01    0.28
   0   2  -6    4.83    0.16
   0   2  -6    5.14    0.16
  -1   2  -6    4.54    0.15
  -1   2  -6    4.90    0.16
  -2   2  -6    8.42    0.26
  -2   2  -6    8.53    0.26
  -3   2  -6    4.12    0.15
  -4   2  -6    2.29    0.11
  -4   2  -6    2.31    0.11
  -5   2  -6    0.55    0.06
  -5   2  -6    0.48    0.06
  -6   2  -6   10.22    0.32
  -6   2  -6   10.13    0.33
  -7   2  -6    0.21    0.05
  -7   2  -6    0.31    0.06
  -8   2  -6    0.31    0.06
  -9   2  -6    1.69    0.13
   9  -2   6    1.93    0.12
 -10   2  -6    0.22    0.07
  10  -2   6    0.36    0.07
 -13  -1   6    0.56    0.08
 -12  -1   6    0.88    0.08
 -11  -1   6    2.90    0.14
 -10  -1   6   11.34    0.35
  -9  -1   6   20.35    0.58
  -8  -1   6    2.38    0.10
  -7  -1   6    0.60    0.05
  -6  -1   6    4.77    0.15
  -5  -1   6    2.87    0.10
  -4  -1   6   17.85    0.48
  -4  -1   6   17.09    0.45
   3   1  -6    1.06    0.04
  -3  -1   6    0.97    0.05
   2   1  -6   71.23    1.85
   1   1  -6    2.52    0.09
   0   1  -6    0.01    0.02
   0   1  -6    0.01    0.02
  -1   1  -6    0.07    0.03
  -1   1  -6    0.03    0.02
  -2   1  -6    5.06    0.17
  -2   1  -6    5.16    0.17
   2  -1   6    5.01    0.15
  -3   1  -6    6.10    0.20
  -4   1  -6   31.96    0.87
  -4   1  -6   31.90    0.88
  -5   1  -6   14.88    0.44
  -5   1  -6   14.83    0.44
  -6   1  -6    4.28    0.17
  -6   1  -6    4.23    0.17
  -7   1  -6   10.20    0.33
  -7   1  -6   10.18    0.33
  -8   1  -6    0.07    0.05
  -8   1  -6    0.00    0.04
  -9   1  -6   -0.05    0.05
 -13   0   6    0.48    0.07
 -12   0   6   11.24    0.36
 -11   0   6    2.44    0.12
 -10   0   6    0.54    0.06
  -9   0   6    3.07    0.13
  -8   0   6    0.34    0.04
  -7   0   6    0.71    0.05
  -6   0   6   14.70    0.41
  -5   0   6   16.97    0.47
   4   0  -6    0.00    0.01
  -4   0   6   -0.02    0.01
   3   0  -6   45.07    1.15
  -3   0   6   43.67    1.18
   1   0  -6    3.21    0.11
   0   0  -6   16.32    0.45
   0   0  -6   15.99    0.45
   0   0   6   16.28    0.46
  -1   0  -6    0.06    0.02
  -1   0  -6    0.07    0.03
   1   0   6    0.12    0.02
  -2   0  -6   12.23    0.35
   2   0   6   11.88    0.34
  -3   0  -6    2.15    0.09
  -3   0  -6    1.62    0.09
  -4   0  -6    0.05    0.04
  -4   0  -6    0.09    0.04
  -5   0  -6   22.76    0.65
  -5   0  -6   22.88    0.65
  -6   0  -6    5.74    0.21
  -6   0  -6    5.64    0.21
  -7   0  -6    0.09    0.05
  -7   0  -6    0.02    0.05
  -8   0  -6    0.73    0.08
  -8   0  -6    0.75    0.08
  -9   0  -6    0.81    0.09
  -9   0  -6    0.77    0.09
 -14   1   6   13.00    0.43
 -13   1   6   12.82    0.41
 -12   1   6    0.03    0.04
 -11   1   6    0.16    0.04
 -10   1   6    2.10    0.10
 -10   1   6    2.03    0.10
  -9   1   6    2.33    0.11
  -9   1   6    2.38    0.10
  -8   1   6    4.79    0.17
  -8   1   6    4.81    0.16
  -7   1   6    4.78    0.16
  -6   1   6    1.83    0.07
   5  -1  -6   90.05    2.25
  -5   1   6   84.92    2.32
   4  -1  -6    7.53    0.21
  -4   1   6    7.31    0.21
   3  -1  -6    0.24    0.02
  -3   1   6    0.24    0.02
   2  -1  -6    8.68    0.25
  -2   1   6    8.85    0.26
   1  -1  -6    0.80    0.05
   1  -1  -6    0.73    0.04
  -1   1   6    0.75    0.05
   0  -1  -6   37.26    0.99
   0   1   6   37.00    1.03
  -1  -1  -6    5.96    0.19
  -1  -1  -6    5.85    0.18
   1   1   6    5.93    0.18
  -2  -1  -6   94.13    2.50
  -3  -1  -6   55.86    1.50
  -3  -1  -6   55.97    1.49
  -4  -1  -6    4.86    0.19
  -4  -1  -6    5.24    0.18
  -5  -1  -6    1.29    0.09
  -5  -1  -6    1.35    0.09
  -6  -1  -6    8.36    0.29
  -6  -1  -6    8.53    0.28
  -7  -1  -6    0.02    0.05
  -7  -1  -6    0.07    0.05
  -8  -1  -6    0.04    0.05
  -8  -1  -6    0.00    0.04
  -9  -1  -6    0.28    0.07
 -14   2   6    0.49    0.07
 -13   2   6    0.11    0.05
 -12   2   6    0.29    0.05
 -11   2   6   -0.03    0.03
 -11   2   6    0.00    0.03
 -10   2   6    4.69    0.17
 -10   2   6    4.67    0.18
  -9   2   6    0.06    0.03
  -9   2   6   -0.02    0.03
  -8   2   6    1.71    0.08
  -8   2   6    1.69    0.09
  -7   2   6    6.72    0.22
  -7   2   6    6.73    0.20
   6  -2  -6   42.56    1.10
  -6   2   6   41.56    1.19
  -6   2   6   43.40    1.14
   5  -2  -6    0.88    0.04
  -5   2   6    0.83    0.04
  -5   2   6    0.80    0.06
   4  -2  -6    0.90    0.04
  -4   2   6    1.07    0.06
  -4   2   6    1.05    0.04
   3  -2  -6    0.08    0.02
  -3   2   6    0.10    0.01
  -3   2   6    0.09    0.02
   2  -2  -6   45.03    1.18
  -2   2   6   44.98    1.25
   1  -2  -6    6.26    0.19
   1  -2  -6    6.19    0.18
  -1   2   6    6.08    0.19
   0  -2  -6   17.97    0.49
   0   2   6   17.55    0.50
  -1  -2  -6   36.37    0.96
   1   2   6   34.90    0.98
  -2  -2  -6    1.44    0.07
  -2  -2  -6    1.26    0.08
  -3  -2  -6    1.05    0.07
  -3  -2  -6    1.04    0.07
  -4  -2  -6   13.30    0.39
  -4  -2  -6   13.07    0.40
  -5  -2  -6    0.93    0.08
  -5  -2  -6    0.90    0.07
  -6  -2  -6    3.99    0.17
  -6  -2  -6    3.85    0.16
  -7  -2  -6    1.32    0.10
  -8  -2  -6    0.37    0.07
 -14   3   6    2.47    0.14
 -13   3   6    2.01    0.12
 -12   3   6    0.34    0.05
 -11   3   6    4.30    0.16
 -11   3   6    3.93    0.16
 -10   3   6    5.93    0.20
 -10   3   6    5.97    0.21
  -9   3   6   52.10    1.44
  -9   3   6   50.34    1.38
  -8   3   6   14.37    0.43
  -8   3   6   13.96    0.40
   7  -3  -6    0.96    0.04
  -7   3   6    0.96    0.06
  -7   3   6    0.91    0.05
  -6   3   6    0.04    0.02
  -6   3   6    0.04    0.02
   5  -3  -6    0.01    0.01
  -5   3   6    0.01    0.01
  -5   3   6    0.02    0.01
   4  -3  -6    3.33    0.11
  -4   3   6    3.30    0.12
  -4   3   6    3.23    0.10
   3  -3  -6    6.07    0.17
  -3   3   6    5.72    0.16
  -3   3   6    5.41    0.18
   2  -3  -6   34.07    0.90
  -2   3   6   33.81    0.95
   1  -3  -6   16.82    0.47
   1  -3  -6   16.66    0.45
  -1   3   6   16.71    0.48
   0  -3  -6    4.96    0.16
   0  -3  -6    5.82    0.18
   0   3   6    5.69    0.17
  -1  -3  -6    5.53    0.17
   1   3   6    5.74    0.18
  -2  -3  -6   11.58    0.33
  -2  -3  -6   11.41    0.35
  -3  -3  -6    0.26    0.05
  -3  -3  -6    0.34    0.04
  -4  -3  -6    0.81    0.07
  -5  -3  -6    0.11    0.04
  -6  -3  -6    2.16    0.13
  -7  -3  -6    0.18    0.06
  -8  -3  -6    4.23    0.20
 -15   4   6    2.11    0.13
 -14   4   6    0.83    0.08
 -13   4   6    0.09    0.04
 -12   4   6    0.02    0.04
 -11   4   6    1.25    0.08
 -11   4   6    1.19    0.08
 -10   4   6   48.49    1.36
 -10   4   6   48.11    1.31
  -9   4   6    0.84    0.06
  -9   4   6    0.80    0.07
  -8   4   6    0.17    0.03
  -8   4   6    0.21    0.04
   7  -4  -6    0.33    0.03
  -7   4   6    0.27    0.03
  -7   4   6    0.36    0.04
   6  -4  -6    4.42    0.13
  -6   4   6    4.34    0.16
  -6   4   6    4.41    0.13
   5  -4  -6    6.38    0.19
  -5   4   6    6.31    0.18
   4  -4  -6   16.62    0.44
  -4   4   6   15.81    0.47
   3  -4  -6    0.12    0.03
  -3   4   6    0.12    0.03
   2  -4  -6    6.72    0.21
  -2   4   6    6.63    0.21
  -1   4   6    0.31    0.04
   0  -4  -6    0.71    0.06
   0   4   6    0.83    0.06
  -1  -4  -6    0.23    0.04
   1   4   6    0.34    0.04
  -2  -4  -6    0.01    0.03
  -3  -4  -6    2.36    0.12
  -4  -4  -6   -0.02    0.04
  -5  -4  -6    4.49    0.19
  -6  -4  -6    3.76    0.17
  -7  -4  -6    0.00    0.05
 -15   5   6    0.80    0.09
 -14   5   6   -0.03    0.04
 -13   5   6    0.13    0.05
 -12   5   6    4.14    0.16
 -11   5   6    0.21    0.05
 -11   5   6    0.22    0.04
 -10   5   6    0.36    0.05
 -10   5   6    0.40    0.05
  -9   5   6   24.56    0.67
  -9   5   6   24.25    0.71
   8  -5  -6    9.49    0.27
  -8   5   6    9.64    0.28
  -8   5   6    9.73    0.31
   7  -5  -6    3.25    0.11
  -7   5   6    3.23    0.13
  -7   5   6    3.35    0.11
   6  -5  -6   30.40    0.81
  -6   5   6   30.60    0.81
   5  -5  -6    7.15    0.21
   4  -5  -6    6.76    0.21
  -4   5   6    6.74    0.22
   3  -5  -6    1.49    0.08
  -3   5   6    1.71    0.08
   2  -5  -6    0.03    0.03
  -2   5   6    0.06    0.03
   1  -5  -6    3.22    0.13
  -1   5   6    3.29    0.13
   0  -5  -6    1.93    0.10
   0   5   6    2.13    0.10
  -1  -5  -6    4.83    0.18
  -2  -5  -6   12.54    0.39
  -3  -5  -6    9.75    0.32
  -4  -5  -6    0.55    0.07
  -5  -5  -6    0.03    0.04
  -6  -5  -6    0.27    0.06
 -15   6   6    0.31    0.07
 -14   6   6    5.35    0.21
 -13   6   6    0.33    0.06
 -12   6   6    7.95    0.27
 -12   6   6    7.90    0.27
 -11   6   6    6.72    0.23
 -11   6   6    7.10    0.24
 -10   6   6    2.14    0.10
 -10   6   6    1.84    0.10
  -9   6   6    0.13    0.03
  -9   6   6    0.17    0.04
   8  -6  -6    3.08    0.11
  -8   6   6    3.01    0.11
  -8   6   6    3.11    0.13
   7  -6  -6   20.32    0.54
  -7   6   6   19.46    0.58
   6  -6  -6    7.22    0.22
   5  -6  -6    1.93    0.08
  -5   6   6    1.84    0.09
   4  -6  -6   24.08    0.65
  -4   6   6   23.58    0.69
   3  -6  -6   25.18    0.69
  -3   6   6   25.70    0.73
   2  -6  -6    2.23    0.10
  -2   6   6    2.35    0.11
   1  -6  -6    0.16    0.04
  -1   6   6    0.18    0.04
   0  -6  -6   14.43    0.43
   0   6   6   14.81    0.44
  -1  -6  -6    0.70    0.07
  -2  -6  -6    2.67    0.13
  -3  -6  -6    1.30    0.10
  -4  -6  -6    1.35    0.10
  -5  -6  -6    0.65    0.08
  -6  -6  -6    0.82    0.09
 -15   7   6    0.04    0.06
 -14   7   6    2.03    0.12
 -13   7   6    1.34    0.10
 -12   7   6    5.56    0.20
 -12   7   6    5.20    0.20
 -11   7   6    0.04    0.04
 -11   7   6    0.02    0.04
 -10   7   6    5.69    0.21
   9  -7  -6   51.98    1.36
  -9   7   6   51.39    1.45
   8  -7  -6    4.24    0.14
  -8   7   6    4.27    0.17
   7  -7  -6    1.73    0.08
  -7   7   6    1.83    0.10
   6  -7  -6    2.26    0.09
  -6   7   6    2.13    0.11
   5  -7  -6    0.15    0.03
  -5   7   6    0.13    0.04
   4  -7  -6    7.15    0.23
  -4   7   6    7.61    0.25
   3  -7  -6    0.47    0.05
  -3   7   6    0.56    0.06
   2  -7  -6   24.88    0.70
  -2   7   6   25.52    0.73
   1  -7  -6    3.53    0.15
  -1   7   6    3.99    0.16
   0  -7  -6    0.02    0.03
   0   7   6    0.00    0.05
  -1  -7  -6    2.80    0.13
  -2  -7  -6    0.01    0.04
  -3  -7  -6    4.55    0.19
  -4  -7  -6    0.15    0.05
  -5  -7  -6    0.16    0.06
 -12   8   6   16.51    0.51
 -11   8   6   22.29    0.67
 -10   8   6    1.38    0.10
   9  -8  -6   12.30    0.35
  -9   8   6   11.90    0.39
   8  -8  -6   16.55    0.46
  -8   8   6   16.76    0.51
   7  -8  -6    0.90    0.06
  -7   8   6    1.01    0.08
   6  -8  -6   15.93    0.45
  -6   8   6   15.98    0.49
   5  -8  -6   19.14    0.54
  -5   8   6   19.58    0.58
   4  -8  -6    0.01    0.03
  -4   8   6    0.01    0.04
   3  -8  -6    0.08    0.04
  -3   8   6    0.06    0.05
   2  -8  -6    1.23    0.08
  -2   8   6    1.19    0.10
   1  -8  -6    0.29    0.05
  -1   8   6    0.32    0.06
   0  -8  -6   14.98    0.45
  -1  -8  -6    3.68    0.16
  -2  -8  -6    0.18    0.05
  -3  -8  -6    0.09    0.05
  -4  -8  -6    0.09    0.05
 -12   9   6    2.93    0.15
 -11   9   6   19.18    0.59
  10  -9  -6   13.12    0.38
 -10   9   6   13.18    0.42
   9  -9  -6    1.00    0.07
  -9   9   6    1.03    0.09
   8  -9  -6    3.36    0.13
  -8   9   6    3.29    0.15
   7  -9  -6    1.58    0.08
  -7   9   6    1.55    0.11
   6  -9  -6    4.71    0.17
  -6   9   6    4.72    0.19
   5  -9  -6    0.40    0.05
  -5   9   6    0.55    0.07
   4  -9  -6    0.13    0.04
  -4   9   6    0.15    0.05
   3  -9  -6    9.09    0.29
  -3   9   6    8.86    0.31
   2  -9  -6    0.71    0.07
  -2   9   6    0.77    0.09
   1  -9  -6    0.78    0.08
  -1   9   6    0.81    0.09
   0  -9  -6    0.20    0.05
  -1  -9  -6    0.01    0.04
  -2  -9  -6    0.57    0.08
  -3  -9  -6    5.62    0.23
 -13  10   6   17.25    0.55
 -12  10   6    0.54    0.08
 -11  10   6    0.73    0.08
  10 -10  -6    5.81    0.20
 -10  10   6    5.92    0.23
   9 -10  -6    0.58    0.06
  -9  10   6    0.37    0.07
   8 -10  -6    6.18    0.21
  -8  10   6    6.29    0.24
   7 -10  -6    2.30    0.11
  -7  10   6    2.25    0.13
   6 -10  -6    2.94    0.12
  -6  10   6    2.80    0.15
   5 -10  -6    5.87    0.20
  -5  10   6    5.90    0.23
   4 -10  -6    3.45    0.14
  -4  10   6    3.33    0.17
   3 -10  -6    4.72    0.18
  -3  10   6    4.77    0.21
   2 -10  -6    0.11    0.04
  -2  10   6    0.09    0.06
   1 -10  -6    0.55    0.07
  -1  10   6    0.59    0.08
   0 -10  -6    0.07    0.05
  -1 -10  -6    3.91    0.18
  -2 -10  -6    1.33    0.11
 -13  11   6    0.23    0.08
 -12  11   6    6.36    0.26
 -11  11   6    1.90    0.14
  10 -11  -6    8.96    0.28
 -10  11   6    8.33    0.31
   9 -11  -6    3.52    0.14
  -9  11   6    3.57    0.17
   8 -11  -6    0.74    0.07
  -8  11   6    0.67    0.08
   7 -11  -6    0.43    0.05
  -7  11   6    0.28    0.07
   6 -11  -6    6.54    0.22
  -6  11   6    6.41    0.25
   5 -11  -6    5.04    0.19
  -5  11   6    5.45    0.23
   4 -11  -6    0.22    0.05
  -4  11   6    0.10    0.07
   3 -11  -6    0.38    0.06
  -3  11   6    0.22    0.07
   2 -11  -6    0.02    0.04
  -2  11   6    0.03    0.06
   1 -11  -6    2.28    0.13
   0 -11  -6    2.20    0.13
  -1 -11  -6    7.36    0.28
 -13  12   6   -0.10    0.07
 -12  12   6   11.57    0.41
  11 -12  -6   12.36    0.38
 -11  12   6   12.35    0.43
  10 -12  -6    1.27    0.09
 -10  12   6    1.49    0.13
   9 -12  -6    0.67    0.07
  -9  12   6    0.60    0.09
   8 -12  -6    2.21    0.11
  -8  12   6    2.14    0.15
   7 -12  -6   18.28    0.54
  -7  12   6   18.77    0.59
   6 -12  -6    5.84    0.21
  -6  12   6    5.75    0.25
   5 -12  -6    0.05    0.04
  -5  12   6    0.00    0.07
   4 -12  -6    0.01    0.04
  -4  12   6   -0.05    0.07
   3 -12  -6    3.19    0.15
  -3  12   6    3.24    0.18
   2 -12  -6    0.56    0.07
  -2  12   6    0.57    0.09
   1 -12  -6    0.14    0.05
 -12  13   6    1.02    0.12
  11 -13  -6    0.14    0.05
 -11  13   6   -0.11    0.08
  10 -13  -6    0.58    0.07
 -10  13   6    0.50    0.10
   9 -13  -6    3.17    0.14
  -9  13   6    3.32    0.19
   8 -13  -6    4.30    0.18
  -8  13   6    4.44    0.22
   7 -13  -6    2.38    0.12
  -7  13   6    2.32    0.17
   6 -13  -6    0.41    0.06
  -6  13   6    0.32    0.09
   5 -13  -6    0.20    0.05
  -5  13   6    0.11    0.09
   4 -13  -6    5.49    0.22
  -4  13   6    5.45    0.25
   3 -13  -6    0.23    0.06
  -3  13   6    0.22    0.08
  11 -14  -6   17.40    0.52
  10 -14  -6    3.19    0.15
 -10  14   6    3.36    0.21
   9 -14  -6    0.02    0.04
  -9  14   6   -0.14    0.08
   8 -14  -6    0.21    0.05
  -8  14   6    0.06    0.09
   7 -14  -6    0.14    0.05
  -7  14   6    0.06    0.09
   6 -14  -6    0.47    0.07
  -6  14   6    0.31    0.10
   5 -14  -6    0.16    0.05
  -5  14   6    0.10    0.08
  -4  14   6    2.81    0.18
   2 -15   7    0.57    0.07
   3 -15   7    0.61    0.07
   3 -15   7    0.71    0.08
  -4  15  -7    0.16    0.07
   4 -15   7    0.24    0.06
  -5  15  -7    7.97    0.32
   1  14  -7    1.23    0.13
  -1 -14   7    1.29    0.09
   0  14  -7    1.92    0.14
   0 -14   7    1.97    0.11
  -1  14  -7    0.09    0.06
   1 -14   7    0.10    0.05
   1 -14   7    0.14    0.05
  -2  14  -7    4.05    0.20
   2 -14   7    4.17    0.18
   2 -14   7    4.27    0.17
  -3  14  -7    6.63    0.28
   3 -14   7    6.66    0.23
   3 -14   7    6.76    0.25
  -4  14  -7    0.12    0.06
   4 -14   7    0.05    0.05
  -5  14  -7    0.10    0.06
   5 -14   7    0.10    0.06
  -4 -13   7    1.39    0.09
   3  13  -7    0.25    0.07
  -3 -13   7    0.20    0.05
   2  13  -7    0.01    0.06
  -2 -13   7   -0.01    0.04
   1  13  -7    0.05    0.06
  -1 -13   7    0.02    0.04
   0  13  -7    0.86    0.10
   0 -13   7    0.94    0.07
   0 -13   7    0.97    0.08
  -1  13  -7    4.27    0.20
   1 -13   7    4.25    0.17
   1 -13   7    4.20    0.16
  -2  13  -7    0.24    0.07
   2 -13   7    0.16    0.05
   2 -13   7    0.24    0.06
  -3  13  -7    0.79    0.09
   3 -13   7    0.95    0.08
  -4  13  -7    8.80    0.33
   4 -13   7    8.93    0.29
  -5  13  -7    3.56    0.18
   5 -13   7    3.61    0.16
   6 -13   7    2.31    0.13
   7 -13   7    1.02    0.10
   5  12  -7    0.20    0.07
  -5 -12   7    0.12    0.05
   4  12  -7    1.31    0.12
  -4 -12   7    1.29    0.09
   3  12  -7    1.16    0.12
  -3 -12   7    1.14    0.08
   2  12  -7    0.59    0.09
  -2 -12   7    0.74    0.07
   1  12  -7    0.29    0.07
  -1 -12   7    0.27    0.05
   0  12  -7    0.02    0.05
   0 -12   7    0.08    0.04
   0 -12   7   -0.03    0.03
  -1  12  -7    0.18    0.06
   1 -12   7    0.21    0.04
   1 -12   7    0.09    0.04
  -2  12  -7    0.32    0.06
   2 -12   7    0.22    0.05
   2 -12   7    0.29    0.05
  -3  12  -7    0.15    0.06
   3 -12   7    0.23    0.05
  -4  12  -7    3.72    0.18
   4 -12   7    3.87    0.16
  -5  12  -7    0.32    0.07
   5 -12   7    0.27    0.05
   6 -12   7    5.65    0.21
  -7  12  -7    0.36    0.08
   7 -12   7    0.28    0.06
  -8  12  -7    4.27    0.21
   8 -12   7    4.60    0.19
   7  11  -7    0.07    0.06
   6  11  -7    3.28    0.18
  -6 -11   7    3.41    0.15
   5  11  -7    0.14    0.06
  -5 -11   7    0.24    0.05
   4  11  -7    0.45    0.08
  -4 -11   7    0.38    0.06
   3  11  -7    0.80    0.09
  -3 -11   7    0.93    0.07
   2  11  -7    0.43    0.07
  -2 -11   7    0.48    0.06
   1  11  -7    0.07    0.05
  -1 -11   7   -0.01    0.04
  -1 -11   7    0.07    0.03
   0  11  -7   13.98    0.46
   0 -11   7   13.91    0.42
   0 -11   7   14.03    0.40
  -1  11  -7    0.40    0.07
   1 -11   7    0.40    0.05
   1 -11   7    0.30    0.05
  -2  11  -7    6.11    0.24
   2 -11   7    5.80    0.20
  -3  11  -7    1.52    0.11
   3 -11   7    1.36    0.09
  -4  11  -7    7.08    0.27
   4 -11   7    7.42    0.25
   5 -11   7    0.65    0.07
  -6  11  -7    1.99    0.13
   6 -11   7    1.93    0.12
  -7  11  -7   -0.04    0.05
   7 -11   7    0.08    0.05
  -8  11  -7    0.36    0.08
   8 -11   7    0.28    0.06
   7  10  -7    0.04    0.06
  -7 -10   7    0.15    0.05
   6  10  -7    0.57    0.08
  -6 -10   7    0.44    0.06
   5  10  -7    0.33    0.07
  -5 -10   7    0.29    0.05
   4  10  -7    0.38    0.07
  -4 -10   7    0.43    0.06
   3  10  -7    3.26    0.17
  -3 -10   7    3.38    0.14
   2  10  -7    0.08    0.05
  -2 -10   7    0.06    0.04
   1  10  -7    6.34    0.24
  -1 -10   7    6.13    0.20
  -1 -10   7    6.06    0.21
   0  10  -7    3.22    0.16
   0 -10   7    3.41    0.13
   0 -10   7    3.59    0.15
  -1  10  -7    0.04    0.05
   1 -10   7   -0.01    0.03
  -2  10  -7    0.96    0.09
   2 -10   7    0.75    0.07
  -3  10  -7   13.27    0.44
   3 -10   7   14.24    0.41
  -4  10  -7   19.22    0.59
   4 -10   7   19.99    0.56
  -5  10  -7    0.11    0.06
   5 -10   7    0.05    0.04
  -6  10  -7   11.31    0.38
   6 -10   7   11.58    0.36
  -7  10  -7    1.78    0.13
   7 -10   7    1.83    0.11
  -8  10  -7    1.48    0.12
   8 -10   7    1.27    0.11
  -9  10  -7    0.07    0.07
   9 -10   7    0.08    0.06
   8   9  -7    0.17    0.07
  -8  -9   7    0.15    0.05
   7   9  -7    0.67    0.09
  -7  -9   7    0.65    0.07
   6   9  -7    1.07    0.10
  -6  -9   7    0.86    0.07
   5   9  -7    1.67    0.12
  -5  -9   7    1.66    0.10
   4   9  -7   11.35    0.39
  -4  -9   7   11.81    0.36
   3   9  -7    0.92    0.09
  -3  -9   7    0.84    0.06
   2   9  -7    3.94    0.18
  -2  -9   7    3.94    0.13
  -2  -9   7    3.65    0.15
   1   9  -7    0.46    0.06
  -1  -9   7    0.47    0.05
  -1  -9   7    0.43    0.04
   0   9  -7    0.28    0.06
   0  -9   7    0.28    0.04
   0  -9   7    0.33    0.05
  -1   9  -7    9.90    0.33
   1  -9   7    9.60    0.29
  -2   9  -7   10.58    0.35
   2  -9   7   11.07    0.33
  -3   9  -7    2.23    0.12
   3  -9   7    2.16    0.11
  -4   9  -7    2.64    0.13
  -4   9  -7    2.84    0.14
   4  -9   7    2.81    0.13
  -5   9  -7    0.47    0.07
   5  -9   7    0.60    0.07
  -6   9  -7    1.06    0.10
   6  -9   7    1.08    0.09
  -7   9  -7    1.10    0.10
   7  -9   7    1.22    0.10
  -8   9  -7    7.13    0.27
   8  -9   7    6.86    0.26
  -9   9  -7    1.02    0.11
   9  -9   7    0.99    0.10
  -9  -8   7    1.03    0.09
   8   8  -7    1.20    0.11
  -8  -8   7    1.27    0.09
   7   8  -7    1.81    0.13
  -7  -8   7    1.97    0.11
   6   8  -7    2.29    0.14
  -6  -8   7    2.10    0.11
   5   8  -7    2.59    0.14
  -5  -8   7    2.63    0.12
   4   8  -7    0.25    0.06
  -4  -8   7    0.35    0.05
   3   8  -7    2.47    0.14
  -3  -8   7    2.51    0.11
   2   8  -7    4.54    0.19
  -2  -8   7    4.55    0.17
  -2  -8   7    4.35    0.14
   1   8  -7    8.49    0.30
  -1  -8   7    8.64    0.25
  -1  -8   7    8.56    0.27
   0   8  -7   13.07    0.42
   0  -8   7   13.60    0.38
  -1   8  -7    1.18    0.09
   1  -8   7    1.20    0.07
  -2   8  -7   26.95    0.78
   2  -8   7   26.80    0.73
  -3   8  -7    9.27    0.30
  -3   8  -7    8.95    0.30
   3  -8   7    8.93    0.28
  -4   8  -7    0.03    0.04
  -4   8  -7    0.04    0.05
   4  -8   7    0.02    0.04
  -5   8  -7   13.55    0.42
   5  -8   7   13.35    0.41
  -6   8  -7    1.79    0.12
   6  -8   7    1.78    0.11
  -7   8  -7    0.36    0.07
   7  -8   7    0.34    0.06
  -8   8  -7    1.75    0.12
   8  -8   7    1.80    0.12
  -9   8  -7    1.20    0.11
   9  -8   7    1.10    0.10
 -10  -7   7    1.16    0.10
  -9  -7   7    0.04    0.04
   8   7  -7   14.04    0.46
  -8  -7   7   13.28    0.42
   7   7  -7    2.60    0.15
  -7  -7   7    3.14    0.13
   6   7  -7    2.13    0.13
  -6  -7   7    2.18    0.11
   5   7  -7    1.97    0.12
  -5  -7   7    2.03    0.10
   4   7  -7    0.10    0.05
  -4  -7   7    0.14    0.04
   3   7  -7    7.84    0.27
  -3  -7   7    7.28    0.24
  -3  -7   7    7.86    0.22
   2   7  -7   51.01    1.43
  -2  -7   7   49.97    1.36
  -2  -7   7   49.89    1.31
   1   7  -7    0.00    0.04
  -1  -7   7    0.06    0.04
  -1  -7   7    0.06    0.03
   0   7  -7   41.36    1.18
   0  -7   7   41.71    1.10
  -1   7  -7    6.63    0.23
   1  -7   7    6.83    0.21
  -2   7  -7    1.25    0.09
   2  -7   7    1.31    0.07
  -3   7  -7   10.48    0.33
  -3   7  -7   10.64    0.33
   3  -7   7   10.13    0.32
  -4   7  -7    6.59    0.23
   4  -7   7    6.61    0.22
  -5   7  -7    4.52    0.18
   5  -7   7    4.35    0.17
  -6   7  -7    0.69    0.07
   6  -7   7    0.53    0.06
  -7   7  -7    8.37    0.30
   7  -7   7    8.50    0.29
  -8   7  -7    2.37    0.14
   8  -7   7    2.44    0.14
  -9   7  -7    0.08    0.06
   9  -7   7    0.00    0.05
 -10  -6   7    8.48    0.30
  -9  -6   7    0.00    0.04
  -8  -6   7    0.15    0.04
   7   6  -7   10.25    0.35
  -7  -6   7   10.36    0.32
   6   6  -7    3.61    0.17
  -6  -6   7    3.70    0.14
   5   6  -7    4.38    0.18
  -5  -6   7    4.31    0.16
   4   6  -7    1.46    0.11
  -4  -6   7    1.48    0.08
   3   6  -7   49.34    1.38
  -3  -6   7   49.41    1.31
  -3  -6   7   47.02    1.26
   2   6  -7    9.08    0.29
  -2  -6   7    8.56    0.24
  -2  -6   7    8.16    0.27
   1   6  -7    7.67    0.26
  -1  -6   7    7.84    0.23
   0   6  -7   15.23    0.46
   0  -6   7   15.10    0.42
  -1   6  -7   10.67    0.34
   1  -6   7   11.14    0.32
  -2   6  -7   19.11    0.55
  -2   6  -7   17.68    0.53
   2  -6   7   18.85    0.52
  -3   6  -7    0.11    0.04
  -3   6  -7    0.12    0.04
   3  -6   7    0.15    0.04
  -4   6  -7    0.04    0.04
   4  -6   7    0.09    0.04
  -5   6  -7    5.72    0.21
   5  -6   7    5.63    0.21
  -6   6  -7    0.63    0.07
   6  -6   7    0.83    0.08
  -7   6  -7    0.30    0.06
   7  -6   7    0.22    0.06
  -8   6  -7    0.69    0.09
   8  -6   7    0.70    0.08
  -9   6  -7    8.69    0.32
   9  -6   7    8.54    0.31
 -11  -5   7    0.06    0.05
 -10  -5   7    4.91    0.20
  -9  -5   7    4.67    0.18
  -8  -5   7   -0.03    0.03
   7   5  -7    0.65    0.07
  -7  -5   7    0.59    0.06
   6   5  -7    1.63    0.11
  -6  -5   7    1.68    0.09
   5   5  -7    1.30    0.10
  -5  -5   7    1.30    0.08
   4   5  -7    0.06    0.04
  -4  -5   7    0.03    0.03
  -3  -5   7   16.68    0.45
   2   5  -7   11.84    0.37
  -2  -5   7   11.45    0.32
   1   5  -7    0.69    0.07
  -1  -5   7    0.81    0.05
   0   5  -7    2.97    0.13
   0  -5   7    3.16    0.11
  -1   5  -7    0.29    0.04
   1  -5   7    0.24    0.04
  -2   5  -7    0.03    0.03
  -2   5  -7    0.05    0.04
   2  -5   7    0.04    0.03
  -3   5  -7    1.24    0.08
  -4   5  -7   10.88    0.34
   4  -5   7   11.08    0.34
  -5   5  -7    2.59    0.13
   5  -5   7    2.56    0.12
  -6   5  -7    2.78    0.14
   6  -5   7    2.72    0.13
  -7   5  -7    3.35    0.16
   7  -5   7    3.01    0.15
  -8   5  -7    1.51    0.11
   8  -5   7    1.55    0.11
  -9   5  -7    0.19    0.07
   9  -5   7    0.27    0.07
 -12  -4   7    1.67    0.11
 -11  -4   7    4.86    0.20
 -10  -4   7    1.42    0.10
  -9  -4   7    2.06    0.11
  -8  -4   7   13.23    0.40
  -7  -4   7    4.81    0.17
   6   4  -7   -0.02    0.04
  -6  -4   7    0.00    0.03
   5   4  -7    0.35    0.06
  -5  -4   7    0.45    0.05
  -4  -4   7    5.41    0.20
  -4  -4   7    7.09    0.18
   3   4  -7    2.69    0.14
  -3  -4   7    3.77    0.13
  -3  -4   7    3.40    0.10
   2   4  -7    2.99    0.13
  -2  -4   7    3.18    0.10
  -2  -4   7    3.37    0.12
   1   4  -7    1.63    0.09
  -1  -4   7    1.68    0.07
   0   4  -7    1.47    0.08
   0  -4   7    1.54    0.07
  -1   4  -7   23.19    0.67
  -1   4  -7   22.98    0.65
   1  -4   7   23.45    0.63
  -2   4  -7    4.35    0.16
  -2   4  -7    4.46    0.16
   2  -4   7    4.57    0.16
  -3   4  -7    0.96    0.08
   3  -4   7    1.17    0.08
  -4   4  -7    0.75    0.07
   4  -4   7    0.79    0.07
  -5   4  -7    0.08    0.04
   5  -4   7    0.06    0.04
  -6   4  -7    0.08    0.05
   6  -4   7    0.09    0.04
  -7   4  -7    4.39    0.19
   7  -4   7    4.34    0.18
  -8   4  -7    0.71    0.08
   8  -4   7    0.72    0.08
  -9   4  -7    6.89    0.27
   9  -4   7    7.02    0.26
 -12  -3   7   -0.03    0.04
 -11  -3   7   17.74    0.54
 -10  -3   7    3.07    0.14
  -9  -3   7    1.02    0.08
  -8  -3   7    5.83    0.20
  -7  -3   7    3.49    0.13
  -6  -3   7    8.98    0.28
  -5  -3   7    3.00    0.11
  -4  -3   7   16.98    0.45
  -4  -3   7   17.67    0.49
   3   3  -7   21.52    0.62
  -3  -3   7   21.06    0.58
  -3  -3   7   20.44    0.55
   2   3  -7    0.41    0.05
  -2  -3   7    0.56    0.04
   1   3  -7    0.40    0.04
  -1  -3   7    0.42    0.04
   0  -3   7    3.10    0.11
  -1   3  -7    0.79    0.06
  -2   3  -7    0.11    0.03
  -2   3  -7    0.05    0.03
  -3   3  -7   19.10    0.55
  -3   3  -7   19.41    0.55
  -4   3  -7    3.22    0.13
  -4   3  -7    3.13    0.14
  -5   3  -7    0.77    0.08
  -6   3  -7    7.02    0.25
  -7   3  -7    4.18    0.18
   7  -3   7    4.47    0.19
  -8   3  -7    1.13    0.10
   8  -3   7    1.01    0.10
  -9   3  -7    0.28    0.07
   9  -3   7    0.47    0.08
 -13  -2   7   14.42    0.46
 -12  -2   7    0.58    0.07
 -11  -2   7    0.50    0.06
 -10  -2   7    2.92    0.13
  -9  -2   7    2.57    0.12
  -8  -2   7    8.06    0.26
  -7  -2   7    4.84    0.17
  -6  -2   7   12.85    0.37
  -5  -2   7    6.62    0.21
  -4  -2   7    0.07    0.02
  -4  -2   7    0.05    0.01
  -3  -2   7    1.50    0.07
  -3  -2   7    1.45    0.06
   1   2  -7    1.77    0.07
   0   2  -7    1.75    0.07
   0   2  -7    1.47    0.08
  -1   2  -7    4.61    0.16
  -1   2  -7    4.63    0.16
  -2   2  -7   16.33    0.45
  -2   2  -7   15.38    0.45
  -3   2  -7    0.12    0.04
  -3   2  -7    0.05    0.04
  -4   2  -7    0.31    0.05
  -4   2  -7    0.37    0.05
  -5   2  -7    8.32    0.28
  -5   2  -7    8.52    0.28
  -6   2  -7   12.80    0.40
  -6   2  -7   12.66    0.40
  -7   2  -7   10.35    0.34
  -7   2  -7   10.30    0.34
  -8   2  -7    0.21    0.06
  -9   2  -7    6.43    0.26
   9  -2   7    6.67    0.26
 -13  -1   7    0.24    0.06
 -12  -1   7    1.24    0.09
 -11  -1   7   11.91    0.37
 -10  -1   7    2.23    0.11
  -9  -1   7    2.05    0.10
  -8  -1   7   12.77    0.38
  -7  -1   7    5.77    0.19
  -6  -1   7   10.65    0.31
  -5  -1   7    0.53    0.04
  -4  -1   7    8.71    0.24
  -4  -1   7    9.32    0.26
   3   1  -7    0.07    0.02
  -3  -1   7    0.10    0.02
   2   1  -7    4.45    0.14
   1   1  -7    1.64    0.07
   0   1  -7    3.67    0.13
   0   1  -7    3.49    0.12
  -1   1  -7   12.14    0.35
  -1   1  -7   11.80    0.35
  -2   1  -7    2.03    0.09
  -2   1  -7    1.88    0.10
  -3   1  -7   24.49    0.69
  -3   1  -7   24.95    0.69
  -4   1  -7   40.26    1.11
  -4   1  -7   40.42    1.10
  -5   1  -7    2.04    0.11
  -5   1  -7    1.89    0.11
  -6   1  -7    2.06    0.12
  -6   1  -7    2.06    0.12
  -7   1  -7    0.86    0.09
  -7   1  -7    0.95    0.09
  -8   1  -7    0.00    0.05
  -8   1  -7    0.01    0.04
  -9   1  -7    0.06    0.06
 -13   0   7    6.69    0.25
 -12   0   7    1.49    0.10
 -11   0   7    0.82    0.08
 -11   0   7    0.97    0.08
 -10   0   7   32.34    0.90
  -9   0   7   11.68    0.35
  -8   0   7   10.70    0.32
  -7   0   7    0.01    0.02
  -6   0   7    5.66    0.18
   5   0  -7   20.68    0.55
  -5   0   7   21.59    0.58
   4   0  -7   10.60    0.29
  -4   0   7   10.49    0.30
  -3   0   7   33.06    0.89
   2   0  -7   75.32    1.96
   1   0  -7    5.38    0.17
   0   0  -7    0.29    0.04
   0   0  -7    0.31    0.04
   0   0   7    0.32    0.03
  -1   0  -7    0.27    0.04
  -1   0  -7    0.31    0.04
   1   0   7    0.22    0.03
  -2   0  -7   76.00    2.03
  -2   0  -7   75.99    2.00
  -3   0  -7   14.08    0.41
  -3   0  -7   13.46    0.41
  -4   0  -7    2.25    0.12
  -4   0  -7    2.54    0.12
  -5   0  -7   23.52    0.67
  -5   0  -7   22.88    0.66
  -6   0  -7    4.03    0.17
  -6   0  -7    3.55    0.16
  -7   0  -7    0.94    0.09
  -7   0  -7    0.80    0.08
  -8   0  -7    6.30    0.24
  -8   0  -7    6.16    0.24
 -14   1   7    0.10    0.06
 -13   1   7    6.50    0.24
 -12   1   7    5.16    0.20
 -11   1   7    9.23    0.30
 -11   1   7    9.70    0.31
 -10   1   7   11.16    0.35
 -10   1   7   11.09    0.34
  -9   1   7    1.08    0.07
  -9   1   7    1.14    0.08
  -8   1   7    0.83    0.06
  -7   1   7   26.08    0.71
  -6   1   7    0.95    0.05
   5  -1  -7   67.84    1.77
  -5   1   7   68.82    1.81
   4  -1  -7    3.88    0.12
  -4   1   7    4.37    0.13
   3  -1  -7    2.18    0.08
  -3   1   7    2.17    0.08
  -3   1   7    2.11    0.09
   2  -1  -7    0.82    0.05
  -2   1   7    0.80    0.05
   1  -1  -7   -0.02    0.02
   1  -1  -7    0.01    0.02
  -1   1   7    0.00    0.02
   0  -1  -7   25.42    0.70
   0  -1  -7   25.67    0.70
   0   1   7   25.66    0.72
  -1  -1  -7    3.61    0.14
  -1  -1  -7    3.67    0.13
   1   1   7    3.67    0.12
  -2  -1  -7    8.66    0.26
  -2  -1  -7    8.49    0.27
  -3  -1  -7    1.23    0.08
  -3  -1  -7    1.33    0.08
  -4  -1  -7    0.28    0.05
  -4  -1  -7    0.26    0.05
  -5  -1  -7    1.68    0.10
  -5  -1  -7    1.51    0.10
  -6  -1  -7   12.21    0.39
  -6  -1  -7   12.32    0.39
  -7  -1  -7    0.45    0.07
  -8  -1  -7    1.98    0.13
 -14   2   7    5.43    0.22
 -13   2   7    0.09    0.04
 -12   2   7    1.87    0.11
 -11   2   7    1.10    0.08
 -11   2   7    0.92    0.08
 -10   2   7    1.77    0.09
 -10   2   7    1.91    0.10
  -9   2   7    5.83    0.19
  -9   2   7    5.86    0.21
  -8   2   7    5.21    0.19
  -8   2   7    5.17    0.17
  -7   2   7   17.53    0.49
  -7   2   7   18.02    0.53
   6  -2  -7    0.23    0.02
  -6   2   7    0.25    0.03
  -6   2   7    0.24    0.04
   5  -2  -7    9.94    0.28
  -5   2   7   10.06    0.31
   4  -2  -7   26.59    0.69
  -4   2   7   25.95    0.74
  -4   2   7   25.66    0.70
   3  -2  -7    1.30    0.06
  -3   2   7    1.29    0.07
  -3   2   7    1.17    0.05
   2  -2  -7   32.21    0.86
  -2   2   7   32.45    0.91
   1  -2  -7    6.78    0.21
  -1   2   7    6.56    0.21
   0  -2  -7    4.97    0.17
   0  -2  -7    4.84    0.15
   0   2   7    4.65    0.16
  -1  -2  -7    7.02    0.21
  -1  -2  -7    6.78    0.22
   1   2   7    6.63    0.21
  -2  -2  -7   29.14    0.79
  -2  -2  -7   27.99    0.79
  -3  -2  -7    2.93    0.14
  -3  -2  -7    3.31    0.13
  -4  -2  -7   13.18    0.39
  -4  -2  -7   12.39    0.40
  -5  -2  -7    1.30    0.09
  -6  -2  -7    0.01    0.04
  -7  -2  -7    0.25    0.06
 -14   3   7    3.64    0.17
 -13   3   7    0.91    0.08
 -12   3   7   -0.06    0.03
 -12   3   7    0.02    0.04
 -11   3   7    0.66    0.07
 -11   3   7    0.60    0.06
 -10   3   7    1.80    0.10
 -10   3   7    1.84    0.09
  -9   3   7   32.51    0.88
  -9   3   7   32.22    0.93
  -8   3   7    3.73    0.13
  -8   3   7    3.99    0.15
  -7   3   7    9.89    0.31
  -7   3   7   10.11    0.29
  -6   3   7   12.61    0.35
   5  -3  -7    0.01    0.02
  -5   3   7    0.00    0.02
  -5   3   7    0.01    0.01
   4  -3  -7    5.36    0.16
  -4   3   7    5.19    0.15
  -4   3   7    5.28    0.18
   3  -3  -7   12.40    0.35
  -3   3   7   11.98    0.33
  -3   3   7   12.18    0.36
   2  -3  -7    0.02    0.02
  -2   3   7    0.01    0.02
   1  -3  -7    9.63    0.29
   1  -3  -7    9.95    0.27
  -1   3   7    9.60    0.29
   0  -3  -7    1.04    0.07
   0   3   7    0.96    0.06
  -1  -3  -7   13.18    0.39
  -2  -3  -7    4.27    0.17
  -3  -3  -7    2.40    0.12
  -4  -3  -7    0.38    0.06
  -5  -3  -7    0.59    0.07
  -6  -3  -7    5.87    0.24
  -7  -3  -7    0.18    0.06
 -15   4   7    1.50    0.11
 -14   4   7    1.27    0.10
 -13   4   7    0.02    0.04
 -12   4   7    0.26    0.05
 -12   4   7    0.24    0.05
 -11   4   7    0.61    0.06
 -11   4   7    0.61    0.06
 -10   4   7    0.08    0.04
 -10   4   7    0.04    0.03
  -9   4   7    1.52    0.09
  -9   4   7    1.50    0.08
  -8   4   7    3.57    0.14
  -8   4   7    3.67    0.12
   7  -4  -7   10.63    0.29
  -7   4   7   10.52    0.33
  -7   4   7   10.71    0.30
   6  -4  -7    0.11    0.02
  -6   4   7    0.12    0.02
   5  -4  -7   17.14    0.46
  -5   4   7   16.71    0.45
  -5   4   7   16.63    0.49
   4  -4  -7   13.81    0.39
  -4   4   7   14.07    0.42
   3  -4  -7   -0.01    0.02
  -3   4   7    0.05    0.03
   2  -4  -7    5.31    0.18
  -2   4   7    5.35    0.18
   1  -4  -7    9.80    0.30
  -1   4   7    9.61    0.29
   0  -4  -7    0.90    0.07
   0   4   7    0.91    0.06
  -1  -4  -7    0.59    0.06
  -2  -4  -7    0.43    0.06
  -3  -4  -7    0.73    0.07
  -4  -4  -7    1.16    0.09
  -5  -4  -7    0.73    0.08
  -6  -4  -7    0.05    0.05
 -15   5   7    1.65    0.12
 -14   5   7    0.67    0.08
 -13   5   7    0.52    0.06
 -12   5   7    0.12    0.04
 -12   5   7    0.23    0.05
 -11   5   7    3.13    0.14
 -11   5   7    3.33    0.13
 -10   5   7   10.51    0.34
 -10   5   7   10.56    0.32
  -9   5   7    0.24    0.04
  -9   5   7    0.19    0.04
   8  -5  -7    2.69    0.09
  -8   5   7    2.70    0.10
  -8   5   7    2.57    0.12
   7  -5  -7    1.24    0.06
  -7   5   7    1.25    0.08
   6  -5  -7    1.12    0.06
   5  -5  -7   14.84    0.41
  -5   5   7   14.43    0.44
   4  -5  -7    5.68    0.18
  -4   5   7    5.40    0.19
   3  -5  -7   35.77    0.96
  -3   5   7   35.88    1.01
   2  -5  -7   19.41    0.55
  -2   5   7   19.97    0.57
   1  -5  -7    0.42    0.05
  -1   5   7    0.44    0.05
   0  -5  -7    4.30    0.16
   0   5   7    4.08    0.15
  -1  -5  -7    0.78    0.07
  -2  -5  -7    0.98    0.08
  -3  -5  -7    0.42    0.06
  -4  -5  -7    0.05    0.04
  -5  -5  -7    2.06    0.13
 -15   6   7    0.05    0.05
 -14   6   7    0.63    0.08
 -13   6   7    3.60    0.15
 -12   6   7    3.47    0.16
 -12   6   7    3.40    0.14
 -11   6   7    0.68    0.06
 -11   6   7    0.61    0.07
 -10   6   7    7.25    0.25
  -9   6   7   22.65    0.67
   8  -6  -7    1.41    0.07
  -8   6   7    1.47    0.09
   7  -6  -7   11.05    0.32
  -7   6   7   11.19    0.35
   6  -6  -7    4.89    0.16
  -6   6   7    5.00    0.18
   5  -6  -7   30.79    0.83
  -5   6   7   31.35    0.89
   4  -6  -7   34.49    0.92
  -4   6   7   33.98    0.97
   3  -6  -7    0.45    0.05
  -3   6   7    0.44    0.05
   2  -6  -7   -0.01    0.03
  -2   6   7    0.05    0.03
   1  -6  -7    1.71    0.10
  -1   6   7    1.65    0.10
   0  -6  -7   13.54    0.41
  -1  -6  -7    0.05    0.04
  -2  -6  -7    7.96    0.28
  -3  -6  -7    0.79    0.08
  -4  -6  -7    2.56    0.14
  -5  -6  -7    0.68    0.09
 -13   7   7    0.82    0.08
 -12   7   7   17.97    0.55
 -11   7   7    2.23    0.12
 -10   7   7    0.91    0.08
   9  -7  -7    5.66    0.18
  -9   7   7    5.87    0.21
   8  -7  -7    9.14    0.27
  -8   7   7    8.93    0.30
   7  -7  -7    1.69    0.08
  -7   7   7    1.59    0.09
   6  -7  -7   29.69    0.80
  -6   7   7   29.46    0.85
   5  -7  -7   29.97    0.82
  -5   7   7   30.46    0.87
   4  -7  -7    4.72    0.17
  -4   7   7    4.42    0.17
   3  -7  -7    0.20    0.04
  -3   7   7    0.18    0.05
   2  -7  -7    0.58    0.06
  -2   7   7    0.55    0.06
   1  -7  -7   13.30    0.41
  -1   7   7   13.64    0.42
   0  -7  -7    0.09    0.04
  -1  -7  -7    0.11    0.05
  -2  -7  -7    0.99    0.09
  -3  -7  -7    0.65    0.08
  -4  -7  -7    0.08    0.05
 -13   8   7    1.18    0.10
 -12   8   7    3.45    0.16
 -11   8   7    6.85    0.25
 -10   8   7    4.49    0.18
   9  -8  -7    6.43    0.20
  -9   8   7    6.24    0.23
   8  -8  -7   22.31    0.62
  -8   8   7   22.53    0.67
   7  -8  -7   12.02    0.36
  -7   8   7   12.80    0.39
   6  -8  -7    0.12    0.03
  -6   8   7    0.05    0.04
   5  -8  -7    0.25    0.04
  -5   8   7    0.22    0.05
   4  -8  -7    6.02    0.21
  -4   8   7    6.18    0.22
   3  -8  -7    6.07    0.21
  -3   8   7    6.28    0.22
   2  -8  -7    0.01    0.03
  -2   8   7   -0.04    0.05
   1  -8  -7    0.11    0.04
  -1   8   7    0.03    0.06
   0  -8  -7    7.68    0.27
  -1  -8  -7    7.69    0.28
  -2  -8  -7    3.94    0.18
  -3  -8  -7    3.61    0.18
 -13   9   7    6.48    0.25
 -12   9   7    5.38    0.22
 -11   9   7    0.01    0.05
 -10   9   7   24.73    0.74
   9  -9  -7   12.89    0.38
  -9   9   7   13.36    0.42
   8  -9  -7    0.10    0.03
  -8   9   7    0.19    0.05
   7  -9  -7    3.16    0.13
  -7   9   7    3.41    0.15
   6  -9  -7    1.76    0.09
  -6   9   7    1.70    0.11
   5  -9  -7    2.08    0.10
  -5   9   7    2.09    0.12
   4  -9  -7    0.22    0.04
  -4   9   7    0.30    0.06
   3  -9  -7    0.23    0.04
  -3   9   7    0.23    0.06
   2  -9  -7    0.53    0.06
  -2   9   7    0.46    0.07
   1  -9  -7    2.65    0.13
   0  -9  -7    0.12    0.05
  -1  -9  -7    3.66    0.17
  -2  -9  -7    0.20    0.06
 -13  10   7   -0.02    0.06
 -12  10   7    3.41    0.17
 -11  10   7   21.33    0.66
  10 -10  -7    0.18    0.04
 -10  10   7    0.15    0.06
   9 -10  -7    5.98    0.21
  -9  10   7    6.40    0.24
   8 -10  -7    0.00    0.03
  -8  10   7   -0.07    0.05
   7 -10  -7    0.63    0.06
  -7  10   7    0.53    0.07
   6 -10  -7    1.40    0.09
  -6  10   7    1.42    0.11
   5 -10  -7    0.52    0.06
  -5  10   7    0.42    0.07
   4 -10  -7    9.23    0.31
  -4  10   7    9.66    0.33
   3 -10  -7    1.74    0.10
  -3  10   7    1.54    0.13
   2 -10  -7    1.70    0.11
  -2  10   7    1.80    0.13
   1 -10  -7    1.36    0.10
   0 -10  -7    0.75    0.09
  -1 -10  -7    8.93    0.32
 -13  11   7    1.28    0.12
 -12  11   7   11.03    0.39
 -11  11   7    4.12    0.20
  10 -11  -7    0.22    0.05
 -10  11   7    0.21    0.07
   9 -11  -7    0.01    0.03
  -9  11   7    0.03    0.05
   8 -11  -7    2.95    0.13
  -8  11   7    2.65    0.15
   7 -11  -7    0.86    0.07
  -7  11   7    0.66    0.09
   6 -11  -7    3.75    0.16
  -6  11   7    3.93    0.19
   5 -11  -7    0.95    0.08
  -5  11   7    0.77    0.10
   4 -11  -7    2.03    0.11
  -4  11   7    1.98    0.14
   3 -11  -7   -0.05    0.04
  -3  11   7    0.00    0.07
   2 -11  -7    1.09    0.09
  -2  11   7    0.98    0.11
   1 -11  -7    0.04    0.04
 -13  12   7    0.00    0.07
 -12  12   7    5.73    0.25
 -11  12   7    0.04    0.07
  10 -12  -7    2.48    0.12
 -10  12   7    2.49    0.16
   9 -12  -7    1.04    0.08
  -9  12   7    0.88    0.10
   8 -12  -7    0.30    0.05
  -8  12   7    0.23    0.08
   7 -12  -7    1.68    0.10
  -7  12   7    1.38    0.13
   6 -12  -7    0.10    0.04
  -6  12   7   -0.05    0.07
   5 -12  -7    3.09    0.15
  -5  12   7    3.09    0.18
   4 -12  -7    1.67    0.11
  -4  12   7    1.58    0.14
   3 -12  -7   -0.01    0.04
  -3  12   7   -0.07    0.07
   2 -12  -7    0.03    0.04
 -11  13   7    2.19    0.17
  10 -13  -7    1.20    0.09
 -10  13   7    1.04    0.12
   9 -13  -7    1.57    0.10
  -9  13   7    1.48    0.14
   8 -13  -7    3.84    0.17
  -8  13   7    4.19    0.21
   7 -13  -7    3.53    0.16
  -7  13   7    3.27    0.20
   6 -13  -7    1.49    0.10
  -6  13   7    1.34    0.13
   5 -13  -7    0.60    0.08
  -5  13   7    0.49    0.10
   4 -13  -7    0.19    0.06
  -4  13   7    0.09    0.08
  -3  13   7   -0.05    0.07
  10 -14  -7    0.53    0.07
   9 -14  -7    0.52    0.07
   8 -14  -7    0.04    0.05
   7 -14  -7    0.39    0.06
   2 -15   8    0.05    0.05
  -2 -14   8    0.95    0.08
  -1 -14   8    0.82    0.08
   0  14  -8    0.60    0.09
   0 -14   8    0.60    0.07
  -1  14  -8    0.14    0.07
   1 -14   8    0.13    0.05
   1 -14   8    0.10    0.05
  -2  14  -8    0.00    0.06
   2 -14   8   -0.04    0.05
   2 -14   8   -0.02    0.04
  -3  14  -8    2.12    0.14
   3 -14   8    1.55    0.11
   3 -14   8    1.68    0.12
  -4  14  -8    6.46    0.27
   4 -14   8    6.52    0.24
   3  13  -8    0.35    0.08
  -3 -13   8    0.36    0.06
   2  13  -8   -0.01    0.06
  -2 -13   8    0.07    0.04
   1  13  -8    0.10    0.06
  -1 -13   8    0.20    0.05
   0  13  -8    0.36    0.08
   0 -13   8    0.30    0.06
  -1  13  -8    1.66    0.13
   1 -13   8    1.41    0.09
   1 -13   8    1.54    0.11
  -2  13  -8    3.04    0.17
   2 -13   8    3.12    0.14
   2 -13   8    3.29    0.16
  -3  13  -8    1.47    0.13
   3 -13   8    1.49    0.10
  -4  13  -8   15.80    0.52
   4 -13   8   16.14    0.48
   5 -13   8    0.20    0.06
   6 -13   8    0.85    0.09
   5  12  -8    0.46    0.09
  -5 -12   8    0.55    0.07
   4  12  -8    0.65    0.09
  -4 -12   8    0.55    0.07
   3  12  -8   -0.01    0.06
  -3 -12   8   -0.01    0.04
   2  12  -8    0.16    0.07
  -2 -12   8    0.14    0.05
   1  12  -8    0.16    0.06
  -1 -12   8    0.14    0.05
   0  12  -8    0.80    0.09
   0 -12   8    0.81    0.07
   0 -12   8    0.64    0.07
  -1  12  -8    0.08    0.06
   1 -12   8   -0.05    0.04
   1 -12   8    0.01    0.04
  -2  12  -8    5.49    0.23
   2 -12   8    5.48    0.20
  -3  12  -8    0.16    0.06
   3 -12   8    0.12    0.05
  -4  12  -8    4.89    0.21
   4 -12   8    5.10    0.19
   5 -12   8    0.08    0.05
   6 -12   8    5.61    0.22
   7 -12   8    2.00    0.12
   6  11  -8    0.02    0.06
  -6 -11   8    0.02    0.04
   5  11  -8    1.48    0.13
  -5 -11   8    1.47    0.09
   4  11  -8    0.35    0.08
  -4 -11   8    0.48    0.06
   3  11  -8    0.02    0.05
  -3 -11   8    0.03    0.04
   2  11  -8    1.18    0.11
  -2 -11   8    1.14    0.08
   1  11  -8    1.37    0.11
  -1 -11   8    1.46    0.09
   0  11  -8    4.76    0.21
   0 -11   8    4.91    0.17
   0 -11   8    4.80    0.19
  -1  11  -8    1.23    0.11
   1 -11   8    1.35    0.08
   1 -11   8    1.29    0.09
  -2  11  -8    1.93    0.13
   2 -11   8    2.25    0.11
  -3  11  -8    1.04    0.10
   3 -11   8    1.12    0.09
  -4  11  -8    6.01    0.24
   4 -11   8    6.58    0.23
   5 -11   8   -0.03    0.04
  -6  11  -8    0.21    0.07
   6 -11   8    0.16    0.06
  -7  11  -8    6.07    0.25
   7 -11   8    6.32    0.24
   8  10  -8    0.38    0.08
   7  10  -8    1.49    0.13
  -7 -10   8    1.38    0.10
   6  10  -8    0.25    0.07
  -6 -10   8    0.26    0.05
   5  10  -8    3.43    0.19
  -5 -10   8    3.56    0.15
   4  10  -8    1.03    0.11
  -4 -10   8    1.11    0.08
   3  10  -8    1.94    0.13
  -3 -10   8    1.85    0.10
   2  10  -8    0.69    0.08
  -2 -10   8    0.77    0.07
   1  10  -8    0.18    0.06
  -1 -10   8    0.18    0.04
  -1 -10   8    0.27    0.05
   0  10  -8    0.51    0.07
   0 -10   8    0.62    0.06
   0 -10   8    0.45    0.06
  -1  10  -8    0.43    0.07
   1 -10   8    0.40    0.05
  -2  10  -8    4.30    0.18
   2 -10   8    4.15    0.16
  -3  10  -8    1.02    0.10
   3 -10   8    0.94    0.08
   4 -10   8    2.79    0.13
  -5  10  -8    4.25    0.19
   5 -10   8    4.04    0.17
  -6  10  -8    0.92    0.10
   6 -10   8    1.11    0.09
  -7  10  -8    1.03    0.10
   7 -10   8    0.99    0.10
  -8  10  -8    0.39    0.08
   8 -10   8    0.13    0.06
   8   9  -8    0.04    0.06
  -8  -9   8    0.05    0.04
   7   9  -8    3.15    0.17
  -7  -9   8    3.02    0.14
   6   9  -8    0.57    0.08
  -6  -9   8    0.56    0.06
   5   9  -8    1.89    0.13
  -5  -9   8    2.04    0.11
   4   9  -8    0.03    0.05
  -4  -9   8    0.02    0.03
   3   9  -8    5.74    0.23
  -3  -9   8    5.46    0.20
   2   9  -8    3.60    0.17
  -2  -9   8    3.50    0.15
  -2  -9   8    3.68    0.13
   1   9  -8    4.19    0.18
  -1  -9   8    4.17    0.16
  -1  -9   8    3.97    0.14
   0   9  -8    1.06    0.09
   0  -9   8    1.13    0.07
   0  -9   8    0.93    0.08
  -1   9  -8    2.36    0.13
   1  -9   8    2.37    0.11
  -2   9  -8   12.91    0.41
   2  -9   8   12.69    0.38
  -3   9  -8    2.20    0.12
   3  -9   8    2.27    0.11
  -4   9  -8    0.00    0.05
   4  -9   8   -0.05    0.04
  -5   9  -8    0.82    0.08
   5  -9   8    0.60    0.07
  -6   9  -8    3.45    0.17
   6  -9   8    3.44    0.15
  -7   9  -8   -0.01    0.05
   7  -9   8   -0.06    0.05
  -8   9  -8    0.28    0.07
   8  -9   8    0.29    0.07
  -9  -8   8    0.48    0.07
   8   8  -8    1.69    0.13
  -8  -8   8    1.58    0.10
   7   8  -8    9.80    0.36
  -7  -8   8    9.98    0.32
   6   8  -8    0.04    0.05
  -6  -8   8   -0.01    0.04
   5   8  -8   12.68    0.42
  -5  -8   8   12.27    0.38
   4   8  -8   10.18    0.35
  -4  -8   8    9.84    0.32
   3   8  -8    0.13    0.05
  -3  -8   8    0.13    0.04
   2   8  -8    1.11    0.10
  -2  -8   8    1.00    0.08
  -2  -8   8    1.10    0.06
   1   8  -8    2.29    0.13
  -1  -8   8    2.40    0.10
  -1  -8   8    2.23    0.11
   0   8  -8    1.27    0.10
   0  -8   8    1.32    0.07
  -1   8  -8    0.41    0.06
   1  -8   8    0.24    0.04
  -2   8  -8    0.12    0.04
   2  -8   8    0.04    0.04
  -3   8  -8    7.03    0.25
   3  -8   8    6.81    0.23
  -4   8  -8    3.13    0.15
   4  -8   8    3.06    0.14
  -5   8  -8    0.08    0.05
   5  -8   8    0.09    0.05
  -6   8  -8    0.60    0.08
   6  -8   8    0.73    0.08
  -7   8  -8    3.65    0.18
   7  -8   8    3.66    0.17
  -8   8  -8   12.68    0.43
   8  -8   8   13.17    0.42
 -10  -7   8    1.70    0.11
  -9  -7   8    3.43    0.16
  -8  -7   8    8.34    0.28
   7   7  -8    8.76    0.32
  -7  -7   8    8.51    0.28
   6   7  -8    3.99    0.19
  -6  -7   8    4.14    0.16
   5   7  -8    0.42    0.07
  -5  -7   8    0.40    0.05
   4   7  -8    4.95    0.20
  -4  -7   8    4.64    0.17
   3   7  -8   28.34    0.83
  -3  -7   8   27.95    0.79
   2   7  -8    0.60    0.07
  -2  -7   8    0.75    0.05
  -2  -7   8    0.84    0.07
   1   7  -8    0.35    0.06
  -1  -7   8    0.24    0.04
  -1  -7   8    0.21    0.04
   0   7  -8    1.03    0.09
   0  -7   8    1.08    0.07
  -1   7  -8   39.76    1.13
   1  -7   8   39.19    1.06
  -2   7  -8    1.51    0.10
   2  -7   8    1.39    0.09
  -3   7  -8    0.01    0.04
  -3   7  -8   -0.02    0.03
   3  -7   8   -0.08    0.03
  -4   7  -8   10.42    0.34
   4  -7   8   10.76    0.33
  -5   7  -8    0.42    0.06
   5  -7   8    0.34    0.06
  -6   7  -8    3.69    0.17
   6  -7   8    3.48    0.16
  -7   7  -8    2.09    0.13
   7  -7   8    2.03    0.12
  -8   7  -8   13.58    0.45
   8  -7   8   13.81    0.44
 -10  -6   8    1.20    0.10
  -9  -6   8    8.78    0.30
  -8  -6   8    3.89    0.16
   7   6  -8    0.19    0.06
  -7  -6   8    0.06    0.04
   6   6  -8   12.26    0.41
  -6  -6   8   12.39    0.38
   5   6  -8    0.22    0.06
  -5  -6   8    0.12    0.04
   4   6  -8   12.83    0.42
  -4  -6   8   12.95    0.39
   3   6  -8    2.44    0.13
  -3  -6   8    2.50    0.11
  -3  -6   8    2.41    0.09
   2   6  -8    9.83    0.33
  -2  -6   8   10.06    0.31
  -2  -6   8    9.76    0.28
   1   6  -8   30.13    0.88
  -1  -6   8   30.76    0.81
   0   6  -8    0.09    0.04
   0  -6   8    0.17    0.04
  -1   6  -8    3.72    0.15
   1  -6   8    3.66    0.14
  -2   6  -8    2.17    0.11
  -2   6  -8    2.20    0.11
   2  -6   8    2.06    0.10
  -3   6  -8    0.44    0.06
   3  -6   8    0.45    0.06
  -4   6  -8    1.29    0.09
   4  -6   8    1.24    0.09
  -5   6  -8    0.04    0.04
   5  -6   8    0.08    0.05
  -6   6  -8   20.40    0.61
   6  -6   8   20.09    0.60
  -7   6  -8   16.74    0.52
   7  -6   8   16.52    0.51
  -8   6  -8    0.48    0.08
   8  -6   8    0.59    0.08
  -9   6  -8    0.39    0.08
   9  -6   8    0.48    0.08
 -11  -5   8    7.25    0.27
 -10  -5   8    1.87    0.11
  -9  -5   8    1.73    0.10
  -8  -5   8    8.44    0.28
  -7  -5   8    2.78    0.12
   6   5  -8    0.98    0.09
  -6  -5   8    1.11    0.07
   5   5  -8    0.00    0.04
  -5  -5   8    0.03    0.03
   4   5  -8    5.71    0.22
  -4  -5   8    5.84    0.20
   3   5  -8   69.48    1.91
  -3  -5   8   67.81    1.83
  -3  -5   8   67.75    1.77
   2   5  -8   10.83    0.36
  -2  -5   8   11.02    0.31
  -2  -5   8   11.63    0.34
   1   5  -8    1.12    0.09
  -1  -5   8    1.32    0.07
   0   5  -8    1.46    0.09
   0  -5   8    1.33    0.07
  -1   5  -8    1.12    0.08
   1  -5   8    1.21    0.07
  -2   5  -8    2.77    0.12
  -2   5  -8    2.54    0.12
   2  -5   8    2.76    0.12
  -3   5  -8    0.11    0.05
   3  -5   8    0.11    0.04
  -4   5  -8   25.18    0.73
   4  -5   8   25.59    0.72
  -5   5  -8   18.06    0.54
   5  -5   8   17.89    0.53
  -6   5  -8    0.62    0.08
   6  -5   8    0.50    0.07
  -7   5  -8    8.74    0.31
   7  -5   8    8.38    0.30
  -8   5  -8   11.33    0.38
   8  -5   8   10.98    0.37
  -9   5  -8    1.29    0.12
 -12  -4   8    0.80    0.08
 -11  -4   8    4.83    0.20
 -10  -4   8    4.06    0.17
  -9  -4   8   -0.01    0.03
  -8  -4   8   15.91    0.47
  -7  -4   8    0.28    0.04
  -6  -4   8    2.16    0.10
  -5  -4   8    2.09    0.10
   4   4  -8   20.44    0.71
  -4  -4   8   28.13    0.68
   3   4  -8    4.03    0.16
  -3  -4   8    3.74    0.12
  -3  -4   8    4.01    0.14
   2   4  -8    3.46    0.14
  -2  -4   8    3.48    0.13
  -2  -4   8    3.20    0.11
   1   4  -8    3.33    0.14
  -1  -4   8    3.43    0.12
   0   4  -8    0.57    0.06
   0  -4   8    0.64    0.05
  -1   4  -8    7.01    0.23
   1  -4   8    6.85    0.22
  -2   4  -8    6.24    0.21
   2  -4   8    6.30    0.21
  -3   4  -8   14.90    0.45
   3  -4   8   15.25    0.45
  -4   4  -8    0.15    0.05
   4  -4   8    0.05    0.04
  -5   4  -8   15.43    0.47
   5  -4   8   15.16    0.46
  -6   4  -8    6.48    0.24
   6  -4   8    6.33    0.24
  -7   4  -8    1.80    0.12
   7  -4   8    1.67    0.12
  -8   4  -8    4.34    0.19
   8  -4   8    3.74    0.18
 -12  -3   8    6.95    0.26
 -11  -3   8    1.91    0.11
 -10  -3   8    7.89    0.27
  -9  -3   8    4.32    0.17
  -8  -3   8    0.15    0.04
  -7  -3   8    0.11    0.03
  -6  -3   8    8.24    0.26
  -5  -3   8    0.34    0.04
  -4  -3   8    4.41    0.13
  -4  -3   8    4.59    0.16
  -3  -3   8    4.10    0.13
  -3  -3   8    4.28    0.15
  -2  -3   8    4.30    0.14
  -1  -3   8    0.69    0.05
   0  -3   8    6.62    0.21
  -1   3  -8    3.96    0.15
  -2   3  -8   19.80    0.57
  -2   3  -8   20.49    0.57
  -3   3  -8   40.48    1.10
  -3   3  -8   40.38    1.11
  -4   3  -8    2.33    0.12
  -4   3  -8    2.39    0.12
  -5   3  -8    0.23    0.05
  -6   3  -8    3.95    0.17
   6  -3   8    3.95    0.17
  -7   3  -8    4.27    0.19
   7  -3   8    4.21    0.19
  -8   3  -8    1.17    0.11
   8  -3   8    1.26    0.11
 -13  -2   8    0.80    0.09
 -12  -2   8    2.21    0.12
 -11  -2   8    0.82    0.08
 -10  -2   8    1.80    0.10
  -9  -2   8    5.94    0.21
  -8  -2   8    3.77    0.14
  -7  -2   8    0.10    0.03
  -6  -2   8   18.42    0.52
  -5  -2   8    0.03    0.02
  -4  -2   8    2.36    0.08
  -4  -2   8    2.35    0.10
  -3  -2   8    1.91    0.07
  -3  -2   8    1.93    0.09
   2   2  -8    0.50    0.04
   1   2  -8    3.72    0.13
   0   2  -8   16.91    0.47
   0   2  -8   16.64    0.48
  -1   2  -8    5.24    0.18
  -1   2  -8    5.41    0.18
  -2   2  -8    0.01    0.04
  -2   2  -8    0.00    0.03
  -3   2  -8   13.90    0.41
  -3   2  -8   13.34    0.41
  -4   2  -8    4.32    0.17
  -4   2  -8    4.06    0.17
  -5   2  -8    7.42    0.26
  -5   2  -8    7.66    0.26
  -6   2  -8    3.36    0.16
  -6   2  -8    3.42    0.16
  -7   2  -8    4.50    0.19
  -8   2  -8    4.61    0.20
   8  -2   8    4.71    0.21
 -13  -1   8    1.04    0.09
 -12  -1   8    1.28    0.09
 -11  -1   8    3.90    0.16
 -10  -1   8   11.84    0.36
  -9  -1   8    0.28    0.04
  -8  -1   8    0.03    0.03
  -7  -1   8    5.01    0.17
  -6  -1   8    4.37    0.15
  -5  -1   8    0.42    0.04
   4   1  -8    3.77    0.11
  -4  -1   8    3.74    0.13
   3   1  -8   29.17    0.77
  -3  -1   8   28.91    0.79
   2   1  -8   37.43    0.99
   1   1  -8   14.53    0.41
   0   1  -8   18.66    0.53
   0   1  -8   19.59    0.53
  -1   1  -8   10.17    0.31
  -1   1  -8   10.41    0.31
   1  -1   8   10.17    0.30
  -2   1  -8   26.88    0.74
  -2   1  -8   25.90    0.73
  -3   1  -8    1.72    0.10
  -3   1  -8    1.47    0.09
  -4   1  -8    4.18    0.17
  -4   1  -8    4.45    0.17
  -5   1  -8   16.87    0.52
  -5   1  -8   18.05    0.52
  -6   1  -8    4.06    0.17
  -6   1  -8    4.05    0.18
  -7   1  -8    0.04    0.05
  -7   1  -8    0.08    0.05
  -8   1  -8    6.98    0.27
  -8   1  -8    7.11    0.27
 -14   0   8    0.10    0.05
 -13   0   8    6.73    0.25
 -12   0   8    4.21    0.17
 -11   0   8    1.58    0.10
 -11   0   8    1.71    0.10
 -10   0   8   17.67    0.51
  -9   0   8    3.95    0.15
  -8   0   8    0.99    0.06
  -7   0   8   11.19    0.33
  -6   0   8    5.51    0.18
   5   0  -8   24.70    0.65
  -5   0   8   24.93    0.68
  -4   0   8   15.42    0.43
   3   0  -8    4.17    0.13
  -3   0   8    4.06    0.14
   2   0  -8   14.46    0.40
   1   0  -8    0.70    0.05
  -1   0   8    0.74    0.05
   0   0  -8    1.78    0.09
   0   0  -8    1.71    0.08
   0   0   8    1.68    0.07
  -1   0  -8    1.41    0.08
  -1   0  -8    1.40    0.08
   1   0   8    1.50    0.07
  -2   0  -8    5.01    0.19
  -2   0  -8    5.51    0.18
  -3   0  -8   11.97    0.36
  -3   0  -8   11.62    0.37
  -4   0  -8    0.17    0.05
  -4   0  -8    0.38    0.06
  -5   0  -8   13.55    0.42
  -5   0  -8   13.98    0.43
  -6   0  -8   17.48    0.53
  -6   0  -8   17.53    0.53
  -7   0  -8    0.04    0.05
 -14   1   8    0.59    0.08
 -13   1   8    0.19    0.05
 -12   1   8    0.28    0.05
 -11   1   8    0.35    0.06
 -11   1   8    0.49    0.06
 -10   1   8   18.41    0.57
 -10   1   8   19.27    0.54
  -9   1   8    7.91    0.25
  -9   1   8    7.76    0.27
  -8   1   8    0.02    0.02
  -8   1   8   -0.01    0.03
  -7   1   8    6.60    0.20
  -6   1   8   24.77    0.67
   5  -1  -8    0.09    0.02
  -5   1   8    0.13    0.02
   4  -1  -8   20.68    0.55
  -4   1   8   20.23    0.59
  -4   1   8   20.18    0.55
   3  -1  -8   55.64    1.45
  -3   1   8   55.35    1.54
  -3   1   8   54.99    1.47
   2  -1  -8    2.23    0.09
  -2   1   8    2.34    0.10
   1  -1  -8   16.82    0.47
  -1   1   8   16.63    0.48
   0  -1  -8   12.28    0.37
   0  -1  -8   12.80    0.36
   0   1   8   12.96    0.37
  -1  -1  -8   10.82    0.33
  -1  -1  -8   10.93    0.32
  -2  -1  -8    1.66    0.09
  -2  -1  -8    1.73    0.09
  -3  -1  -8    8.94    0.30
  -3  -1  -8    8.97    0.28
  -4  -1  -8    9.75    0.31
  -4  -1  -8    9.52    0.32
  -5  -1  -8    1.80    0.12
  -6  -1  -8    0.42    0.07
  -7  -1  -8    1.44    0.11
 -14   2   8    2.18    0.13
 -13   2   8    3.36    0.15
 -12   2   8    0.05    0.04
 -12   2   8   -0.03    0.04
 -11   2   8   28.99    0.82
 -11   2   8   29.41    0.85
 -10   2   8    1.98    0.11
 -10   2   8    2.16    0.10
  -9   2   8    7.64    0.26
  -9   2   8    7.81    0.24
  -8   2   8   24.68    0.71
  -8   2   8   24.11    0.67
  -7   2   8    0.02    0.02
  -7   2   8    0.06    0.03
   6  -2  -8   52.15    1.43
  -6   2   8   58.03    1.46
   5  -2  -8   44.42    1.16
  -5   2   8   43.48    1.24
  -5   2   8   45.07    1.18
  -4   2   8    0.75    0.06
  -4   2   8    0.82    0.04
   3  -2  -8   48.14    1.23
  -3   2   8   45.45    1.30
  -3   2   8   46.20    1.24
   2  -2  -8    0.10    0.03
  -2   2   8    0.12    0.03
   1  -2  -8    1.88    0.09
  -1   2   8    1.84    0.08
   0  -2  -8    5.71    0.18
   0  -2  -8    5.55    0.19
   0   2   8    5.53    0.18
  -1  -2  -8    9.11    0.29
  -2  -2  -8   17.52    0.51
  -3  -2  -8    0.14    0.05
  -4  -2  -8    6.04    0.23
  -5  -2  -8    0.17    0.05
  -6  -2  -8    1.06    0.09
 -15   3   8    0.01    0.05
 -14   3   8    0.47    0.07
 -13   3   8    1.94    0.11
 -12   3   8    1.96    0.11
 -12   3   8    1.95    0.11
 -11   3   8    3.79    0.15
 -11   3   8    3.78    0.17
 -10   3   8    0.05    0.04
 -10   3   8    0.04    0.03
  -9   3   8    5.29    0.17
  -9   3   8    5.10    0.19
  -8   3   8   26.34    0.72
  -8   3   8   26.27    0.76
  -7   3   8    1.11    0.06
  -7   3   8    1.32    0.08
   6  -3  -8    1.41    0.06
  -6   3   8    1.35    0.06
   5  -3  -8   27.69    0.72
  -5   3   8   26.04    0.72
  -5   3   8   26.89    0.77
   4  -3  -8    4.42    0.14
  -4   3   8    4.15    0.15
  -4   3   8    4.22    0.13
   3  -3  -8    0.67    0.05
  -3   3   8    0.70    0.06
   2  -3  -8    0.88    0.06
  -2   3   8    1.00    0.06
   1  -3  -8   13.42    0.39
  -1   3   8   13.31    0.39
   0  -3  -8   21.10    0.59
   0   3   8   20.61    0.59
  -1  -3  -8    4.37    0.17
  -2  -3  -8    2.07    0.11
  -3  -3  -8    3.69    0.16
  -4  -3  -8    0.08    0.05
  -5  -3  -8    0.07    0.05
  -6  -3  -8    0.78    0.09
 -15   4   8    2.80    0.15
 -14   4   8    0.06    0.05
 -13   4   8    1.16    0.08
 -12   4   8    0.36    0.06
 -12   4   8    0.32    0.05
 -11   4   8    1.91    0.11
 -11   4   8    2.22    0.10
 -10   4   8    6.76    0.22
 -10   4   8    6.67    0.24
  -9   4   8   10.46    0.34
  -9   4   8   10.57    0.31
  -8   4   8    3.06    0.11
  -8   4   8    3.04    0.13
   7  -4  -8   21.08    0.56
  -7   4   8   20.46    0.61
  -7   4   8   20.91    0.57
   6  -4  -8    2.50    0.09
  -6   4   8    2.31    0.11
   5  -4  -8   54.72    1.40
  -5   4   8   52.04    1.49
   4  -4  -8    2.12    0.09
  -4   4   8    1.97    0.10
   3  -4  -8    1.93    0.09
  -3   4   8    1.77    0.09
   2  -4  -8    2.94    0.12
  -2   4   8    2.94    0.12
   1  -4  -8   16.90    0.48
  -1   4   8   16.40    0.48
   0  -4  -8   -0.01    0.03
  -1  -4  -8    7.29    0.25
  -2  -4  -8    6.23    0.23
  -3  -4  -8    5.45    0.21
  -4  -4  -8    0.90    0.09
  -5  -4  -8    0.84    0.09
 -15   5   8    0.52    0.07
 -14   5   8    0.12    0.05
 -13   5   8   -0.03    0.04
 -13   5   8    0.03    0.04
 -12   5   8    3.99    0.17
 -12   5   8    3.99    0.16
 -11   5   8   -0.05    0.04
 -11   5   8   -0.01    0.03
 -10   5   8    4.07    0.14
 -10   5   8    3.62    0.16
  -9   5   8    9.71    0.32
  -8   5   8    1.66    0.10
   7  -5  -8    1.61    0.07
  -7   5   8    1.58    0.09
   6  -5  -8    3.80    0.13
  -6   5   8    3.80    0.15
   5  -5  -8   42.08    1.09
  -5   5   8   40.30    1.16
   4  -5  -8    3.88    0.14
  -4   5   8    3.93    0.15
   3  -5  -8   54.15    1.43
  -3   5   8   53.82    1.50
   2  -5  -8    0.88    0.07
  -2   5   8    0.80    0.07
   1  -5  -8    1.01    0.08
  -1   5   8    1.03    0.07
   0  -5  -8    1.20    0.09
  -1  -5  -8    0.56    0.06
  -2  -5  -8    1.61    0.11
  -3  -5  -8    1.62    0.11
  -4  -5  -8    0.22    0.06
  -5  -5  -8    0.07    0.05
 -13   6   8    3.08    0.15
 -12   6   8    2.62    0.13
 -11   6   8    1.25    0.09
 -10   6   8    3.98    0.17
  -9   6   8   18.58    0.56
   8  -6  -8    5.77    0.18
  -8   6   8    5.50    0.21
   7  -6  -8    0.03    0.02
  -7   6   8   -0.02    0.03
   6  -6  -8   30.35    0.82
  -6   6   8   30.55    0.88
   5  -6  -8   43.56    1.17
  -5   6   8   44.08    1.24
   4  -6  -8    3.59    0.14
  -4   6   8    3.61    0.14
   3  -6  -8    1.21    0.08
  -3   6   8    1.09    0.08
   2  -6  -8    2.15    0.11
  -2   6   8    2.01    0.10
   1  -6  -8    7.69    0.26
  -1   6   8    7.62    0.25
   0  -6  -8    0.38    0.06
  -1  -6  -8    0.06    0.04
  -2  -6  -8   -0.03    0.04
  -3  -6  -8    0.02    0.05
  -4  -6  -8    0.26    0.07
 -13   7   8    0.03    0.05
 -12   7   8    2.27    0.13
 -11   7   8    3.97    0.17
 -10   7   8    5.12    0.20
  -9   7   8    0.26    0.05
   8  -7  -8   10.09    0.30
  -8   7   8   10.07    0.33
   7  -7  -8   20.91    0.58
  -7   7   8   21.25    0.63
   6  -7  -8    1.73    0.09
  -6   7   8    1.72    0.10
   5  -7  -8    0.69    0.06
  -5   7   8    0.62    0.06
   4  -7  -8   11.76    0.36
  -4   7   8   12.43    0.38
   3  -7  -8    3.34    0.14
  -3   7   8    3.42    0.14
   2  -7  -8    0.10    0.04
  -2   7   8    0.15    0.05
   1  -7  -8   -0.01    0.03
   0  -7  -8    0.20    0.05
  -1  -7  -8    5.91    0.23
  -2  -7  -8    1.44    0.11
  -3  -7  -8    6.46    0.26
 -13   8   8   -0.06    0.05
 -12   8   8    3.29    0.16
 -11   8   8    1.73    0.11
 -10   8   8   14.79    0.47
  -9   8   8    9.46    0.32
   8  -8  -8    0.35    0.04
  -8   8   8    0.39    0.06
   7  -8  -8    9.75    0.30
  -7   8   8    9.97    0.33
   6  -8  -8    5.68    0.19
  -6   8   8    5.67    0.21
   5  -8  -8    2.66    0.12
  -5   8   8    2.56    0.13
   4  -8  -8    0.67    0.07
  -4   8   8    0.78    0.08
   3  -8  -8    1.32    0.09
  -3   8   8    1.24    0.10
   2  -8  -8    3.14    0.14
  -2   8   8    3.08    0.15
   1  -8  -8    3.89    0.17
   0  -8  -8    0.83    0.08
  -1  -8  -8    4.14    0.19
  -2  -8  -8    9.03    0.33
 -14   9   8    0.29    0.07
 -13   9   8    1.90    0.13
 -12   9   8    6.83    0.26
 -11   9   8    3.22    0.16
 -10   9   8    1.58    0.11
   9  -9  -8    3.20    0.13
  -9   9   8    3.25    0.15
   8  -9  -8    2.38    0.11
  -8   9   8    2.37    0.13
   7  -9  -8    3.00    0.13
  -7   9   8    3.00    0.15
   6  -9  -8    6.31    0.22
  -6   9   8    6.44    0.24
   5  -9  -8    0.45    0.06
  -5   9   8    0.49    0.07
   4  -9  -8    5.38    0.20
  -4   9   8    5.77    0.22
   3  -9  -8    3.66    0.16
  -3   9   8    3.83    0.17
   2  -9  -8    0.55    0.07
  -2   9   8    0.46    0.08
   1  -9  -8    5.55    0.22
   0  -9  -8    1.18    0.10
  -1  -9  -8    0.04    0.05
 -14  10   8    0.93    0.11
 -13  10   8    1.59    0.13
 -12  10   8    0.59    0.08
 -11  10   8    3.39    0.17
 -10  10   8   11.49    0.39
   9 -10  -8    1.18    0.08
  -9  10   8    1.08    0.10
   8 -10  -8   13.73    0.41
  -8  10   8   13.92    0.45
   7 -10  -8    0.02    0.03
  -7  10   8   -0.01    0.05
   6 -10  -8    4.85    0.18
  -6  10   8    5.02    0.21
   5 -10  -8    0.57    0.06
  -5  10   8    0.45    0.07
   4 -10  -8    0.23    0.05
  -4  10   8    0.13    0.07
   3 -10  -8    3.24    0.15
  -3  10   8    3.06    0.17
   2 -10  -8    1.55    0.11
   1 -10  -8    2.68    0.15
   0 -10  -8    1.30    0.11
 -14  11   8    0.39    0.09
 -13  11   8    0.52    0.09
 -12  11   8    1.68    0.14
 -11  11   8    0.56    0.09
 -10  11   8    3.69    0.18
   9 -11  -8    1.47    0.09
  -9  11   8    1.26    0.12
   8 -11  -8    3.55    0.15
  -8  11   8    3.32    0.17
   7 -11  -8    0.07    0.04
  -7  11   8   -0.03    0.06
   6 -11  -8    0.09    0.04
  -6  11   8    0.00    0.06
   5 -11  -8    5.87    0.22
  -5  11   8    5.77    0.25
   4 -11  -8    0.16    0.05
  -4  11   8    0.00    0.07
   3 -11  -8    0.45    0.07
  -3  11   8    0.40    0.09
   2 -11  -8    2.14    0.13
 -12  12   8   17.21    0.57
 -11  12   8    3.81    0.20
  10 -12  -8    1.23    0.09
 -10  12   8    1.09    0.11
   9 -12  -8    0.03    0.04
  -9  12   8   -0.05    0.07
   8 -12  -8    1.07    0.08
  -8  12   8    1.03    0.11
   7 -12  -8    1.94    0.11
  -7  12   8    1.95    0.15
   6 -12  -8    0.45    0.07
  -6  12   8    0.35    0.09
   5 -12  -8    6.39    0.24
  -5  12   8    6.75    0.28
   4 -12  -8    2.14    0.13
  -4  12   8    1.92    0.16
   3 -12  -8    0.99    0.09
  10 -13  -8    1.32    0.09
 -10  13   8    1.39    0.14
   9 -13  -8    0.14    0.05
  -9  13   8    0.09    0.08
   8 -13  -8    3.20    0.15
  -8  13   8    3.37    0.20
   7 -13  -8    1.56    0.10
  -7  13   8    1.25    0.13
   6 -13  -8    0.21    0.06
  -6  13   8    0.03    0.09
  -5  13   8    0.94    0.12
  -4  13   8   -0.04    0.08
   0 -14   9    0.01    0.05
   1 -14   9    0.06    0.05
  -2  14  -9    1.29    0.13
   2 -14   9    1.16    0.09
   2 -14   9    1.37    0.11
  -3  14  -9    0.21    0.07
   3 -14   9    0.17    0.05
  -3 -13   9    0.31    0.06
   2  13  -9    0.00    0.06
  -2 -13   9    0.00    0.04
   1  13  -9    2.43    0.16
  -1 -13   9    2.31    0.12
   0  13  -9    0.58    0.09
   0 -13   9    0.68    0.08
  -1  13  -9    0.15    0.06
   1 -13   9    0.10    0.06
   1 -13   9    0.11    0.04
  -2  13  -9    1.73    0.13
   2 -13   9    1.67    0.10
   2 -13   9    1.50    0.12
  -3  13  -9    8.26    0.32
   3 -13   9    8.56    0.28
   4 -13   9    0.54    0.07
   5 -13   9    0.51    0.08
   4  12  -9    1.48    0.13
  -4 -12   9    1.30    0.09
   3  12  -9    0.13    0.07
  -3 -12   9    0.23    0.05
   2  12  -9    0.04    0.06
  -2 -12   9    0.00    0.04
   1  12  -9    0.07    0.06
  -1 -12   9   -0.04    0.04
   0  12  -9    0.38    0.08
   0 -12   9    0.32    0.06
  -1  12  -9    8.39    0.31
   1 -12   9    8.09    0.27
   1 -12   9    8.33    0.29
  -2  12  -9    2.59    0.15
   2 -12   9    2.73    0.13
  -3  12  -9   10.41    0.37
   3 -12   9   11.01    0.34
   4 -12   9    1.02    0.09
   5 -12   9    4.31    0.18
   6 -12   9    0.43    0.07
   6  11  -9    0.18    0.07
  -6 -11   9    0.19    0.05
   5  11  -9    3.64    0.20
  -5 -11   9    3.53    0.16
   4  11  -9    0.24    0.07
  -4 -11   9    0.26    0.06
   3  11  -9    0.04    0.06
  -3 -11   9    0.06    0.04
   2  11  -9    0.12    0.06
  -2 -11   9    0.08    0.04
   1  11  -9    2.09    0.14
  -1 -11   9    2.22    0.12
   0  11  -9    0.58    0.08
   0 -11   9    0.44    0.07
   0 -11   9    0.59    0.06
  -1  11  -9    0.34    0.07
   1 -11   9    0.33    0.05
   1 -11   9    0.33    0.06
  -2  11  -9    1.21    0.11
   2 -11   9    1.35    0.09
  -3  11  -9    0.17    0.06
   3 -11   9    0.16    0.05
   4 -11   9    1.97    0.11
   5 -11   9    0.11    0.05
   6 -11   9    0.07    0.06
   7  10  -9    0.78    0.10
  -7 -10   9    0.81    0.08
   6  10  -9    0.83    0.10
  -6 -10   9    0.92    0.08
   5  10  -9    0.22    0.07
  -5 -10   9    0.29    0.05
   4  10  -9    0.01    0.06
  -4 -10   9    0.02    0.04
   3  10  -9    1.30    0.11
  -3 -10   9    1.39    0.09
   2  10  -9    0.50    0.08
  -2 -10   9    0.77    0.07
   1  10  -9    0.20    0.06
  -1 -10   9    0.13    0.04
  -1 -10   9    0.16    0.05
   0  10  -9    1.33    0.11
   0 -10   9    1.28    0.08
   0 -10   9    1.24    0.09
  -1  10  -9    4.54    0.20
   1 -10   9    4.50    0.17
  -2  10  -9    0.06    0.05
   2 -10   9   -0.02    0.04
  -3  10  -9   -0.04    0.04
   3 -10   9    0.00    0.04
   4 -10   9    3.12    0.14
   5 -10   9    0.18    0.06
  -6  10  -9   -0.04    0.06
   6 -10   9   -0.01    0.05
  -7  10  -9    0.07    0.07
   7 -10   9    0.16    0.06
  -8  -9   9    0.16    0.05
   7   9  -9    0.52    0.09
  -7  -9   9    0.38    0.06
   6   9  -9    1.09    0.11
  -6  -9   9    0.98    0.08
   5   9  -9    0.47    0.08
  -5  -9   9    0.46    0.06
   4   9  -9    0.09    0.06
  -4  -9   9    0.03    0.04
   3   9  -9    2.07    0.13
  -3  -9   9    1.89    0.10
   2   9  -9    1.05    0.10
  -2  -9   9    1.13    0.08
   1   9  -9    3.99    0.18
  -1  -9   9    4.05    0.14
  -1  -9   9    4.14    0.17
   0   9  -9    0.60    0.07
   0  -9   9    0.57    0.06
  -1   9  -9    2.90    0.15
   1  -9   9    2.87    0.12
  -2   9  -9    1.42    0.10
   2  -9   9    1.27    0.08
   3  -9   9    1.74    0.10
   4  -9   9   -0.04    0.04
  -5   9  -9    0.46    0.07
   5  -9   9    0.48    0.07
  -6   9  -9    8.84    0.32
   6  -9   9    9.01    0.31
  -7   9  -9    0.25    0.07
   7  -9   9    0.30    0.07
  -9  -8   9    1.23    0.10
  -8  -8   9    2.22    0.12
   7   8  -9    4.96    0.22
  -7  -8   9    4.55    0.18
   6   8  -9    0.07    0.06
  -6  -8   9    0.12    0.04
   5   8  -9    0.09    0.06
  -5  -8   9    0.06    0.04
   4   8  -9   21.36    0.67
  -4  -8   9   21.90    0.62
   3   8  -9    7.44    0.28
  -3  -8   9    7.32    0.25
   2   8  -9    0.65    0.08
  -2  -8   9    0.53    0.06
   1   8  -9    7.85    0.29
  -1  -8   9    8.10    0.24
  -1  -8   9    7.99    0.27
   0   8  -9    3.55    0.16
   0  -8   9    3.63    0.14
  -1   8  -9    5.80    0.22
   1  -8   9    5.60    0.19
  -2   8  -9    0.96    0.09
   2  -8   9    0.75    0.07
   3  -8   9    9.57    0.31
  -4   8  -9    6.30    0.24
   4  -8   9    6.74    0.24
  -5   8  -9    2.06    0.13
   5  -8   9    2.07    0.12
  -6   8  -9    0.05    0.06
   6  -8   9    0.02    0.05
  -7   8  -9    4.61    0.21
   7  -8   9    4.29    0.19
 -10  -7   9    0.21    0.06
  -9  -7   9    0.36    0.06
  -8  -7   9    1.12    0.09
   7   7  -9    0.38    0.07
  -7  -7   9    0.37    0.06
   6   7  -9    4.54    0.20
  -6  -7   9    4.45    0.17
   5   7  -9    3.64    0.18
  -5  -7   9    3.80    0.15
   4   7  -9    6.51    0.25
  -4  -7   9    6.31    0.22
   3   7  -9   11.90    0.39
  -3  -7   9   11.44    0.36
   2   7  -9    0.47    0.06
  -2  -7   9    0.40    0.05
  -2  -7   9    0.39    0.04
   1   7  -9    2.08    0.12
  -1  -7   9    1.91    0.09
   0   7  -9    5.97    0.23
   0  -7   9    6.35    0.20
  -1   7  -9   13.93    0.44
   1  -7   9   13.88    0.41
  -2   7  -9    0.03    0.04
   2  -7   9    0.01    0.04
  -3   7  -9    0.05    0.05
   3  -7   9   -0.01    0.04
  -4   7  -9    0.14    0.05
   4  -7   9    0.09    0.05
  -5   7  -9    3.65    0.17
   5  -7   9    3.57    0.16
  -6   7  -9    0.04    0.06
   6  -7   9    0.08    0.05
  -7   7  -9    6.92    0.27
   7  -7   9    6.89    0.26
  -8   7  -9    0.60    0.09
   8  -7   9    0.68    0.09
 -10  -6   9    1.94    0.12
  -9  -6   9    2.25    0.12
  -8  -6   9   12.19    0.38
  -7  -6   9    1.38    0.09
   6   6  -9    3.89    0.18
  -6  -6   9    3.53    0.15
   5   6  -9    9.77    0.33
  -5  -6   9    9.32    0.30
   4   6  -9    0.11    0.05
  -4  -6   9    0.11    0.04
   3   6  -9    8.20    0.29
  -3  -6   9    8.02    0.26
   2   6  -9    0.34    0.06
  -2  -6   9    0.44    0.04
  -2  -6   9    0.35    0.05
   1   6  -9    9.85    0.32
  -1  -6   9    9.44    0.28
   0   6  -9    5.99    0.22
   0  -6   9    6.06    0.20
  -1   6  -9    1.58    0.10
   1  -6   9    1.46    0.09
  -2   6  -9    4.58    0.18
  -2   6  -9    4.81    0.18
   2  -6   9    4.63    0.18
  -3   6  -9    0.51    0.07
   3  -6   9    0.55    0.06
  -4   6  -9    0.08    0.05
   4  -6   9    0.11    0.05
  -5   6  -9    1.94    0.12
   5  -6   9    2.26    0.13
  -6   6  -9    0.46    0.08
   6  -6   9    0.50    0.07
  -7   6  -9    0.30    0.07
   7  -6   9    0.35    0.07
  -8   6  -9    6.06    0.25
   8  -6   9    5.92    0.24
 -11  -5   9    0.08    0.05
 -10  -5   9    2.92    0.14
  -9  -5   9    0.50    0.06
  -8  -5   9    1.20    0.08
  -7  -5   9   13.12    0.40
  -6  -5   9    2.00    0.10
   5   5  -9    5.53    0.22
  -5  -5   9    5.76    0.20
   4   5  -9   14.04    0.45
  -4  -5   9   13.98    0.41
   3   5  -9    1.38    0.10
  -3  -5   9    1.64    0.09
  -3  -5   9    1.50    0.07
   2   5  -9   -0.02    0.04
  -2  -5   9    0.03    0.03
  -2  -5   9    0.00    0.03
   1   5  -9    0.02    0.04
  -1  -5   9   -0.03    0.03
   0   5  -9    6.55    0.23
   0  -5   9    6.88    0.22
  -1   5  -9    0.14    0.04
   1  -5   9    0.18    0.04
  -2   5  -9    2.63    0.13
   2  -5   9    2.47    0.12
  -3   5  -9    0.50    0.07
   3  -5   9    0.36    0.06
  -4   5  -9    7.03    0.25
   4  -5   9    6.79    0.25
  -5   5  -9   -0.06    0.04
   5  -5   9   -0.02    0.04
  -6   5  -9    1.07    0.10
   6  -5   9    1.12    0.09
  -7   5  -9   -0.02    0.05
   7  -5   9    0.00    0.05
  -8   5  -9    2.52    0.15
   8  -5   9    2.29    0.14
 -12  -4   9   -0.06    0.04
 -11  -4   9   -0.01    0.04
 -10  -4   9    4.61    0.18
  -9  -4   9    3.03    0.14
  -8  -4   9    0.15    0.04
  -7  -4   9    1.77    0.09
  -6  -4   9    0.16    0.04
  -5  -4   9    2.96    0.12
  -4  -4   9    1.08    0.07
  -3  -4   9    3.91    0.13
  -3  -4   9    4.04    0.15
  -2  -4   9   12.50    0.35
  -1  -4   9    0.35    0.04
   0  -4   9   13.43    0.39
  -1   4  -9    0.85    0.08
   1  -4   9    0.83    0.07
  -2   4  -9   11.88    0.37
   2  -4   9   12.01    0.37
  -3   4  -9    5.02    0.19
   3  -4   9    4.83    0.19
  -4   4  -9    5.75    0.22
   4  -4   9    5.89    0.22
  -5   4  -9    2.23    0.13
   5  -4   9    2.33    0.13
  -6   4  -9    4.77    0.20
   6  -4   9    5.03    0.21
  -7   4  -9    5.80    0.23
   7  -4   9    5.32    0.22
  -8   4  -9    0.04    0.06
 -12  -3   9    2.84    0.15
 -11  -3   9    0.31    0.06
 -10  -3   9    0.92    0.08
  -9  -3   9    3.05    0.13
  -8  -3   9    5.32    0.19
  -7  -3   9    1.87    0.09
  -6  -3   9    5.62    0.19
  -5  -3   9   12.16    0.36
  -4  -3   9    0.73    0.06
  -3  -3   9    0.40    0.04
  -3  -3   9    0.41    0.05
  -2  -3   9    1.02    0.06
  -1  -3   9    0.97    0.07
  -1   3  -9    3.88    0.15
  -2   3  -9    5.37    0.20
  -2   3  -9    5.70    0.20
  -3   3  -9    1.65    0.10
  -3   3  -9    1.65    0.10
  -4   3  -9    1.38    0.10
  -5   3  -9    0.21    0.06
  -6   3  -9    0.03    0.05
   6  -3   9    0.04    0.05
  -7   3  -9   -0.01    0.05
   7  -3   9   -0.03    0.05
  -8   3  -9    3.34    0.17
 -13  -2   9    0.17    0.06
 -12  -2   9    0.10    0.05
 -11  -2   9    8.26    0.28
 -10  -2   9   10.50    0.33
  -9  -2   9    3.49    0.14
  -8  -2   9    4.19    0.15
  -7  -2   9    3.64    0.14
  -6  -2   9    3.42    0.13
  -5  -2   9    0.04    0.03
  -4  -2   9    5.14    0.17
  -4  -2   9    5.26    0.16
  -3  -2   9   11.46    0.33
  -3  -2   9   11.21    0.32
   2   2  -9   27.23    0.73
   1   2  -9    4.36    0.15
   0   2  -9    0.00    0.03
  -1   2  -9   13.13    0.39
  -1   2  -9   13.25    0.39
  -2   2  -9    0.18    0.04
  -2   2  -9    0.20    0.05
  -3   2  -9    0.93    0.07
  -3   2  -9    0.94    0.08
  -4   2  -9   12.21    0.39
  -4   2  -9   12.47    0.39
  -5   2  -9    0.55    0.07
  -5   2  -9    0.59    0.07
  -6   2  -9    6.21    0.24
  -6   2  -9    6.22    0.24
  -7   2  -9    0.12    0.06
  -8   2  -9    0.04    0.06
 -13  -1   9    4.43    0.19
 -12  -1   9    0.09    0.05
 -11  -1   9   10.99    0.35
 -10  -1   9    6.43    0.22
  -9  -1   9    4.30    0.16
  -8  -1   9    1.64    0.08
  -7  -1   9    3.73    0.14
  -6  -1   9   39.71    1.08
  -5  -1   9    1.54    0.07
   4   1  -9    1.79    0.07
  -4  -1   9    1.84    0.08
   3   1  -9   11.77    0.33
  -3  -1   9   11.90    0.34
   2   1  -9    0.04    0.03
   1   1  -9    2.20    0.10
   0   1  -9   39.82    1.07
   0   1  -9   39.81    1.08
  -1   1  -9   38.63    1.04
  -1   1  -9   37.33    1.03
  -2   1  -9    0.43    0.05
  -2   1  -9    0.47    0.06
  -3   1  -9    5.46    0.21
  -3   1  -9    5.78    0.20
  -4   1  -9    3.84    0.17
  -4   1  -9    3.67    0.16
  -5   1  -9    0.10    0.05
  -5   1  -9    0.05    0.05
  -6   1  -9    1.30    0.10
  -6   1  -9    1.30    0.10
  -7   1  -9    1.34    0.11
 -14   0   9    1.40    0.11
 -13   0   9    2.63    0.14
 -12   0   9    0.43    0.07
 -12   0   9    0.36    0.06
 -11   0   9    1.06    0.08
 -11   0   9    0.93    0.09
 -10   0   9    1.32    0.08
  -9   0   9    0.88    0.07
  -8   0   9   10.69    0.32
  -7   0   9    1.87    0.08
  -6   0   9    5.76    0.18
  -5   0   9   25.57    0.70
   4   0  -9    3.38    0.11
  -4   0   9    3.16    0.12
   3   0  -9    1.62    0.08
  -3   0   9    1.60    0.08
   2   0  -9   31.05    0.83
  -2   0   9   30.53    0.87
   1   0  -9   34.43    0.92
  -1   0   9   34.01    0.96
   0   0  -9    0.94    0.07
   0   0  -9    1.11    0.07
   0   0   9    0.83    0.06
  -1   0  -9    2.55    0.12
  -1   0  -9    2.73    0.12
  -2   0  -9    1.28    0.09
  -2   0  -9    1.29    0.09
  -3   0  -9    2.00    0.11
  -3   0  -9    2.00    0.11
  -4   0  -9    0.02    0.04
  -4   0  -9   -0.08    0.04
  -5   0  -9    1.19    0.10
  -6   0  -9    0.25    0.06
 -14   1   9    1.49    0.11
 -13   1   9    1.75    0.11
 -12   1   9    1.45    0.09
 -12   1   9    1.45    0.11
 -11   1   9   21.39    0.60
 -11   1   9   20.16    0.63
 -10   1   9   24.53    0.69
 -10   1   9   24.67    0.73
  -9   1   9    0.40    0.04
  -9   1   9    0.22    0.05
  -8   1   9    0.61    0.05
  -8   1   9    0.74    0.07
  -7   1   9   11.11    0.33
  -7   1   9   11.83    0.36
  -6   1   9    0.23    0.04
  -6   1   9    0.28    0.03
   5  -1  -9    2.62    0.09
  -5   1   9    2.60    0.10
  -5   1   9    2.49    0.12
   4  -1  -9   24.63    0.64
  -4   1   9   23.00    0.65
  -4   1   9   23.75    0.69
   3  -1  -9   27.57    0.74
  -3   1   9   27.60    0.78
  -3   1   9   26.54    0.74
   2  -1  -9    2.97    0.12
  -2   1   9    3.04    0.12
   1  -1  -9   13.67    0.40
  -1   1   9   13.81    0.41
   0  -1  -9    0.79    0.07
   0  -1  -9    0.85    0.06
   0   1   9    0.87    0.06
  -1  -1  -9    3.33    0.14
  -1  -1  -9    3.38    0.13
  -2  -1  -9    0.16    0.04
  -3  -1  -9    5.51    0.21
  -4  -1  -9    5.69    0.22
  -5  -1  -9    8.91    0.32
  -6  -1  -9    1.48    0.12
 -14   2   9    0.23    0.06
 -13   2   9    2.32    0.12
 -12   2   9    2.45    0.13
 -12   2   9    2.56    0.12
 -11   2   9    5.30    0.19
 -11   2   9    5.13    0.20
 -10   2   9    3.04    0.14
 -10   2   9    3.15    0.13
  -9   2   9    6.58    0.24
  -9   2   9    6.52    0.21
  -8   2   9    0.26    0.05
  -8   2   9    0.19    0.03
  -7   2   9    2.54    0.12
  -7   2   9    2.53    0.10
  -6   2   9   33.93    0.96
  -6   2   9   33.05    0.90
   5  -2  -9   52.35    1.37
  -5   2   9   51.96    1.39
  -5   2   9   52.30    1.46
   4  -2  -9    0.29    0.04
  -4   2   9    0.24    0.04
  -4   2   9    0.29    0.03
   3  -2  -9   16.48    0.46
  -3   2   9   16.19    0.48
  -3   2   9   16.40    0.45
   2  -2  -9    5.17    0.18
  -2   2   9    5.24    0.18
   1  -2  -9    0.36    0.05
  -1   2   9    0.27    0.04
   0  -2  -9    2.47    0.12
  -1  -2  -9    0.00    0.03
  -2  -2  -9    1.90    0.11
  -3  -2  -9    2.26    0.12
  -4  -2  -9    6.92    0.26
  -5  -2  -9    0.41    0.07
 -15   3   9    2.67    0.14
 -14   3   9    2.32    0.13
 -13   3   9    1.81    0.11
 -13   3   9    1.88    0.12
 -12   3   9   -0.01    0.04
 -12   3   9    0.03    0.04
 -11   3   9    2.35    0.13
 -11   3   9    2.44    0.11
 -10   3   9    4.32    0.15
 -10   3   9    4.45    0.18
  -9   3   9    1.57    0.10
  -9   3   9    1.50    0.08
  -8   3   9    1.13    0.08
  -8   3   9    0.99    0.06
  -7   3   9    5.71    0.21
  -7   3   9    6.20    0.18
   6  -3  -9    4.61    0.15
  -6   3   9    4.49    0.14
  -6   3   9    4.61    0.17
   5  -3  -9    6.49    0.20
  -5   3   9    6.26    0.22
   4  -3  -9   28.13    0.76
  -4   3   9   27.67    0.80
   3  -3  -9    5.72    0.19
  -3   3   9    5.88    0.20
   2  -3  -9    0.01    0.03
  -2   3   9   -0.01    0.03
   1  -3  -9    3.44    0.14
  -1   3   9    3.70    0.13
   0  -3  -9    0.34    0.05
  -1  -3  -9    0.23    0.04
  -2  -3  -9    0.22    0.05
  -3  -3  -9   -0.06    0.04
  -4  -3  -9    0.00    0.04
  -5  -3  -9    0.03    0.05
 -15   4   9   -0.05    0.05
 -14   4   9    0.27    0.06
 -13   4   9    0.25    0.06
 -13   4   9    0.28    0.05
 -12   4   9   -0.02    0.04
 -12   4   9   -0.05    0.03
 -11   4   9    0.58    0.06
 -11   4   9    0.60    0.07
 -10   4   9   13.35    0.43
 -10   4   9   13.82    0.40
  -9   4   9    0.77    0.08
  -8   4   9    2.71    0.13
  -7   4   9   24.77    0.72
   6  -4  -9    7.83    0.23
  -6   4   9    7.26    0.25
   5  -4  -9    3.26    0.13
  -5   4   9    3.63    0.14
   4  -4  -9    3.74    0.14
  -4   4   9    3.97    0.15
   3  -4  -9    0.58    0.06
  -3   4   9    0.69    0.06
   2  -4  -9    0.28    0.04
  -2   4   9    0.29    0.04
   1  -4  -9    1.20    0.08
  -1   4   9    1.27    0.08
   0  -4  -9    0.41    0.06
  -1  -4  -9    5.69    0.21
  -2  -4  -9    0.98    0.09
  -3  -4  -9    1.49    0.11
  -4  -4  -9    0.88    0.09
 -13   5   9    6.99    0.26
 -12   5   9    0.02    0.04
 -11   5   9    5.87    0.22
 -10   5   9   11.90    0.38
  -9   5   9    9.21    0.31
  -8   5   9    4.04    0.16
   7  -5  -9   10.20    0.29
  -7   5   9    9.98    0.33
   6  -5  -9   11.80    0.33
  -6   5   9   11.03    0.36
   5  -5  -9    7.37    0.23
  -5   5   9    7.09    0.24
   4  -5  -9   11.95    0.35
  -4   5   9   11.57    0.36
   3  -5  -9    1.16    0.08
  -3   5   9    1.00    0.07
   2  -5  -9    3.11    0.13
  -2   5   9    2.98    0.13
   1  -5  -9    0.40    0.06
   0  -5  -9    0.05    0.04
  -1  -5  -9    1.57    0.11
  -2  -5  -9    3.10    0.15
  -3  -5  -9   -0.02    0.04
  -4  -5  -9    0.11    0.06
 -13   6   9    2.24    0.13
 -12   6   9   15.25    0.48
 -11   6   9    0.24    0.06
 -10   6   9    2.47    0.13
  -9   6   9    9.61    0.32
  -8   6   9    0.06    0.04
   7  -6  -9    3.69    0.14
  -7   6   9    3.69    0.15
   6  -6  -9    1.94    0.09
  -6   6   9    1.83    0.10
   5  -6  -9    2.53    0.11
  -5   6   9    2.46    0.12
   4  -6  -9    2.28    0.11
  -4   6   9    2.06    0.11
   3  -6  -9    0.29    0.05
  -3   6   9    0.31    0.05
   2  -6  -9    2.26    0.12
  -2   6   9    2.25    0.11
   1  -6  -9   11.17    0.36
   0  -6  -9    3.98    0.17
  -1  -6  -9    4.59    0.20
  -2  -6  -9    0.28    0.06
  -3  -6  -9    5.77    0.24
 -14   7   9    9.64    0.34
 -13   7   9    0.90    0.09
 -12   7   9    1.97    0.12
 -11   7   9    5.08    0.21
 -10   7   9    3.17    0.15
  -9   7   9   -0.03    0.04
   8  -7  -9    2.31    0.10
  -8   7   9    2.44    0.12
   7  -7  -9    4.31    0.15
  -7   7   9    4.14    0.17
   6  -7  -9    8.06    0.25
  -6   7   9    7.68    0.27
   5  -7  -9    2.42    0.11
  -5   7   9    2.56    0.12
   4  -7  -9    0.86    0.07
  -4   7   9    0.88    0.08
   3  -7  -9    3.06    0.14
  -3   7   9    2.86    0.13
   2  -7  -9    0.05    0.04
  -2   7   9   -0.06    0.04
   1  -7  -9    0.06    0.04
   0  -7  -9    0.48    0.07
  -1  -7  -9    8.10    0.29
  -2  -7  -9    7.28    0.28
 -14   8   9    2.44    0.15
 -13   8   9    0.12    0.06
 -12   8   9    5.63    0.23
 -11   8   9    0.00    0.05
 -10   8   9    4.10    0.18
  -9   8   9   -0.02    0.04
   8  -8  -9    1.56    0.08
  -8   8   9    1.62    0.10
   7  -8  -9    3.28    0.13
  -7   8   9    3.31    0.15
   6  -8  -9    1.88    0.10
  -6   8   9    1.80    0.11
   5  -8  -9    7.89    0.26
  -5   8   9    7.86    0.27
   4  -8  -9    0.76    0.07
  -4   8   9    0.81    0.08
   3  -8  -9    2.34    0.12
  -3   8   9    2.49    0.13
   2  -8  -9    2.87    0.14
   1  -8  -9    9.76    0.33
   0  -8  -9   16.93    0.53
  -1  -8  -9    5.13    0.22
 -14   9   9    0.16    0.07
 -13   9   9    6.22    0.25
 -12   9   9    1.88    0.13
 -11   9   9    0.05    0.05
 -10   9   9    0.11    0.06
  -9   9   9    0.02    0.05
   8  -9  -9    7.31    0.24
  -8   9   9    7.61    0.27
   7  -9  -9    2.73    0.13
  -7   9   9    2.99    0.15
   6  -9  -9    0.32    0.05
  -6   9   9    0.36    0.06
   5  -9  -9    1.00    0.08
  -5   9   9    0.79    0.08
   4  -9  -9    0.55    0.07
  -4   9   9    0.48    0.08
   3  -9  -9   13.34    0.42
  -3   9   9   13.76    0.44
   2  -9  -9    3.04    0.15
   1  -9  -9   26.03    0.76
   0  -9  -9    7.52    0.29
 -14  10   9   -0.02    0.06
 -13  10   9    0.54    0.09
 -12  10   9    0.08    0.06
 -11  10   9   -0.05    0.05
 -10  10   9    2.00    0.13
   9 -10  -9    0.28    0.05
  -9  10   9    0.19    0.06
   8 -10  -9    2.16    0.11
  -8  10   9    1.99    0.13
   7 -10  -9    4.20    0.17
  -7  10   9    4.36    0.19
   6 -10  -9   10.06    0.32
  -6  10   9    9.83    0.34
   5 -10  -9    5.34    0.20
  -5  10   9    5.08    0.22
   4 -10  -9    2.24    0.12
  -4  10   9    2.13    0.14
   3 -10  -9   11.07    0.37
  -3  10   9   11.61    0.40
   2 -10  -9    6.19    0.24
   1 -10  -9    0.04    0.05
 -13  11   9   -0.11    0.06
 -12  11   9    5.49    0.24
 -11  11   9    0.71    0.09
 -10  11   9    0.27    0.07
   9 -11  -9    0.15    0.04
  -9  11   9    0.20    0.07
   8 -11  -9   12.19    0.38
  -8  11   9   12.37    0.42
   7 -11  -9    0.37    0.06
  -7  11   9    0.19    0.07
   6 -11  -9    0.23    0.05
  -6  11   9    0.10    0.08
   5 -11  -9    9.31    0.32
  -5  11   9    9.85    0.35
   4 -11  -9    5.22    0.21
  -4  11   9    5.01    0.23
   3 -11  -9   -0.01    0.05
 -11  12   9    0.03    0.08
 -10  12   9    0.05    0.07
   9 -12  -9    0.12    0.04
  -9  12   9   -0.01    0.07
   8 -12  -9    0.29    0.06
  -8  12   9    0.21    0.08
   7 -12  -9    5.99    0.23
  -7  12   9    6.07    0.26
   6 -12  -9    3.91    0.17
  -6  12   9    3.71    0.20
   5 -12  -9    0.70    0.08
  -5  12   9    0.63    0.11
  -4  12   9    5.82    0.26
   9 -13  -9    0.17    0.05
   8 -13  -9    0.35    0.06
   7 -13  -9    0.02    0.05
   1  13 -10    2.18    0.15
  -1 -13  10    2.13    0.13
   0  13 -10    5.10    0.24
   0 -13  10    5.23    0.21
  -1  13 -10    1.45    0.13
   1 -13  10    1.67    0.12
  -2  13 -10    0.08    0.06
   2 -13  10    0.02    0.05
   2 -13  10    0.01    0.06
   3 -13  10    7.02    0.25
  -4 -12  10    3.22    0.15
   3  12 -10    0.08    0.07
  -3 -12  10    0.01    0.05
   2  12 -10    4.23    0.21
  -2 -12  10    4.32    0.18
   1  12 -10   -0.03    0.06
  -1 -12  10   -0.01    0.05
   0  12 -10    0.13    0.06
   0 -12  10    0.14    0.06
  -1  12 -10    1.17    0.11
   1 -12  10    1.09    0.10
   1 -12  10    1.06    0.09
  -2  12 -10    0.29    0.07
   2 -12  10    0.28    0.06
   3 -12  10    1.52    0.10
   4 -12  10    1.70    0.11
   5 -12  10   -0.02    0.05
   5  11 -10    0.07    0.06
  -5 -11  10    0.04    0.04
   4  11 -10    3.72    0.20
  -4 -11  10    3.60    0.16
   3  11 -10    1.64    0.13
  -3 -11  10    1.68    0.11
   2  11 -10    0.15    0.06
  -2 -11  10    0.16    0.05
   1  11 -10    0.13    0.06
  -1 -11  10    0.08    0.05
   0  11 -10    0.71    0.09
   0 -11  10    0.64    0.08
  -1  11 -10    4.30    0.20
   1 -11  10    4.30    0.17
   1 -11  10    4.29    0.18
  -2  11 -10    2.53    0.15
   2 -11  10    2.67    0.13
   3 -11  10    0.43    0.07
   4 -11  10    2.43    0.13
   5 -11  10    2.75    0.15
   7  10 -10    0.10    0.07
   6  10 -10    2.75    0.17
  -6 -10  10    2.48    0.13
   5  10 -10    6.66    0.28
  -5 -10  10    6.57    0.24
   4  10 -10    1.51    0.13
  -4 -10  10    1.45    0.10
   3  10 -10    0.72    0.09
  -3 -10  10    0.71    0.07
   2  10 -10    4.46    0.21
  -2 -10  10    4.34    0.18
   1  10 -10    0.70    0.09
  -1 -10  10    0.68    0.07
   0  10 -10    0.28    0.06
   0 -10  10    0.35    0.06
   0 -10  10    0.25    0.05
  -1  10 -10    2.24    0.13
   1 -10  10    2.22    0.11
  -2  10 -10    4.29    0.19
   2 -10  10    4.20    0.17
   3 -10  10    0.25    0.06
   4 -10  10   -0.04    0.04
   5 -10  10    0.11    0.05
  -6  10 -10    0.58    0.09
   6 -10  10    0.68    0.08
  -8  -9  10    1.36    0.10
   7   9 -10    2.34    0.16
  -7  -9  10    2.36    0.13
   6   9 -10    0.29    0.08
  -6  -9  10    0.18    0.05
   5   9 -10    6.25    0.27
  -5  -9  10    6.44    0.23
   4   9 -10   19.78    0.63
  -4  -9  10   19.37    0.58
   3   9 -10    3.48    0.18
  -3  -9  10    3.67    0.16
   2   9 -10    3.27    0.17
  -2  -9  10    3.33    0.15
   1   9 -10    4.39    0.20
  -1  -9  10    4.74    0.19
  -1  -9  10    4.85    0.16
   0   9 -10    8.63    0.32
   0  -9  10    9.00    0.28
  -1   9 -10    1.05    0.10
   1  -9  10    1.11    0.08
  -2   9 -10    0.16    0.05
   2  -9  10    0.11    0.05
   3  -9  10    2.59    0.13
   4  -9  10    3.05    0.15
  -5   9 -10   -0.02    0.06
   5  -9  10    0.00    0.05
  -6   9 -10    6.52    0.27
   6  -9  10    6.85    0.26
  -9  -8  10    1.39    0.10
  -8  -8  10    0.35    0.06
   7   8 -10   12.26    0.43
  -7  -8  10   12.40    0.39
   6   8 -10    2.90    0.17
  -6  -8  10    2.88    0.14
   5   8 -10    3.50    0.18
  -5  -8  10    3.39    0.15
   4   8 -10    5.99    0.25
  -4  -8  10    5.94    0.22
   3   8 -10    0.08    0.05
  -3  -8  10    0.05    0.04
   2   8 -10    5.51    0.23
  -2  -8  10    5.68    0.21
   1   8 -10    0.05    0.05
  -1  -8  10    0.05    0.03
  -1  -8  10    0.03    0.04
   0   8 -10    4.69    0.19
   0  -8  10    4.50    0.16
  -1   8 -10    4.98    0.21
   1  -8  10    5.08    0.18
   2  -8  10    4.30    0.17
   3  -8  10   -0.03    0.04
  -4   8 -10    3.20    0.16
   4  -8  10    3.26    0.15
  -5   8 -10    6.13    0.24
   5  -8  10    6.04    0.23
  -6   8 -10   -0.03    0.06
   6  -8  10   -0.04    0.05
  -7   8 -10    2.84    0.17
  -9  -7  10    4.39    0.18
  -8  -7  10   10.49    0.34
  -7  -7  10    0.00    0.04
   6   7 -10    1.54    0.12
  -6  -7  10    1.50    0.10
   5   7 -10    9.10    0.33
  -5  -7  10    9.29    0.30
   4   7 -10   30.54    0.91
  -4  -7  10   30.55    0.86
   3   7 -10    2.97    0.15
  -3  -7  10    2.59    0.12
   2   7 -10    0.64    0.08
  -2  -7  10    0.57    0.06
   1   7 -10    5.67    0.22
  -1  -7  10    5.42    0.18
   0   7 -10    5.10    0.21
   0  -7  10    5.37    0.18
  -1   7 -10    2.12    0.12
   1  -7  10    2.19    0.11
   2  -7  10   11.75    0.36
   3  -7  10   11.16    0.35
  -4   7 -10    0.01    0.05
   4  -7  10    0.03    0.05
  -5   7 -10   13.51    0.44
   5  -7  10   13.48    0.43
  -6   7 -10    5.14    0.22
   6  -7  10    5.35    0.22
  -7   7 -10    3.17    0.17
   7  -7  10    3.16    0.17
 -10  -6  10    0.70    0.08
  -9  -6  10    2.58    0.13
  -8  -6  10    2.04    0.11
  -7  -6  10    2.30    0.12
  -6  -6  10    5.85    0.21
   5   6 -10   15.26    0.49
  -5  -6  10   14.98    0.45
   4   6 -10    2.03    0.13
  -4  -6  10    2.09    0.11
   3   6 -10   15.47    0.49
  -3  -6  10   15.59    0.46
   2   6 -10    1.87    0.11
  -2  -6  10    1.96    0.11
  -2  -6  10    1.87    0.09
   1   6 -10    2.61    0.13
  -1  -6  10    2.59    0.11
   0   6 -10   17.74    0.54
   0  -6  10   17.59    0.50
   1  -6  10    5.46    0.20
   2  -6  10    0.75    0.08
  -3   6 -10   10.34    0.34
   3  -6  10   10.51    0.34
  -4   6 -10    8.09    0.29
   4  -6  10    8.14    0.28
  -5   6 -10    1.16    0.11
   5  -6  10    1.27    0.10
  -6   6 -10    0.41    0.08
   6  -6  10    0.34    0.07
  -7   6 -10    1.15    0.11
   7  -6  10    1.29    0.11
 -11  -5  10    0.10    0.05
 -10  -5  10    3.03    0.14
  -9  -5  10    5.20    0.20
  -8  -5  10    1.58    0.10
  -7  -5  10    4.80    0.18
  -6  -5  10    2.04    0.11
  -5  -5  10    0.01    0.04
  -4  -5  10    4.41    0.17
  -3  -5  10    1.16    0.08
  -2  -5  10    1.27    0.07
  -2  -5  10    1.43    0.09
  -1  -5  10   11.83    0.35
   0  -5  10   -0.03    0.03
   1  -5  10   44.38    1.20
  -2   5 -10   31.05    0.88
   2  -5  10   31.47    0.87
  -3   5 -10    3.12    0.15
   3  -5  10    3.10    0.15
  -4   5 -10    2.97    0.15
   4  -5  10    3.09    0.15
  -5   5 -10    4.68    0.20
   5  -5  10    4.68    0.20
  -6   5 -10   10.24    0.35
   6  -5  10   10.28    0.35
  -7   5 -10    0.00    0.06
   7  -5  10    0.04    0.05
 -12  -4  10    1.81    0.12
 -11  -4  10    0.03    0.04
 -10  -4  10    0.19    0.05
  -9  -4  10    4.21    0.17
  -8  -4  10    0.22    0.04
  -7  -4  10    0.01    0.03
  -6  -4  10    0.39    0.05
  -5  -4  10    0.05    0.03
  -4  -4  10    9.45    0.30
  -3  -4  10    3.92    0.13
  -3  -4  10    3.87    0.15
  -2  -4  10    0.01    0.03
  -1  -4  10   35.85    0.96
   0  -4  10    6.46    0.22
   1  -4  10    7.99    0.26
  -2   4 -10    0.39    0.06
   2  -4  10    0.43    0.06
  -3   4 -10   13.36    0.42
   3  -4  10   13.70    0.42
  -4   4 -10    4.25    0.18
   4  -4  10    4.20    0.18
  -5   4 -10    1.27    0.11
   5  -4  10    1.46    0.11
  -6   4 -10    0.78    0.09
   6  -4  10    0.82    0.09
  -7   4 -10    0.07    0.06
   7  -4  10   -0.03    0.05
 -12  -3  10   -0.01    0.04
 -11  -3  10    1.62    0.10
 -10  -3  10    0.62    0.07
  -9  -3  10    0.54    0.06
  -8  -3  10    0.06    0.03
  -7  -3  10    0.61    0.06
  -6  -3  10    5.12    0.18
  -5  -3  10    3.10    0.13
  -4  -3  10    3.35    0.13
  -3  -3  10   47.28    1.25
  -3  -3  10   47.31    1.28
  -2  -3  10    8.10    0.25
  -1  -3  10   43.09    1.15
  -1   3 -10   39.48    1.09
  -2   3 -10    0.45    0.06
  -3   3 -10    5.17    0.20
  -4   3 -10    0.38    0.06
  -5   3 -10    0.14    0.06
   5  -3  10    0.24    0.06
  -6   3 -10    0.26    0.07
   6  -3  10    0.29    0.07
  -7   3 -10    0.95    0.10
 -13  -2  10    0.04    0.05
 -12  -2  10    0.04    0.04
 -11  -2  10   10.63    0.34
 -10  -2  10    0.01    0.03
  -9  -2  10    0.11    0.04
  -8  -2  10    0.09    0.03
  -7  -2  10    0.34    0.04
  -6  -2  10    6.74    0.22
  -5  -2  10    7.39    0.23
  -4  -2  10    1.91    0.08
  -4  -2  10    1.87    0.09
  -3  -2  10   22.70    0.64
   2   2 -10   15.59    0.44
   1   2 -10    9.13    0.28
   0   2 -10    0.06    0.04
  -1   2 -10   32.36    0.88
  -1   2 -10   30.92    0.87
  -2   2 -10    0.11    0.04
  -2   2 -10    0.13    0.05
  -3   2 -10    1.22    0.09
  -3   2 -10    1.21    0.10
  -4   2 -10   13.43    0.41
  -4   2 -10   12.76    0.41
  -5   2 -10    5.83    0.22
  -5   2 -10    5.65    0.23
  -6   2 -10    0.57    0.08
 -13  -1  10    0.12    0.05
 -12  -1  10    1.23    0.09
 -12  -1  10    1.19    0.10
 -11  -1  10    3.23    0.14
 -10  -1  10    0.29    0.05
  -9  -1  10    0.40    0.05
  -8  -1  10    0.28    0.04
  -7  -1  10    0.29    0.04
  -6  -1  10    1.55    0.08
  -5  -1  10   14.05    0.41
   4   1 -10   58.02    1.50
  -4  -1  10   56.58    1.54
   3   1 -10   26.64    0.70
  -3  -1  10   25.38    0.72
   2   1 -10   12.70    0.37
   1   1 -10   32.49    0.88
   0   1 -10    3.81    0.15
   0  -1  10    3.79    0.14
  -1   1 -10    0.31    0.05
  -1   1 -10    0.37    0.05
  -2   1 -10    4.74    0.18
  -2   1 -10    4.67    0.18
  -3   1 -10    2.52    0.13
  -3   1 -10    2.68    0.13
  -4   1 -10    0.42    0.07
  -4   1 -10    0.61    0.08
  -5   1 -10    2.54    0.14
  -6   1 -10    0.01    0.05
 -14   0  10    1.22    0.11
 -13   0  10    0.26    0.06
 -12   0  10    5.07    0.19
 -12   0  10    4.72    0.20
 -11   0  10    0.02    0.04
 -11   0  10    0.05    0.04
 -10   0  10    2.82    0.12
  -9   0  10    0.71    0.06
  -8   0  10    0.08    0.03
  -7   0  10   32.03    0.88
  -6   0  10   50.56    1.36
  -5   0  10    2.23    0.09
   4   0 -10   44.19    1.15
  -4   0  10   42.67    1.17
   3   0 -10   38.67    0.99
  -3   0  10   35.50    1.00
   2   0 -10    9.10    0.28
  -2   0  10    9.05    0.29
   1   0 -10   24.05    0.68
  -1   0  10   24.63    0.70
   0   0 -10   28.88    0.78
   0   0 -10   27.59    0.78
  -1   0 -10    4.96    0.17
  -1   0 -10    4.12    0.18
  -2   0 -10   13.08    0.41
  -3   0 -10   11.56    0.37
  -4   0 -10    0.39    0.07
  -5   0 -10    6.63    0.26
 -14   1  10    0.23    0.06
 -13   1  10    0.17    0.05
 -13   1  10    0.25    0.06
 -12   1  10    0.35    0.06
 -12   1  10    0.28    0.06
 -11   1  10    1.35    0.09
 -11   1  10    1.51    0.10
 -10   1  10    5.82    0.22
 -10   1  10    5.81    0.20
  -9   1  10    4.83    0.17
  -9   1  10    4.66    0.19
  -8   1  10   14.50    0.41
  -8   1  10   14.05    0.45
  -7   1  10    0.45    0.06
  -7   1  10    0.54    0.05
  -6   1  10   23.13    0.69
  -6   1  10   23.94    0.65
   5  -1 -10   99.91    2.56
  -5   1  10   98.23    2.61
  -5   1  10   97.43    2.72
   4  -1 -10    5.01    0.16
  -4   1  10    4.80    0.16
  -4   1  10    4.85    0.18
   3  -1 -10   11.25    0.32
  -3   1  10   11.12    0.34
  -3   1  10   10.38    0.31
   2  -1 -10   29.03    0.79
  -2   1  10   28.95    0.83
   1  -1 -10    0.79    0.07
  -1   1  10    0.97    0.07
   0  -1 -10   26.17    0.73
  -1  -1 -10    2.02    0.11
  -2  -1 -10    4.76    0.19
  -3  -1 -10    0.70    0.08
  -4  -1 -10    0.03    0.05
  -5  -1 -10    9.67    0.34
 -14   2  10   -0.01    0.05
 -13   2  10    0.09    0.05
 -13   2  10    0.05    0.05
 -12   2  10    1.28    0.09
 -12   2  10    1.24    0.10
 -11   2  10    2.59    0.12
 -11   2  10    2.54    0.13
 -10   2  10    9.23    0.28
 -10   2  10    9.11    0.31
  -9   2  10    1.24    0.10
  -9   2  10    1.36    0.07
  -8   2  10   41.65    1.12
  -8   2  10   41.46    1.19
  -7   2  10   18.56    0.57
  -7   2  10   19.17    0.52
  -6   2  10    2.54    0.09
  -6   2  10    2.49    0.12
   5  -2 -10    3.39    0.12
  -5   2  10    3.23    0.14
   4  -2 -10    8.42    0.26
  -4   2  10    8.72    0.28
   3  -2 -10    0.08    0.03
  -3   2  10    0.00    0.03
   2  -2 -10   30.08    0.84
  -2   2  10   31.37    0.87
   1  -2 -10    3.27    0.14
  -1   2  10    3.26    0.13
   0  -2 -10    6.73    0.24
  -1  -2 -10    1.39    0.10
  -2  -2 -10    1.25    0.10
  -3  -2 -10    5.86    0.23
  -4  -2 -10    3.28    0.17
 -15   3  10    0.35    0.06
 -14   3  10   -0.02    0.04
 -13   3  10    0.68    0.07
 -13   3  10    0.64    0.08
 -12   3  10    0.37    0.06
 -12   3  10    0.44    0.06
 -11   3  10    1.27    0.08
 -11   3  10    1.28    0.10
 -10   3  10   21.44    0.65
 -10   3  10   21.40    0.60
  -9   3  10   10.20    0.34
  -9   3  10   10.26    0.30
  -8   3  10    9.96    0.33
  -7   3  10    0.64    0.06
  -6   3  10   41.97    1.19
   5  -3 -10    5.31    0.18
  -5   3  10    5.29    0.19
   4  -3 -10   39.54    1.05
  -4   3  10   38.60    1.11
   3  -3 -10    3.29    0.13
  -3   3  10    3.28    0.13
   2  -3 -10   -0.01    0.03
  -2   3  10   -0.06    0.03
   1  -3 -10    0.10    0.04
   0  -3 -10    0.02    0.03
  -1  -3 -10    8.50    0.29
  -2  -3 -10    7.51    0.27
  -3  -3 -10    0.28    0.06
  -4  -3 -10    4.57    0.21
 -13   4  10    4.29    0.19
 -12   4  10    3.14    0.15
 -11   4  10    1.23    0.10
 -10   4  10    1.51    0.10
  -9   4  10    0.23    0.05
  -8   4  10    6.27    0.23
  -7   4  10    3.16    0.14
   6  -4 -10   50.51    1.32
  -6   4  10   49.10    1.40
   5  -4 -10    0.97    0.07
  -5   4  10    0.99    0.07
   4  -4 -10    3.41    0.13
  -4   4  10    3.21    0.14
   3  -4 -10   11.26    0.35
  -3   4  10   11.40    0.35
   2  -4 -10    8.00    0.26
  -2   4  10    7.89    0.26
   1  -4 -10    8.48    0.28
   0  -4 -10    0.01    0.04
  -1  -4 -10    0.27    0.06
  -2  -4 -10    2.90    0.15
  -3  -4 -10    0.00    0.04
 -14   5  10    0.01    0.05
 -13   5  10   -0.01    0.05
 -12   5  10    0.38    0.06
 -11   5  10    0.92    0.09
 -10   5  10    5.42    0.21
  -9   5  10   -0.01    0.04
  -8   5  10   12.69    0.40
  -7   5  10    7.14    0.25
   6  -5 -10    0.36    0.05
  -6   5  10    0.38    0.05
   5  -5 -10   16.75    0.48
  -5   5  10   16.49    0.50
   4  -5 -10    1.62    0.09
  -4   5  10    1.61    0.09
   3  -5 -10    0.02    0.03
  -3   5  10   -0.01    0.03
   2  -5 -10    0.10    0.04
  -2   5  10    0.10    0.04
   1  -5 -10    1.29    0.09
   0  -5 -10   10.34    0.34
  -1  -5 -10    4.95    0.21
  -2  -5 -10    0.13    0.05
  -3  -5 -10    0.30    0.07
 -14   6  10    0.02    0.06
 -13   6  10    4.35    0.19
 -12   6  10    0.38    0.07
 -11   6  10    2.55    0.14
 -10   6  10    1.43    0.10
  -9   6  10    0.55    0.07
  -8   6  10    6.81    0.25
   7  -6 -10    6.10    0.20
  -7   6  10    5.76    0.22
   6  -6 -10   11.17    0.34
  -6   6  10   11.32    0.36
   5  -6 -10    0.50    0.06
  -5   6  10    0.45    0.06
   4  -6 -10    0.72    0.07
  -4   6  10    0.54    0.06
   3  -6 -10    0.17    0.04
  -3   6  10    0.14    0.04
   2  -6 -10   10.41    0.34
   1  -6 -10    0.38    0.06
   0  -6 -10    0.01    0.05
  -1  -6 -10    0.45    0.07
  -2  -6 -10    6.07    0.25
 -14   7  10    4.86    0.21
 -13   7  10   -0.01    0.05
 -12   7  10   -0.01    0.05
 -11   7  10    2.28    0.13
 -10   7  10    2.04    0.12
  -9   7  10    3.35    0.15
  -8   7  10    1.28    0.09
   7  -7 -10    2.29    0.11
  -7   7  10    2.25    0.12
   6  -7 -10    1.64    0.09
  -6   7  10    1.49    0.10
   5  -7 -10    1.45    0.09
  -5   7  10    1.43    0.10
   4  -7 -10   10.38    0.34
  -4   7  10   10.72    0.34
   3  -7 -10    0.45    0.06
  -3   7  10    0.47    0.07
   2  -7 -10    1.96    0.11
   1  -7 -10    4.25    0.19
   0  -7 -10   11.68    0.39
  -1  -7 -10    3.83    0.19
 -14   8  10   -0.02    0.06
 -13   8  10    4.62    0.21
 -12   8  10    4.08    0.19
 -11   8  10    6.30    0.25
 -10   8  10   -0.02    0.05
  -9   8  10    2.47    0.13
  -8   8  10    4.90    0.20
   7  -8 -10    6.74    0.23
  -7   8  10    6.53    0.24
   6  -8 -10    0.61    0.06
  -6   8  10    0.63    0.07
   5  -8 -10    0.49    0.06
  -5   8  10    0.46    0.07
   4  -8 -10    1.03    0.08
  -4   8  10    0.90    0.09
   3  -8 -10    0.27    0.06
  -3   8  10    0.09    0.06
   2  -8 -10    3.11    0.15
   1  -8 -10    1.68    0.12
   0  -8 -10    1.29    0.11
 -14   9  10    0.10    0.07
 -13   9  10   -0.03    0.06
 -12   9  10    2.18    0.14
 -11   9  10    1.90    0.13
 -10   9  10    2.69    0.15
  -9   9  10    2.43    0.14
   8  -9 -10    1.56    0.09
  -8   9  10    1.51    0.11
   7  -9 -10    0.02    0.04
  -7   9  10   -0.05    0.05
   6  -9 -10    0.35    0.05
  -6   9  10    0.34    0.07
   5  -9 -10    4.25    0.17
  -5   9  10    4.10    0.18
   4  -9 -10    3.57    0.16
  -4   9  10    3.53    0.17
   3  -9 -10    0.04    0.05
   2  -9 -10    3.31    0.17
   1  -9 -10    0.95    0.10
 -13  10  10   13.65    0.46
 -12  10  10    0.23    0.07
 -11  10  10    2.54    0.15
 -10  10  10    0.44    0.08
  -9  10  10    0.09    0.06
   8 -10 -10    1.94    0.11
  -8  10  10    1.97    0.13
   7 -10 -10    4.00    0.16
  -7  10  10    3.63    0.18
   6 -10 -10    0.24    0.05
  -6  10  10    0.13    0.07
   5 -10 -10    0.72    0.08
  -5  10  10    0.51    0.09
   4 -10 -10    0.49    0.07
  -4  10  10    0.23    0.08
   3 -10 -10    1.45    0.11
 -12  11  10    5.82    0.25
 -11  11  10   -0.07    0.06
 -10  11  10    0.11    0.07
  -9  11  10    0.72    0.10
   8 -11 -10    0.05    0.04
  -8  11  10   -0.03    0.07
   7 -11 -10    0.36    0.06
  -7  11  10    0.11    0.07
   6 -11 -10    0.28    0.06
  -6  11  10    0.05    0.07
   5 -11 -10    3.52    0.16
  -5  11  10    3.23    0.18
   4 -11 -10    1.64    0.12
  -9  12  10    0.21    0.08
   8 -12 -10    0.47    0.07
  -8  12  10    0.41    0.09
   7 -12 -10    0.17    0.05
  -7  12  10    0.03    0.08
   6 -12 -10    0.18    0.05
  -6  12  10    0.06    0.08
  -5  12  10    1.44    0.15
  -1  13 -11    0.15    0.06
  -2  13 -11    0.92    0.11
   2  12 -11    1.04    0.12
  -2 -12  11    1.09    0.10
   1  12 -11    0.32    0.08
  -1 -12  11    0.23    0.06
   0  12 -11    2.92    0.17
   0 -12  11    2.89    0.15
  -1  12 -11    0.25    0.07
   1 -12  11    0.22    0.07
  -2  12 -11    0.18    0.07
   2 -12  11    0.06    0.05
   3 -12  11    0.15    0.06
   4  11 -11    0.80    0.11
  -4 -11  11    0.69    0.08
   3  11 -11    0.97    0.11
  -3 -11  11    0.99    0.09
   2  11 -11    0.96    0.11
  -2 -11  11    1.09    0.09
   1  11 -11    0.18    0.06
  -1 -11  11    0.15    0.05
   0  11 -11    1.30    0.12
   0 -11  11    1.32    0.11
  -1  11 -11    0.08    0.06
   1 -11  11    0.04    0.05
   1 -11  11    0.07    0.05
   2 -11  11    1.15    0.09
   3 -11  11    0.54    0.07
   4 -11  11   -0.05    0.05
   6  10 -11    0.07    0.06
  -6 -10  11    0.03    0.05
   5  10 -11    3.29    0.19
  -5 -10  11    3.23    0.15
   4  10 -11    4.62    0.22
  -4 -10  11    4.56    0.19
   3  10 -11    0.00    0.05
  -3 -10  11    0.04    0.04
   2  10 -11    0.54    0.08
  -2 -10  11    0.65    0.07
   1  10 -11    0.51    0.08
  -1 -10  11    0.61    0.07
   0  10 -11    0.87    0.10
   0 -10  11    0.84    0.09
  -1  10 -11    0.68    0.09
   1 -10  11    0.73    0.07
   2 -10  11    2.41    0.12
   3 -10  11    2.62    0.14
   4 -10  11    0.45    0.07
   5 -10  11    0.84    0.09
  -7  -9  11    0.54    0.07
   6   9 -11    3.81    0.20
  -6  -9  11    3.57    0.16
   5   9 -11    2.15    0.15
  -5  -9  11    2.29    0.12
   4   9 -11    6.30    0.27
  -4  -9  11    6.56    0.24
   3   9 -11    0.29    0.07
  -3  -9  11    0.29    0.06
   2   9 -11    0.25    0.06
  -2  -9  11    0.23    0.05
   1   9 -11    3.41    0.17
  -1  -9  11    3.79    0.17
   0   9 -11    8.18    0.30
   0  -9  11    8.25    0.26
  -1   9 -11    0.04    0.05
   1  -9  11    0.03    0.04
   2  -9  11    1.07    0.09
   3  -9  11    1.18    0.10
   4  -9  11   -0.05    0.05
   5  -9  11    0.61    0.08
  -8  -8  11    1.46    0.10
  -7  -8  11    0.04    0.04
   6   8 -11    3.43    0.19
  -6  -8  11    3.48    0.15
   5   8 -11    0.17    0.06
  -5  -8  11    0.17    0.05
   4   8 -11    8.18    0.31
  -4  -8  11    7.92    0.27
   3   8 -11    2.93    0.16
  -3  -8  11    3.04    0.14
   2   8 -11    4.39    0.20
  -2  -8  11    4.56    0.18
   1   8 -11    0.11    0.05
  -1  -8  11    0.17    0.05
   0   8 -11    0.01    0.05
   0  -8  11   -0.03    0.04
  -1   8 -11    3.11    0.15
   1  -8  11    3.02    0.14
   2  -8  11    0.45    0.06
   3  -8  11    6.21    0.23
   4  -8  11    0.01    0.05
  -5   8 -11    4.71    0.21
   5  -8  11    4.37    0.19
  -9  -7  11    0.44    0.07
  -8  -7  11    4.60    0.19
  -7  -7  11    0.41    0.06
  -6  -7  11    2.03    0.11
  -5  -7  11   18.56    0.55
   4   7 -11    2.55    0.15
  -4  -7  11    2.47    0.12
   3   7 -11    5.85    0.24
  -3  -7  11    6.02    0.22
   2   7 -11    0.33    0.06
  -2  -7  11    0.32    0.06
   1   7 -11    3.58    0.17
  -1  -7  11    3.90    0.14
   0   7 -11    6.63    0.25
   0  -7  11    6.69    0.22
   1  -7  11    5.52    0.20
   2  -7  11    0.42    0.06
   3  -7  11   10.62    0.35
  -4   7 -11    3.26    0.17
   4  -7  11    3.21    0.16
  -5   7 -11    0.26    0.07
   5  -7  11    0.23    0.07
  -6   7 -11    2.40    0.15
   6  -7  11    2.60    0.15
 -10  -6  11    0.40    0.06
  -9  -6  11    0.32    0.06
  -8  -6  11    0.04    0.04
  -7  -6  11    0.76    0.08
  -6  -6  11    0.73    0.07
  -5  -6  11    0.42    0.06
  -4  -6  11    0.18    0.04
  -3  -6  11    5.83    0.21
  -2  -6  11    1.03    0.08
  -1  -6  11    1.28    0.08
   0  -6  11    0.43    0.06
   1  -6  11   11.89    0.37
   2  -6  11    5.28    0.20
  -3   6 -11   -0.02    0.05
   3  -6  11   -0.03    0.05
  -4   6 -11    6.27    0.25
   4  -6  11    6.50    0.24
  -5   6 -11    1.49    0.12
   5  -6  11    1.58    0.11
  -6   6 -11    0.25    0.07
   6  -6  11    0.21    0.07
 -11  -5  11    0.15    0.05
 -10  -5  11    0.00    0.04
  -9  -5  11    3.25    0.15
  -8  -5  11    0.06    0.04
  -7  -5  11    3.22    0.14
  -6  -5  11    0.33    0.05
  -5  -5  11    1.75    0.10
  -4  -5  11    0.00    0.03
  -3  -5  11    3.52    0.15
  -2  -5  11    2.28    0.11
  -2  -5  11    2.47    0.10
  -1  -5  11    7.43    0.24
   0  -5  11    8.48    0.27
   1  -5  11    1.11    0.09
   2  -5  11    1.33    0.10
  -3   5 -11    0.52    0.08
   3  -5  11    0.43    0.07
  -4   5 -11   -0.01    0.05
   4  -5  11   -0.06    0.05
  -5   5 -11    2.32    0.14
   5  -5  11    2.40    0.14
  -6   5 -11    0.30    0.07
   6  -5  11    0.39    0.07
 -11  -4  11    0.98    0.09
 -10  -4  11    0.01    0.04
  -9  -4  11    1.46    0.09
  -8  -4  11    0.03    0.04
  -7  -4  11    0.07    0.04
  -6  -4  11    0.32    0.05
  -5  -4  11    1.44    0.09
  -4  -4  11    2.84    0.12
  -3  -4  11    0.47    0.06
  -2  -4  11    7.31    0.23
  -1  -4  11    0.46    0.06
   0  -4  11   13.08    0.39
   1  -4  11    8.39    0.28
  -2   4 -11    0.45    0.07
   2  -4  11    0.44    0.07
  -3   4 -11   22.77    0.67
   3  -4  11   22.57    0.66
  -4   4 -11    1.60    0.11
   4  -4  11    1.52    0.11
  -5   4 -11    0.31    0.07
   5  -4  11    0.31    0.07
  -6   4 -11    0.28    0.07
   6  -4  11    0.25    0.06
 -12  -3  11    3.93    0.17
 -11  -3  11    3.73    0.16
 -10  -3  11    0.42    0.06
  -9  -3  11    1.44    0.09
  -8  -3  11    2.30    0.11
  -7  -3  11   12.21    0.37
  -6  -3  11    1.66    0.09
  -5  -3  11    0.48    0.05
  -4  -3  11    0.24    0.04
  -3  -3  11    0.30    0.05
  -3  -3  11    0.19    0.04
  -2  -3  11    6.24    0.21
  -1  -3  11    2.17    0.11
  -2   3 -11    4.31    0.18
  -3   3 -11    1.51    0.11
  -4   3 -11    2.29    0.14
   4  -3  11    2.21    0.13
  -5   3 -11    5.51    0.22
   5  -3  11    5.52    0.23
  -6   3 -11    0.01    0.05
 -13  -2  11    0.03    0.05
 -12  -2  11    2.49    0.13
 -11  -2  11    1.13    0.09
 -10  -2  11    2.82    0.13
  -9  -2  11    0.08    0.04
  -8  -2  11    2.88    0.12
  -7  -2  11    0.02    0.03
  -6  -2  11    0.04    0.03
  -5  -2  11    0.18    0.04
  -4  -2  11    5.75    0.20
  -3  -2  11    0.14    0.04
   2   2 -11    4.11    0.15
   1   2 -11    3.91    0.15
   0   2 -11    0.42    0.06
  -1   2 -11    1.04    0.08
  -1   2 -11    0.89    0.08
  -2   2 -11    9.02    0.30
  -2   2 -11    9.18    0.30
  -3   2 -11    0.04    0.05
  -3   2 -11    0.14    0.05
  -4   2 -11   -0.02    0.04
  -4   2 -11    0.02    0.05
 -13  -1  11    0.09    0.05
 -13  -1  11    0.09    0.06
 -12  -1  11   11.36    0.36
 -12  -1  11   11.06    0.38
 -11  -1  11    8.05    0.27
 -10  -1  11    1.69    0.09
  -9  -1  11    1.05    0.07
  -8  -1  11    7.18    0.23
  -7  -1  11    0.06    0.03
  -6  -1  11    0.02    0.03
  -5  -1  11    1.36    0.08
  -4  -1  11    2.04    0.09
   3   1 -11    0.29    0.04
  -3  -1  11    0.36    0.04
   2   1 -11   15.37    0.44
   1   1 -11   10.00    0.32
  -1  -1  11   10.37    0.32
   0   1 -11   16.75    0.49
  -1   1 -11    0.67    0.07
  -1   1 -11    0.71    0.07
  -2   1 -11    0.05    0.04
  -3   1 -11    6.65    0.25
  -4   1 -11    2.59    0.14
  -5   1 -11    0.52    0.08
 -13   0  11    0.15    0.05
 -13   0  11    0.15    0.06
 -12   0  11   11.71    0.39
 -12   0  11   11.45    0.37
 -11   0  11    0.05    0.04
 -11   0  11    0.01    0.05
 -10   0  11   20.53    0.59
 -10   0  11   20.43    0.63
  -9   0  11    0.03    0.03
  -8   0  11    4.25    0.15
  -7   0  11    1.33    0.07
  -6   0  11    2.49    0.10
  -5   0  11    1.88    0.08
   4   0 -11    3.95    0.14
  -4   0  11    3.59    0.15
  -4   0  11    3.69    0.13
   3   0 -11    8.95    0.27
  -3   0  11    8.64    0.28
  -3   0  11    8.51    0.27
   2   0 -11    8.19    0.26
  -2   0  11    8.39    0.27
   1   0 -11    2.00    0.11
  -1   0  11    1.93    0.10
   0   0 -11    6.97    0.24
  -1   0 -11    5.45    0.21
  -2   0 -11    0.69    0.08
  -3   0 -11    6.25    0.24
  -4   0 -11    0.14    0.05
 -14   1  11    1.74    0.11
 -13   1  11    3.22    0.15
 -13   1  11    3.44    0.17
 -12   1  11   11.36    0.36
 -12   1  11   11.36    0.39
 -11   1  11    4.00    0.16
 -11   1  11    4.02    0.18
 -10   1  11    3.32    0.16
 -10   1  11    3.54    0.14
  -9   1  11    2.03    0.11
  -9   1  11    2.13    0.10
  -8   1  11    1.21    0.09
  -8   1  11    1.18    0.07
  -7   1  11    2.20    0.09
  -7   1  11    2.06    0.11
  -6   1  11    6.35    0.20
  -6   1  11    6.37    0.23
  -5   1  11   11.37    0.33
  -5   1  11   11.78    0.37
   4  -1 -11    5.81    0.19
  -4   1  11    5.81    0.21
   3  -1 -11    0.99    0.07
  -3   1  11    0.99    0.08
   2  -1 -11   21.28    0.62
  -2   1  11   22.45    0.64
   1  -1 -11   11.18    0.35
   0  -1 -11    0.94    0.08
  -1  -1 -11    1.78    0.11
  -2  -1 -11   -0.04    0.04
  -3  -1 -11    0.05    0.05
  -4  -1 -11    0.75    0.09
 -14   2  11    1.86    0.12
 -13   2  11    0.61    0.07
 -13   2  11    0.56    0.08
 -12   2  11    1.87    0.13
 -12   2  11    2.10    0.11
 -11   2  11    2.51    0.14
 -11   2  11    2.53    0.12
 -10   2  11    0.95    0.07
 -10   2  11    0.75    0.08
  -9   2  11    1.00    0.06
  -9   2  11    0.91    0.08
  -8   2  11    6.60    0.24
  -7   2  11    0.55    0.07
  -6   2  11    1.24    0.09
   5  -2 -11    2.34    0.10
  -5   2  11    2.42    0.12
   4  -2 -11   13.69    0.40
  -4   2  11   13.47    0.42
   3  -2 -11    4.07    0.16
  -3   2  11    4.12    0.16
   2  -2 -11    0.05    0.04
  -2   2  11   -0.05    0.03
   1  -2 -11    0.23    0.05
   0  -2 -11    2.10    0.11
  -1  -2 -11    0.14    0.05
  -2  -2 -11    2.10    0.12
  -3  -2 -11    0.33    0.06
 -14   3  11    6.26    0.25
 -13   3  11   -0.05    0.05
 -12   3  11    4.57    0.20
 -11   3  11    6.72    0.26
 -10   3  11    0.04    0.05
  -9   3  11   -0.03    0.04
  -8   3  11    3.03    0.14
  -7   3  11    9.06    0.31
  -6   3  11   51.81    1.46
   5  -3 -11    2.01    0.10
  -5   3  11    2.05    0.11
   4  -3 -11    0.75    0.07
  -4   3  11    0.78    0.07
   3  -3 -11    0.08    0.04
  -3   3  11    0.08    0.04
   2  -3 -11    2.51    0.12
  -2   3  11    2.53    0.11
   1  -3 -11    0.05    0.04
   0  -3 -11    1.80    0.11
  -1  -3 -11    5.27    0.21
  -2  -3 -11    0.84    0.09
  -3  -3 -11    1.74    0.13
 -14   4  11    4.86    0.21
 -13   4  11    3.49    0.17
 -12   4  11    1.71    0.12
 -11   4  11    5.84    0.23
 -10   4  11    8.11    0.29
  -9   4  11    0.28    0.06
  -8   4  11    0.61    0.07
  -7   4  11    1.05    0.09
  -6   4  11    4.55    0.18
   5  -4 -11    1.61    0.09
  -5   4  11    1.56    0.09
   4  -4 -11    3.54    0.15
  -4   4  11    3.77    0.15
   3  -4 -11    1.83    0.10
  -3   4  11    1.75    0.10
   2  -4 -11    3.61    0.15
   1  -4 -11    0.11    0.04
   0  -4 -11    0.00    0.04
  -1  -4 -11    3.01    0.15
  -2  -4 -11    0.79    0.09
 -14   5  11    0.66    0.09
 -13   5  11   11.90    0.40
 -12   5  11    7.68    0.28
 -11   5  11    3.16    0.16
 -10   5  11    0.03    0.04
  -9   5  11    0.98    0.09
  -8   5  11    0.08    0.04
  -7   5  11    0.74    0.08
   6  -5 -11    0.37    0.05
  -6   5  11    0.32    0.05
   5  -5 -11    0.06    0.03
  -5   5  11    0.01    0.04
   4  -5 -11    0.26    0.05
  -4   5  11    0.28    0.05
   3  -5 -11    0.64    0.07
  -3   5  11    0.63    0.06
   2  -5 -11    2.96    0.14
   1  -5 -11   -0.02    0.04
   0  -5 -11    2.25    0.13
  -1  -5 -11    1.09    0.10
 -14   6  11    3.37    0.17
 -13   6  11    1.48    0.12
 -12   6  11    2.72    0.15
 -11   6  11    5.85    0.23
 -10   6  11    0.26    0.06
  -9   6  11    0.02    0.04
  -8   6  11    0.30    0.06
  -7   6  11    2.67    0.13
   6  -6 -11    2.26    0.11
  -6   6  11    2.21    0.12
   5  -6 -11    0.23    0.05
  -5   6  11    0.18    0.05
   4  -6 -11    6.74    0.24
  -4   6  11    7.02    0.24
   3  -6 -11    0.02    0.03
  -3   6  11    0.07    0.05
   2  -6 -11    0.63    0.07
   1  -6 -11    1.41    0.11
   0  -6 -11    0.02    0.04
  -1  -6 -11   -0.01    0.05
 -14   7  11   13.72    0.46
 -13   7  11    6.73    0.27
 -12   7  11    0.33    0.07
 -11   7  11   -0.03    0.05
 -10   7  11    0.08    0.05
  -9   7  11    1.35    0.10
  -8   7  11    1.02    0.09
   7  -7 -11    2.28    0.11
  -7   7  11    2.14    0.12
   6  -7 -11    2.69    0.13
  -6   7  11    2.83    0.14
   5  -7 -11    0.27    0.05
  -5   7  11    0.33    0.06
   4  -7 -11    0.88    0.08
  -4   7  11    0.84    0.08
   3  -7 -11    0.02    0.04
   2  -7 -11    9.86    0.33
   1  -7 -11    2.89    0.15
   0  -7 -11    1.53    0.12
 -14   8  11    0.20    0.07
 -13   8  11    1.39    0.12
 -12   8  11    0.63    0.08
 -11   8  11   -0.03    0.05
 -10   8  11    0.98    0.10
  -9   8  11    5.11    0.21
  -8   8  11    0.40    0.07
   7  -8 -11    8.27    0.28
  -7   8  11    8.62    0.30
   6  -8 -11    0.19    0.05
  -6   8  11    0.14    0.06
   5  -8 -11    0.21    0.05
  -5   8  11    0.18    0.06
   4  -8 -11    3.57    0.16
  -4   8  11    3.63    0.17
   3  -8 -11    0.29    0.06
   2  -8 -11    0.01    0.04
   1  -8 -11    0.56    0.08
 -13   9  11    2.88    0.17
 -12   9  11   -0.04    0.05
 -11   9  11    0.01    0.05
 -10   9  11    1.12    0.11
  -9   9  11   14.38    0.47
  -8   9  11    2.12    0.13
   7  -9 -11    1.75    0.10
  -7   9  11    1.71    0.12
   6  -9 -11   11.08    0.36
  -6   9  11   11.42    0.38
   5  -9 -11    0.09    0.05
  -5   9  11   -0.14    0.06
   4  -9 -11    0.65    0.08
   3  -9 -11    1.97    0.13
 -12  10  11    0.00    0.06
 -11  10  11    6.11    0.26
 -10  10  11    3.34    0.17
  -9  10  11    4.19    0.20
  -8  10  11    5.84    0.24
   7 -10 -11    0.98    0.08
  -7  10  11    0.79    0.09
   6 -10 -11    1.34    0.10
  -6  10  11    1.10    0.11
   5 -10 -11    2.42    0.14
  -5  10  11    2.25    0.15
   4 -10 -11    0.08    0.05
 -10  11  11    0.05    0.07
  -9  11  11    0.96    0.11
   8 -11 -11    2.96    0.14
  -8  11  11    2.65    0.17
   7 -11 -11    1.14    0.09
  -7  11  11    0.93    0.11
   6 -11 -11    0.45    0.07
  -6  11  11    0.27    0.09
  -5  11  11    0.05    0.08
   8 -12 -11    0.78    0.08
   0  12 -12    0.92    0.11
  -1  12 -12    1.65    0.13
   3  11 -12    0.31    0.08
  -3 -11  12    0.32    0.06
   2  11 -12    1.44    0.13
  -2 -11  12    1.34    0.11
   1  11 -12    0.84    0.10
  -1 -11  12    0.99    0.10
   0  11 -12    0.03    0.05
   0 -11  12    0.03    0.05
  -1  11 -12    0.45    0.08
   1 -11  12    0.41    0.07
   2 -11  12   -0.08    0.05
   3 -11  12    0.83    0.09
   5  10 -12    3.24    0.19
  -5 -10  12    3.19    0.16
   4  10 -12    0.38    0.08
  -4 -10  12    0.39    0.07
   3  10 -12   -0.02    0.06
  -3 -10  12    0.08    0.04
   2  10 -12    0.65    0.09
  -2 -10  12    0.59    0.08
   1  10 -12    2.73    0.16
  -1 -10  12    2.87    0.15
   0  10 -12    0.44    0.08
   0 -10  12    0.41    0.07
   1 -10  12   -0.07    0.04
   2 -10  12    0.01    0.05
   3 -10  12    0.18    0.06
   4 -10  12    0.24    0.07
  -7  -9  12    1.13    0.09
  -6  -9  12    0.59    0.07
   5   9 -12    2.41    0.16
  -5  -9  12    2.40    0.13
   4   9 -12    0.86    0.10
  -4  -9  12    0.90    0.09
   3   9 -12    0.23    0.07
  -3  -9  12    0.17    0.05
   2   9 -12    0.25    0.06
  -2  -9  12    0.30    0.06
   1   9 -12    0.52    0.08
  -1  -9  12    0.70    0.08
   0   9 -12    0.54    0.08
   1  -9  12    1.59    0.11
   2  -9  12    2.61    0.13
   3  -9  12    1.45    0.11
   4  -9  12    0.98    0.10
  -8  -8  12   -0.05    0.04
  -7  -8  12    0.24    0.06
  -6  -8  12    3.57    0.16
  -5  -8  12    6.86    0.25
  -4  -8  12    4.31    0.18
   3   8 -12    1.55    0.12
  -3  -8  12    1.49    0.10
   2   8 -12    7.38    0.29
  -2  -8  12    7.82    0.27
   1   8 -12    3.80    0.18
  -1  -8  12    3.60    0.17
   0  -8  12    1.93    0.10
   1  -8  12    0.22    0.06
   2  -8  12    0.12    0.05
   3  -8  12    1.76    0.12
   4  -8  12    0.37    0.07
  -9  -7  12    0.12    0.05
  -8  -7  12    1.33    0.10
  -7  -7  12    1.50    0.10
  -6  -7  12    0.03    0.04
  -5  -7  12    2.52    0.13
  -4  -7  12    1.17    0.09
  -3  -7  12    0.14    0.05
  -2  -7  12    0.43    0.06
   0  -7  12    2.57    0.12
   1  -7  12    9.79    0.32
   2  -7  12    0.20    0.06
   3  -7  12    0.37    0.07
   4  -7  12    6.76    0.26
  -5   7 -12    8.13    0.31
 -10  -6  12    2.29    0.13
  -9  -6  12    0.92    0.08
  -8  -6  12    1.05    0.09
  -7  -6  12    6.53    0.24
  -6  -6  12    5.79    0.21
  -5  -6  12    1.95    0.11
  -4  -6  12    0.49    0.06
  -3  -6  12    0.46    0.06
  -2  -6  12    0.37    0.06
  -1  -6  12    3.79    0.15
   0  -6  12    0.60    0.07
   1  -6  12    1.29    0.10
   2  -6  12   14.89    0.46
   3  -6  12    3.35    0.16
  -4   6 -12    3.39    0.18
   4  -6  12    3.43    0.17
  -5   6 -12    9.15    0.33
   5  -6  12    8.92    0.32
 -10  -5  12    0.02    0.04
  -9  -5  12    1.15    0.09
  -8  -5  12    0.64    0.07
  -7  -5  12    0.11    0.04
  -6  -5  12    0.02    0.04
  -5  -5  12    0.08    0.04
  -4  -5  12    6.70    0.23
  -3  -5  12    6.20    0.22
  -2  -5  12    0.49    0.06
  -1  -5  12    1.78    0.10
   0  -5  12   17.05    0.50
   1  -5  12    5.37    0.21
   2  -5  12    5.76    0.22
  -3   5 -12    2.88    0.15
   3  -5  12    2.80    0.15
  -4   5 -12    3.44    0.17
   4  -5  12    3.45    0.17
  -5   5 -12   -0.02    0.06
   5  -5  12    0.07    0.06
 -11  -4  12    1.36    0.10
 -10  -4  12    0.37    0.06
  -9  -4  12    0.04    0.04
  -8  -4  12    2.57    0.12
  -7  -4  12    2.28    0.11
  -6  -4  12    1.11    0.08
  -5  -4  12    0.72    0.07
  -4  -4  12    0.13    0.04
  -3  -4  12    0.96    0.08
  -2  -4  12    2.54    0.12
  -1  -4  12    0.27    0.05
   0  -4  12   21.13    0.61
   1  -4  12    1.31    0.10
   2  -4  12    0.36    0.07
  -3   4 -12    5.02    0.21
   3  -4  12    4.87    0.21
  -4   4 -12    3.15    0.16
   4  -4  12    2.87    0.15
  -5   4 -12    0.34    0.08
 -12  -3  12    0.02    0.05
 -11  -3  12    0.11    0.05
 -10  -3  12    3.75    0.16
  -9  -3  12    0.56    0.06
  -8  -3  12    1.61    0.09
  -7  -3  12    0.68    0.06
  -6  -3  12    0.00    0.03
  -5  -3  12    0.21    0.04
  -4  -3  12    3.12    0.13
  -3  -3  12    1.16    0.08
  -2  -3  12    1.24    0.08
  -1  -3  12    0.91    0.08
   0  -3  12    4.54    0.18
   1  -3  12    0.93    0.09
  -2   3 -12    3.28    0.16
   2  -3  12    3.10    0.16
  -3   3 -12    1.00    0.10
   3  -3  12    0.88    0.09
  -4   3 -12    2.64    0.15
   4  -3  12    2.40    0.15
 -13  -2  12    2.00    0.13
 -12  -2  12    3.64    0.16
 -11  -2  12    3.53    0.16
 -10  -2  12    0.56    0.06
  -9  -2  12    0.21    0.04
  -8  -2  12    1.29    0.08
  -7  -2  12    1.25    0.08
  -6  -2  12    7.83    0.25
  -5  -2  12    2.62    0.11
  -4  -2  12    2.79    0.12
  -3  -2  12    0.11    0.04
   2   2 -12    0.14    0.04
   1   2 -12    9.21    0.29
   0   2 -12   11.90    0.37
  -1   2 -12    2.26    0.12
  -2   2 -12    7.71    0.28
  -3   2 -12    0.01    0.05
 -13  -1  12    0.07    0.05
 -13  -1  12    0.09    0.06
 -12  -1  12    5.82    0.22
 -12  -1  12    6.15    0.25
 -11  -1  12    4.15    0.17
 -10  -1  12    0.02    0.03
  -9  -1  12   -0.03    0.03
  -8  -1  12   17.88    0.52
  -7  -1  12    0.48    0.05
  -6  -1  12    5.79    0.20
  -5  -1  12    0.78    0.06
  -4  -1  12    0.87    0.06
   3   1 -12    4.23    0.15
  -3  -1  12    3.92    0.15
   2   1 -12    2.82    0.12
  -2  -1  12    2.79    0.13
   1   1 -12    6.13    0.22
   0   1 -12    1.75    0.10
  -1   1 -12    2.00    0.12
  -2   1 -12    0.06    0.05
  -3   1 -12    3.54    0.17
  -4   1 -12    4.43    0.20
 -13   0  12    0.40    0.07
 -13   0  12    0.32    0.06
 -12   0  12    2.68    0.15
 -12   0  12    2.77    0.13
 -11   0  12    0.27    0.05
 -11   0  12    0.24    0.06
 -10   0  12   11.20    0.35
 -10   0  12   11.46    0.38
  -9   0  12   10.18    0.31
  -9   0  12    9.99    0.35
  -8   0  12    2.32    0.10
  -7   0  12   18.59    0.53
  -6   0  12    7.50    0.23
  -6   0  12    6.94    0.26
  -5   0  12    0.26    0.05
  -5   0  12    0.28    0.04
  -4   0  12    0.06    0.04
  -4   0  12    0.09    0.03
   3   0 -12    2.74    0.12
  -3   0  12    2.59    0.12
   2   0 -12    6.62    0.23
  -2   0  12    6.58    0.23
   1   0 -12    1.35    0.09
   0   0 -12    0.96    0.08
  -1   0 -12    2.38    0.13
  -2   0 -12    0.75    0.08
  -3   0 -12    0.58    0.08
 -14   1  12    0.65    0.08
 -14   1  12    0.61    0.09
 -13   1  12    0.16    0.07
 -13   1  12    0.10    0.05
 -12   1  12    9.98    0.36
 -12   1  12   10.37    0.33
 -11   1  12    4.48    0.17
 -11   1  12    4.19    0.19
 -10   1  12    0.46    0.07
 -10   1  12    0.50    0.06
  -9   1  12    7.75    0.25
  -9   1  12    8.14    0.29
  -8   1  12    2.50    0.13
  -7   1  12    3.06    0.15
  -6   1  12    1.57    0.10
  -5   1  12    1.57    0.10
   4  -1 -12    0.87    0.07
  -4   1  12    0.87    0.08
   3  -1 -12    0.07    0.03
  -3   1  12    0.04    0.04
   2  -1 -12    2.04    0.11
  -2   1  12    2.05    0.10
   1  -1 -12    0.79    0.08
   0  -1 -12    7.12    0.26
  -1  -1 -12    2.64    0.14
  -2  -1 -12    0.08    0.05
  -3  -1 -12    2.92    0.16
 -14   2  12    9.12    0.33
 -13   2  12    2.46    0.15
 -12   2  12    4.91    0.21
 -11   2  12   31.79    0.94
 -10   2  12    1.60    0.11
  -9   2  12    0.23    0.06
  -8   2  12    0.48    0.07
  -7   2  12    8.86    0.31
  -6   2  12    0.03    0.04
  -5   2  12   10.41    0.34
   4  -2 -12   12.92    0.39
  -4   2  12   13.06    0.41
   3  -2 -12    7.04    0.24
  -3   2  12    7.23    0.25
   2  -2 -12   14.19    0.43
   1  -2 -12    0.64    0.07
   0  -2 -12    2.35    0.13
  -1  -2 -12    0.88    0.08
  -2  -2 -12    0.29    0.07
 -14   3  12    6.58    0.26
 -13   3  12    5.55    0.23
 -12   3  12    0.33    0.07
 -11   3  12   -0.08    0.05
 -10   3  12    0.80    0.08
  -9   3  12    0.78    0.08
  -8   3  12    3.70    0.17
  -7   3  12    0.29    0.06
  -6   3  12    4.76    0.19
   5  -3 -12    0.45    0.05
  -5   3  12    0.40    0.06
   4  -3 -12    0.01    0.03
  -4   3  12   -0.05    0.04
   3  -3 -12    0.28    0.05
  -3   3  12    0.30    0.05
   2  -3 -12    0.27    0.05
   1  -3 -12    1.11    0.09
   0  -3 -12    0.46    0.07
  -1  -3 -12    0.09    0.05
  -2  -3 -12    0.66    0.09
 -14   4  12    1.89    0.13
 -13   4  12    3.00    0.16
 -12   4  12    4.02    0.19
 -11   4  12    0.66    0.08
 -10   4  12    0.13    0.05
  -9   4  12   -0.01    0.04
  -8   4  12    0.73    0.08
  -7   4  12    4.65    0.19
  -6   4  12    0.47    0.06
   5  -4 -12    3.02    0.13
  -5   4  12    2.89    0.14
   4  -4 -12    0.01    0.03
  -4   4  12   -0.01    0.04
   3  -4 -12    1.94    0.11
  -3   4  12    2.18    0.11
   2  -4 -12    1.49    0.10
   1  -4 -12    0.37    0.06
   0  -4 -12    0.10    0.05
  -1  -4 -12    4.02    0.19
 -14   5  12    0.39    0.08
 -13   5  12    0.45    0.08
 -12   5  12    4.09    0.19
 -11   5  12    0.02    0.05
 -10   5  12    0.20    0.06
  -9   5  12    3.14    0.15
  -8   5  12    4.37    0.19
  -7   5  12    1.55    0.10
  -6   5  12   -0.05    0.04
   5  -5 -12    7.69    0.26
  -5   5  12    7.43    0.26
   4  -5 -12    0.68    0.07
  -4   5  12    0.74    0.07
   3  -5 -12    1.82    0.11
   2  -5 -12    0.75    0.08
   1  -5 -12    2.76    0.14
   0  -5 -12    9.38    0.33
 -14   6  12    2.14    0.14
 -13   6  12    4.50    0.21
 -12   6  12   -0.04    0.05
 -11   6  12    2.20    0.13
 -10   6  12    2.38    0.13
  -9   6  12    1.52    0.11
  -8   6  12    0.90    0.09
  -7   6  12    0.06    0.05
   6  -6 -12    3.91    0.16
  -6   6  12    4.00    0.17
   5  -6 -12    0.71    0.07
  -5   6  12    0.62    0.07
   4  -6 -12    1.41    0.10
  -4   6  12    1.41    0.10
   3  -6 -12    1.57    0.11
   2  -6 -12    7.78    0.28
   1  -6 -12    1.99    0.13
 -13   7  12    0.22    0.07
 -12   7  12    2.23    0.14
 -11   7  12    2.49    0.14
 -10   7  12    0.49    0.07
  -9   7  12    0.92    0.09
  -8   7  12    1.79    0.12
  -7   7  12    0.59    0.08
   6  -7 -12    0.24    0.05
  -6   7  12    0.26    0.06
   5  -7 -12    3.34    0.15
  -5   7  12    3.35    0.16
   4  -7 -12    5.14    0.21
   3  -7 -12    0.09    0.05
   2  -7 -12    3.54    0.17
 -13   8  12    0.64    0.09
 -12   8  12    0.02    0.06
 -11   8  12    1.00    0.10
 -10   8  12   -0.08    0.05
  -9   8  12    6.79    0.26
  -8   8  12    0.17    0.06
  -7   8  12   13.83    0.45
   6  -8 -12    8.37    0.29
  -6   8  12    8.38    0.30
   5  -8 -12    0.96    0.09
  -5   8  12    0.78    0.09
   4  -8 -12    0.98    0.09
   3  -8 -12    1.52    0.11
 -12   9  12   -0.01    0.06
 -11   9  12    2.02    0.14
 -10   9  12    1.37    0.12
  -9   9  12   11.36    0.39
  -8   9  12    0.01    0.06
   7  -9 -12    0.07    0.05
  -7   9  12   -0.02    0.06
   6  -9 -12    3.22    0.15
  -6   9  12    3.14    0.17
   5  -9 -12    1.04    0.09
  -5   9  12    0.89    0.10
   4  -9 -12    0.09    0.05
 -10  10  12    1.89    0.14
  -9  10  12    0.67    0.09
  -8  10  12   13.41    0.45
   7 -10 -12    1.51    0.10
  -7  10  12    1.09    0.11
   6 -10 -12    0.05    0.04
  -6  10  12   -0.17    0.06
   1  11 -13    2.86    0.17
   0  11 -13    2.37    0.15
  -4 -10  13   -0.02    0.05
   3  10 -13    3.14    0.18
  -3 -10  13    3.22    0.16
   2  10 -13    0.52    0.09
  -2 -10  13    0.45    0.07
   1  10 -13    0.11    0.06
  -1 -10  13    0.10    0.06
   0  10 -13    0.68    0.09
   0 -10  13    0.61    0.09
   2 -10  13    1.86    0.12
  -6  -9  13    6.49    0.25
  -5  -9  13    3.97    0.18
  -4  -9  13    0.68    0.08
  -3  -9  13    0.11    0.05
  -2  -9  13    2.86    0.15
  -1  -9  13    4.55    0.20
   1  -9  13    0.07    0.05
   2  -9  13    3.10    0.15
   3  -9  13    0.63    0.08
  -7  -8  13    0.03    0.05
  -6  -8  13    0.16    0.05
  -5  -8  13    0.11    0.05
  -4  -8  13    7.60    0.27
  -3  -8  13    0.68    0.08
  -2  -8  13    1.38    0.10
  -1  -8  13    1.00    0.10
   1  -8  13    2.47    0.13
   2  -8  13    0.50    0.08
   3  -8  13    6.29    0.24
  -8  -7  13    0.46    0.07
  -7  -7  13    0.05    0.05
  -6  -7  13   12.04    0.39
  -5  -7  13    3.32    0.15
  -4  -7  13    0.08    0.05
  -3  -7  13    4.79    0.19
  -2  -7  13    3.32    0.16
  -1  -7  13    0.19    0.06
   0  -7  13    9.05    0.30
   1  -7  13    3.18    0.15
   2  -7  13    0.13    0.06
   3  -7  13   -0.02    0.05
  -9  -6  13    0.02    0.04
  -8  -6  13    4.36    0.18
  -7  -6  13    2.51    0.13
  -6  -6  13    4.50    0.18
  -5  -6  13    4.91    0.19
  -4  -6  13    1.17    0.09
  -3  -6  13    0.47    0.07
  -2  -6  13    2.41    0.13
   0  -6  13    7.51    0.26
   1  -6  13    2.78    0.14
   2  -6  13   19.61    0.59
   3  -6  13    5.84    0.24
 -10  -5  13    2.27    0.13
  -9  -5  13    1.69    0.11
  -8  -5  13    5.43    0.21
  -7  -5  13    4.59    0.18
  -6  -5  13    0.09    0.04
  -5  -5  13    2.55    0.12
  -4  -5  13    5.31    0.20
  -3  -5  13    0.13    0.05
  -2  -5  13    0.07    0.05
  -1  -5  13    3.71    0.16
   0  -5  13   18.75    0.55
   1  -5  13   -0.02    0.05
   2  -5  13    0.08    0.06
   3  -5  13    2.26    0.14
  -4   5 -13    9.81    0.35
 -11  -4  13    0.66    0.08
 -10  -4  13    0.17    0.05
  -9  -4  13    1.35    0.09
  -8  -4  13    0.54    0.06
  -7  -4  13    1.01    0.08
  -6  -4  13    1.37    0.09
  -5  -4  13    0.79    0.07
  -4  -4  13    0.25    0.05
  -3  -4  13    1.90    0.11
  -2  -4  13   14.24    0.43
  -1  -4  13    0.11    0.05
   0  -4  13    0.04    0.05
   1  -4  13    1.42    0.11
   2  -4  13    0.27    0.07
   3  -4  13    0.11    0.06
 -11  -3  13    0.33    0.06
 -10  -3  13    0.18    0.05
  -9  -3  13    3.49    0.15
  -8  -3  13    0.76    0.07
  -7  -3  13    0.23    0.05
  -6  -3  13    5.13    0.19
  -5  -3  13   11.88    0.36
  -4  -3  13    3.31    0.14
  -3  -3  13    5.00    0.19
  -2  -3  13    6.10    0.22
  -1  -3  13    1.63    0.10
   0  -3  13    4.27    0.18
   1  -3  13   -0.03    0.05
   2  -3  13    1.13    0.10
   3  -3  13    1.16    0.11
 -12  -2  13    0.29    0.06
 -11  -2  13    6.58    0.24
 -10  -2  13    0.75    0.07
  -9  -2  13    2.99    0.13
  -8  -2  13   11.17    0.35
  -7  -2  13   14.28    0.43
  -6  -2  13    0.58    0.06
  -5  -2  13    6.74    0.23
  -4  -2  13    3.48    0.14
  -3  -2  13    0.21    0.05
   1   2 -13    1.13    0.09
   0   2 -13    0.34    0.06
  -1   2 -13    0.01    0.04
  -2   2 -13   -0.01    0.04
 -13  -1  13    3.59    0.18
 -13  -1  13    3.07    0.15
 -12  -1  13    0.74    0.08
 -12  -1  13    0.58    0.08
 -11  -1  13    1.62    0.10
 -11  -1  13    1.64    0.12
 -10  -1  13    2.77    0.13
  -9  -1  13    4.27    0.16
  -8  -1  13    0.40    0.05
  -7  -1  13   22.12    0.63
  -6  -1  13    8.49    0.27
  -5  -1  13    0.02    0.03
  -4  -1  13    7.54    0.27
  -4  -1  13    7.54    0.24
  -3  -1  13    3.11    0.14
   2   1 -13    3.70    0.15
   1   1 -13    0.08    0.04
   0   1 -13   -0.01    0.04
  -1   1 -13    0.17    0.05
  -2   1 -13    0.02    0.05
  -3   1 -13    0.57    0.08
 -13   0  13    1.14    0.12
 -13   0  13    1.12    0.09
 -12   0  13    7.65    0.29
 -12   0  13    7.59    0.26
 -11   0  13    5.95    0.21
 -11   0  13    5.77    0.24
 -10   0  13    1.55    0.12
 -10   0  13    1.61    0.09
  -9   0  13   18.03    0.56
  -9   0  13   17.75    0.52
  -8   0  13    1.50    0.08
  -8   0  13    1.52    0.11
  -7   0  13    2.39    0.13
  -6   0  13   -0.01    0.04
  -5   0  13    6.46    0.24
  -4   0  13    0.04    0.04
   3   0 -13    0.10    0.04
  -3   0  13    0.11    0.05
   2   0 -13    0.03    0.04
   1   0 -13    2.07    0.12
   0   0 -13    0.35    0.06
  -1   0 -13    0.53    0.08
  -2   0 -13    0.67    0.08
 -13   1  13    1.54    0.12
 -12   1  13    2.27    0.15
 -11   1  13   14.51    0.48
 -10   1  13    9.61    0.34
  -9   1  13    1.33    0.11
  -8   1  13   19.90    0.61
  -7   1  13   37.06    1.08
  -6   1  13    4.36    0.18
  -5   1  13    3.53    0.16
  -4   1  13   -0.02    0.04
   3  -1 -13    5.59    0.21
  -3   1  13    5.83    0.21
   2  -1 -13    0.17    0.05
   1  -1 -13    0.57    0.07
   0  -1 -13    6.44    0.25
  -1  -1 -13    0.19    0.06
  -2  -1 -13    1.47    0.12
 -13   2  13    7.80    0.30
 -12   2  13    0.99    0.10
 -11   2  13    1.52    0.12
 -10   2  13    9.46    0.34
  -9   2  13    0.07    0.05
  -8   2  13   12.20    0.40
  -7   2  13    0.35    0.06
  -6   2  13    0.97    0.09
  -5   2  13    6.11    0.23
   4  -2 -13    1.53    0.09
  -4   2  13    1.51    0.10
   3  -2 -13    4.41    0.17
  -3   2  13    4.27    0.17
   2  -2 -13    0.01    0.04
   1  -2 -13    0.11    0.05
   0  -2 -13    0.43    0.07
  -1  -2 -13    0.19    0.06
 -13   3  13    1.80    0.13
 -12   3  13   10.29    0.37
 -11   3  13    2.32    0.14
 -10   3  13    8.71    0.32
  -9   3  13    0.55    0.08
  -8   3  13   -0.06    0.04
  -7   3  13    6.65    0.25
  -6   3  13    0.01    0.04
  -5   3  13    0.32    0.06
   4  -3 -13    0.31    0.05
   3  -3 -13    2.65    0.13
   2  -3 -13    0.15    0.05
   1  -3 -13    8.60    0.30
   0  -3 -13    3.27    0.17
  -1  -3 -13    2.20    0.14
 -13   4  13    0.78    0.09
 -12   4  13    6.29    0.26
 -11   4  13    0.45    0.07
 -10   4  13    0.18    0.06
  -9   4  13    0.61    0.08
  -8   4  13    3.48    0.16
  -7   4  13    1.27    0.10
  -6   4  13    0.95    0.08
  -5   4  13    4.10    0.17
   4  -4 -13    0.78    0.07
  -4   4  13    0.79    0.08
   3  -4 -13    4.47    0.18
   2  -4 -13    1.10    0.09
   1  -4 -13    7.17    0.27
   0  -4 -13    0.78    0.09
 -13   5  13    1.31    0.12
 -12   5  13   -0.02    0.05
 -11   5  13    0.00    0.05
 -10   5  13    0.23    0.06
  -9   5  13    1.58    0.11
  -8   5  13    2.05    0.12
  -7   5  13    0.39    0.06
  -6   5  13    1.60    0.11
   5  -5 -13    2.00    0.11
  -5   5  13    2.16    0.12
   4  -5 -13    0.09    0.04
   3  -5 -13    0.43    0.06
   2  -5 -13    3.73    0.17
   1  -5 -13    4.36    0.20
 -13   6  13    1.51    0.12
 -12   6  13    0.49    0.08
 -11   6  13    0.07    0.05
 -10   6  13    4.40    0.20
  -9   6  13    0.28    0.07
  -8   6  13    1.28    0.10
  -7   6  13    0.07    0.06
  -6   6  13    1.24    0.10
   5  -6 -13   -0.02    0.04
  -5   6  13   -0.06    0.04
   4  -6 -13    3.32    0.16
   3  -6 -13    2.05    0.12
   2  -6 -13    0.01    0.04
 -12   7  13    0.14    0.06
 -11   7  13    1.64    0.12
 -10   7  13    0.80    0.09
  -9   7  13    0.48    0.08
  -8   7  13    0.31    0.07
  -7   7  13   10.39    0.36
  -6   7  13    7.36    0.27
   5  -7 -13    1.11    0.09
  -5   7  13    0.98    0.10
   4  -7 -13    3.94    0.18
   3  -7 -13    0.61    0.08
 -11   8  13    3.17    0.17
 -10   8  13    0.27    0.07
  -9   8  13   10.04    0.36
  -8   8  13    2.51    0.14
  -7   8  13    0.02    0.06
   6  -8 -13    2.58    0.14
  -6   8  13    2.46    0.14
   5  -8 -13   -0.06    0.04
   4  -8 -13    1.07    0.10
 -10   9  13    1.33    0.12
  -9   9  13   -0.11    0.06
  -8   9  13    1.48    0.12
  -7   9  13    2.78    0.16
   6  -9 -13    0.07    0.05
  -6   9  13   -0.08    0.07
   5  -9 -13    4.07    0.19
  -4  -9  14    1.05    0.10
  -3  -9  14    0.91    0.09
  -2  -9  14    2.99    0.16
  -1  -9  14    0.61    0.08
   0  -9  14   -0.08    0.05
   2  -9  14    0.13    0.06
  -6  -8  14    0.14    0.06
  -5  -8  14    1.69    0.11
  -4  -8  14    2.47    0.13
  -3  -8  14    0.20    0.06
  -2  -8  14    0.21    0.06
  -1  -8  14    0.89    0.10
   2  -8  14    1.42    0.11
  -7  -7  14    0.48    0.07
  -6  -7  14    1.19    0.10
  -5  -7  14    1.29    0.10
  -4  -7  14    0.01    0.05
  -3  -7  14    4.80    0.20
  -2  -7  14    3.26    0.16
  -1  -7  14    0.41    0.07
   1  -7  14    0.06    0.06
   2  -7  14    0.69    0.09
  -8  -6  14    0.49    0.07
  -7  -6  14    0.35    0.06
  -6  -6  14    1.24    0.10
  -5  -6  14    5.94    0.22
  -4  -6  14    0.62    0.07
  -3  -6  14    0.79    0.08
  -2  -6  14    0.39    0.07
   0  -6  14    3.02    0.15
   1  -6  14   -0.02    0.05
   2  -6  14    5.05    0.22
  -9  -5  14    0.63    0.07
  -8  -5  14    0.92    0.09
  -7  -5  14    4.25    0.18
  -6  -5  14    1.55    0.10
  -5  -5  14    0.26    0.05
  -4  -5  14    1.74    0.11
  -3  -5  14    0.04    0.05
  -2  -5  14    0.39    0.07
   0  -5  14    1.01    0.10
   1  -5  14    0.11    0.06
   2  -5  14    1.26    0.11
 -10  -4  14    0.06    0.05
  -9  -4  14    1.78    0.11
  -8  -4  14    5.78    0.22
  -7  -4  14    4.09    0.17
  -6  -4  14    1.69    0.10
  -5  -4  14    1.26    0.09
  -4  -4  14    0.48    0.06
  -3  -4  14    0.09    0.05
  -2  -4  14    2.36    0.13
  -1  -4  14    4.13    0.17
   0  -4  14    0.09    0.05
   1  -4  14    3.67    0.17
   2  -4  14    0.05    0.06
 -11  -3  14    0.13    0.05
 -10  -3  14    0.14    0.05
  -9  -3  14    6.63    0.24
  -8  -3  14    0.63    0.07
  -7  -3  14    0.26    0.05
  -6  -3  14    0.21    0.05
  -5  -3  14    0.07    0.04
  -4  -3  14   -0.07    0.04
  -3  -3  14    0.12    0.05
  -2  -3  14    4.02    0.17
  -1  -3  14    3.04    0.15
   0  -3  14   -0.02    0.05
   1  -3  14    0.57    0.08
   2  -3  14    9.39    0.33
 -12  -2  14    0.09    0.05
 -11  -2  14    5.52    0.21
 -10  -2  14    0.63    0.07
  -9  -2  14    0.43    0.06
  -8  -2  14    2.87    0.13
  -7  -2  14    2.23    0.11
  -6  -2  14   -0.01    0.03
  -5  -2  14    0.61    0.06
  -4  -2  14    4.38    0.17
  -3  -2  14    7.48    0.27
 -12  -1  14    0.00    0.04
 -12  -1  14    0.05    0.06
 -11  -1  14    0.89    0.09
 -11  -1  14    0.97    0.08
 -10  -1  14    0.64    0.08
 -10  -1  14    0.60    0.07
  -9  -1  14    1.05    0.08
  -8  -1  14    0.05    0.04
  -6  -1  14    7.04    0.26
  -5  -1  14    0.61    0.07
  -4  -1  14    5.12    0.20
  -3  -1  14   13.32    0.43
   2   1 -14    0.06    0.04
   1   1 -14    0.99    0.09
   0   1 -14    0.12    0.05
  -1   1 -14    0.19    0.06
 -12   0  14    5.65    0.24
 -11   0  14    0.51    0.08
 -10   0  14    0.76    0.09
  -9   0  14    1.50    0.11
  -8   0  14    9.80    0.34
  -7   0  14    3.81    0.18
  -6   0  14    0.12    0.05
  -5   0  14   17.50    0.54
  -4   0  14    1.47    0.10
   2   0 -14    0.98    0.09
   1   0 -14   11.69    0.38
   0   0 -14    5.92    0.23
  -1   0 -14    0.32    0.07
 -12   1  14   -0.03    0.06
 -11   1  14    1.34    0.12
 -10   1  14    2.17    0.14
  -9   1  14   -0.07    0.05
  -8   1  14   15.07    0.49
  -7   1  14   11.06    0.38
  -6   1  14    1.67    0.11
  -5   1  14    0.06    0.05
  -4   1  14    2.62    0.14
   3  -1 -14   15.67    0.47
   2  -1 -14    4.23    0.18
   1  -1 -14    0.18    0.06
   0  -1 -14    3.45    0.17
  -1  -1 -14    0.12    0.06
 -12   2  14    2.42    0.15
 -11   2  14    0.43    0.08
 -10   2  14    0.63    0.08
  -9   2  14    7.29    0.28
  -8   2  14    0.72    0.08
  -7   2  14    1.84    0.12
  -6   2  14    8.45    0.30
  -5   2  14    6.95    0.26
  -4   2  14    2.05    0.12
   3  -2 -14    1.23    0.09
   2  -2 -14    2.42    0.13
   1  -2 -14    0.04    0.05
   0  -2 -14    0.01    0.05
 -12   3  14    2.02    0.14
 -11   3  14    4.47    0.20
 -10   3  14    1.19    0.11
  -9   3  14    4.77    0.21
  -8   3  14    4.40    0.19
  -7   3  14    2.78    0.14
  -6   3  14    4.88    0.20
  -5   3  14    0.51    0.07
   3  -3 -14    2.73    0.14
   2  -3 -14    0.30    0.06
   1  -3 -14    7.42    0.28
 -12   4  14    0.08    0.06
 -11   4  14    1.62    0.12
 -10   4  14    0.64    0.08
  -9   4  14    0.68    0.08
  -8   4  14    0.33    0.07
  -7   4  14    3.66    0.17
  -6   4  14    3.44    0.16
  -5   4  14    0.30    0.06
   4  -4 -14    2.62    0.14
   3  -4 -14    4.30    0.19
   2  -4 -14    0.50    0.08
   1  -4 -14    4.34    0.20
 -12   5  14    1.22    0.11
 -11   5  14    0.60    0.08
 -10   5  14    0.12    0.06
  -9   5  14    2.90    0.16
  -8   5  14    4.35    0.20
  -7   5  14    1.18    0.10
  -6   5  14    1.37    0.10
  -5   5  14    4.95    0.20
   4  -5 -14    3.86    0.17
   3  -5 -14   16.01    0.50
   2  -5 -14    1.08    0.10
 -11   6  14    0.27    0.07
 -10   6  14    7.41    0.29
  -9   6  14    0.28    0.07
  -8   6  14    7.00    0.27
  -7   6  14    3.47    0.17
  -6   6  14    2.74    0.14
   4  -6 -14    4.42    0.19
   3  -6 -14    5.57    0.23
 -10   7  14   12.47    0.43
  -9   7  14    1.96    0.13
  -8   7  14    0.71    0.09
  -7   7  14   10.55    0.36
  -6   7  14    0.72    0.09
   5  -7 -14    0.05    0.05
   4  -7 -14    7.43    0.28
  -9   8  14    7.51    0.29
  -8   8  14    0.39    0.08
  -7   8  14   -0.13    0.05
  -4  -8  15    0.05    0.05
  -3  -8  15    4.84    0.21
  -2  -8  15    4.99    0.21
  -6  -7  15    0.37    0.07
  -5  -7  15   12.93    0.42
  -4  -7  15    1.70    0.12
  -3  -7  15    1.20    0.10
  -2  -7  15    8.65    0.31
  -1  -7  15   11.54    0.39
  -8  -6  15    0.69    0.08
  -7  -6  15    3.45    0.16
  -6  -6  15    5.04    0.21
  -5  -6  15    0.22    0.06
  -4  -6  15    4.46    0.19
  -3  -6  15   10.31    0.35
  -2  -6  15    3.10    0.16
  -1  -6  15    2.41    0.14
   1  -6  15    1.47    0.12
  -9  -5  15    1.91    0.12
  -8  -5  15    7.03    0.26
  -7  -5  15    0.07    0.05
  -6  -5  15   13.82    0.43
  -5  -5  15    6.17    0.23
  -4  -5  15    4.44    0.19
  -3  -5  15    8.86    0.30
  -2  -5  15    1.80    0.12
   1  -5  15    3.53    0.18
 -10  -4  15    1.88    0.11
  -9  -4  15    0.83    0.08
  -8  -4  15    9.54    0.32
  -7  -4  15    0.78    0.08
  -6  -4  15    6.11    0.22
  -5  -4  15    6.16    0.23
  -4  -4  15    0.30    0.06
  -3  -4  15    0.50    0.07
  -2  -4  15    1.29    0.11
   0  -4  15    0.09    0.05
   1  -4  15    0.61    0.09
 -10  -3  15    2.03    0.11
  -9  -3  15    0.26    0.05
  -8  -3  15    7.60    0.26
  -7  -3  15   10.77    0.34
  -6  -3  15   -0.03    0.04
  -5  -3  15    1.71    0.10
   0  -3  15    1.08    0.10
   1  -3  15    1.32    0.12
 -10  -2  15    2.79    0.13
  -9  -2  15    1.79    0.10
  -4  -2  15   -0.03    0.04
  -1  -2  15    0.21    0.06
   0  -2  15    1.10    0.11
 -11  -1  15    1.67    0.13
 -10  -1  15    0.45    0.08
  -9  -1  15    7.69    0.29
  -8  -1  15   14.24    0.47
  -7  -1  15    0.53    0.07
  -6  -1  15    0.99    0.09
  -5  -1  15    0.70    0.08
  -4  -1  15    4.23    0.19
   1   1 -15    2.11    0.13
   0   1 -15    1.04    0.10
 -11   0  15    2.71    0.16
 -10   0  15    1.24    0.11
  -9   0  15    1.57    0.12
  -8   0  15    1.61    0.12
  -7   0  15    2.19    0.13
  -6   0  15    3.10    0.16
  -5   0  15    2.62    0.14
  -4   0  15    1.83    0.11
   1   0 -15    0.55    0.08
   0   0 -15    1.24    0.11
 -11   1  15    1.20    0.11
 -10   1  15    0.31    0.07
  -9   1  15    0.44    0.08
  -8   1  15    6.65    0.26
  -7   1  15    0.26    0.06
  -6   1  15    2.11    0.13
  -5   1  15    0.97    0.10
   2  -1 -15   10.62    0.36
   1  -1 -15    7.06    0.27
 -11   2  15    0.66    0.09
 -10   2  15    1.97    0.13
  -9   2  15    5.32    0.23
  -8   2  15    1.76    0.12
  -7   2  15    0.66    0.08
  -6   2  15    0.39    0.07
  -5   2  15    0.59    0.08
   2  -2 -15    0.33    0.07
   1  -2 -15   10.41    0.36
 -11   3  15   -0.02    0.05
 -10   3  15    0.71    0.09
  -9   3  15    0.17    0.06
  -8   3  15    2.81    0.15
  -7   3  15    0.12    0.06
  -6   3  15    3.12    0.15
  -5   3  15    0.66    0.08
   2  -3 -15   10.50    0.36
 -11   4  15    0.11    0.06
 -10   4  15   -0.02    0.05
  -9   4  15    0.68    0.08
  -8   4  15   -0.02    0.05
  -7   4  15    1.53    0.12
  -6   4  15    1.08    0.10
   3  -4 -15    2.11    0.13
 -10   5  15    0.16    0.06
  -9   5  15    3.53    0.18
  -8   5  15    1.33    0.11
  -7   5  15    9.78    0.34
  -6   5  15    3.74    0.18
  -9   6  15    1.07    0.11
  -8   6  15    0.24    0.07
  -7   6  15    3.12    0.17
  -7   7  15    2.88    0.16
  -6  -6  16    5.31    0.22
  -5  -6  16    2.30    0.13
  -4  -6  16    1.15    0.11
  -3  -6  16    9.53    0.33
  -2  -6  16    1.75    0.13
  -7  -5  16    0.77    0.08
  -6  -5  16    0.78    0.08
  -5  -5  16    2.47    0.14
  -4  -5  16    0.32    0.06
  -3  -5  16    1.32    0.11
  -2  -5  16    3.13    0.16
  -9  -4  16    0.04    0.04
  -8  -4  16    0.35    0.06
  -7  -4  16    2.87    0.14
  -6  -4  16    0.69    0.07
  -5  -4  16    0.71    0.08
  -4  -3  16    4.55    0.20
  -9  -2  16    0.66    0.09
  -8  -2  16    2.98    0.17
  -7  -2  16    0.25    0.07
  -6  -2  16    3.36    0.17
  -5  -2  16    0.04    0.05
  -9  -1  16   12.42    0.43
  -8  -1  16    4.35    0.20
  -7  -1  16    5.86    0.24
  -6  -1  16   -0.01    0.05
  -5  -1  16    0.45    0.07
  -9   0  16    0.79    0.10
  -8   0  16    2.48    0.15
  -7   0  16    3.05    0.16
  -6   0  16    2.22    0.13
  -5   0  16    0.77    0.09
 -10   1  16    1.31    0.12
  -9   1  16    3.66    0.19
  -8   1  16    3.27    0.17
  -7   1  16    0.22    0.06
  -6   1  16    1.06    0.10
  -9   2  16    2.05    0.14
  -8   2  16    3.39    0.17
  -7   2  16    0.41    0.07
  -6   2  16    0.01    0.05
  -9   3  16    0.88    0.10
  -8   3  16    0.09    0.06
  -7   3  16    0.02    0.05
  -6   3  16    1.32    0.11
  -9   4  16    3.64    0.18
  -8   4  16    0.52    0.08
  -7   4  16    1.02    0.10
  -8   5  16    1.60    0.12
  -7   5  16    0.35    0.07
  -6  -3  17    0.73    0.09
  -5  -3  17    0.15    0.06
  -7  -2  17    0.02    0.06
  -6  -2  17    4.57    0.21
  -7  -1  17    0.22    0.07
  -6  -1  17    0.14    0.06
  -7   0  17    2.74    0.16
  -6   0  17    1.36    0.11
  -7   1  17    3.17    0.17
  -7   2  17    0.12    0.06
   0   0   0    0.00    0.00
;
_shelx_hkl_checksum              85042
_shelx_shelxl_version_number     2014/7
_olex2_submission_special_instructions 'No special instructions were received'
loop_
_space_group_symop_operation_xyz
'x, y, z'
'-x, -y, -z'
loop_
_atom_site_label
_atom_site_type_symbol
_atom_site_fract_x
_atom_site_fract_y
_atom_site_fract_z
_atom_site_U_iso_or_equiv
_atom_site_adp_type
_atom_site_occupancy
_atom_site_site_symmetry_order
_atom_site_calc_flag
_atom_site_refinement_flags_posn
C1 C 0.14840(12) 0.31643(11) -0.00893(10) 0.0175(2) Uani 1 1 d .
C2 C 0.05969(13) 0.17666(12) -0.05052(12) 0.0223(2) Uani 1 1 d .
H2 H 0.0338 0.1292 0.0075 0.027 Uiso 1 1 calc R
C3 C 0.00934(14) 0.10697(13) -0.17540(12) 0.0274(3) Uani 1 1 d .
H3 H -0.0498 0.0122 -0.2021 0.033 Uiso 1 1 calc R
C4 C 0.04531(16) 0.17568(15) -0.26144(12) 0.0309(3) Uani 1 1 d .
H4 H 0.0089 0.1282 -0.3476 0.037 Uiso 1 1 calc R
C5 C 0.13386(17) 0.31290(15) -0.22177(12) 0.0312(3) Uani 1 1 d .
H5 H 0.1598 0.3595 -0.2803 0.037 Uiso 1 1 calc R
C6 C 0.18546(15) 0.38358(12) -0.09598(11) 0.0246(2) Uani 1 1 d .
H6 H 0.2463 0.4781 -0.0694 0.029 Uiso 1 1 calc R
C7 C 0.19871(12) 0.38649(10) 0.12492(10) 0.01556(19) Uani 1 1 d .
C8 C 0.28398(12) 0.53742(10) 0.18827(10) 0.0177(2) Uani 1 1 d .
C9 C 0.25848(12) 0.53833(10) 0.31046(10) 0.0174(2) Uani 1 1 d .
H9 H 0.1574 0.5445 0.2868 0.021 Uiso 1 1 calc R
C10 C 0.45646(13) 0.58142(13) 0.22233(12) 0.0264(2) Uani 1 1 d .
H10A H 0.5027 0.5362 0.2868 0.040 Uiso 1 1 calc GR
H10B H 0.5136 0.6790 0.2585 0.040 Uiso 1 1 calc GR
H10C H 0.4628 0.5570 0.1434 0.040 Uiso 1 1 calc GR
C11 C 0.21679(16) 0.62651(11) 0.11070(12) 0.0271(2) Uani 1 1 d .
H11A H 0.2300 0.6250 0.0325 0.041 Uiso 1 1 calc GR
H11B H 0.2719 0.7189 0.1647 0.041 Uiso 1 1 calc GR
H11C H 0.1054 0.5926 0.0852 0.041 Uiso 1 1 calc GR
C12 C 0.38671(13) 0.64915(11) 0.43461(11) 0.0228(2) Uani 1 1 d .
H12A H 0.4215 0.6071 0.5075 0.027 Uiso 1 1 calc R
H12B H 0.4775 0.6981 0.4212 0.027 Uiso 1 1 calc R
C13 C 0.33230(13) 0.74861(11) 0.47155(11) 0.0206(2) Uani 1 1 d .
H13A H 0.2970 0.7900 0.3983 0.025 Uiso 1 1 calc R
H13B H 0.2415 0.6994 0.4850 0.025 Uiso 1 1 calc R
C14 C 0.45686(13) 0.85881(11) 0.59321(11) 0.0212(2) Uani 1 1 d .
C15 C 0.60354(15) 0.87582(14) 0.66126(14) 0.0344(3) Uani 1 1 d .
H15A H 0.6741 0.9476 0.7373 0.041 Uiso 1 1 calc R
H15B H 0.6380 0.8162 0.6339 0.041 Uiso 1 1 calc R
C16 C 0.41398(13) 0.95783(11) 0.64410(11) 0.0216(2) Uani 1 1 d .
C17 C 0.21121(14) 1.01718(11) 0.62207(11) 0.0215(2) Uani 1 1 d .
H17A H 0.2623 1.0419 0.7175 0.032 Uiso 1 1 calc GR
H17B H 0.0977 0.9738 0.5875 0.032 Uiso 1 1 calc GR
H17C H 0.2398 1.0982 0.5906 0.032 Uiso 1 1 calc GR
C18 C -0.06472(12) 0.29389(11) 0.28848(10) 0.0174(2) Uani 1 1 d .
C19 C -0.13110(13) 0.37124(12) 0.31875(11) 0.0212(2) Uani 1 1 d .
H19 H -0.0708 0.4436 0.3947 0.025 Uiso 1 1 calc R
C20 C -0.28676(13) 0.34184(12) 0.23688(11) 0.0226(2) Uani 1 1 d .
H20 H -0.3333 0.3929 0.2590 0.027 Uiso 1 1 calc R
C21 C -0.37544(13) 0.23882(11) 0.12309(11) 0.0215(2) Uani 1 1 d .
C22 C -0.30533(13) 0.16399(11) 0.09273(11) 0.0217(2) Uani 1 1 d .
H22 H -0.3639 0.0947 0.0144 0.026 Uiso 1 1 calc R
C23 C -0.15148(13) 0.18932(11) 0.17530(11) 0.0198(2) Uani 1 1 d .
H23 H -0.1058 0.1362 0.1551 0.024 Uiso 1 1 calc R
C24 C -0.54353(15) 0.20910(14) 0.03505(14) 0.0324(3) Uani 1 1 d .
H24A H -0.6096 0.1515 0.0678 0.049 Uiso 1 1 calc GR
H24B H -0.5752 0.1629 -0.0532 0.049 Uiso 1 1 calc GR
H24C H -0.5552 0.2935 0.0333 0.049 Uiso 1 1 calc GR
N1 N 0.17963(10) 0.31409(9) 0.20392(9) 0.01656(17) Uani 1 1 d .
N2 N 0.23830(11) 0.40006(9) 0.32670(9) 0.01667(17) Uani 1 1 d .
O1 O 0.13915(10) 0.20058(9) 0.40610(8) 0.02373(18) Uani 1 1 d .
O2 O 0.18442(10) 0.42507(9) 0.51171(8) 0.02527(18) Uani 1 1 d .
O3 O 0.26097(9) 0.92532(8) 0.57874(8) 0.02060(17) Uani 1 1 d .
O4 O 0.50472(11) 1.05563(10) 0.73454(11) 0.0392(3) Uani 1 1 d .
S1 S 0.12994(3) 0.32633(3) 0.39616(2) 0.01790(8) Uani 1 1 d .
loop_
_atom_site_aniso_label
_atom_site_aniso_U_11
_atom_site_aniso_U_22
_atom_site_aniso_U_33
_atom_site_aniso_U_23
_atom_site_aniso_U_13
_atom_site_aniso_U_12
C1 0.0168(5) 0.0196(5) 0.0169(5) 0.0024(4) 0.0074(4) 0.0095(4)
C2 0.0201(5) 0.0212(5) 0.0232(5) -0.0006(4) 0.0099(4) 0.0077(4)
C3 0.0204(5) 0.0272(6) 0.0264(6) -0.0070(5) 0.0062(5) 0.0097(5)
C4 0.0305(6) 0.0445(7) 0.0170(5) -0.0022(5) 0.0056(5) 0.0236(6)
C5 0.0418(7) 0.0425(7) 0.0195(6) 0.0103(5) 0.0162(5) 0.0260(6)
C6 0.0311(6) 0.0263(5) 0.0203(5) 0.0072(4) 0.0136(5) 0.0145(5)
C7 0.0142(4) 0.0148(4) 0.0170(5) 0.0019(3) 0.0066(4) 0.0066(4)
C8 0.0173(5) 0.0143(4) 0.0172(5) 0.0020(4) 0.0063(4) 0.0047(4)
C9 0.0156(4) 0.0155(4) 0.0180(5) 0.0002(4) 0.0061(4) 0.0065(4)
C10 0.0183(5) 0.0281(6) 0.0250(6) 0.0009(4) 0.0107(4) 0.0022(4)
C11 0.0354(6) 0.0166(5) 0.0238(6) 0.0050(4) 0.0090(5) 0.0116(5)
C12 0.0169(5) 0.0213(5) 0.0225(5) -0.0056(4) 0.0049(4) 0.0072(4)
C13 0.0185(5) 0.0196(5) 0.0191(5) -0.0020(4) 0.0061(4) 0.0078(4)
C14 0.0192(5) 0.0183(5) 0.0221(5) -0.0019(4) 0.0091(4) 0.0057(4)
C15 0.0198(6) 0.0328(7) 0.0365(7) -0.0129(5) 0.0063(5) 0.0085(5)
C16 0.0186(5) 0.0184(5) 0.0227(5) -0.0010(4) 0.0083(4) 0.0053(4)
C17 0.0243(5) 0.0207(5) 0.0218(5) 0.0040(4) 0.0100(4) 0.0131(4)
C18 0.0173(5) 0.0208(5) 0.0161(5) 0.0068(4) 0.0088(4) 0.0087(4)
C19 0.0208(5) 0.0255(5) 0.0176(5) 0.0032(4) 0.0087(4) 0.0110(4)
C20 0.0216(5) 0.0267(5) 0.0233(5) 0.0064(4) 0.0111(4) 0.0136(4)
C21 0.0187(5) 0.0227(5) 0.0215(5) 0.0079(4) 0.0081(4) 0.0086(4)
C22 0.0205(5) 0.0187(5) 0.0207(5) 0.0028(4) 0.0077(4) 0.0057(4)
C23 0.0211(5) 0.0177(5) 0.0219(5) 0.0052(4) 0.0109(4) 0.0087(4)
C24 0.0205(6) 0.0342(7) 0.0331(7) 0.0044(5) 0.0049(5) 0.0121(5)
N1 0.0175(4) 0.0162(4) 0.0156(4) 0.0012(3) 0.0079(3) 0.0071(3)
N2 0.0177(4) 0.0165(4) 0.0155(4) 0.0015(3) 0.0083(3) 0.0070(3)
O1 0.0250(4) 0.0284(4) 0.0258(4) 0.0149(3) 0.0141(3) 0.0160(3)
O2 0.0237(4) 0.0379(5) 0.0139(4) 0.0019(3) 0.0076(3) 0.0151(4)
O3 0.0198(4) 0.0201(4) 0.0192(4) -0.0004(3) 0.0068(3) 0.0096(3)
O4 0.0220(4) 0.0297(5) 0.0449(6) -0.0191(4) 0.0062(4) 0.0055(4)
S1 0.01802(13) 0.02409(14) 0.01415(13) 0.00600(10) 0.00798(10) 0.01100(10)
loop_
_atom_type_symbol
_atom_type_description
_atom_type_scat_dispersion_real
_atom_type_scat_dispersion_imag
_atom_type_scat_source
C C 0.0033 0.0016 'International Tables Vol C Tables 4.2.6.8 and 6.1.1.4'
H H 0.0000 0.0000 'International Tables Vol C Tables 4.2.6.8 and 6.1.1.4'
N N 0.0061 0.0033 'International Tables Vol C Tables 4.2.6.8 and 6.1.1.4'
O O 0.0106 0.0060 'International Tables Vol C Tables 4.2.6.8 and 6.1.1.4'
S S 0.1246 0.1234 'International Tables Vol C Tables 4.2.6.8 and 6.1.1.4'
loop_
_geom_angle_atom_site_label_1
_geom_angle_atom_site_label_2
_geom_angle_atom_site_label_3
_geom_angle
C2 C1 C7 118.83(10)
C6 C1 C2 118.42(10)
C6 C1 C7 122.75(10)
C1 C2 H2 119.6
C3 C2 C1 120.79(11)
C3 C2 H2 119.6
C2 C3 H3 120.0
C2 C3 C4 120.03(12)
C4 C3 H3 120.0
C3 C4 H4 120.0
C5 C4 C3 119.98(11)
C5 C4 H4 120.0
C4 C5 H5 119.9
C4 C5 C6 120.26(12)
C6 C5 H5 119.9
C1 C6 C5 120.51(12)
C1 C6 H6 119.7
C5 C6 H6 119.7
C1 C7 C8 128.43(9)
N1 C7 C1 117.85(9)
N1 C7 C8 113.54(9)
C7 C8 C9 99.58(8)
C7 C8 C10 107.26(9)
C7 C8 C11 116.56(9)
C10 C8 C9 113.09(9)
C11 C8 C9 108.77(9)
C11 C8 C10 111.19(10)
C8 C9 H9 108.4
C12 C9 C8 117.13(9)
C12 C9 H9 108.4
N2 C9 C8 101.06(8)
N2 C9 H9 108.4
N2 C9 C12 112.97(9)
C8 C10 H10A 109.5
C8 C10 H10B 109.5
C8 C10 H10C 109.5
H10A C10 H10B 109.5
H10A C10 H10C 109.5
H10B C10 H10C 109.5
C8 C11 H11A 109.5
C8 C11 H11B 109.5
C8 C11 H11C 109.5
H11A C11 H11B 109.5
H11A C11 H11C 109.5
H11B C11 H11C 109.5
C9 C12 H12A 109.1
C9 C12 H12B 109.1
H12A C12 H12B 107.8
C13 C12 C9 112.71(9)
C13 C12 H12A 109.1
C13 C12 H12B 109.1
C12 C13 H13A 108.8
C12 C13 H13B 108.8
H13A C13 H13B 107.7
C14 C13 C12 113.58(9)
C14 C13 H13A 108.8
C14 C13 H13B 108.8
C15 C14 C13 125.58(10)
C15 C14 C16 115.97(10)
C16 C14 C13 118.45(10)
C14 C15 H15A 120.0
C14 C15 H15B 120.0
H15A C15 H15B 120.0
O3 C16 C14 112.21(9)
O4 C16 C14 124.91(11)
O4 C16 O3 122.88(11)
H17A C17 H17B 109.5
H17A C17 H17C 109.5
H17B C17 H17C 109.5
O3 C17 H17A 109.5
O3 C17 H17B 109.5
O3 C17 H17C 109.5
C19 C18 C23 120.66(10)
C19 C18 S1 119.33(8)
C23 C18 S1 119.99(8)
C18 C19 H19 120.3
C18 C19 C20 119.38(10)
C20 C19 H19 120.3
C19 C20 H20 119.5
C19 C20 C21 121.08(10)
C21 C20 H20 119.5
C20 C21 C22 118.66(10)
C20 C21 C24 120.35(11)
C22 C21 C24 120.99(11)
C21 C22 H22 119.5
C23 C22 C21 121.03(10)
C23 C22 H22 119.5
C18 C23 H23 120.4
C22 C23 C18 119.15(10)
C22 C23 H23 120.4
C21 C24 H24A 109.5
C21 C24 H24B 109.5
C21 C24 H24C 109.5
H24A C24 H24B 109.5
H24A C24 H24C 109.5
H24B C24 H24C 109.5
C7 N1 N2 108.86(8)
C9 N2 S1 118.59(7)
N1 N2 C9 109.01(8)
N1 N2 S1 108.85(7)
C16 O3 C17 115.26(9)
N2 S1 C18 107.29(5)
O1 S1 C18 108.48(5)
O1 S1 N2 106.35(5)
O1 S1 O2 119.94(5)
O2 S1 C18 108.65(5)
O2 S1 N2 105.47(5)
loop_
_geom_bond_atom_site_label_1
_geom_bond_atom_site_label_2
_geom_bond_distance
C1 C2 1.4027(15)
C1 C6 1.3956(16)
C1 C7 1.4792(14)
C2 H2 0.9500
C2 C3 1.3867(16)
C3 H3 0.9500
C3 C4 1.389(2)
C4 H4 0.9500
C4 C5 1.379(2)
C5 H5 0.9500
C5 C6 1.3964(17)
C6 H6 0.9500
C7 C8 1.5278(14)
C7 N1 1.2875(14)
C8 C9 1.5582(15)
C8 C10 1.5415(15)
C8 C11 1.5314(15)
C9 H9 1.0000
C9 C12 1.5367(14)
C9 N2 1.4958(13)
C10 H10A 0.9800
C10 H10B 0.9800
C10 H10C 0.9800
C11 H11A 0.9800
C11 H11B 0.9800
C11 H11C 0.9800
C12 H12A 0.9900
C12 H12B 0.9900
C12 C13 1.5174(15)
C13 H13A 0.9900
C13 H13B 0.9900
C13 C14 1.5114(15)
C14 C15 1.3270(17)
C14 C16 1.4958(15)
C15 H15A 0.9500
C15 H15B 0.9500
C16 O3 1.3376(14)
C16 O4 1.2081(14)
C17 H17A 0.9800
C17 H17B 0.9800
C17 H17C 0.9800
C17 O3 1.4437(13)
C18 C19 1.3866(15)
C18 C23 1.3973(15)
C18 S1 1.7632(11)
C19 H19 0.9500
C19 C20 1.3908(16)
C20 H20 0.9500
C20 C21 1.3920(16)
C21 C22 1.3982(16)
C21 C24 1.5063(16)
C22 H22 0.9500
C22 C23 1.3883(16)
C23 H23 0.9500
C24 H24A 0.9800
C24 H24B 0.9800
C24 H24C 0.9800
N1 N2 1.4171(12)
N2 S1 1.6692(9)
O1 S1 1.4306(9)
O2 S1 1.4349(9)
loop_
_geom_torsion_atom_site_label_1
_geom_torsion_atom_site_label_2
_geom_torsion_atom_site_label_3
_geom_torsion_atom_site_label_4
_geom_torsion
C1 C2 C3 C4 -0.64(18)
C1 C7 C8 C9 165.79(10)
C1 C7 C8 C10 -76.24(13)
C1 C7 C8 C11 49.10(15)
C1 C7 N1 N2 178.63(8)
C2 C1 C6 C5 0.59(17)
C2 C1 C7 C8 -174.74(10)
C2 C1 C7 N1 10.49(15)
C2 C3 C4 C5 1.33(19)
C3 C4 C5 C6 -1.1(2)
C4 C5 C6 C1 0.09(19)
C6 C1 C2 C3 -0.32(17)
C6 C1 C7 C8 5.24(17)
C6 C1 C7 N1 -169.52(10)
C7 C1 C2 C3 179.66(10)
C7 C1 C6 C5 -179.39(11)
C7 C8 C9 C12 148.82(9)
C7 C8 C9 N2 25.66(9)
C7 N1 N2 C9 15.84(11)
C7 N1 N2 S1 146.57(8)
C8 C7 N1 N2 3.10(12)
C8 C9 C12 C13 113.08(11)
C8 C9 N2 N1 -26.68(10)
C8 C9 N2 S1 -151.92(7)
C9 C12 C13 C14 -179.80(10)
C9 N2 S1 C18 67.56(8)
C9 N2 S1 O1 -176.51(7)
C9 N2 S1 O2 -48.14(9)
C10 C8 C9 C12 35.30(13)
C10 C8 C9 N2 -87.86(10)
C11 C8 C9 C12 -88.75(11)
C11 C8 C9 N2 148.09(9)
C12 C9 N2 N1 -152.66(9)
C12 C9 N2 S1 82.10(10)
C12 C13 C14 C15 3.26(19)
C12 C13 C14 C16 -176.15(10)
C13 C14 C16 O3 6.31(15)
C13 C14 C16 O4 -174.51(12)
C14 C16 O3 C17 -179.58(9)
C15 C14 C16 O3 -173.16(12)
C15 C14 C16 O4 6.0(2)
C18 C19 C20 C21 -2.01(17)
C19 C18 C23 C22 0.33(16)
C19 C18 S1 N2 -107.02(9)
C19 C18 S1 O1 138.47(9)
C19 C18 S1 O2 6.55(11)
C19 C20 C21 C22 0.54(17)
C19 C20 C21 C24 -179.53(11)
C20 C21 C22 C23 1.40(17)
C21 C22 C23 C18 -1.84(17)
C23 C18 C19 C20 1.56(17)
C23 C18 S1 N2 74.29(9)
C23 C18 S1 O1 -40.23(10)
C23 C18 S1 O2 -172.14(8)
C24 C21 C22 C23 -178.52(11)
N1 C7 C8 C9 -19.26(11)
N1 C7 C8 C10 98.71(11)
N1 C7 C8 C11 -135.95(11)
N1 N2 S1 C18 -57.76(8)
N1 N2 S1 O1 58.17(8)
N1 N2 S1 O2 -173.45(7)
N2 C9 C12 C13 -130.09(10)
O4 C16 O3 C17 1.22(17)
S1 C18 C19 C20 -177.12(9)
S1 C18 C23 C22 179.01(8)
