#------------------------------------------------------------------------------
#$Date: 2017-07-25 13:33:40 +0300 (Tue, 25 Jul 2017) $
#$Revision: 199281 $
#$URL: file:///home/coder/svn-repositories/cod/cif/1/54/66/1546687.cif $
#------------------------------------------------------------------------------
#
# This file is available in the Crystallography Open Database (COD),
# http://www.crystallography.net/. The original data for this entry
# were provided by IUCr Journals, http://journals.iucr.org/.
#
# The file may be used within the scientific community so long as
# proper attribution is given to the journal article from which the
# data were obtained.
#
data_1546687
loop_
_publ_author_name
'Watkins, Sydney M.'
'Hagen, Timothy J.'
'Perkins, Timothy S.'
'Zheng, Chong'
_publ_section_title
;
 (<i>Z</i>)-4-Chloro-<i>N</i>-{3-[(4-chlorophenyl)sulfonyl]-2,3-dihydrobenzo[<i>d</i>]thiazol-2-ylidene}benzenesulfonamide
;
_journal_coeditor_code           WM4046
_journal_issue                   6
_journal_name_full               IUCrData
_journal_page_first              x170865
_journal_paper_doi               10.1107/S2414314617008653
_journal_volume                  2
_journal_year                    2017
_chemical_formula_iupac          'C19 H12 Cl2 N2 O4 S3'
_chemical_formula_moiety         'C19 H12 Cl2 N2 O4 S3'
_chemical_formula_sum            'C19 H12 Cl2 N2 O4 S3'
_chemical_formula_weight         499.39
_chemical_name_systematic
(<i>Z</i>)-4-Chloro-<i>N</i>-{3-[(4-chlorophenyl)sulfonyl]-2,3-dihydrobenzo[<i>d</i>]thiazol-2-ylidene}benzenesulfonamide
_space_group_crystal_system      triclinic
_space_group_IT_number           2
_space_group_name_Hall           '-P 1'
_space_group_name_H-M_alt        'P -1'
_symmetry_space_group_name_Hall  '-P 1'
_symmetry_space_group_name_H-M   'P -1'
_atom_sites_solution_hydrogens   geom
_audit_creation_method           SHELXL-2016/6
_cell_angle_alpha                87.747(2)
_cell_angle_beta                 81.840(2)
_cell_angle_gamma                87.849(2)
_cell_formula_units_Z            2
_cell_length_a                   7.1330(9)
_cell_length_b                   8.1155(11)
_cell_length_c                   17.798(2)
_cell_measurement_reflns_used    906
_cell_measurement_temperature    293(2)
_cell_measurement_theta_max      14
_cell_measurement_theta_min      2
_cell_volume                     1018.5(2)
_computing_cell_refinement
;
SAINT (Bruker, 1999)
;
_computing_data_collection
;
SMART (Bruker, 1999)
;
_computing_data_reduction
;
SAINT (Bruker, 1999)
;
_computing_molecular_graphics
;
XP in SHELXTL (Sheldrick, 2008) and Mercury (Macrae <i>et al.</i>,
2006)
;
_computing_publication_material
;
publCIF (Westrip, 2010)
;
_computing_structure_refinement
;
SHELXL2016 (Sheldrick, 2015)
;
_computing_structure_solution
;
SIR97 (Altomare <i>et al.</i>,  1999)
;
_diffrn_ambient_temperature      293(2)
_diffrn_detector_area_resol_mean 0
_diffrn_measured_fraction_theta_full 0.983
_diffrn_measured_fraction_theta_max 0.983
_diffrn_measurement_device_type  'Bruker SMART CCD PLATFORM'
_diffrn_measurement_method       '\w scans'
_diffrn_radiation_type           MoK\a
_diffrn_radiation_wavelength     0.71073
_diffrn_reflns_av_R_equivalents  0.0163
_diffrn_reflns_limit_h_max       8
_diffrn_reflns_limit_h_min       -8
_diffrn_reflns_limit_k_max       9
_diffrn_reflns_limit_k_min       -9
_diffrn_reflns_limit_l_max       21
_diffrn_reflns_limit_l_min       -21
_diffrn_reflns_number            7549
_diffrn_reflns_theta_full        24.998
_diffrn_reflns_theta_max         24.998
_diffrn_reflns_theta_min         2.313
_exptl_absorpt_coefficient_mu    0.657
_exptl_absorpt_correction_T_max  0.2643
_exptl_absorpt_correction_T_min  0.1863
_exptl_absorpt_correction_type   multi-scan
_exptl_absorpt_process_details
;
(<i>SADABS</i>; Bruker, 1999)
;
_exptl_crystal_colour            colorless
_exptl_crystal_density_diffrn    1.628
_exptl_crystal_description       fragment
_exptl_crystal_F_000             508
_exptl_crystal_size_max          0.60
_exptl_crystal_size_mid          0.30
_exptl_crystal_size_min          0.25
_refine_diff_density_max         0.584
_refine_diff_density_min         -0.617
_refine_ls_extinction_method     none
_refine_ls_goodness_of_fit_ref   1.040
_refine_ls_hydrogen_treatment    constr
_refine_ls_matrix_type           full
_refine_ls_number_parameters     271
_refine_ls_number_reflns         3530
_refine_ls_number_restraints     0
_refine_ls_restrained_S_all      1.040
_refine_ls_R_factor_all          0.0382
_refine_ls_R_factor_gt           0.0361
_refine_ls_shift/su_max          0.003
_refine_ls_shift/su_mean         0.000
_refine_ls_structure_factor_coef Fsqd
_refine_ls_weighting_details
'w=1/[\s^2^(Fo^2^)+(0.0448P)^2^+0.6375P] where P=(Fo^2^+2Fc^2^)/3'
_refine_ls_weighting_scheme      calc
_refine_ls_wR_factor_gt          0.0943
_refine_ls_wR_factor_ref         0.0959
_reflns_number_gt                3301
_reflns_number_total             3530
_reflns_threshold_expression     'I > 2\s(I)'
_cod_data_source_file            wm4046sup1.cif
_cod_data_source_block           I
_cod_database_code               1546687
_shelx_space_group_comment
;
The symmetry employed for this shelxl refinement is uniquely defined
by the following loop, which should always be used as a source of
symmetry information in preference to the above space-group names.
They are only intended as comments.
;
_shelx_hkl_file
;
   1   0   0    6.42    0.17
   1   0   0    6.27    0.16
   3   0   0  181.95    4.48
   3   0   0  178.86    4.28
   3   0   0  179.93    4.24
   4   0   0  133.98    3.19
   4   0   0  135.49    3.17
   4   0   0  135.79    3.33
   5   0   0   18.50    0.49
   5   0   0   18.61    0.49
   5   0   0   19.48    0.52
   6   0   0    8.99    0.31
   6   0   0    8.84    0.27
  -7   0   0    0.46    0.09
   7   0   0    0.57    0.11
   7   0   0    0.40    0.09
  -8   0   0    4.44    0.22
  -8   0   0    4.38    0.14
   8  -1   0    0.06    0.11
   7  -1   0   -0.10    0.09
  -7   1   0    0.07    0.09
   6  -1   0    3.20    0.17
   6  -1   0    3.07    0.18
  -6   1   0    3.30    0.16
   5  -1   0    0.62    0.08
   5  -1   0    0.78    0.12
  -5   1   0    0.72    0.10
   3  -1   0   32.33    0.78
   3  -1   0   31.52    0.81
  -3   1   0   31.38    0.77
   2  -1   0  162.00    3.84
   2  -1   0  164.70    4.06
  -2   1   0  159.57    3.86
   1  -1   0    8.99    0.24
   1  -1   0    9.08    0.23
  -1   1   0    8.64    0.22
   0  -1   0   54.24    1.27
   0  -1   0   48.66    1.30
   0   1   0   47.99    1.21
   1   1   0  372.47    9.28
   2   1   0   26.83    0.67
   2   1   0   25.55    0.63
   3   1   0  133.04    3.27
   3   1   0  130.44    3.10
   3   1   0  133.52    3.13
   4   1   0   11.49    0.30
   4   1   0   10.79    0.32
   4   1   0   10.91    0.29
   5   1   0   11.56    0.33
   5   1   0   10.37    0.35
   5   1   0   13.24    0.33
   6   1   0    6.28    0.23
   6   1   0    5.98    0.25
  -7  -1   0    0.04    0.08
  -7  -1   0    0.01    0.05
   7   1   0   -0.07    0.10
   7   1   0    0.09    0.10
   8   1   0    1.69    0.20
   9  -2   0   -0.14    0.14
   8  -2   0    1.21    0.17
   7  -2   0   -0.08    0.09
  -7   2   0    0.01    0.08
   6  -2   0   99.47    2.37
  -6   2   0   99.01    2.37
   5  -2   0    0.68    0.08
   5  -2   0    0.92    0.11
  -5   2   0    1.02    0.11
   4  -2   0   92.74    2.17
   4  -2   0   91.14    2.27
  -4   2   0   91.12    2.17
   3  -2   0    8.41    0.23
   3  -2   0    8.19    0.23
  -3   2   0    8.12    0.22
   2  -2   0  101.90    2.57
   2  -2   0  105.72    2.42
  -2   2   0  101.65    2.44
   1  -2   0  187.21    4.45
   1  -2   0  192.11    4.71
  -1   2   0  182.00    4.44
  -1  -2   0    2.16    0.09
  -1  -2   0    2.25    0.07
   1   2   0    2.64    0.08
  -2  -2   0   51.74    1.24
   2   2   0   52.06    1.25
   2   2   0   53.24    1.31
  -3  -2   0    9.74    0.24
   3   2   0    9.20    0.26
   3   2   0    9.65    0.28
  -4  -2   0    7.40    0.14
  -4  -2   0    7.32    0.21
   4   2   0    7.61    0.23
   4   2   0    7.71    0.25
  -5  -2   0    7.98    0.23
  -5  -2   0    7.91    0.15
   5   2   0    7.35    0.26
   5   2   0    7.70    0.25
  -6  -2   0   23.21    0.59
  -6  -2   0   23.43    0.39
   6   2   0   22.54    0.65
   6   2   0   23.81    0.62
   7   2   0    1.77    0.18
   7   2   0    1.90    0.19
  -8  -2   0    5.53    0.26
   8  -3   0    0.52    0.14
   7  -3   0    0.69    0.12
   6  -3   0    1.04    0.16
  -6   3   0    1.56    0.13
   5  -3   0    2.50    0.16
  -5   3   0    2.16    0.13
   4  -3   0    0.64    0.09
   4  -3   0    0.59    0.08
  -4   3   0    0.61    0.08
   3  -3   0   25.74    0.65
   3  -3   0   25.31    0.64
  -3   3   0   25.39    0.63
   2  -3   0    3.10    0.12
   2  -3   0    2.92    0.10
  -2   3   0    3.07    0.11
   1  -3   0   11.19    0.29
   1  -3   0   10.85    0.29
  -1   3   0   10.76    0.28
   0   3   0  680.76   16.07
  -1  -3   0    0.79    0.08
  -1  -3   0    0.70    0.05
   1   3   0    0.60    0.06
  -2  -3   0  435.09   10.68
  -2  -3   0  439.52   10.16
   2   3   0  417.25   10.19
  -3  -3   0    0.06    0.05
  -3  -3   0    0.03    0.02
   3   3   0   -0.05    0.05
  -4  -3   0   10.78    0.28
   4   3   0   11.14    0.31
   5   3   0   44.41    1.10
  -6  -3   0    6.24    0.24
   6   3   0    5.95    0.24
  -7  -3   0    0.49    0.11
  -8  -3   0    0.90    0.15
  -9  -3   0    1.05    0.19
   8  -4   0    0.44    0.13
   7  -4   0    1.21    0.16
   6  -4   0   13.29    0.41
  -6   4   0   13.44    0.38
   5  -4   0    1.90    0.15
  -5   4   0    1.75    0.13
   4  -4   0    8.16    0.28
  -4   4   0    9.05    0.26
   3  -4   0   41.08    1.01
   3  -4   0   39.83    1.03
  -3   4   0   42.96    1.00
   2  -4   0   34.96    0.84
   2  -4   0   33.52    0.86
  -2   4   0   34.12    0.83
   1  -4   0  264.72    6.39
   1  -4   0  259.48    6.11
  -1   4   0  252.05    6.15
   0  -4   0   87.24    2.07
   0  -4   0   90.45    2.18
   0   4   0   86.71    2.09
  -1  -4   0  362.81    9.01
  -1  -4   0  374.02    8.55
   1   4   0  354.14    8.63
  -2  -4   0   73.56    1.75
  -2  -4   0   75.37    1.86
   2   4   0   74.42    1.77
  -3  -4   0  258.45    6.28
  -3  -4   0  255.18    5.97
   3   4   0  252.66    6.01
  -4  -4   0   16.56    0.47
   4   4   0   16.47    0.44
  -5  -4   0   81.28    2.10
   5   4   0   84.58    2.00
  -6  -4   0   69.53    1.80
   6   4   0   70.68    1.71
  -7  -4   0    2.50    0.22
   7   4   0    2.59    0.21
  -8  -4   0   10.53    0.40
   7  -5   0    9.30    0.34
   6  -5   0    0.93    0.14
  -6   5   0    1.47    0.15
   5  -5   0    6.74    0.26
  -5   5   0    6.30    0.23
   4  -5   0    3.64    0.18
  -4   5   0    3.71    0.16
   3  -5   0   77.96    1.84
  -3   5   0   75.77    1.84
   2  -5   0   12.77    0.35
   2  -5   0   13.08    0.36
  -2   5   0   14.05    0.36
   1  -5   0    9.57    0.27
   1  -5   0    9.51    0.27
  -1   5   0    9.65    0.27
   0  -5   0   17.60    0.48
   0  -5   0   17.84    0.45
   0   5   0   18.11    0.46
  -1  -5   0    1.01    0.09
  -1  -5   0    0.90    0.10
  -2  -5   0   73.82    1.82
  -2  -5   0   71.88    1.70
   2   5   0   71.16    1.73
  -3  -5   0    6.36    0.24
   3   5   0    6.23    0.21
  -4  -5   0   10.88    0.35
   4   5   0   10.32    0.31
  -5  -5   0   11.62    0.38
   5   5   0   11.42    0.35
  -6  -5   0    2.03    0.18
   6   5   0    1.94    0.19
  -7  -5   0    0.49    0.15
   7   5   0    0.82    0.16
  -8  -5   0    1.05    0.19
   7  -6   0   11.75    0.40
   6  -6   0   11.85    0.40
  -6   6   0   11.99    0.37
   5  -6   0   10.41    0.36
  -5   6   0   10.97    0.33
   4  -6   0   24.01    0.65
  -4   6   0   24.51    0.63
   3  -6   0   24.56    0.65
  -3   6   0   25.39    0.64
   2  -6   0    7.16    0.25
  -2   6   0    7.23    0.23
   1  -6   0    0.85    0.11
   1  -6   0    0.82    0.11
  -1   6   0    0.87    0.11
   0  -6   0   80.36    1.90
   0  -6   0   78.06    2.00
   0   6   0   81.65    1.92
  -1  -6   0    0.92    0.12
   1   6   0    1.15    0.11
  -2  -6   0   34.07    0.89
   2   6   0   33.73    0.84
  -3  -6   0   23.66    0.65
   3   6   0   23.05    0.61
  -4  -6   0    8.70    0.31
   4   6   0    8.30    0.27
  -5  -6   0   46.10    1.22
   5   6   0   45.67    1.15
  -6  -6   0    3.36    0.23
   6   6   0    3.71    0.22
  -7  -6   0    2.67    0.22
   7   6   0    2.82    0.25
   6  -7   0    1.38    0.18
  -6   7   0    1.50    0.18
   5  -7   0    0.63    0.12
  -5   7   0    0.57    0.12
   4  -7   0   12.54    0.39
  -4   7   0   12.15    0.37
   3  -7   0    8.88    0.30
  -3   7   0    9.19    0.29
   2  -7   0   53.08    1.31
  -2   7   0   54.24    1.32
   1  -7   0   27.75    0.71
  -1   7   0   27.70    0.71
   0  -7   0    5.47    0.23
   0   7   0    7.18    0.22
  -1  -7   0   24.08    0.67
   1   7   0   25.22    0.64
  -2  -7   0   12.17    0.39
   2   7   0   12.73    0.36
  -3  -7   0    0.17    0.11
   3   7   0    0.13    0.08
  -4  -7   0    4.58    0.24
   4   7   0    4.22    0.20
  -5  -7   0   -0.21    0.11
   5   7   0    0.10    0.11
  -6  -7   0   -0.07    0.12
   6   7   0   -0.10    0.14
  -7  -7   0   -0.10    0.16
   7   7   0   -0.06    0.17
  -6   8   0    0.12    0.14
   5  -8   0    0.48    0.15
  -5   8   0    0.62    0.14
   4  -8   0    1.66    0.19
  -4   8   0    1.66    0.17
   3  -8   0   14.95    0.46
  -3   8   0   15.19    0.44
   2  -8   0   11.11    0.36
  -2   8   0   11.37    0.35
  -1   8   0   18.43    0.50
   0   8   0    7.87    0.26
  -1  -8   0    7.85    0.29
   1   8   0    7.57    0.26
  -2  -8   0    9.95    0.35
   2   8   0   10.69    0.32
  -3  -8   0    1.72    0.17
   3   8   0    1.86    0.16
  -4  -8   0    4.96    0.26
   4   8   0    4.95    0.23
  -5  -8   0    7.33    0.33
   5   8   0    7.55    0.30
  -6  -8   0   -0.04    0.17
   6   8   0    0.06    0.16
   7   8   0    0.76    0.22
   5  -9   0    3.56    0.26
  -5   9   0    3.53    0.24
   4  -9   0   10.85    0.39
  -4   9   0   11.19    0.37
  -3   9   0    3.71    0.19
  -2   9   0   17.54    0.50
  -1   9   0    7.78    0.28
   0   9   0   14.26    0.42
   1   9   0    4.11    0.21
  -2  -9   0    2.93    0.22
   2   9   0    3.12    0.18
  -3  -9   0    0.37    0.15
   3   9   0    0.19    0.13
  -4  -9   0    1.22    0.22
   4   9   0    1.09    0.18
   5   9   0    5.16    0.27
  -3  10   0    6.70    0.28
  -2  10   0    3.96    0.23
  -1  10   0   12.62    0.40
   0  10   0    2.86    0.21
   1  10   0    6.61    0.27
   2  10   0    3.96    0.21
  -3 -10   0    3.40    0.28
   3  10   0    3.86    0.24
  -4 -10   1    3.49    0.28
   3  10  -1    5.52    0.27
  -3 -10   1    5.27    0.31
   2  10  -1    0.35    0.15
   1  10  -1   11.65    0.38
   0  10  -1    7.18    0.29
  -1  10  -1    4.35    0.22
  -2  10  -1   11.47    0.37
   5   9  -1    3.33    0.24
  -5  -9   1    3.44    0.25
   4   9  -1    1.41    0.19
  -4  -9   1    1.28    0.21
   3   9  -1    3.55    0.20
  -3  -9   1    3.78    0.25
   2   9  -1    1.61    0.15
  -2  -9   1    1.51    0.19
   1   9  -1    3.31    0.19
   0   9  -1   15.30    0.45
  -1   9  -1    3.62    0.20
  -2   9  -1   11.15    0.35
  -3   9  -1    8.91    0.31
  -4   9  -1    1.86    0.19
   4  -9   1    1.79    0.23
  -5   9  -1    4.17    0.25
   5  -9   1    3.95    0.28
   6   8  -1    1.51    0.22
  -6  -8   1    1.67    0.24
   5   8  -1    1.58    0.18
  -5  -8   1    1.46    0.20
   4   8  -1    8.91    0.31
  -4  -8   1    8.74    0.35
   3   8  -1   34.74    0.88
  -3  -8   1   34.24    0.94
   2   8  -1    0.80    0.14
  -2  -8   1    0.52    0.12
   1   8  -1   33.96    0.85
  -1  -8   1   32.81    0.89
   0   8  -1    4.00    0.18
  -1   8  -1   10.08    0.32
  -2   8  -1    1.17    0.12
   2  -8   1    1.23    0.17
  -3   8  -1    6.04    0.24
   3  -8   1    6.18    0.27
  -4   8  -1    1.08    0.16
   4  -8   1    1.27    0.17
  -5   8  -1    8.18    0.30
   5  -8   1    7.71    0.33
  -6   8  -1   -0.01    0.14
   6   7  -1    0.24    0.14
  -6  -7   1    0.20    0.16
   5   7  -1    3.24    0.20
  -5  -7   1    3.18    0.21
   4   7  -1    0.04    0.10
  -4  -7   1    0.14    0.12
   3   7  -1    6.41    0.23
  -3  -7   1    6.92    0.27
   2   7  -1    6.68    0.23
  -2  -7   1    6.40    0.25
   1   7  -1    8.55    0.27
  -1  -7   1    8.34    0.29
   0   7  -1   33.65    0.83
   0  -7   1   31.69    0.85
  -1   7  -1    5.39    0.20
   1  -7   1    5.68    0.23
  -2   7  -1   -0.02    0.08
   2  -7   1    0.10    0.09
  -3   7  -1    7.55    0.26
   3  -7   1    7.99    0.29
  -4   7  -1    0.85    0.13
   4  -7   1    0.77    0.12
  -5   7  -1    0.44    0.12
   5  -7   1    0.33    0.12
  -6   7  -1    5.09    0.23
   6  -7   1    4.78    0.25
  -7  -6   1   11.35    0.43
   6   6  -1    3.08    0.22
  -6  -6   1    2.74    0.23
   5   6  -1   44.40    1.14
  -5  -6   1   46.42    1.21
   4   6  -1   30.26    0.78
  -4  -6   1   30.68    0.83
   3   6  -1    8.84    0.28
  -3  -6   1    9.34    0.31
   2   6  -1    5.61    0.20
  -2  -6   1    5.57    0.22
   1   6  -1    1.80    0.13
  -1  -6   1    2.06    0.13
  -1  -6   1    2.04    0.14
   0   6  -1   10.21    0.30
   0  -6   1    9.84    0.31
   0  -6   1    9.68    0.29
  -1   6  -1    0.18    0.07
   1  -6   1   -0.09    0.06
   1  -6   1   -0.06    0.06
  -2   6  -1   16.39    0.44
   2  -6   1   16.60    0.45
  -3   6  -1   10.75    0.31
   3  -6   1   10.43    0.34
  -4   6  -1   10.82    0.32
   4  -6   1   10.86    0.35
  -5   6  -1   39.50    0.98
   5  -6   1   38.92    1.00
  -6   6  -1    0.67    0.12
   6  -6   1    0.50    0.13
  -7   6  -1    4.78    0.24
   7  -6   1    4.82    0.28
  -8  -5   1    0.89    0.16
  -7  -5   1    5.12    0.28
   6   5  -1    0.95    0.14
  -6  -5   1    0.92    0.16
   5   5  -1    2.04    0.15
  -5  -5   1    1.65    0.16
   4   5  -1    1.74    0.12
  -4  -5   1    1.63    0.16
   3   5  -1    1.69    0.12
  -3  -5   1    1.73    0.13
   2   5  -1    1.40    0.10
  -2  -5   1    1.31    0.11
  -2  -5   1    1.49    0.09
   1   5  -1   12.57    0.33
  -1  -5   1   11.97    0.32
  -1  -5   1   12.18    0.35
   0   5  -1   41.18    0.99
   0  -5   1   41.55    0.98
   0  -5   1   39.47    1.03
  -1   5  -1    0.83    0.09
   1  -5   1    0.63    0.09
   1  -5   1    0.55    0.07
  -2   5  -1    2.27    0.12
   2  -5   1    2.26    0.13
   2  -5   1    2.17    0.10
  -3   5  -1   27.26    0.69
   3  -5   1   27.48    0.70
  -4   5  -1    7.18    0.24
   4  -5   1    7.46    0.26
  -5   5  -1   28.34    0.71
   5  -5   1   27.21    0.73
  -6   5  -1   38.00    0.97
   6  -5   1   39.08    1.00
  -7   5  -1    1.39    0.16
   7  -5   1    1.13    0.18
   8  -5   1    6.37    0.31
  -8  -4   1    6.02    0.31
  -7  -4   1   15.93    0.50
   6   4  -1    0.44    0.12
  -6  -4   1    0.38    0.11
   5   4  -1  178.76    4.23
   4   4  -1    6.62    0.22
  -4  -4   1    6.66    0.25
   3   4  -1   37.77    0.93
  -3  -4   1   37.90    0.98
  -3  -4   1   37.88    0.90
   2   4  -1   72.21    1.77
  -2  -4   1   75.76    1.86
  -2  -4   1   74.58    1.74
   1   4  -1   49.99    1.20
  -1  -4   1   49.44    1.18
  -1  -4   1   49.74    1.25
   0   4  -1    2.31    0.10
   0  -4   1    2.85    0.11
   0  -4   1    2.16    0.11
  -1   4  -1   93.07    2.20
   1  -4   1   93.15    2.18
   1  -4   1   92.05    2.29
  -2   4  -1   52.53    1.26
   2  -4   1   50.60    1.31
   2  -4   1   54.61    1.26
  -3   4  -1   11.40    0.31
   3  -4   1   11.42    0.30
   3  -4   1   11.40    0.32
  -4   4  -1   56.00    1.35
   4  -4   1   55.57    1.36
  -5   4  -1   23.18    0.60
   5  -4   1   23.39    0.62
  -6   4  -1   36.72    0.93
   6  -4   1   38.04    0.96
  -7   4  -1    0.07    0.10
   7  -4   1   -0.15    0.12
   8  -4   1    0.01    0.14
  -9  -3   1    0.27    0.18
  -8  -3   1    0.04    0.12
   6   3  -1   22.11    0.58
   6   3  -1   20.89    0.61
   5   3  -1    1.18    0.13
  -5  -3   1    1.45    0.10
   4   3  -1   10.75    0.30
   4   3  -1   10.76    0.33
  -4  -3   1   10.84    0.28
   3   3  -1   91.12    2.21
   3   3  -1   95.63    2.32
  -3  -3   1   92.23    2.18
   2   3  -1    7.58    0.23
   2   3  -1    7.40    0.21
  -2  -3   1    7.54    0.19
   1   3  -1  129.35    3.14
  -1  -3   1  135.84    3.14
  -1  -3   1  133.65    3.28
  -1   3  -1   82.12    1.98
   1  -3   1   82.99    2.07
   1  -3   1   85.45    1.97
  -2   3  -1  112.50    2.67
   2  -3   1  112.49    2.82
   2  -3   1  114.73    2.66
  -3   3  -1    1.16    0.07
   3  -3   1    1.37    0.09
   3  -3   1    1.17    0.07
  -4   3  -1   14.51    0.38
   4  -3   1   14.52    0.39
   4  -3   1   14.25    0.38
  -5   3  -1    6.18    0.21
   5  -3   1    6.34    0.23
  -6   3  -1   45.51    1.14
   6  -3   1   47.80    1.17
  -7   3  -1    0.01    0.08
   7  -3   1   -0.07    0.11
   8  -3   1    0.54    0.14
   9  -3   1   -0.07    0.13
   8   2  -1   14.15    0.47
   7   2  -1    0.17    0.12
   6   2  -1   29.67    0.74
   6   2  -1   28.20    0.78
  -6  -2   1   28.25    0.46
  -6  -2   1   28.38    0.71
   5   2  -1    8.01    0.28
   5   2  -1    8.41    0.26
  -5  -2   1    8.29    0.15
  -5  -2   1    8.26    0.23
   4   2  -1   44.70    1.07
   4   2  -1   42.18    1.12
  -4  -2   1   44.74    1.04
   3   2  -1   58.79    1.42
   3   2  -1   60.61    1.50
  -3  -2   1   59.52    1.40
   2   2  -1  118.67    2.85
   2   2  -1  119.11    2.95
  -2  -2   1  120.38    2.82
   1   2  -1   41.64    1.06
   1   2  -1   40.44    1.01
  -1  -2   1   45.44    1.01
  -1   2  -1    7.43    0.19
   1  -2   1    7.30    0.20
   1  -2   1    7.77    0.20
  -2   2  -1    4.91    0.14
   2  -2   1    4.74    0.14
   2  -2   1    4.74    0.15
  -3   2  -1   10.55    0.27
   3  -2   1    9.98    0.28
   3  -2   1    9.73    0.27
  -4   2  -1    0.07    0.04
   4  -2   1    0.02    0.05
   4  -2   1    0.03    0.05
  -5   2  -1    7.60    0.23
   5  -2   1    7.45    0.25
   5  -2   1    7.74    0.24
  -6   2  -1    5.65    0.22
   6  -2   1    5.57    0.23
  -7   2  -1    2.39    0.15
   7  -2   1    2.06    0.17
   8  -2   1    4.59    0.24
   9  -2   1   -0.05    0.14
   8   1  -1   -0.06    0.13
   7   1  -1    0.33    0.12
  -7  -1   1    0.33    0.09
  -7  -1   1    0.43    0.06
   6   1  -1   28.08    0.73
   6   1  -1   28.73    0.78
  -6  -1   1   28.84    0.71
  -6  -1   1   28.46    0.47
   5   1  -1  157.68    3.75
   5   1  -1  159.89    3.93
  -5  -1   1  158.44    3.72
  -5  -1   1  159.30    2.44
   4   1  -1   64.86    1.63
   4   1  -1   66.17    1.55
  -4  -1   1   65.08    1.01
  -4  -1   1   63.70    1.54
   3   1  -1  228.21    5.53
   3   1  -1  234.72    5.78
  -3  -1   1  232.07    5.46
  -3  -1   1  234.22    3.58
   1   1  -1   16.53    0.41
   1   1  -1   17.16    0.44
  -1  -1   1   17.29    0.41
   0   1  -1  161.95    4.27
   0   1  -1  181.64    4.62
   0  -1   1  188.57    4.30
   1  -1   1   33.46    1.03
   1  -1   1   33.37    0.80
  -2   1  -1   36.83    0.87
   2  -1   1   35.36    0.92
   2  -1   1   37.05    0.87
  -3   1  -1    3.67    0.13
   3  -1   1    3.68    0.13
   3  -1   1    3.97    0.13
  -4   1  -1   41.92    1.03
   4  -1   1   42.29    1.07
   4  -1   1   43.03    1.03
  -5   1  -1  130.78    3.12
   5  -1   1  136.87    3.26
   5  -1   1  127.72    3.10
  -6   1  -1   50.51    1.25
   6  -1   1   50.38    1.25
   6  -1   1   52.44    1.31
  -7   1  -1    5.30    0.21
   7  -1   1    5.31    0.22
   8  -1   1    0.34    0.12
   9  -1   1    0.75    0.15
  -8   0   1    4.26    0.21
  -8   0   1    4.35    0.14
   7   0  -1    5.58    0.25
   6   0  -1   74.26    1.83
   6   0  -1   70.82    1.72
  -6   0   1   70.99    1.73
   5   0  -1   42.31    1.01
   5   0  -1   40.55    1.01
   5   0  -1   41.23    1.06
   4   0  -1  682.73   16.13
   4   0  -1  674.24   16.84
   4   0  -1  692.98   16.00
   3   0  -1   36.80    0.95
   3   0  -1   37.36    0.91
   3   0  -1   37.85    0.91
   1   0  -1  188.32    4.37
   1   0  -1  181.37    4.59
   1   0  -1  177.93    4.55
   2   0   1   90.99    2.18
   2   0   1   91.98    2.31
   2   0   1   94.41    2.19
   3   0   1   10.68    0.28
   3   0   1   10.61    0.29
   3   0   1   10.46    0.28
   4   0   1   14.08    0.37
   4   0   1   14.79    0.39
   4   0   1   13.98    0.37
   5   0   1    8.42    0.25
   5   0   1    8.06    0.25
   5   0   1    8.58    0.27
   6   0   1    0.00    0.09
   6   0   1    0.12    0.08
   6   0   1   -0.03    0.07
  -7   0  -1    8.76    0.28
   7   0   1    8.82    0.29
   7   0   1    9.16    0.32
   8   0   1    9.91    0.33
  -9   1   1   -0.01    0.13
  -9   1   1    0.03    0.08
   8  -1  -1    0.11    0.11
   7  -1  -1    1.97    0.15
   6  -1  -1   25.70    0.67
   6  -1  -1   23.85    0.64
  -6   1   1   24.29    0.63
   5  -1  -1    4.64    0.18
   5  -1  -1    4.43    0.19
  -5   1   1    4.35    0.16
   4  -1  -1  111.63    2.61
   4  -1  -1  111.26    2.75
  -4   1   1  110.24    2.63
   3  -1  -1    1.64    0.09
   3  -1  -1    1.75    0.09
  -3   1   1    1.66    0.07
   0  -1  -1   94.29    2.33
   0   1   1   91.05    2.26
   2   1   1   13.68    0.37
   2   1   1   14.25    0.35
   2   1   1   14.11    0.35
   3   1   1  339.26    8.03
   3   1   1  344.43    7.94
   3   1   1  328.53    8.34
   4   1   1   40.80    0.99
   4   1   1   41.46    1.04
   4   1   1   39.91    0.98
   5   1   1   21.52    0.58
   5   1   1   21.02    0.55
   5   1   1   21.43    0.54
   6   1   1    9.50    0.32
   6   1   1    9.43    0.28
   6   1   1    9.46    0.30
   7   1   1    0.65    0.11
   7   1   1    0.60    0.12
   8  -2  -1    2.93    0.21
   7  -2  -1    5.25    0.22
   6  -2  -1   31.64    0.81
  -6   2   1   31.75    0.79
   5  -2  -1  206.90    4.82
   5  -2  -1  208.05    5.06
  -5   2   1  202.72    4.85
   4  -2  -1  149.68    3.76
   4  -2  -1  155.42    3.58
  -4   2   1  152.71    3.60
   3  -2  -1   45.17    1.12
   3  -2  -1   45.42    1.08
  -3   2   1   43.49    1.07
   2  -2  -1  254.82    5.92
   2  -2  -1  247.36    6.19
  -2   2   1  246.41    5.92
   1  -2  -1   11.19    0.33
   1  -2  -1   14.25    0.33
  -1   2   1   13.56    0.32
   0  -2  -1  166.95    4.12
   0  -2  -1  163.17    3.93
   0   2   1  159.34    3.91
  -1  -2  -1   54.54    1.32
  -1  -2  -1   51.68    1.36
   1   2   1   51.10    1.25
  -2  -2  -1  298.87    7.16
  -2  -2  -1  294.43    7.38
   2   2   1  301.76    7.10
  -3  -2  -1  262.59    4.01
  -3  -2  -1  261.79    6.11
   3   2   1  254.42    6.18
  -4  -2  -1  100.77    2.33
  -4  -2  -1  100.41    1.53
   4   2   1   98.67    2.47
   4   2   1   97.49    2.36
  -5  -2  -1   27.73    0.44
  -5  -2  -1   28.00    0.67
   5   2   1   26.94    0.73
   5   2   1   27.09    0.70
   6   2   1   56.90    1.40
  -7  -2  -1   10.34    0.36
   7   2   1   11.08    0.35
  -8  -2  -1    0.72    0.13
   8  -3  -1    0.71    0.14
   7  -3  -1   -0.03    0.10
   6  -3  -1   29.38    0.77
  -6   3   1   30.32    0.75
   5  -3  -1   21.44    0.56
  -5   3   1   20.03    0.53
   4  -3  -1   86.83    2.12
   4  -3  -1   87.23    2.03
  -4   3   1   81.78    2.02
   3  -3  -1  252.79    6.10
   3  -3  -1  244.54    5.76
  -3   3   1  243.50    5.85
   2  -3  -1   22.98    0.59
   2  -3  -1   23.69    0.58
  -2   3   1   23.15    0.57
   1  -3  -1  233.28    5.49
   1  -3  -1  219.85    5.23
  -1   3   1  210.15    5.23
   0  -3  -1  364.88    8.59
   0  -3  -1  345.42    8.16
   0   3   1  328.61    8.20
  -1  -3  -1  555.20   12.93
  -1  -3  -1  541.47   12.48
   1   3   1  471.75   12.34
  -2  -3  -1    0.57    0.04
   2   3   1    0.42    0.06
  -3  -3  -1   21.65    0.57
  -3  -3  -1   20.41    0.50
   3   3   1   21.30    0.53
  -4  -3  -1    0.81    0.10
  -4  -3  -1    0.94    0.06
   4   3   1    0.91    0.10
  -5  -3  -1    6.91    0.26
   5   3   1    7.01    0.24
  -6  -3  -1    0.65    0.11
   6   3   1    0.56    0.11
  -7  -3  -1    2.47    0.20
   7   3   1    2.45    0.21
  -8  -3  -1    0.47    0.14
  -9  -3  -1    1.42    0.24
   8  -4  -1    6.24    0.29
   7  -4  -1   -0.08    0.11
   6  -4  -1    0.72    0.11
  -6   4   1    0.94    0.12
   5  -4  -1   54.99    1.32
  -5   4   1   52.53    1.30
   4  -4  -1    0.20    0.07
  -4   4   1    0.29    0.06
   3  -4  -1   17.78    0.47
   3  -4  -1   17.76    0.47
  -3   4   1   18.28    0.46
   2  -4  -1    0.51    0.07
   2  -4  -1    0.53    0.09
  -2   4   1    0.62    0.07
   1  -4  -1   86.19    2.02
   1  -4  -1   85.54    2.12
  -1   4   1   85.34    2.04
   0  -4  -1   18.47    0.49
   0  -4  -1   18.30    0.46
   0   4   1   19.29    0.47
  -1  -4  -1  167.45    4.21
  -1  -4  -1  172.55    4.04
   1   4   1  173.80    4.07
  -2  -4  -1   86.50    2.12
  -2  -4  -1   84.54    2.02
   2   4   1   84.10    2.02
  -3  -4  -1  249.83    6.01
   3   4   1  239.14    5.75
  -4  -4  -1  143.17    3.58
   4   4   1  145.68    3.42
  -5  -4  -1    3.60    0.21
   5   4   1    4.26    0.19
  -6  -4  -1   46.09    1.21
   6   4   1   45.90    1.15
  -7  -4  -1    7.03    0.30
   7   4   1    6.79    0.28
  -8  -4  -1    1.31    0.19
  -9  -4  -1    1.94    0.23
   7  -5  -1    0.22    0.12
  -6   5   1    0.03    0.09
   5  -5  -1   13.09    0.40
  -5   5   1   13.25    0.37
   4  -5  -1    1.22    0.13
  -4   5   1    1.27    0.11
   3  -5  -1   12.51    0.36
  -3   5   1   12.80    0.35
   2  -5  -1    4.54    0.17
   2  -5  -1    4.43    0.15
  -2   5   1    4.37    0.15
   1  -5  -1    0.27    0.06
   1  -5  -1    0.34    0.06
  -1   5   1    0.31    0.05
   0  -5  -1   81.35    1.93
   0  -5  -1   82.39    2.03
   0   5   1   81.44    1.95
  -1  -5  -1   71.47    1.77
  -1  -5  -1   68.77    1.66
   1   5   1   71.38    1.69
  -2  -5  -1    1.44    0.13
   2   5   1    1.69    0.10
  -3  -5  -1    1.79    0.15
   3   5   1    1.78    0.12
  -4  -5  -1    2.17    0.15
   4   5   1    2.01    0.14
  -5  -5  -1    0.95    0.15
   5   5   1    1.03    0.14
  -6  -5  -1    3.66    0.22
   6   5   1    3.60    0.21
  -7  -5  -1    2.69    0.21
   7   5   1    3.07    0.23
  -8  -5  -1    0.12    0.14
   7  -6  -1    0.32    0.15
   6  -6  -1    2.13    0.19
  -6   6   1    2.40    0.19
   5  -6  -1    4.28    0.22
  -5   6   1    4.40    0.21
   4  -6  -1   -0.12    0.09
  -4   6   1   -0.01    0.08
   3  -6  -1   -0.05    0.07
  -3   6   1    0.11    0.07
   2  -6  -1    8.66    0.27
  -2   6   1    8.32    0.26
   1  -6  -1    1.11    0.12
   1  -6  -1    1.13    0.11
  -1   6   1    1.20    0.11
   0  -6  -1   33.27    0.81
   0  -6  -1   32.85    0.86
   0   6   1   33.77    0.83
  -1  -6  -1   74.20    1.86
   1   6   1   74.04    1.78
  -2  -6  -1    4.37    0.20
   2   6   1    4.29    0.17
  -3  -6  -1  165.19    4.13
   3   6   1  168.01    3.95
  -4  -6  -1   17.67    0.52
   4   6   1   17.22    0.48
  -5  -6  -1    7.57    0.30
   5   6   1    7.97    0.28
  -6  -6  -1   17.04    0.53
   6   6   1   17.19    0.50
  -7  -6  -1    0.37    0.16
   7   6   1    0.28    0.15
   6  -7  -1    3.98    0.23
  -6   7   1    4.17    0.21
   5  -7  -1    1.28    0.17
  -5   7   1    1.10    0.15
   4  -7  -1    6.31    0.26
  -4   7   1    6.11    0.24
   3  -7  -1    8.82    0.30
  -3   7   1    8.77    0.28
   2  -7  -1    0.06    0.09
  -2   7   1    0.18    0.09
   1  -7  -1   15.27    0.44
   1  -7  -1   15.71    0.43
  -1   7   1   15.85    0.43
   0  -7  -1   12.74    0.39
   0   7   1   13.23    0.37
  -1  -7  -1   15.11    0.45
   1   7   1   15.86    0.43
  -2  -7  -1    1.97    0.16
   2   7   1    2.29    0.14
  -3  -7  -1   12.52    0.41
   3   7   1   13.04    0.38
  -4  -7  -1    0.04    0.10
   4   7   1    0.01    0.10
  -5  -7  -1    0.00    0.13
   5   7   1    0.05    0.11
  -6  -7  -1    2.62    0.23
   6   7   1    2.57    0.22
  -7  -7  -1    0.04    0.17
   7   7   1   -0.14    0.16
   5  -8  -1    3.70    0.24
  -5   8   1    3.75    0.22
   4  -8  -1    0.86    0.13
  -4   8   1    1.00    0.16
   3  -8  -1   28.54    0.76
  -3   8   1   28.70    0.75
   2  -8  -1    4.16    0.21
  -2   8   1    3.90    0.19
  -1   8   1    9.88    0.31
   0  -8  -1   18.42    0.53
   0   8   1   18.75    0.51
  -1  -8  -1    0.22    0.11
   1   8   1    0.15    0.10
  -2  -8  -1    7.39    0.29
   2   8   1    7.76    0.27
  -3  -8  -1    4.44    0.23
   3   8   1    4.65    0.21
  -4  -8  -1    3.46    0.21
   4   8   1    3.23    0.19
  -5  -8  -1    4.85    0.27
   5   8   1    4.77    0.24
  -6  -8  -1    1.15    0.19
   6   8   1    1.21    0.19
   7   8   1    2.05    0.30
   5  -9  -1    0.53    0.17
  -5   9   1    0.56    0.16
   4  -9  -1   12.22    0.42
  -4   9   1   12.45    0.39
  -3   9   1    8.48    0.30
  -2   9   1    4.21    0.21
  -1   9   1   11.44    0.36
   0   9   1    2.74    0.17
  -1  -9  -1    3.20    0.23
   1   9   1    3.13    0.18
  -2  -9  -1    5.72    0.27
   2   9   1    5.75    0.23
  -3  -9  -1    3.97    0.25
   3   9   1    3.89    0.20
  -4  -9  -1    0.51    0.17
   4   9   1    0.56    0.15
  -5  -9  -1    5.53    0.30
   5   9   1    5.71    0.28
  -3  10   1    7.16    0.28
  -2  10   1    3.68    0.22
  -1  10   1    2.92    0.21
   0  10   1    9.40    0.33
   1  10   1    1.95    0.17
   2  10   1   10.45    0.36
  -3 -10  -1    6.11    0.33
   3  10   1    6.42    0.28
  -4 -10  -1    4.08    0.30
  -4 -10   2    0.08    0.20
   3  10  -2   10.07    0.37
   2  10  -2   14.28    0.45
   1  10  -2    2.87    0.21
   0  10  -2   21.75    0.61
  -1  10  -2    0.07    0.11
  -2  10  -2    4.94    0.23
   5   9  -2    0.95    0.18
  -5  -9   2    0.90    0.20
   4   9  -2    6.91    0.29
  -4  -9   2    6.74    0.32
   3   9  -2    1.43    0.16
  -3  -9   2    1.68    0.21
   2   9  -2   11.86    0.38
  -2  -9   2   11.49    0.40
   1   9  -2    2.38    0.18
   0   9  -2    8.61    0.30
  -1   9  -2   25.55    0.68
  -2   9  -2    0.20    0.12
  -3   9  -2    4.55    0.23
   3  -9   2    4.24    0.26
  -4   9  -2    1.75    0.19
   4  -9   2    1.68    0.23
   5  -9   2    3.17    0.27
   6   8  -2    1.50    0.22
  -6  -8   2    1.57    0.22
   5   8  -2    6.21    0.27
  -5  -8   2    6.64    0.32
   4   8  -2    0.32    0.12
  -4  -8   2    0.40    0.15
   3   8  -2   18.49    0.51
  -3  -8   2   17.77    0.55
   2   8  -2   13.87    0.40
  -2  -8   2   13.01    0.42
   1   8  -2    7.64    0.26
  -1  -8   2    6.88    0.29
   0   8  -2    9.72    0.31
  -1   8  -2   22.80    0.61
  -2   8  -2    0.78    0.12
   2  -8   2    0.74    0.12
  -3   8  -2   10.42    0.33
   3  -8   2   10.30    0.35
  -4   8  -2    9.71    0.33
   4  -8   2    9.66    0.34
  -5   8  -2    4.09    0.22
   5  -8   2    4.38    0.27
  -6   8  -2    6.01    0.27
   6   7  -2    0.13    0.14
  -6  -7   2    0.19    0.16
   5   7  -2    8.00    0.29
  -5  -7   2    8.12    0.32
   4   7  -2    8.06    0.28
  -4  -7   2    8.04    0.31
   3   7  -2    0.51    0.10
  -3  -7   2    0.36    0.10
   2   7  -2   20.31    0.54
  -2  -7   2   20.25    0.58
   1   7  -2    0.22    0.08
  -1  -7   2    0.21    0.09
   0   7  -2    6.01    0.21
   0  -7   2    5.96    0.23
   0  -7   2    6.22    0.23
  -1   7  -2    5.32    0.20
   1  -7   2    5.28    0.21
  -2   7  -2    4.16    0.18
   2  -7   2    4.10    0.20
  -3   7  -2   23.07    0.61
   3  -7   2   23.29    0.63
  -4   7  -2    0.00    0.09
   4  -7   2   -0.04    0.11
  -5   7  -2    5.08    0.22
   5  -7   2    5.00    0.26
  -6   7  -2    5.87    0.26
   6  -7   2    5.41    0.28
  -7   7  -2    2.71    0.23
  -7  -6   2    2.54    0.24
   6   6  -2   14.14    0.44
  -6  -6   2   14.08    0.47
   5   6  -2    0.26    0.11
  -5  -6   2    0.05    0.11
   4   6  -2    5.54    0.21
  -4  -6   2    5.60    0.25
   3   6  -2    3.55    0.16
  -3  -6   2    3.45    0.19
   2   6  -2   12.35    0.35
  -2  -6   2   12.95    0.39
   1   6  -2    0.04    0.07
  -1  -6   2    0.19    0.06
  -1  -6   2    0.15    0.08
   0   6  -2  108.80    2.60
   0  -6   2  110.20    2.71
   0  -6   2  108.49    2.57
  -1   6  -2   48.18    1.15
   1  -6   2   47.59    1.15
   1  -6   2   45.61    1.19
  -2   6  -2    7.46    0.24
   2  -6   2    7.41    0.26
  -3   6  -2  148.33    3.50
   3  -6   2  146.99    3.49
  -4   6  -2   10.13    0.31
   4  -6   2   10.00    0.34
  -5   6  -2   28.73    0.74
   5  -6   2   29.29    0.77
  -6   6  -2   26.71    0.70
   6  -6   2   25.69    0.72
   7  -6   2    0.71    0.15
  -8  -5   2    0.07    0.16
  -7  -5   2    0.76    0.14
   6   5  -2    3.04    0.21
  -6  -5   2    3.14    0.20
   5   5  -2   11.58    0.35
  -5  -5   2   11.71    0.39
   4   5  -2    6.24    0.21
  -4  -5   2    6.07    0.25
   3   5  -2    8.45    0.26
   2   5  -2   38.52    0.97
  -2  -5   2   39.67    0.95
  -2  -5   2   40.51    1.02
   1   5  -2    0.60    0.07
  -1  -5   2    0.70    0.09
  -1  -5   2    0.55    0.07
   0   5  -2   57.84    1.41
   0  -5   2   60.28    1.40
   0  -5   2   57.46    1.46
  -1   5  -2    1.60    0.10
   1  -5   2    1.17    0.10
   1  -5   2    1.53    0.12
  -2   5  -2    0.25    0.06
   2  -5   2   -0.04    0.06
  -3   5  -2    3.74    0.16
   3  -5   2    3.70    0.18
  -4   5  -2    4.28    0.17
   4  -5   2    4.27    0.19
  -5   5  -2    0.20    0.09
   5  -5   2   -0.01    0.09
  -6   5  -2   18.60    0.51
   6  -5   2   18.44    0.54
  -7   5  -2    7.75    0.28
   7  -5   2    7.56    0.31
   8  -5   2    0.11    0.16
  -8  -4   2    0.12    0.15
  -7  -4   2   21.42    0.63
   6   4  -2    0.62    0.12
   6   4  -2    0.62    0.12
   5   4  -2   38.05    0.95
   5   4  -2   37.87    1.01
   4   4  -2    0.06    0.07
   4   4  -2   -0.01    0.07
   3   4  -2   95.49    2.38
   3   4  -2   95.96    2.27
  -3  -4   2   94.41    2.23
   2   4  -2    1.86    0.10
  -2  -4   2    1.87    0.11
   1   4  -2  153.15    3.75
  -1  -4   2  161.91    3.75
  -1  -4   2  163.14    3.93
   0   4  -2  220.15    5.40
   0  -4   2  233.98    5.30
   0  -4   2  227.15    5.61
  -1   4  -2    4.35    0.14
   1  -4   2    4.62    0.14
   1  -4   2    4.26    0.15
  -2   4  -2   10.06    0.27
   2  -4   2    9.24    0.26
   2  -4   2   10.25    0.28
  -3   4  -2   27.49    0.69
   3  -4   2   27.69    0.70
  -4   4  -2   39.06    0.97
   4  -4   2   39.88    0.98
  -5   4  -2    3.36    0.16
   5  -4   2    3.31    0.18
  -6   4  -2   26.50    0.70
   6  -4   2   28.09    0.73
  -7   4  -2    0.57    0.11
   7  -4   2    0.24    0.11
   8  -4   2    0.17    0.14
  -9  -3   2    0.74    0.19
   7   3  -2    5.40    0.27
   6   3  -2   11.17    0.38
   6   3  -2   11.44    0.35
   5   3  -2   12.21    0.39
   5   3  -2   13.11    0.37
  -5  -3   2   12.76    0.33
   4   3  -2   15.89    0.46
   4   3  -2   15.45    0.42
  -4  -3   2   16.41    0.40
   3   3  -2    3.98    0.14
   3   3  -2    3.98    0.16
  -3  -3   2    3.83    0.11
   2   3  -2   15.79    0.40
   2   3  -2   16.48    0.44
  -2  -3   2   15.99    0.39
   1   3  -2   49.83    1.23
   1   3  -2   48.17    1.17
  -1  -3   2   49.39    1.16
   0   3  -2   46.71    1.14
   0  -3   2   47.36    1.13
   0  -3   2   48.14    1.19
  -1   3  -2  202.93    4.99
   1  -3   2  213.10    5.28
   1  -3   2  217.15    5.01
  -2   3  -2   24.56    0.59
   2  -3   2   24.32    0.59
   2  -3   2   22.97    0.61
  -3   3  -2    1.83    0.09
   3  -3   2    1.59    0.07
   3  -3   2    1.93    0.10
  -4   3  -2    1.92    0.10
   4  -3   2    1.35    0.11
  -5   3  -2    0.01    0.06
   5  -3   2   -0.11    0.08
  -6   3  -2    5.23    0.21
   6  -3   2    5.44    0.23
  -7   3  -2    0.47    0.10
   7  -3   2    0.29    0.12
   8  -3   2   -0.01    0.11
   9  -3   2    0.80    0.17
   8   2  -2    0.08    0.14
   7   2  -2    0.10    0.12
   6   2  -2    6.22    0.24
   6   2  -2    6.11    0.26
  -6  -2   2    5.98    0.21
   5   2  -2    3.18    0.18
   5   2  -2    3.64    0.17
  -5  -2   2    3.39    0.13
   4   2  -2   18.28    0.51
   4   2  -2   18.34    0.47
  -4  -2   2   18.94    0.46
   3   2  -2   36.92    0.90
   3   2  -2   38.04    0.96
  -3  -2   2   37.31    0.89
   2   2  -2    2.32    0.09
   2   2  -2    2.24    0.10
  -2  -2   2    2.33    0.08
   1   2  -2  417.74   10.59
   1   2  -2  411.25   10.13
  -1  -2   2  453.93   10.07
  -2   2  -2   94.40    2.28
   2  -2   2   97.55    2.61
   2  -2   2   98.00    2.27
  -3   2  -2    0.17    0.04
   3  -2   2    0.19    0.05
  -4   2  -2   10.04    0.28
   4  -2   2   10.41    0.30
   4  -2   2   10.86    0.29
  -5   2  -2    0.27    0.07
   5  -2   2    0.23    0.08
  -6   2  -2   14.55    0.40
   6  -2   2   13.81    0.41
  -7   2  -2    0.45    0.10
   7  -2   2    0.17    0.10
   8  -2   2    3.63    0.22
   9  -2   2    0.51    0.15
   8   1  -2    4.31    0.27
   7   1  -2    4.40    0.24
  -7  -1   2    4.77    0.20
  -7  -1   2    4.80    0.13
   6   1  -2   32.19    0.80
   6   1  -2   30.83    0.85
  -6  -1   2   32.15    0.52
  -6  -1   2   30.91    0.78
   5   1  -2   22.24    0.62
   5   1  -2   22.87    0.57
  -5  -1   2   21.99    0.37
  -5  -1   2   22.14    0.56
   4   1  -2  151.17    3.79
   4   1  -2  153.19    3.62
  -4  -1   2  154.24    3.59
  -4  -1   2  155.45    2.36
   3   1  -2    0.05    0.05
  -3  -1   2    0.10    0.02
  -3  -1   2    0.08    0.03
   2   1  -2   26.55    0.64
   2   1  -2   26.88    0.68
  -2  -1   2   25.71    0.63
   1   1  -2    2.57    0.08
  -1  -1   2    2.91    0.08
   0   1  -2    7.49    0.19
   0   1  -2    6.91    0.18
   0  -1   2    6.75    0.18
  -2   1  -2   84.62    2.03
   2  -1   2   86.19    2.01
   2  -1   2   86.03    2.17
  -3   1  -2    1.52    0.08
   3  -1   2    1.36    0.07
  -4   1  -2    3.56    0.13
   4  -1   2    3.67    0.14
   4  -1   2    3.95    0.14
  -5   1  -2   21.61    0.56
   5  -1   2   22.41    0.58
   5  -1   2   21.79    0.57
  -6   1  -2    2.86    0.15
   6  -1   2    2.40    0.17
   6  -1   2    2.53    0.16
  -7   1  -2    0.81    0.12
   7  -1   2    0.69    0.11
  -8   1  -2    1.55    0.17
   8  -1   2    1.53    0.17
   9  -1   2    1.45    0.21
  -8   0   2   14.64    0.28
  -8   0   2   14.77    0.43
   7   0  -2   15.78    0.48
  -7   0   2   15.06    0.42
  -7   0   2   14.78    0.28
   6   0  -2  321.13    7.83
  -6   0   2  309.74    7.49
  -6   0   2  322.61    7.43
  -6   0   2  322.03    4.88
   5   0  -2   35.95    0.87
   5   0  -2   34.48    0.92
   5   0  -2   35.57    0.87
   4   0  -2  808.25   19.11
   4   0  -2  824.00   19.27
   4   0  -2  820.74   20.15
   3   0  -2   20.38    0.50
   3   0  -2   20.42    0.53
   3   0  -2   19.96    0.50
   0   0  -2    0.65    0.03
   0   0   2    0.59    0.02
   0   0   2    0.58    0.02
  -1   0  -2  121.49    3.18
   1   0   2  122.33    2.99
   1   0   2  130.06    3.00
  -2   0  -2    8.28    0.23
   2   0   2    8.26    0.22
   2   0   2    8.62    0.22
   3   0   2   51.25    1.28
   3   0   2   51.68    1.21
   3   0   2   50.32    1.22
   4   0   2   23.83    0.59
   4   0   2   23.83    0.62
   4   0   2   23.12    0.59
   5   0   2   16.05    0.44
   5   0   2   15.43    0.42
   5   0   2   15.93    0.42
   6   0   2   14.39    0.40
   6   0   2   14.47    0.41
   6   0   2   14.47    0.42
  -7   0  -2    0.59    0.09
   7   0   2    0.15    0.09
  -8   0  -2    5.66    0.23
   8   0   2    5.59    0.24
  -9   1   2    0.25    0.08
  -9   1   2    0.08    0.12
  -8   1   2    1.32    0.17
  -8   1   2    1.27    0.11
   7  -1  -2    2.75    0.17
   7  -1  -2    2.76    0.21
   6  -1  -2   36.13    0.91
   6  -1  -2   37.38    0.96
  -6   1   2   35.82    0.90
   5  -1  -2   13.10    0.37
   5  -1  -2   12.24    0.35
  -5   1   2   11.31    0.33
   4  -1  -2   48.41    1.23
   4  -1  -2   49.05    1.17
  -4   1   2   48.40    1.17
   3  -1  -2  176.99    4.38
   3  -1  -2  181.93    4.16
  -3   1   2  170.87    4.17
   2  -1  -2   22.99    0.55
   2  -1  -2   23.08    0.58
  -2   1   2   22.05    0.55
   1  -1  -2   55.99    1.32
   1  -1  -2   54.49    1.40
  -1   1   2   56.11    1.36
   0   1   2    0.32    0.03
  -2  -1  -2   77.59    1.95
   2   1   2   81.08    1.87
   2   1   2   76.64    1.87
  -3  -1  -2  405.62   10.28
   3   1   2  417.65    9.85
   3   1   2  422.92    9.77
   4   1   2    0.13    0.05
   4   1   2    0.06    0.04
   5   1   2    2.04    0.11
   5   1   2    1.78    0.13
  -6  -1  -2    6.96    0.24
   6   1   2    6.16    0.24
   6   1   2    6.57    0.22
  -7  -1  -2    0.01    0.09
   7   1   2   -0.05    0.08
   7   1   2    0.07    0.10
   8   1   2    3.03    0.21
  -9   2   2    0.30    0.13
  -9   2   2    0.25    0.08
   8  -2  -2    0.87    0.15
   7  -2  -2    8.95    0.30
   6  -2  -2   12.31    0.37
   6  -2  -2   12.25    0.37
   5  -2  -2    1.00    0.12
   5  -2  -2    1.26    0.14
  -5   2   2    1.11    0.11
   4  -2  -2    7.89    0.24
   4  -2  -2    7.80    0.24
  -4   2   2    8.02    0.22
   3  -2  -2    4.52    0.15
   3  -2  -2    4.44    0.15
  -3   2   2    4.27    0.13
   2  -2  -2  109.59    2.65
   2  -2  -2  106.78    2.52
  -2   2   2  105.36    2.55
   1  -2  -2  123.94    2.89
   1  -2  -2  120.26    3.04
  -1   2   2  118.25    2.89
   0  -2  -2   14.52    0.36
   0  -2  -2   15.01    0.38
   0   2   2   14.65    0.36
  -1  -2  -2  277.72    6.58
   1   2   2  251.18    6.28
  -2  -2  -2    4.24    0.14
  -2  -2  -2    4.03    0.11
   2   2   2    3.92    0.12
  -3  -2  -2   55.18    1.37
   3   2   2   53.65    1.31
  -4  -2  -2   65.82    1.66
   4   2   2   64.46    1.56
   4   2   2   68.42    1.59
  -5  -2  -2   88.39    2.18
   5   2   2   86.10    2.09
  -6  -2  -2   27.69    0.76
   6   2   2   28.67    0.73
  -7  -2  -2    9.50    0.33
   7   2   2    8.78    0.31
  -8  -2  -2    3.76    0.23
   8   2   2    3.55    0.22
   8  -3  -2    1.11    0.19
   7  -3  -2   15.48    0.45
   6  -3  -2    0.86    0.12
   5  -3  -2    9.50    0.30
   5  -3  -2   10.39    0.31
  -5   3   2    9.76    0.28
   4  -3  -2    0.05    0.06
   4  -3  -2    0.08    0.06
  -4   3   2    0.06    0.05
   3  -3  -2   55.06    1.29
   3  -3  -2   52.87    1.34
  -3   3   2   53.19    1.28
   2  -3  -2    1.15    0.08
   2  -3  -2    1.24    0.07
  -2   3   2    1.16    0.07
   1  -3  -2   84.54    1.98
   1  -3  -2   85.07    2.08
  -1   3   2   82.69    2.00
   0  -3  -2   42.74    1.09
   0  -3  -2   43.79    1.03
   0   3   2   43.63    1.04
  -1  -3  -2  220.87    5.53
  -1  -3  -2  238.41    5.66
   1   3   2  228.51    5.43
  -2  -3  -2   58.42    1.44
   2   3   2   56.30    1.37
  -3  -3  -2    0.15    0.02
  -3  -3  -2    0.24    0.05
   3   3   2    0.16    0.05
  -4  -3  -2    8.60    0.22
  -4  -3  -2    9.19    0.28
   4   3   2    8.57    0.26
  -5  -3  -2   14.92    0.44
   5   3   2   15.22    0.42
  -6  -3  -2    8.46    0.29
   6   3   2    8.29    0.29
  -7  -3  -2    3.46    0.21
   7   3   2    3.23    0.21
  -8  -3  -2    2.25    0.21
   8   3   2    2.24    0.22
  -9  -3  -2    0.27    0.17
   8  -4  -2    1.92    0.20
   7  -4  -2   15.99    0.48
   6  -4  -2    0.03    0.08
   5  -4  -2   56.78    1.37
  -5   4   2   55.61    1.36
   4  -4  -2    0.09    0.06
   4  -4  -2    0.22    0.07
  -4   4   2    0.00    0.06
   3  -4  -2  354.70    8.25
   3  -4  -2  358.76    8.71
  -3   4   2  347.22    8.33
   2  -4  -2    5.44    0.16
   2  -4  -2    4.91    0.17
  -2   4   2    4.92    0.16
   1  -4  -2  315.29    7.29
   1  -4  -2  314.43    7.71
  -1   4   2  305.22    7.38
   0  -4  -2  984.81   22.79
   0  -4  -2  925.33   21.64
   0   4   2  867.25   21.79
  -1  -4  -2   42.52    1.04
  -1  -4  -2   44.59    1.11
   1   4   2   44.45    1.06
  -2  -4  -2  216.37    5.30
   2   4   2  215.20    5.12
  -3  -4  -2    9.13    0.30
   3   4   2    9.38    0.27
  -4  -4  -2  113.95    2.83
   4   4   2  112.84    2.70
  -5  -4  -2   50.82    1.31
   5   4   2   50.18    1.24
  -6  -4  -2    0.21    0.12
   6   4   2    0.43    0.11
  -7  -4  -2    1.88    0.19
   7   4   2    1.98    0.19
  -8  -4  -2    0.48    0.15
   8   4   2    0.53    0.17
  -9  -4  -2    0.14    0.17
   7  -5  -2    1.65    0.19
   6  -5  -2    0.80    0.12
   5  -5  -2    0.75    0.11
  -5   5   2    0.83    0.13
   4  -5  -2    6.59    0.24
  -4   5   2    6.31    0.21
   3  -5  -2    1.65    0.11
   3  -5  -2    1.17    0.11
  -3   5   2    1.45    0.09
   2  -5  -2   52.10    1.30
   2  -5  -2   51.99    1.26
  -2   5   2   52.26    1.26
   1  -5  -2   51.84    1.28
   1  -5  -2   50.90    1.22
  -1   5   2   49.53    1.22
   0  -5  -2   43.28    1.04
   0  -5  -2   43.29    1.10
   0   5   2   43.24    1.05
  -1  -5  -2   71.24    1.76
  -1  -5  -2   68.14    1.66
   1   5   2   71.72    1.68
  -2  -5  -2    3.20    0.15
   2   5   2    3.38    0.14
  -3  -5  -2    1.21    0.12
   3   5   2    1.21    0.10
  -4  -5  -2    0.04    0.08
   4   5   2    0.30    0.08
  -5  -5  -2    0.37    0.10
   5   5   2    0.44    0.10
  -6  -5  -2    1.39    0.16
   6   5   2    1.56    0.17
  -7  -5  -2    0.23    0.12
   7   5   2    0.26    0.14
  -8  -5  -2    0.07    0.16
   8   5   2    0.10    0.17
   7  -6  -2    0.06    0.14
   6  -6  -2    0.98    0.17
   5  -6  -2    1.47    0.17
  -5   6   2    1.62    0.15
   4  -6  -2   21.66    0.59
  -4   6   2   22.20    0.57
   3  -6  -2   14.52    0.42
  -3   6   2   14.80    0.40
   2  -6  -2  124.01    2.87
   2  -6  -2  122.89    3.00
  -2   6   2  117.29    2.88
   1  -6  -2   84.87    2.02
   1  -6  -2   85.43    2.12
  -1   6   2   85.07    2.04
   0  -6  -2   35.62    0.86
   0  -6  -2   34.61    0.91
   0   6   2   35.47    0.87
  -1  -6  -2   42.17    1.10
   1   6   2   43.85    1.06
  -2  -6  -2   39.79    1.04
   2   6   2   39.93    0.98
  -3  -6  -2    1.85    0.16
   3   6   2    2.10    0.14
  -4  -6  -2   54.35    1.40
   4   6   2   53.53    1.33
  -5  -6  -2    2.22    0.19
   5   6   2    2.34    0.17
  -6  -6  -2   12.21    0.43
   6   6   2   12.45    0.40
  -7  -6  -2    0.46    0.16
   7   6   2    0.44    0.16
   8   6   2    8.35    0.37
   6  -7  -2    4.03    0.24
   5  -7  -2    6.39    0.27
  -5   7   2    6.62    0.25
   4  -7  -2    0.22    0.10
  -4   7   2    0.44    0.10
   3  -7  -2   16.13    0.46
  -3   7   2   16.85    0.46
   2  -7  -2    3.06    0.17
  -2   7   2    2.93    0.15
   1  -7  -2    6.01    0.22
   1  -7  -2    5.81    0.21
  -1   7   2    5.98    0.21
   0  -7  -2   27.54    0.74
   0   7   2   28.23    0.71
  -1  -7  -2    3.50    0.18
   1   7   2    3.81    0.16
  -2  -7  -2    0.03    0.10
   2   7   2   -0.02    0.08
  -3  -7  -2    9.06    0.32
   3   7   2    9.68    0.30
  -4  -7  -2    0.07    0.12
   4   7   2    0.10    0.10
  -5  -7  -2   -0.07    0.13
   5   7   2   -0.02    0.11
  -6  -7  -2    0.69    0.16
   6   7   2    0.69    0.15
  -7  -7  -2    0.02    0.15
   7   7   2    0.04    0.17
   5  -8  -2    5.96    0.28
  -5   8   2    6.01    0.26
   4  -8  -2    3.65    0.22
  -4   8   2    3.65    0.20
   3  -8  -2    0.18    0.11
  -3   8   2    0.22    0.09
  -2   8   2   37.53    0.95
  -1   8   2   14.89    0.42
   0  -8  -2    0.16    0.10
   0   8   2    0.13    0.09
  -1  -8  -2   16.60    0.49
   1   8   2   16.22    0.45
  -2  -8  -2    1.20    0.17
   2   8   2    1.23    0.14
  -3  -8  -2    9.05    0.33
   3   8   2    9.43    0.30
  -4  -8  -2    0.12    0.13
   4   8   2   -0.01    0.11
  -5  -8  -2    2.25    0.22
   5   8   2    2.02    0.19
  -6  -8  -2    1.14    0.18
   6   8   2    1.25    0.21
   5  -9  -2    3.79    0.26
  -5   9   2    3.85    0.24
   4  -9  -2    1.81    0.21
  -4   9   2    2.03    0.18
  -3   9   2    2.30    0.17
  -2   9   2    0.30    0.12
  -1   9   2    2.13    0.16
   0   9   2    0.09    0.11
  -1  -9  -2    5.38    0.26
   1   9   2    5.39    0.23
  -2  -9  -2    0.45    0.14
   2   9   2    0.42    0.12
  -3  -9  -2    8.12    0.34
   3   9   2    7.92    0.30
  -4  -9  -2    7.16    0.31
   4   9   2    7.54    0.30
  -5  -9  -2    0.06    0.17
   5   9   2    0.17    0.15
  -3  10   2    4.08    0.23
  -2  10   2    7.67    0.30
  -1  10   2    0.53    0.14
   0  10   2    2.99    0.20
   1  10   2    0.61    0.14
  -2 -10  -2    9.58    0.39
   2  10   2    9.55    0.33
  -3 -10  -2    0.49    0.18
   3  10   2    0.62    0.16
  -4 -10  -2   11.02    0.44
  -4 -10   3    8.29    0.39
   3  10  -3    0.29    0.16
   2  10  -3   26.58    0.73
   1  10  -3    3.05    0.22
   0  10  -3   13.22    0.41
  -1  10  -3    2.45    0.20
  -2  10  -3    4.45    0.24
   5   9  -3    0.12    0.16
  -5  -9   3    0.10    0.18
   4   9  -3    7.42    0.30
  -4  -9   3    7.53    0.35
   3   9  -3    4.00    0.22
  -3  -9   3    4.08    0.26
   2   9  -3    0.82    0.14
   1   9  -3   14.51    0.43
   0   9  -3    1.38    0.16
  -1   9  -3   13.52    0.41
  -2   9  -3    0.77    0.13
  -3   9  -3    2.68    0.18
   3  -9   3    2.81    0.25
  -4   9  -3    3.12    0.21
   4  -9   3    3.06    0.26
   5  -9   3    2.81    0.25
  -6  -8   3    0.00    0.18
   5   8  -3   20.47    0.57
  -5  -8   3   18.47    0.61
   4   8  -3    2.32    0.18
  -4  -8   3    2.48    0.22
   3   8  -3    4.98    0.22
  -3  -8   3    4.84    0.26
   2   8  -3    8.75    0.29
  -2  -8   3    8.36    0.32
   1   8  -3    6.85    0.25
   0   8  -3    0.53    0.10
  -1   8  -3   23.49    0.62
   1  -8   3   22.67    0.62
  -2   8  -3   13.07    0.39
   2  -8   3   12.65    0.40
  -3   8  -3    4.86    0.21
   3  -8   3    5.29    0.26
  -4   8  -3    8.68    0.31
   4  -8   3    8.99    0.34
  -5   8  -3    0.14    0.13
   5  -8   3    0.11    0.13
  -6   8  -3    1.96    0.20
  -6  -7   3    2.53    0.25
   5   7  -3    0.45    0.13
  -5  -7   3    0.09    0.14
   4   7  -3   11.98    0.37
  -4  -7   3   12.07    0.41
   3   7  -3    2.10    0.13
  -3  -7   3    2.18    0.18
   2   7  -3    5.34    0.20
  -2  -7   3    5.50    0.24
   1   7  -3   -0.02    0.08
  -1  -7   3    0.06    0.09
   0   7  -3    8.68    0.27
   0  -7   3    9.08    0.28
  -1   7  -3    2.88    0.16
   1  -7   3    2.73    0.17
  -2   7  -3   12.27    0.36
   2  -7   3   12.17    0.37
  -3   7  -3    0.57    0.10
   3  -7   3    0.59    0.12
  -4   7  -3   13.56    0.40
   4  -7   3   14.28    0.44
  -5   7  -3   18.36    0.51
   5  -7   3   18.03    0.54
  -6   7  -3    0.01    0.11
   6  -7   3    0.10    0.15
  -7   7  -3    9.15    0.34
  -7  -6   3   -0.10    0.15
  -6  -6   3    1.13    0.20
   5   6  -3    8.19    0.28
  -5  -6   3    7.38    0.31
   4   6  -3    6.48    0.23
  -4  -6   3    6.46    0.27
   3   6  -3    3.46    0.16
  -3  -6   3    3.54    0.18
   2   6  -3   -0.11    0.07
  -2  -6   3   -0.04    0.07
   1   6  -3   46.00    1.12
  -1  -6   3   44.75    1.17
  -1  -6   3   46.33    1.11
   0   6  -3    1.57    0.13
   0  -6   3    1.29    0.14
   0  -6   3    1.64    0.15
  -1   6  -3  233.91    5.47
   1  -6   3  230.63    5.43
  -2   6  -3   75.35    1.82
   2  -6   3   75.97    1.82
  -3   6  -3   18.82    0.50
   3  -6   3   19.00    0.52
  -4   6  -3  102.23    2.48
   4  -6   3  105.33    2.49
  -5   6  -3    0.74    0.10
   5  -6   3    0.79    0.12
  -6   6  -3   36.70    0.94
   6  -6   3   37.13    0.97
  -7   6  -3    0.58    0.14
   7  -6   3    0.26    0.16
  -8  -5   3    0.02    0.16
  -7  -5   3    1.67    0.19
  -6  -5   3    6.75    0.28
   5   5  -3    1.68    0.15
   4   5  -3   11.31    0.33
   3   5  -3   -0.01    0.06
  -3  -5   3    0.00    0.07
   2   5  -3   27.53    0.70
  -2  -5   3   27.62    0.74
  -2  -5   3   28.58    0.68
   1   5  -3   29.47    0.73
  -1  -5   3   29.84    0.72
  -1  -5   3   29.16    0.77
   0   5  -3    8.68    0.26
   0  -5   3   10.14    0.28
   0  -5   3    9.10    0.27
  -1   5  -3   66.96    1.58
   1  -5   3   66.69    1.58
   1  -5   3   64.38    1.64
  -2   5  -3   49.70    1.21
   2  -5   3   49.94    1.21
  -4   5  -3   49.14    1.22
   4  -5   3   50.53    1.23
  -5   5  -3   39.60    0.98
   5  -5   3   39.38    1.00
  -6   5  -3    2.43    0.17
   6  -5   3    2.76    0.21
  -7   5  -3   24.08    0.65
   7  -5   3   24.84    0.69
  -8   5  -3    0.18    0.14
   8  -5   3    0.03    0.14
  -8  -4   3    2.09    0.23
   7   4  -3   16.57    0.53
   6   4  -3    7.10    0.30
   5   4  -3   47.02    1.21
   5   4  -3   44.78    1.13
   4   4  -3   40.99    1.01
   4   4  -3   40.94    1.08
  -4  -4   3   41.98    0.98
   3   4  -3    0.89    0.12
   3   4  -3    0.86    0.09
   2   4  -3   28.19    0.73
   2   4  -3   27.59    0.68
  -2  -4   3   27.59    0.67
   1   4  -3   12.68    0.34
  -1  -4   3   12.85    0.36
  -1  -4   3   12.96    0.33
   0   4  -3  136.07    3.18
   0  -4   3  133.75    3.32
   0  -4   3  134.29    3.15
  -1   4  -3    7.19    0.20
   1  -4   3    6.67    0.21
   1  -4   3    6.63    0.20
  -2   4  -3    3.18    0.12
   2  -4   3    2.71    0.09
   2  -4   3    3.14    0.14
  -3   4  -3    2.32    0.11
   3  -4   3    2.14    0.12
  -4   4  -3    5.01    0.18
   4  -4   3    4.57    0.19
  -5   4  -3    6.25    0.22
   5  -4   3    6.52    0.24
  -6   4  -3    6.02    0.22
   6  -4   3    5.96    0.25
  -7   4  -3    8.58    0.28
   7  -4   3    8.50    0.32
  -8   4  -3    0.08    0.12
   8  -4   3    0.04    0.13
   8   3  -3   -0.04    0.15
   7   3  -3    1.52    0.20
   6   3  -3    7.38    0.29
   5   3  -3    0.08    0.10
   5   3  -3    0.23    0.08
   4   3  -3   10.47    0.32
   4   3  -3   10.01    0.29
  -4  -3   3   10.31    0.27
   3   3  -3    5.38    0.20
   3   3  -3    6.38    0.18
  -3  -3   3    5.29    0.16
   2   3  -3   39.76    1.00
   2   3  -3   39.51    0.95
  -2  -3   3   38.39    0.93
   1   3  -3    0.02    0.04
   1   3  -3    0.22    0.04
  -1  -3   3    0.12    0.03
   0  -3   3    0.40    0.05
  -1   3  -3   18.38    0.46
   1  -3   3   18.05    0.46
  -2   3  -3    0.06    0.04
   2  -3   3   -0.01    0.04
  -3   3  -3    0.32    0.05
  -4   3  -3    4.33    0.16
   4  -3   3    4.36    0.18
  -5   3  -3   26.69    0.67
   5  -3   3   26.31    0.68
  -6   3  -3    9.22    0.29
   6  -3   3    9.36    0.32
  -7   3  -3    2.29    0.17
   7  -3   3    2.06    0.17
  -8   3  -3    0.90    0.14
   8  -3   3    0.97    0.16
   9  -3   3   -0.12    0.15
   9   2  -3   -0.14    0.18
   8   2  -3    1.85    0.23
   7   2  -3    1.07    0.16
   6   2  -3    3.46    0.21
  -6  -2   3    3.02    0.15
   5   2  -3  103.20    2.41
   5   2  -3   99.85    2.54
  -5  -2   3  101.14    2.38
   4   2  -3   21.50    0.57
   4   2  -3   20.09    0.52
  -4  -2   3   20.84    0.51
   3   2  -3    0.03    0.05
   3   2  -3    0.06    0.04
  -3  -2   3    0.04    0.03
   2   2  -3   22.32    0.58
   2   2  -3   22.36    0.54
  -2  -2   3   22.29    0.54
   1   2  -3   34.88    0.86
   1   2  -3   36.84    0.90
  -1  -2   3   35.69    0.85
   0   2  -3  313.10    7.89
   0   2  -3  305.53    7.53
   0  -2   3  333.44    7.48
  -1   2  -3   62.84    1.53
   1  -2   3   64.23    1.70
   1  -2   3   66.26    1.53
  -2   2  -3    9.97    0.28
   2  -2   3   11.30    0.29
  -3   2  -3   13.48    0.35
   3  -2   3   13.83    0.36
  -4   2  -3    5.70    0.19
   4  -2   3    5.63    0.17
   4  -2   3    5.68    0.20
  -5   2  -3    6.99    0.23
   5  -2   3    6.75    0.24
  -6   2  -3   17.13    0.46
   6  -2   3   16.54    0.48
  -7   2  -3   40.35    1.02
   7  -2   3   40.93    1.03
  -8   2  -3    7.38    0.29
   8  -2   3    7.38    0.30
   9  -2   3    7.36    0.32
   8   1  -3    9.63    0.38
   7   1  -3   18.45    0.55
  -7  -1   3   18.25    0.32
  -7  -1   3   18.68    0.49
   6   1  -3   75.78    1.94
  -6  -1   3   76.74    1.20
  -6  -1   3   77.08    1.82
   5   1  -3   40.45    0.98
   5   1  -3   37.94    1.04
  -5  -1   3   40.40    0.97
  -5  -1   3   40.46    0.63
   4   1  -3   32.53    0.85
   4   1  -3   33.77    0.80
  -4  -1   3   32.02    0.52
  -4  -1   3   31.95    0.79
   3   1  -3    2.71    0.10
  -3  -1   3    2.86    0.10
   2   1  -3   91.28    2.17
   2   1  -3   91.64    2.25
  -2  -1   3   89.90    2.13
   1   1  -3  263.03    6.45
   1   1  -3  253.51    6.25
  -1  -1   3  261.02    6.11
   0   1  -3  156.84    3.95
   0   1  -3  157.43    3.78
   0  -1   3  155.88    3.73
  -2   1  -3  116.42    2.73
  -2   1  -3  111.56    2.95
   2  -1   3  117.58    2.71
  -3   1  -3  220.56    5.25
  -3   1  -3  224.10    5.51
   3  -1   3  220.76    5.24
  -4   1  -3    0.96    0.08
   4  -1   3    0.77    0.09
  -5   1  -3    0.30    0.07
   5  -1   3    0.16    0.07
  -6   1  -3    0.90    0.12
   6  -1   3    0.65    0.10
  -7   1  -3    3.43    0.18
   7  -1   3    3.61    0.20
  -8   1  -3    1.19    0.16
   8  -1   3    0.82    0.13
   9  -1   3    0.70    0.15
   8   0  -3   33.55    0.93
  -8   0   3   33.01    0.56
  -8   0   3   33.72    0.86
   7   0  -3    0.88    0.14
  -7   0   3    0.67    0.06
  -7   0   3    0.77    0.13
   6   0  -3   48.53    1.24
  -6   0   3   46.96    0.76
  -6   0   3   47.05    1.16
   5   0  -3  545.63   13.31
  -5   0   3  521.47   12.68
  -5   0   3  540.10   12.57
  -5   0   3  544.90    8.25
   4   0  -3    2.99    0.14
   4   0  -3    2.82    0.13
  -4   0   3    3.00    0.12
  -4   0   3    3.02    0.08
   3   0  -3  294.73    6.71
   3   0  -3  279.33    7.00
  -3   0   3  278.61    4.35
  -3   0   3  274.94    6.62
   2   0  -3   16.99    0.44
   2   0  -3   16.96    0.41
  -2   0   3   16.21    0.41
  -2   0   3   16.26    0.27
   1   0  -3   22.15    0.55
  -1   0   3   20.91    0.51
   0   0  -3    6.32    0.18
   0   0   3    6.55    0.17
   0   0   3    6.95    0.18
  -1   0  -3  159.67    4.05
   1   0   3  162.89    3.83
   1   0   3  158.80    3.85
  -2   0  -3    9.00    0.25
   2   0   3    9.21    0.24
   2   0   3    9.45    0.25
  -3   0  -3  392.36    9.95
   3   0   3  407.85    9.58
   3   0   3  408.83    9.47
  -4   0  -3    2.86    0.12
   4   0   3    2.77    0.12
  -5   0  -3    7.02    0.22
   5   0   3    6.95    0.22
   5   0   3    6.87    0.22
  -6   0  -3  154.43    3.77
   6   0   3  148.71    3.62
   6   0   3  154.06    3.58
   7   0   3    6.74    0.25
  -8   0  -3    1.27    0.15
   8   0   3    1.25    0.17
  -9   1   3   -0.02    0.08
  -9   1   3   -0.09    0.12
  -8   1   3    6.46    0.17
  -8   1   3    6.25    0.25
   7  -1  -3    0.69    0.13
  -7   1   3    0.47    0.11
  -7   1   3    0.45    0.07
   6  -1  -3   30.69    0.79
   6  -1  -3   31.48    0.83
   5  -1  -3    5.77    0.21
   5  -1  -3    6.18    0.22
  -5   1   3    5.48    0.19
   4  -1  -3   65.05    1.62
   4  -1  -3   64.17    1.54
  -4   1   3   64.71    1.54
   3  -1  -3   55.87    1.38
   3  -1  -3   55.06    1.31
  -3   1   3   54.12    1.31
   2  -1  -3   28.01    0.70
   2  -1  -3   28.30    0.67
  -2   1   3   26.50    0.66
   1  -1  -3  115.30    2.82
  -1   1   3  107.19    2.73
   0  -1  -3   27.76    0.70
   0   1   3   26.87    0.66
   0   1   3   27.24    0.67
   1   1   3    1.79    0.05
   1   1   3    1.97    0.06
  -2  -1  -3   20.11    0.52
   2   1   3   20.33    0.50
  -3  -1  -3    1.70    0.10
   3   1   3    1.91    0.09
   3   1   3    1.96    0.08
  -4  -1  -3    6.82    0.22
   4   1   3    6.98    0.21
   4   1   3    6.85    0.20
  -5  -1  -3    0.26    0.06
   5   1   3    0.25    0.06
   5   1   3    0.28    0.07
  -6  -1  -3    0.05    0.07
   6   1   3    0.10    0.07
   6   1   3   -0.10    0.08
  -7  -1  -3    4.27    0.21
   7   1   3    4.16    0.20
   8   1   3    0.30    0.13
  -9   2   3    6.83    0.19
  -9   2   3    6.75    0.29
  -8   2   3    4.98    0.16
  -8   2   3    4.90    0.25
   7  -2  -3    7.65    0.28
   6  -2  -3   10.69    0.33
   5  -2  -3   53.39    1.29
   5  -2  -3   54.02    1.35
  -5   2   3   52.32    1.28
   4  -2  -3    0.15    0.06
   4  -2  -3   -0.02    0.05
  -4   2   3    0.04    0.04
   2  -2  -3   31.74    0.79
   2  -2  -3   31.26    0.76
  -2   2   3   30.70    0.75
   1  -2  -3  100.04    2.34
   1  -2  -3   99.90    2.48
  -1   2   3   98.94    2.37
   0  -2  -3  498.70   11.84
   0   2   3  457.83   11.32
  -1  -2  -3    3.67    0.12
   1   2   3    3.60    0.11
  -2  -2  -3   65.33    1.66
   2   2   3   67.85    1.59
  -3  -2  -3  288.16    7.29
   3   2   3  300.51    7.09
   3   2   3  302.96    7.02
  -4  -2  -3    7.24    0.22
   4   2   3    6.37    0.19
   4   2   3    6.73    0.21
  -5  -2  -3   39.04    1.01
   5   2   3   39.19    0.97
   5   2   3   38.89    0.94
  -6  -2  -3   45.60    1.19
   6   2   3   46.86    1.15
  -7  -2  -3    0.36    0.10
   7   2   3    0.30    0.12
  -8  -2  -3    3.37    0.21
   8   2   3    3.03    0.21
   8  -3  -3    0.92    0.15
   7  -3  -3    0.07    0.10
   6  -3  -3    6.38    0.24
   5  -3  -3   99.66    2.27
   5  -3  -3   90.66    2.37
  -5   3   3   95.67    2.26
   4  -3  -3    9.99    0.29
   4  -3  -3    9.75    0.29
  -4   3   3    9.92    0.27
   3  -3  -3  269.78    6.14
   3  -3  -3  258.60    6.46
  -3   3   3  257.67    6.18
   2  -3  -3   74.48    1.73
   2  -3  -3   72.55    1.81
  -2   3   3   72.49    1.74
   1  -3  -3  210.73    5.17
   1  -3  -3  211.12    4.91
  -1   3   3  201.77    4.94
   0  -3  -3   35.02    0.90
   0  -3  -3   36.78    0.86
   0   3   3   35.73    0.86
  -1  -3  -3    9.28    0.26
  -1  -3  -3    9.12    0.23
   1   3   3    8.99    0.24
  -2  -3  -3   17.46    0.46
   2   3   3   16.90    0.43
  -3  -3  -3    0.49    0.07
   3   3   3    0.61    0.08
  -4  -3  -3  118.78    2.90
   4   3   3  114.71    2.77
  -5  -3  -3   14.46    0.42
   5   3   3   14.12    0.40
  -6  -3  -3    0.65    0.11
   6   3   3    0.80    0.12
  -7  -3  -3    2.49    0.19
   7   3   3    2.32    0.20
  -8  -3  -3    0.44    0.13
   8   3   3    0.47    0.15
   8  -4  -3   -0.02    0.12
   7  -4  -3   10.56    0.36
   6  -4  -3    2.46    0.17
   5  -4  -3    1.72    0.14
  -5   4   3    2.14    0.13
   4  -4  -3    3.65    0.16
   4  -4  -3    3.55    0.16
  -4   4   3    3.39    0.14
   3  -4  -3    2.92    0.13
   3  -4  -3    2.52    0.13
  -3   4   3    2.90    0.12
   2  -4  -3   27.08    0.66
   2  -4  -3   25.95    0.68
  -2   4   3   26.55    0.65
   1  -4  -3    0.80    0.08
   1  -4  -3    1.10    0.08
  -1   4   3    0.99    0.08
   0  -4  -3  256.62    5.83
   0  -4  -3  241.91    6.12
   0   4   3  246.27    5.90
  -1  -4  -3  232.16    5.53
  -1  -4  -3  235.24    5.79
   1   4   3  233.68    5.57
  -2  -4  -3   68.37    1.74
   2   4   3   70.53    1.66
  -3  -4  -3  195.14    4.73
   3   4   3  188.68    4.52
  -4  -4  -3    8.16    0.28
   4   4   3    8.48    0.26
  -5  -4  -3   39.06    1.02
   5   4   3   37.91    0.97
  -6  -4  -3    0.98    0.15
   6   4   3    1.28    0.14
  -7  -4  -3   11.69    0.40
   7   4   3   11.86    0.39
  -8  -4  -3   -0.06    0.14
   8   4   3    0.02    0.16
  -9  -4  -3    8.88    0.39
   7  -5  -3    2.11    0.20
   6  -5  -3    3.09    0.20
   5  -5  -3    5.18    0.21
  -5   5   3    5.21    0.20
   4  -5  -3    0.90    0.11
  -4   5   3    0.92    0.12
   3  -5  -3   29.68    0.79
   3  -5  -3   30.78    0.77
  -3   5   3   31.38    0.76
   2  -5  -3   22.35    0.57
   2  -5  -3   22.11    0.59
  -2   5   3   23.03    0.57
   1  -5  -3   30.46    0.80
   1  -5  -3   33.72    0.77
  -1   5   3   29.45    0.77
   0  -5  -3    5.60    0.20
   0  -5  -3    5.52    0.18
   0   5   3    6.34    0.18
  -1  -5  -3   79.37    2.00
  -1  -5  -3   82.56    1.89
   1   5   3   78.08    1.91
  -2  -5  -3    0.41    0.07
   2   5   3    0.53    0.08
  -3  -5  -3   58.92    1.49
   3   5   3   58.08    1.42
  -4  -5  -3   15.98    0.47
   4   5   3   15.75    0.44
  -5  -5  -3    5.15    0.22
   5   5   3    4.92    0.20
  -6  -5  -3    7.90    0.30
   6   5   3    8.37    0.30
  -7  -5  -3    0.18    0.12
   7   5   3    0.19    0.14
  -8  -5  -3    1.63    0.23
   8   5   3    1.54    0.23
   7  -6  -3    2.10    0.21
   6  -6  -3    1.75    0.18
   5  -6  -3   16.23    0.47
  -5   6   3   16.10    0.45
   4  -6  -3    5.62    0.23
  -4   6   3    6.01    0.22
   3  -6  -3   55.33    1.35
  -3   6   3   55.77    1.35
   2  -6  -3    1.95    0.14
   2  -6  -3    2.14    0.14
  -2   6   3    2.41    0.13
   1  -6  -3   58.48    1.43
   1  -6  -3   55.69    1.36
  -1   6   3   56.13    1.37
   0  -6  -3   78.34    2.02
   0  -6  -3   81.69    1.91
   0   6   3   82.80    1.94
  -1  -6  -3    2.52    0.14
   1   6   3    2.55    0.12
  -2  -6  -3   53.16    1.38
   2   6   3   54.72    1.31
  -3  -6  -3   -0.01    0.09
   3   6   3    0.08    0.08
  -4  -6  -3    7.66    0.28
   4   6   3    8.02    0.27
  -5  -6  -3   16.07    0.50
   5   6   3   16.61    0.47
  -6  -6  -3    9.62    0.35
   6   6   3   10.14    0.35
  -7  -6  -3    9.00    0.37
   7   6   3    9.08    0.35
   8   6   3    6.42    0.33
   6  -7  -3    2.68    0.20
   5  -7  -3    0.32    0.11
  -5   7   3    0.48    0.11
   4  -7  -3   13.81    0.42
  -4   7   3   14.35    0.41
   3  -7  -3   17.81    0.50
  -3   7   3   18.17    0.49
   2  -7  -3    1.12    0.13
  -2   7   3    1.32    0.12
   1  -7  -3   21.95    0.57
   1  -7  -3   22.08    0.59
  -1   7   3   21.08    0.56
   0  -7  -3    0.66    0.09
   0   7   3    0.65    0.10
  -2  -7  -3    1.62    0.16
   2   7   3    1.98    0.13
  -3  -7  -3    7.64    0.29
   3   7   3    7.89    0.27
  -4  -7  -3   11.33    0.37
   4   7   3   10.97    0.35
  -5  -7  -3    1.21    0.18
   5   7   3    1.36    0.17
  -6  -7  -3    0.89    0.15
   6   7   3    0.99    0.16
  -7  -7  -3    0.30    0.17
   7   7   3    0.34    0.17
   5  -8  -3    0.00    0.13
   4  -8  -3    5.14    0.24
  -4   8   3    4.98    0.22
   3  -8  -3    6.03    0.25
  -3   8   3    5.69    0.23
  -2   8   3   -0.02    0.10
  -1   8   3    9.13    0.29
   0  -8  -3    9.32    0.31
   0   8   3    9.36    0.29
  -1  -8  -3    7.92    0.30
   1   8   3    8.10    0.26
  -2  -8  -3    6.12    0.25
   2   8   3    6.31    0.23
  -3  -8  -3   34.19    0.93
   3   8   3   34.26    0.88
  -4  -8  -3    0.85    0.16
   4   8   3    1.02    0.16
  -5  -8  -3    2.23    0.22
   5   8   3    2.21    0.20
  -6  -8  -3    4.66    0.29
   6   8   3    4.58    0.27
   5  -9  -3    4.88    0.28
  -4   9   3    0.04    0.14
  -3   9   3    3.97    0.21
  -2   9   3    4.42    0.21
  -1   9   3    3.20    0.19
   0   9   3    1.43    0.15
  -1  -9  -3    2.74    0.21
   1   9   3    2.62    0.17
  -2  -9  -3    9.53    0.36
   2   9   3    9.49    0.32
  -3  -9  -3    2.09    0.22
   3   9   3    1.99    0.17
  -4  -9  -3    1.33    0.21
   4   9   3    1.07    0.18
  -5  -9  -3    7.07    0.34
   5   9   3    6.93    0.31
  -3  10   3    0.19    0.14
  -2  10   3    5.50    0.25
  -1  10   3    0.81    0.15
   0  10   3    7.46    0.29
   1  10   3    0.46    0.14
  -2 -10  -3    7.43    0.36
   2  10   3    7.25    0.29
  -3 -10  -3   28.63    0.83
   3  10   3   28.20    0.78
  -4 -10  -3    0.71    0.21
  -4 -10   4    9.52    0.42
   3  10  -4    3.86    0.24
   2  10  -4    4.67    0.25
   1  10  -4    6.17    0.27
   0  10  -4    2.87    0.19
  -1  10  -4    7.54    0.30
  -2  10  -4    1.60    0.19
  -5  -9   4    3.12    0.29
   4   9  -4    0.37    0.15
  -4  -9   4    0.13    0.17
   3   9  -4    4.41    0.23
  -3  -9   4    4.72    0.27
   2   9  -4    4.43    0.22
   1   9  -4   10.29    0.34
   0   9  -4   12.75    0.40
  -1   9  -4    6.02    0.25
  -2   9  -4   10.04    0.33
  -3   9  -4    7.45    0.29
   3  -9   4    7.24    0.33
  -4   9  -4    6.55    0.28
   4  -9   4    6.86    0.33
   5   8  -4    6.69    0.29
  -5  -8   4    6.72    0.33
   4   8  -4    3.75    0.21
  -4  -8   4    3.81    0.23
   3   8  -4    3.84    0.20
  -3  -8   4    4.14    0.24
   2   8  -4    9.94    0.32
  -2  -8   4    9.73    0.35
   1   8  -4   19.26    0.53
   0   8  -4   34.15    0.87
  -1   8  -4    8.95    0.30
   1  -8   4    8.93    0.32
  -2   8  -4   19.84    0.54
   2  -8   4   19.21    0.55
  -3   8  -4    6.55    0.24
   3  -8   4    6.75    0.28
  -4   8  -4    0.21    0.12
   4  -8   4    0.20    0.14
  -5   8  -4    2.72    0.19
   5  -8   4    2.36    0.24
  -6   8  -4    1.54    0.20
  -6  -7   4    4.94    0.28
   5   7  -4    2.19    0.18
  -5  -7   4    2.01    0.22
   4   7  -4    0.27    0.11
  -4  -7   4   -0.11    0.12
   3   7  -4    5.12    0.21
  -3  -7   4    4.97    0.24
   2   7  -4    4.22    0.19
  -2  -7   4    4.34    0.21
   1   7  -4    3.12    0.16
   0   7  -4    0.86    0.11
   0  -7   4    0.64    0.10
  -1   7  -4    5.45    0.20
   1  -7   4    5.30    0.23
  -2   7  -4    8.06    0.27
   2  -7   4    8.04    0.29
  -3   7  -4   15.88    0.45
   3  -7   4   16.13    0.47
  -4   7  -4    0.78    0.12
   4  -7   4    0.74    0.13
  -5   7  -4    8.34    0.30
   5  -7   4    8.40    0.33
  -6   7  -4    3.11    0.21
   6  -7   4    3.16    0.25
  -7   7  -4    0.42    0.15
  -7  -6   4    1.21    0.22
  -6  -6   4    2.13    0.22
   5   6  -4    4.38    0.21
  -5  -6   4    4.08    0.25
   4   6  -4   12.10    0.36
  -4  -6   4   12.76    0.41
   3   6  -4   51.81    1.28
  -3  -6   4   53.28    1.36
   2   6  -4   -0.06    0.08
  -2  -6   4   -0.03    0.08
   1   6  -4  160.52    3.78
  -1  -6   4  157.54    3.95
  -1  -6   4  161.45    3.75
   0   6  -4  152.56    3.62
   0  -6   4  152.72    3.77
   0  -6   4  153.44    3.59
  -1   6  -4   82.36    1.95
   1  -6   4   79.74    1.93
  -2   6  -4  105.70    2.58
   2  -6   4  110.76    2.57
  -3   6  -4   25.34    0.64
   3  -6   4   23.74    0.65
  -4   6  -4    5.48    0.21
   4  -6   4    5.34    0.23
  -5   6  -4   27.92    0.74
   5  -6   4   29.05    0.77
  -6   6  -4    1.04    0.16
   6  -6   4    1.14    0.18
  -7   6  -4    7.88    0.29
   7  -6   4    7.12    0.32
  -7  -5   4    0.18    0.14
   6   5  -4    1.75    0.18
   5   5  -4    3.32    0.19
   5   5  -4    3.01    0.20
   4   5  -4    0.81    0.11
   4   5  -4    0.69    0.12
   3   5  -4   25.71    0.65
   3   5  -4   25.65    0.70
  -3  -5   4   25.18    0.62
   2   5  -4    1.68    0.11
  -2  -5   4    1.88    0.11
   1   5  -4    9.40    0.27
  -1  -5   4    9.18    0.29
  -1  -5   4    9.04    0.26
   0   5  -4   40.38    0.99
   0  -5   4   41.53    1.03
   0  -5   4   40.12    0.99
  -1   5  -4  180.19    4.25
   1  -5   4  181.13    4.44
   1  -5   4  179.71    4.22
  -2   5  -4   14.23    0.38
   2  -5   4   13.77    0.39
  -3   5  -4   78.86    1.89
   3  -5   4   78.98    1.89
  -4   5  -4    0.71    0.11
   4  -5   4    0.63    0.09
  -5   5  -4   50.59    1.24
   5  -5   4   50.55    1.26
  -6   5  -4    7.95    0.27
   6  -5   4    7.95    0.30
  -7   5  -4   13.10    0.40
   7  -5   4   13.13    0.43
  -8   5  -4   -0.18    0.13
   8  -5   4   -0.04    0.16
   8   4  -4    0.32    0.17
   7   4  -4    3.51    0.25
   6   4  -4    7.40    0.30
   5   4  -4    7.97    0.30
   5   4  -4    8.34    0.27
   4   4  -4   35.44    0.88
   4   4  -4   35.80    0.94
  -4  -4   4   34.99    0.85
   3   4  -4    3.63    0.14
   3   4  -4    3.87    0.18
  -3  -4   4    3.76    0.12
   2   4  -4    0.01    0.05
   2   4  -4    0.00    0.05
  -2  -4   4    0.07    0.04
   1   4  -4  153.32    3.64
   1   4  -4  154.34    3.80
  -1  -4   4  154.95    3.60
   0   4  -4  366.39    8.83
   0  -4   4  372.52    9.19
   0  -4   4  376.34    8.75
  -1   4  -4  568.06   14.43
   1  -4   4  622.63   15.12
   1  -4   4  645.21   14.39
  -2   4  -4    9.66    0.27
   2  -4   4    9.41    0.28
  -3   4  -4   17.43    0.45
   3  -4   4   17.29    0.46
  -4   4  -4    0.87    0.09
   4  -4   4    0.95    0.13
  -5   4  -4    4.23    0.18
   5  -4   4    4.50    0.20
  -6   4  -4    2.88    0.15
   6  -4   4    2.64    0.18
  -7   4  -4    3.69    0.20
   7  -4   4    3.75    0.22
  -8   4  -4    1.53    0.18
   8  -4   4    1.47    0.19
   8   3  -4    0.09    0.16
   7   3  -4    0.02    0.13
   6   3  -4    0.25    0.11
   5   3  -4    1.91    0.14
   5   3  -4    1.24    0.16
  -5  -3   4    1.52    0.10
   4   3  -4    3.56    0.17
   4   3  -4    3.54    0.14
  -4  -3   4    3.44    0.12
   3   3  -4   19.77    0.50
   3   3  -4   19.37    0.54
  -3  -3   4   20.25    0.48
   2   3  -4    2.34    0.11
   2   3  -4    2.43    0.09
  -2  -3   4    2.35    0.08
   1   3  -4   77.06    1.83
   1   3  -4   77.41    1.92
  -1  -3   4   77.15    1.81
   0   3  -4   18.66    0.48
   0   3  -4   18.69    0.46
   0  -3   4   18.35    0.46
  -1   3  -4  261.05    6.38
   1  -3   4  270.72    6.29
   1  -3   4  272.78    6.70
  -2   3  -4   74.24    1.81
   2  -3   4   78.30    1.81
  -3   3  -4   13.25    0.35
   3  -3   4   13.31    0.36
  -4   3  -4    0.24    0.06
   4  -3   4    0.16    0.07
  -5   3  -4   43.53    1.06
   5  -3   4   42.17    1.06
  -6   3  -4    7.96    0.27
   6  -3   4    8.36    0.30
  -7   3  -4    6.78    0.26
   7  -3   4    6.49    0.28
  -8   3  -4    7.56    0.29
   8  -3   4    7.54    0.31
   9  -3   4    0.65    0.17
   9   2  -4   -0.01    0.18
   8   2  -4    0.02    0.15
   7   2  -4   11.90    0.41
   6   2  -4   12.80    0.41
  -6  -2   4   12.64    0.35
   5   2  -4  127.62    3.01
   5   2  -4  124.43    3.16
  -5  -2   4  128.51    2.97
   4   2  -4   38.65    0.92
   4   2  -4   38.10    0.98
  -4  -2   4   36.18    0.90
   3   2  -4  161.68    3.76
   3   2  -4  158.16    3.93
  -3  -2   4  158.16    3.71
   2   2  -4  148.10    3.64
   2   2  -4  146.15    3.48
  -2  -2   4  146.68    3.44
   1   2  -4   92.21    2.29
   1   2  -4   92.79    2.19
  -1  -2   4   92.04    2.16
   0   2  -4   70.16    1.76
   0   2  -4   70.12    1.68
   0  -2   4   71.73    1.67
  -1   2  -4    4.05    0.12
  -1   2  -4    4.43    0.13
   1  -2   4    4.19    0.13
  -2   2  -4   47.49    1.16
   2  -2   4   49.65    1.16
  -3   2  -4   31.43    0.77
   3  -2   4   31.25    0.77
  -4   2  -4    5.38    0.17
  -4   2  -4    5.29    0.16
   4  -2   4    5.22    0.19
  -5   2  -4   75.07    1.82
   5  -2   4   77.07    1.83
  -6   2  -4   20.27    0.54
   6  -2   4   20.81    0.56
  -7   2  -4   14.60    0.42
   7  -2   4   13.82    0.43
  -8   2  -4   10.52    0.35
   8  -2   4   11.03    0.38
   9  -2   4    0.55    0.16
   9   1  -4    0.71    0.20
   8   1  -4    8.17    0.35
   7   1  -4    0.98    0.15
  -7  -1   4    0.94    0.12
   6   1  -4    1.43    0.16
  -6  -1   4    1.23    0.12
  -6  -1   4    0.95    0.08
   5   1  -4   17.10    0.47
   5   1  -4   16.18    0.42
  -5  -1   4   15.16    0.28
  -5  -1   4   15.46    0.42
   4   1  -4    0.18    0.07
   4   1  -4    0.06    0.05
  -4  -1   4    0.16    0.04
   3   1  -4   79.21    1.89
   3   1  -4   81.80    1.99
  -3  -1   4   77.81    1.87
   2   1  -4    0.15    0.03
  -2  -1   4    0.16    0.04
   1   1  -4  198.29    4.93
   1   1  -4  207.99    5.07
  -1  -1   4  204.01    4.82
   0   1  -4   13.01    0.32
   0   1  -4   11.41    0.33
   0  -1   4   11.26    0.31
  -2   1  -4   21.61    0.56
  -2   1  -4   22.21    0.54
   2  -1   4   21.81    0.54
  -3   1  -4  205.10    4.82
  -3   1  -4  201.72    5.04
   3  -1   4  201.90    4.80
  -4   1  -4    2.23    0.10
  -4   1  -4    2.69    0.11
   4  -1   4    1.99    0.12
  -5   1  -4   10.14    0.29
  -5   1  -4   10.29    0.29
   5  -1   4    9.73    0.29
  -6   1  -4   15.90    0.44
   6  -1   4   16.60    0.46
  -7   1  -4    0.51    0.11
   7  -1   4    0.50    0.11
  -8   1  -4    8.97    0.31
   8  -1   4    9.05    0.32
   8   0  -4   19.93    0.61
  -8   0   4   19.32    0.35
  -8   0   4   19.47    0.54
   7   0  -4   11.03    0.39
  -7   0   4   11.31    0.22
  -7   0   4   11.59    0.34
   6   0  -4    8.81    0.30
  -6   0   4    8.16    0.27
  -6   0   4    8.53    0.18
   5   0  -4   31.31    0.82
  -5   0   4   30.74    0.50
  -5   0   4   30.47    0.76
   4   0  -4    3.20    0.15
  -4   0   4    3.19    0.08
  -4   0   4    3.11    0.12
   3   0  -4   27.75    0.72
  -3   0   4   27.75    0.44
  -3   0   4   27.21    0.67
  -2   0   4    0.06    0.02
  -2   0   4    0.08    0.02
  -2   0   4    0.08    0.03
   1   0  -4   25.96    0.66
  -1   0   4   26.09    0.63
   0   0  -4   84.47    2.13
   0   0   4   85.17    2.01
   0   0   4   83.95    2.07
  -1   0  -4    0.67    0.04
   1   0   4    0.65    0.04
   1   0   4    0.57    0.04
  -2   0  -4   24.20    0.62
   2   0   4   24.72    0.60
   2   0   4   24.23    0.59
  -3   0  -4   14.80    0.40
   3   0   4   14.97    0.39
   3   0   4   15.96    0.40
  -4   0  -4  156.77    4.04
   4   0   4  166.25    3.88
   4   0   4  170.54    3.85
  -5   0  -4   51.41    1.30
   5   0   4   52.39    1.24
   5   0   4   50.91    1.26
  -6   0  -4    1.02    0.10
   6   0   4    1.28    0.13
   7   0   4   12.56    0.38
  -8   0  -4    0.43    0.11
  -9   1   4    0.38    0.12
  -9   1   4    0.52    0.08
  -8   1   4    6.15    0.25
  -8   1   4    6.17    0.17
   7  -1  -4   20.11    0.58
  -7   1   4   19.07    0.35
  -7   1   4   18.89    0.53
   6  -1  -4    0.31    0.10
  -6   1   4    0.18    0.04
  -6   1   4    0.27    0.07
   5  -1  -4   73.92    1.86
  -5   1   4   74.35    1.16
  -5   1   4   73.98    1.77
   4  -1  -4  106.84    2.65
  -4   1   4  107.34    2.53
   3  -1  -4  491.03   11.95
  -3   1   4  476.57   11.44
   2  -1  -4  350.16    8.60
  -2   1   4  344.10    8.30
   0  -1  -4  139.07    3.48
   0   1   4  138.99    3.32
   0   1   4  141.63    3.37
  -1  -1  -4    0.68    0.05
   1   1   4    0.75    0.05
   1   1   4    0.72    0.03
  -2  -1  -4   58.21    1.42
   2   1   4   56.90    1.36
   2   1   4   55.81    1.35
  -3  -1  -4    1.56    0.09
   3   1   4    1.60    0.08
   3   1   4    1.48    0.08
  -4  -1  -4  178.01    4.47
   4   1   4  178.82    4.25
   4   1   4  188.43    4.29
  -5  -1  -4   25.58    0.67
   5   1   4   25.61    0.64
   5   1   4   25.65    0.66
  -6  -1  -4    0.51    0.09
   6   1   4    0.66    0.10
   6   1   4    0.68    0.12
  -7  -1  -4    4.54    0.21
   7   1   4    3.97    0.21
   8   1   4    0.20    0.13
  -8   2   4    1.37    0.11
  -8   2   4    1.40    0.17
  -7   2   4    3.37    0.12
  -7   2   4    3.36    0.18
   6  -2  -4   -0.06    0.08
   6  -2  -4    0.04    0.09
   5  -2  -4    7.52    0.25
   5  -2  -4    6.76    0.23
   4  -2  -4    8.92    0.27
   4  -2  -4    8.67    0.26
  -4   2   4    8.25    0.23
   3  -2  -4  166.82    4.01
   3  -2  -4  162.38    3.81
  -3   2   4  159.74    3.84
   2  -2  -4  356.84    7.94
   2  -2  -4  335.83    8.33
  -2   2   4  318.02    7.97
   1  -2  -4  684.38   16.73
  -1   2   4  673.02   16.06
   0  -2  -4  288.94    7.07
   0   2   4  284.41    6.74
   0   2   4  278.67    6.78
   0   2   4  287.88    4.42
   1   2   4  788.32   18.61
  -2  -2  -4   36.26    0.89
   2   2   4   36.03    0.85
   2   2   4   32.84    0.86
  -3  -2  -4   97.47    2.46
   3   2   4  100.82    2.34
   3   2   4   99.31    2.36
  -4  -2  -4  151.52    3.78
   4   2   4  153.78    3.58
   4   2   4  154.10    3.62
  -5  -2  -4    0.27    0.07
   5   2   4    0.25    0.07
   5   2   4    0.26    0.06
  -6  -2  -4    6.09    0.24
   6   2   4    6.43    0.23
  -7  -2  -4    5.54    0.23
   7   2   4    5.41    0.24
   8   2   4    1.43    0.19
   9   2   4    4.02    0.28
  -8   3   4    0.93    0.14
  -8   3   4    0.84    0.09
   7  -3  -4    0.08    0.09
   6  -3  -4   -0.02    0.09
   5  -3  -4   25.26    0.68
   5  -3  -4   25.76    0.66
   4  -3  -4    4.71    0.18
   4  -3  -4    4.42    0.18
  -4   3   4    4.49    0.15
   3  -3  -4   51.90    1.25
   3  -3  -4   48.56    1.20
  -3   3   4   48.69    1.19
   2  -3  -4   22.30    0.58
   2  -3  -4   22.17    0.56
  -2   3   4   23.10    0.55
   1  -3  -4   37.76    0.95
   1  -3  -4   37.73    0.91
  -1   3   4   38.32    0.91
   0  -3  -4   61.50    1.44
   0  -3  -4   60.31    1.52
   0   3   4   61.48    1.45
  -1  -3  -4    1.11    0.08
   1   3   4    1.30    0.07
   1   3   4    1.13    0.04
  -2  -3  -4   -0.02    0.04
   2   3   4    0.05    0.04
  -3  -3  -4    5.67    0.19
   3   3   4    5.66    0.18
  -4  -3  -4   18.26    0.50
   4   3   4   17.83    0.48
  -5  -3  -4   -0.04    0.07
   5   3   4    0.03    0.07
  -6  -3  -4    1.84    0.14
   6   3   4    1.97    0.16
  -7  -3  -4    6.24    0.26
   7   3   4    6.38    0.27
  -8  -3  -4    0.65    0.14
   8   3   4    0.83    0.16
   9   3   4    0.90    0.20
   8  -4  -4    0.35    0.15
   7  -4  -4   12.03    0.38
   6  -4  -4    0.08    0.10
   5  -4  -4   44.15    1.10
   4  -4  -4   52.75    1.32
   4  -4  -4   51.96    1.27
  -4   4   4   52.36    1.26
   3  -4  -4    0.82    0.09
  -3   4   4    0.76    0.09
   2  -4  -4  614.11   14.08
   2  -4  -4  598.58   14.80
  -2   4   4  590.10   14.18
   1  -4  -4  246.16    6.12
   1  -4  -4  252.72    5.85
  -1   4   4  247.64    5.90
   0  -4  -4    2.36    0.11
   0  -4  -4    2.35    0.10
   0   4   4    2.48    0.11
  -1  -4  -4  227.40    5.34
  -1  -4  -4  227.77    5.55
   1   4   4  222.45    5.35
  -2  -4  -4    2.48    0.13
   2   4   4    2.42    0.11
  -3  -4  -4   21.74    0.60
   3   4   4   23.01    0.57
  -4  -4  -4    2.37    0.16
   4   4   4    2.17    0.14
  -5  -4  -4   21.67    0.60
   5   4   4   20.86    0.57
  -6  -4  -4    1.12    0.14
   6   4   4    1.52    0.16
  -7  -4  -4   16.86    0.52
   7   4   4   16.49    0.50
  -8  -4  -4    4.41    0.26
   8   4   4    4.77    0.28
  -9  -4  -4    6.78    0.35
   9   4   4    6.63    0.35
   7  -5  -4   -0.18    0.12
   6  -5  -4    2.23    0.16
   5  -5  -4    4.54    0.21
   4  -5  -4    0.04    0.07
  -4   5   4    0.02    0.07
   3  -5  -4    8.25    0.26
   3  -5  -4    8.31    0.26
  -3   5   4    8.89    0.25
   2  -5  -4   12.18    0.35
   2  -5  -4   12.31    0.36
  -2   5   4   14.21    0.35
   1  -5  -4    4.06    0.16
   1  -5  -4    4.43    0.15
  -1   5   4    4.09    0.15
   0  -5  -4    0.79    0.10
   0  -5  -4    0.83    0.09
   0   5   4    0.73    0.09
  -1  -5  -4   56.59    1.43
  -1  -5  -4   56.30    1.33
   1   5   4   56.38    1.36
  -2  -5  -4   10.02    0.31
   2   5   4   10.15    0.29
  -3  -5  -4   29.49    0.78
   3   5   4   29.29    0.74
  -4  -5  -4    2.65    0.17
   4   5   4    1.92    0.13
  -5  -5  -4    0.09    0.10
   5   5   4   -0.09    0.09
  -6  -5  -4    8.24    0.31
   6   5   4    7.72    0.28
  -7  -5  -4    1.70    0.20
   7   5   4    1.68    0.20
  -8  -5  -4   -0.06    0.16
   8   5   4    0.13    0.17
   9   5   4    0.46    0.23
   7  -6  -4    1.25    0.20
   6  -6  -4    1.77    0.19
   5  -6  -4   18.88    0.53
   4  -6  -4    2.96    0.16
  -4   6   4    3.10    0.16
   3  -6  -4    9.56    0.30
  -3   6   4   10.03    0.29
   2  -6  -4  147.28    3.58
   2  -6  -4  145.48    3.41
  -2   6   4  142.49    3.43
   1  -6  -4   37.50    0.91
   1  -6  -4   37.09    0.96
  -1   6   4   36.98    0.92
   0  -6  -4   29.89    0.80
   0  -6  -4   30.85    0.75
   0   6   4   30.90    0.76
  -1  -6  -4   70.43    1.78
   1   6   4   71.36    1.70
  -2  -6  -4   23.88    0.66
   2   6   4   25.01    0.63
  -3  -6  -4   17.02    0.50
   3   6   4   17.68    0.48
  -4  -6  -4   64.96    1.68
   4   6   4   66.44    1.60
  -5  -6  -4   22.32    0.65
   5   6   4   23.23    0.62
  -6  -6  -4    9.37    0.35
   6   6   4    9.56    0.34
  -7  -6  -4   13.68    0.47
   7   6   4   14.48    0.46
   8   6   4    1.06    0.20
   6  -7  -4    0.89    0.16
   5  -7  -4    0.50    0.13
   4  -7  -4    2.14    0.18
  -4   7   4    2.25    0.16
   3  -7  -4   -0.08    0.09
  -3   7   4    0.12    0.08
   2  -7  -4    7.95    0.27
  -2   7   4    8.24    0.26
   1  -7  -4    1.44    0.13
  -1   7   4    1.46    0.12
   0  -7  -4    0.10    0.08
   0   7   4    0.53    0.09
  -1  -7  -4    1.67    0.15
   1   7   4    1.71    0.12
  -2  -7  -4    0.00    0.10
   2   7   4    0.09    0.07
  -3  -7  -4    0.31    0.12
   3   7   4    0.48    0.09
  -4  -7  -4    5.45    0.24
   4   7   4    5.42    0.23
  -5  -7  -4    0.01    0.13
   5   7   4    0.08    0.12
  -6  -7  -4    6.66    0.31
   6   7   4    6.90    0.29
  -7  -7  -4    2.20    0.24
   7   7   4    1.95    0.23
   5  -8  -4    9.21    0.35
   4  -8  -4    0.07    0.11
  -4   8   4    0.24    0.11
   3  -8  -4   22.85    0.61
  -3   8   4   22.10    0.60
  -2   8   4    3.54    0.17
  -1   8   4    1.69    0.14
   0  -8  -4    2.22    0.16
   0   8   4    2.14    0.14
  -1  -8  -4    0.31    0.11
  -2  -8  -4    3.85    0.23
   2   8   4    4.44    0.20
  -3  -8  -4    3.03    0.22
   3   8   4    3.22    0.19
  -4  -8  -4   30.29    0.84
   4   8   4   29.87    0.79
  -5  -8  -4    0.78    0.17
   5   8   4    0.79    0.15
  -6  -8  -4    5.78    0.32
   6   8   4    5.78    0.29
   5  -9  -4    1.54    0.24
  -4   9   4   -0.01    0.13
  -3   9   4    7.53    0.28
  -2   9   4    1.99    0.16
  -1   9   4    3.57    0.19
   0   9   4   12.38    0.38
  -1  -9  -4    4.01    0.23
   1   9   4    4.40    0.21
  -2  -9  -4    5.24    0.27
   2   9   4    5.05    0.23
  -3  -9  -4    6.54    0.29
   3   9   4    6.88    0.28
  -4  -9  -4    0.22    0.16
   4   9   4   -0.03    0.13
  -5  -9  -4    2.76    0.25
   5   9   4    2.48    0.22
  -3  10   4    2.59    0.21
  -2  10   4   17.16    0.51
  -1  10   4    2.56    0.19
   0  10   4    8.73    0.32
   1  10   4   15.12    0.46
  -2 -10  -4    0.07    0.17
   2  10   4    0.00    0.12
  -3 -10  -4   26.26    0.77
   3  10   4   25.88    0.72
  -4 -10  -4   10.16    0.42
   3  10  -5    5.26    0.28
   2  10  -5    0.93    0.17
   1  10  -5    6.90    0.30
   0  10  -5    0.58    0.15
  -1  10  -5    8.54    0.33
   4   9  -5    6.48    0.29
  -4  -9   5    6.48    0.34
   3   9  -5    1.43    0.18
  -3  -9   5    1.30    0.22
   2   9  -5    4.27    0.22
   1   9  -5    0.44    0.13
   0   9  -5   13.73    0.42
  -1   9  -5    0.43    0.13
  -2   9  -5   32.54    0.85
  -3   9  -5    0.48    0.12
   3  -9   5    0.44    0.15
  -4   9  -5   14.10    0.44
   4  -9   5   14.59    0.48
  -5  -8   5    1.03    0.19
   4   8  -5    7.36    0.29
  -4  -8   5    7.49    0.33
   3   8  -5    1.70    0.16
  -3  -8   5    1.61    0.20
   2   8  -5    9.55    0.30
  -2  -8   5    8.02    0.34
   1   8  -5    0.47    0.11
   0   8  -5   17.35    0.49
  -1   8  -5   14.89    0.44
   1  -8   5   15.95    0.47
  -2   8  -5    0.02    0.09
   2  -8   5    0.13    0.11
  -3   8  -5    0.97    0.14
   3  -8   5    0.89    0.14
  -4   8  -5    5.72    0.24
   4  -8   5    6.03    0.29
  -5   8  -5    0.08    0.12
   5  -8   5   -0.12    0.15
  -6  -7   5    0.03    0.14
  -5  -7   5    0.82    0.15
   4   7  -5    1.39    0.15
  -4  -7   5    1.23    0.20
   3   7  -5    3.71    0.18
  -3  -7   5    3.30    0.21
   2   7  -5   13.69    0.39
  -2  -7   5   13.96    0.43
   1   7  -5    1.05    0.13
   0   7  -5   12.44    0.37
   0  -7   5   12.87    0.38
  -1   7  -5   51.90    1.26
   1  -7   5   50.75    1.26
  -2   7  -5    4.85    0.20
   2  -7   5    4.86    0.23
  -3   7  -5   17.31    0.48
   3  -7   5   17.17    0.50
  -4   7  -5   11.77    0.36
   4  -7   5   11.69    0.39
  -5   7  -5    0.51    0.12
   5  -7   5    0.39    0.14
  -6   7  -5    0.05    0.13
   6  -7   5    0.14    0.15
  -7  -6   5    3.82    0.28
  -6  -6   5    2.22    0.20
  -5  -6   5   48.10    1.28
   4   6  -5    8.53    0.29
  -4  -6   5    8.55    0.31
   3   6  -5   30.15    0.76
  -3  -6   5   30.35    0.82
   2   6  -5  115.56    2.73
  -2  -6   5  114.96    2.86
  -2  -6   5  112.96    2.69
   1   6  -5    2.98    0.15
  -1  -6   5    2.18    0.17
  -1  -6   5    2.52    0.15
   0   6  -5  219.97    5.31
   0  -6   5  229.63    5.27
   0  -6   5  226.69    5.54
  -1   6  -5   45.04    1.11
   1  -6   5   45.84    1.12
  -2   6  -5   28.11    0.70
   2  -6   5   27.06    0.71
  -3   6  -5   37.33    0.94
   3  -6   5   38.34    0.96
  -4   6  -5    5.62    0.21
   4  -6   5    5.45    0.23
  -5   6  -5   12.65    0.37
   5  -6   5   12.73    0.41
  -6   6  -5    7.61    0.28
   6  -6   5    7.68    0.32
  -7   6  -5   14.53    0.44
   7  -6   5   14.24    0.48
   7   5  -5    0.00    0.15
   6   5  -5    0.06    0.12
   5   5  -5    0.04    0.12
   4   5  -5    0.47    0.09
   4   5  -5    0.24    0.11
   3   5  -5    7.87    0.24
   3   5  -5    7.62    0.28
  -3  -5   5    7.74    0.22
   2   5  -5   51.23    1.28
   2   5  -5   49.14    1.21
  -2  -5   5   48.91    1.19
   1   5  -5    2.37    0.13
  -1  -5   5    2.99    0.14
   0   5  -5   18.99    0.49
   0  -5   5   19.02    0.49
   0  -5   5   18.29    0.50
  -1   5  -5  212.59    4.96
   1  -5   5  194.72    5.17
   1  -5   5  224.71    4.93
  -2   5  -5   11.72    0.33
   2  -5   5   12.60    0.36
  -3   5  -5   76.19    1.85
   3  -5   5   78.22    1.86
  -4   5  -5   22.36    0.57
   4  -5   5   21.57    0.59
  -5   5  -5    7.53    0.25
   5  -5   5    7.43    0.29
  -6   5  -5    1.44    0.15
   6  -5   5    1.49    0.16
  -7   5  -5    2.89    0.20
   7  -5   5    2.88    0.22
  -8   5  -5    2.65    0.20
   8  -5   5    2.52    0.25
   8   4  -5    2.22    0.26
   7   4  -5    0.29    0.15
   6   4  -5   18.68    0.57
   5   4  -5   63.06    1.63
   4   4  -5    2.67    0.14
   4   4  -5    2.53    0.17
  -4  -4   5    2.61    0.11
   3   4  -5   13.48    0.35
   3   4  -5   12.54    0.38
  -3  -4   5   12.85    0.33
  -2  -4   5    0.70    0.07
   1   4  -5    1.28    0.10
   1   4  -5    1.35    0.09
  -1  -4   5    1.36    0.09
   0   4  -5   11.37    0.33
   0   4  -5   11.55    0.31
   0  -4   5   12.57    0.32
  -1   4  -5   23.89    0.60
   1  -4   5   23.90    0.62
   1  -4   5   24.62    0.61
  -2   4  -5    2.18    0.11
   2  -4   5    2.05    0.12
  -3   4  -5   11.10    0.31
   3  -4   5   11.09    0.32
  -4   4  -5    0.17    0.06
   4  -4   5    0.07    0.08
  -5   4  -5    6.24    0.22
   5  -4   5    6.18    0.24
  -6   4  -5   24.31    0.64
   6  -4   5   24.72    0.67
  -7   4  -5   11.11    0.35
   7  -4   5   11.11    0.39
  -8   4  -5    0.08    0.12
   8  -4   5   -0.06    0.15
   8   3  -5    0.36    0.17
   7   3  -5    0.81    0.14
   6   3  -5    0.13    0.12
   5   3  -5    7.95    0.29
  -5  -3   5    7.74    0.23
   4   3  -5   11.79    0.36
   4   3  -5   11.51    0.32
  -4  -3   5   11.22    0.30
   3   3  -5    0.91    0.12
   3   3  -5    0.82    0.08
  -3  -3   5    0.78    0.07
   2   3  -5    5.02    0.18
   2   3  -5    4.68    0.15
  -2  -3   5    4.94    0.14
   1   3  -5    5.09    0.16
   1   3  -5    5.48    0.18
  -1  -3   5    5.13    0.15
   0   3  -5   30.39    0.77
   0   3  -5   29.26    0.73
   0  -3   5   31.00    0.73
  -1   3  -5   97.95    2.38
  -1   3  -5  102.86    2.50
   1  -3   5  101.51    2.37
  -2   3  -5   70.89    1.71
   2  -3   5   73.18    1.71
  -3   3  -5    0.15    0.05
   3  -3   5    0.15    0.06
  -4   3  -5   52.40    1.29
   4  -3   5   53.85    1.29
  -5   3  -5    0.32    0.08
   5  -3   5    0.28    0.09
  -6   3  -5   14.28    0.40
   6  -3   5   13.63    0.42
  -7   3  -5   12.80    0.39
   7  -3   5   12.97    0.42
  -8   3  -5    1.01    0.18
   8  -3   5    0.84    0.15
  -9   3  -5    2.41    0.23
   9  -3   5    2.58    0.26
   9   2  -5    1.60    0.28
   8   2  -5    0.16    0.16
   7   2  -5    6.18    0.29
  -7  -2   5    6.04    0.21
   6   2  -5   14.40    0.45
  -6  -2   5   13.96    0.38
   5   2  -5  100.28    2.53
  -5  -2   5  101.47    2.37
   4   2  -5   27.89    0.75
   4   2  -5   28.26    0.69
  -4  -2   5   27.50    0.68
   3   2  -5   16.60    0.47
   3   2  -5   17.16    0.42
  -3  -2   5   16.71    0.42
   2   2  -5    0.94    0.06
   2   2  -5    0.89    0.09
   1   2  -5    5.07    0.16
   1   2  -5    4.56    0.14
  -1  -2   5    5.82    0.14
   0   2  -5   55.07    1.32
   0   2  -5   56.97    1.39
   0  -2   5   54.66    1.31
  -1   2  -5  386.03    9.95
  -1   2  -5  393.96    9.44
   1  -2   5  416.53    9.40
  -2   2  -5   25.04    0.62
   2  -2   5   25.58    0.62
  -3   2  -5  365.80    8.66
   3  -2   5  363.82    8.58
  -4   2  -5   20.09    0.51
   4  -2   5   19.11    0.51
  -5   2  -5   58.18    1.42
   5  -2   5   59.21    1.43
  -6   2  -5  181.64    4.33
   6  -2   5  184.81    4.31
  -7   2  -5   -0.02    0.10
   7  -2   5    0.05    0.11
  -8   2  -5   12.30    0.40
   8  -2   5   12.84    0.41
  -9   2  -5    1.32    0.21
   9  -2   5    1.37    0.22
   9   1  -5    0.22    0.19
   8   1  -5    0.47    0.17
  -8  -1   5    0.40    0.10
   7   1  -5    0.75    0.14
  -7  -1   5    0.83    0.12
   6   1  -5    0.05    0.10
  -6  -1   5    0.01    0.06
   5   1  -5    1.41    0.15
  -5  -1   5    1.06    0.11
   4   1  -5    0.77    0.09
  -4  -1   5    0.66    0.08
   3   1  -5    0.26    0.06
   2   1  -5   46.67    1.12
   2   1  -5   43.60    1.07
  -2  -1   5   43.28    1.05
   1   1  -5    6.37    0.18
   1   1  -5    6.22    0.16
   0   1  -5  169.82    4.27
   0   1  -5  172.75    4.10
  -1   1  -5  336.39    8.52
  -1   1  -5  343.56    8.12
   1  -1   5  345.82    8.06
  -2   1  -5   22.24    0.56
  -2   1  -5   21.94    0.54
   2  -1   5   21.73    0.54
  -3   1  -5   74.09    1.84
  -3   1  -5   74.32    1.76
   3  -1   5   73.53    1.75
  -4   1  -5   48.26    1.18
  -4   1  -5   47.90    1.21
   4  -1   5   49.23    1.17
  -5   1  -5    0.33    0.07
   5  -1   5    0.17    0.07
  -6   1  -5   15.34    0.43
   6  -1   5   15.51    0.44
  -7   1  -5   15.79    0.45
   7  -1   5   15.52    0.45
  -8   1  -5    5.87    0.24
   8  -1   5    5.71    0.27
  -9   1  -5    2.11    0.19
  -9   0   5    8.79    0.32
   8   0  -5    1.93    0.24
  -8   0   5    2.27    0.12
  -8   0   5    2.33    0.17
   7   0  -5   33.87    0.95
  -7   0   5   35.07    0.57
  -7   0   5   35.14    0.87
   6   0  -5    8.90    0.31
  -6   0   5    8.39    0.17
  -6   0   5    8.33    0.26
  -5   0   5    0.58    0.09
  -5   0   5    0.68    0.06
   4   0  -5   33.72    0.89
  -4   0   5   34.84    0.84
  -4   0   5   34.93    0.55
  -4   0   5   34.00    0.83
   3   0  -5   18.74    0.49
  -3   0   5   17.97    0.45
  -3   0   5   17.88    0.46
  -3   0   5   18.29    0.30
   2   0  -5   18.35    0.49
  -2   0   5   18.39    0.45
  -1   0  -5   53.29    1.44
   1   0   5   53.93    1.38
   1   0   5   66.67    1.37
  -2   0  -5  246.09    6.05
   2   0   5  240.56    5.74
   2   0   5  244.45    5.78
  -3   0  -5   43.89    1.10
   3   0   5   43.93    1.07
   3   0   5   44.58    1.06
  -4   0  -5  162.94    4.11
   4   0   5  168.43    3.95
   4   0   5  169.75    3.91
  -5   0  -5   52.02    1.31
   5   0   5   50.20    1.25
   5   0   5   53.59    1.27
   6   0   5   11.02    0.32
   6   0   5   10.12    0.32
   7   0   5    4.26    0.20
  -8   0  -5    3.07    0.19
  -9   0  -5    0.04    0.15
  -9   1   5    0.17    0.08
  -9   1   5    0.10    0.12
  -8   1   5    0.21    0.07
  -8   1   5    0.21    0.10
   7  -1  -5    5.05    0.26
  -7   1   5    5.14    0.22
  -7   1   5    4.95    0.14
   6  -1  -5    0.33    0.10
  -6   1   5    0.29    0.07
  -6   1   5    0.36    0.05
   5  -1  -5    0.78    0.13
  -5   1   5    0.71    0.06
  -5   1   5    0.80    0.09
   4  -1  -5  115.24    2.86
  -4   1   5  118.47    1.78
  -4   1   5  118.22    2.71
  -4   1   5  108.35    2.71
   3  -1  -5   32.04    0.80
  -3   1   5   30.95    0.75
  -3   1   5   29.92    0.74
  -3   1   5   31.01    0.49
   2  -1  -5  266.06    6.40
  -2   1   5  261.13    3.98
  -2   1   5  244.45    6.17
  -2   1   5  256.11    6.07
   1  -1  -5   33.87    0.82
  -1   1   5   31.63    0.77
  -1   1   5   31.30    0.79
   0  -1  -5   48.79    1.22
   0   1   5   49.79    1.18
   0   1   5   48.27    1.16
  -1  -1  -5   29.55    0.72
   1   1   5   27.87    0.67
   1   1   5   27.57    0.68
  -2  -1  -5   81.23    2.01
   2   1   5   82.69    1.93
   2   1   5   79.70    1.91
  -3  -1  -5   37.81    0.96
   3   1   5   38.29    0.93
   3   1   5   37.99    0.91
  -4  -1  -5   91.06    2.24
   4   1   5   90.63    2.12
   4   1   5   88.70    2.15
  -5  -1  -5    0.57    0.09
   5   1   5    0.58    0.10
  -6  -1  -5    1.80    0.13
   6   1   5    1.82    0.13
   7   1   5   12.62    0.39
   8   1   5    3.43    0.21
  -9  -1  -5    1.23    0.19
  -8   2   5    0.43    0.13
  -8   2   5    0.54    0.09
  -7   2   5    1.65    0.14
  -7   2   5    1.64    0.09
   6  -2  -5    1.22    0.17
  -6   2   5    1.02    0.13
  -6   2   5    0.98    0.09
   5  -2  -5    0.75    0.09
   4  -2  -5    0.71    0.09
  -4   2   5    0.70    0.07
   3  -2  -5    1.34    0.10
   3  -2  -5    1.19    0.10
  -3   2   5    1.64    0.07
   2  -2  -5   86.19    2.09
  -2   2   5   82.28    2.00
   1  -2  -5  308.63    7.83
  -1   2   5  316.68    7.46
  -1   2   5  316.53    4.90
  -1   2   5  324.47    7.52
   0  -2  -5  144.91    3.67
   0   2   5  149.91    3.49
   0   2   5  147.76    3.50
  -1  -2  -5   56.42    1.41
   1   2   5   56.23    1.34
   1   2   5   57.46    1.35
  -2  -2  -5   75.50    1.88
   2   2   5   76.71    1.81
   2   2   5   75.33    1.81
  -3  -2  -5   22.77    0.60
   3   2   5   22.54    0.55
   3   2   5   23.21    0.58
  -4  -2  -5   51.29    1.29
   4   2   5   50.09    1.24
   4   2   5   51.52    1.21
  -5  -2  -5    0.44    0.08
   5   2   5    0.31    0.09
   5   2   5    0.31    0.06
  -6  -2  -5    9.64    0.31
   6   2   5    9.77    0.32
  -7  -2  -5    1.54    0.17
   7   2   5    1.40    0.17
   8   2   5    2.87    0.21
   9   2   5    1.40    0.22
  -8   3   5    8.76    0.21
  -8   3   5    8.59    0.32
  -7   3   5   15.98    0.31
  -7   3   5   16.13    0.48
   6  -3  -5    0.18    0.11
   6  -3  -5    0.10    0.09
   5  -3  -5   10.70    0.32
   5  -3  -5   10.52    0.34
   4  -3  -5   22.50    0.58
   4  -3  -5   22.64    0.60
  -4   3   5   22.08    0.55
   3  -3  -5    7.16    0.23
   3  -3  -5    6.77    0.21
  -3   3   5    7.10    0.20
   2  -3  -5   33.53    0.80
   2  -3  -5   32.15    0.84
  -2   3   5   33.20    0.80
   1  -3  -5   43.62    1.05
   1  -3  -5   44.73    1.11
  -1   3   5   43.99    1.05
   0  -3  -5   45.80    1.15
   0   3   5   45.21    1.08
   0   3   5   46.33    1.09
   0   3   5   45.37    0.71
  -1  -3  -5  177.38    4.35
   1   3   5  174.34    4.19
   1   3   5  179.19    4.20
  -2  -3  -5  182.95    4.44
   2   3   5  177.86    4.28
  -3  -3  -5   69.76    1.74
   3   3   5   69.49    1.67
  -4  -3  -5    2.29    0.14
   4   3   5    2.16    0.12
  -5  -3  -5   33.21    0.88
   5   3   5   33.52    0.85
  -6  -3  -5   10.47    0.36
   6   3   5   11.92    0.35
  -7  -3  -5    9.21    0.33
   7   3   5    9.26    0.33
  -8  -3  -5    6.32    0.28
   8   3   5    6.24    0.29
   9   3   5   -0.03    0.17
   7  -4  -5    0.16    0.12
   6  -4  -5   20.17    0.55
   5  -4  -5   30.37    0.78
   5  -4  -5   30.87    0.82
   4  -4  -5   14.21    0.40
   4  -4  -5   14.21    0.39
  -4   4   5   13.90    0.37
   3  -4  -5   79.37    1.81
   3  -4  -5   73.66    1.89
  -3   4   5   74.97    1.81
   2  -4  -5    3.22    0.14
   2  -4  -5    3.09    0.14
  -2   4   5    3.34    0.12
   1  -4  -5  275.66    6.86
   1  -4  -5  284.73    6.58
  -1   4   5  279.60    6.60
   0  -4  -5   13.82    0.35
   0  -4  -5   13.97    0.38
   0   4   5   13.84    0.36
  -1  -4  -5  142.98    3.56
   1   4   5  142.68    3.41
   1   4   5  145.29    3.40
   1   4   5  146.78    2.24
  -2  -4  -5   10.29    0.31
   2   4   5   10.09    0.28
  -3  -4  -5  176.27    4.30
   3   4   5  172.40    4.12
  -4  -4  -5    9.79    0.31
   4   4   5   10.01    0.31
  -5  -4  -5   29.49    0.79
   5   4   5   29.16    0.76
  -6  -4  -5   34.49    0.92
   6   4   5   33.85    0.88
  -7  -4  -5    0.15    0.13
   7   4   5    0.20    0.13
  -8  -4  -5   16.02    0.52
   8   4   5   15.92    0.51
  -9  -4  -5    2.66    0.28
   9   4   5    2.70    0.28
   7  -5  -5    6.53    0.27
   6  -5  -5    3.73    0.19
   5  -5  -5    4.16    0.19
   4  -5  -5   48.46    1.17
   4  -5  -5   45.95    1.21
  -4   5   5   48.32    1.16
   3  -5  -5   12.00    0.36
   3  -5  -5   14.73    0.38
  -3   5   5   12.21    0.35
   2  -5  -5    7.11    0.23
   2  -5  -5    7.30    0.24
  -2   5   5    7.44    0.22
   1  -5  -5    0.40    0.06
   1  -5  -5    0.43    0.06
  -1   5   5    0.40    0.06
   0  -5  -5   15.92    0.40
   0  -5  -5   16.10    0.44
   0   5   5   15.59    0.41
  -1  -5  -5   19.58    0.54
   1   5   5   19.62    0.48
   1   5   5   20.25    0.51
   1   5   5   19.66    0.32
  -2  -5  -5   17.09    0.49
   2   5   5   18.15    0.46
  -3  -5  -5   27.42    0.73
   3   5   5   26.35    0.68
  -4  -5  -5   49.69    1.29
   4   5   5   50.06    1.23
  -5  -5  -5    5.92    0.24
   5   5   5    5.61    0.23
  -6  -5  -5    0.74    0.12
   6   5   5    0.74    0.13
  -7  -5  -5    0.62    0.15
   7   5   5    0.69    0.15
  -8  -5  -5   -0.03    0.16
   8   5   5    0.16    0.17
   6  -6  -5    5.26    0.25
   5  -6  -5    0.06    0.11
   4  -6  -5   12.63    0.38
  -4   6   5   12.37    0.36
   3  -6  -5    3.73    0.18
   3  -6  -5    3.73    0.18
  -3   6   5    3.74    0.16
   2  -6  -5    7.51    0.25
   2  -6  -5    7.30    0.25
  -2   6   5    7.40    0.24
   1  -6  -5   19.11    0.52
   1  -6  -5   19.94    0.50
  -1   6   5   18.84    0.50
   0  -6  -5    7.52    0.25
   0   6   5    7.62    0.24
  -1  -6  -5   48.06    1.23
   1   6   5   48.34    1.17
  -2  -6  -5   67.83    1.73
   2   6   5   69.40    1.66
  -3  -6  -5  150.92    3.69
   3   6   5  146.01    3.52
  -4  -6  -5  103.70    2.60
   4   6   5  102.92    2.48
  -5  -6  -5   47.42    1.28
   5   6   5   50.40    1.23
  -6  -6  -5    0.80    0.13
   6   6   5    0.89    0.15
  -7  -6  -5    6.95    0.32
   7   6   5    7.12    0.31
   8   6   5    0.02    0.18
   6  -7  -5   -0.01    0.12
   5  -7  -5    2.40    0.20
   4  -7  -5    1.00    0.16
   3  -7  -5    0.82    0.14
  -3   7   5    0.71    0.10
   2  -7  -5    9.65    0.30
   2  -7  -5    9.71    0.31
  -2   7   5    9.90    0.30
   1  -7  -5    1.46    0.13
  -1   7   5    1.19    0.12
  -1  -7  -5    1.61    0.15
   1   7   5    1.38    0.12
  -2  -7  -5    1.15    0.14
   2   7   5    1.52    0.13
  -3  -7  -5    5.16    0.23
   3   7   5    5.35    0.21
  -4  -7  -5    0.05    0.11
   4   7   5    0.13    0.10
  -5  -7  -5   11.38    0.39
   5   7   5   11.14    0.37
  -6  -7  -5    1.90    0.22
   6   7   5    1.86    0.18
  -7  -7  -5    4.94    0.28
   7   7   5    5.17    0.28
   5  -8  -5    0.81    0.15
   4  -8  -5    2.50    0.20
   3  -8  -5    1.07    0.16
  -3   8   5    1.16    0.14
  -2   8   5    0.15    0.10
   1  -8  -5    1.87    0.17
  -1   8   5    1.87    0.15
   0  -8  -5    1.47    0.15
   0   8   5    1.48    0.13
  -1  -8  -5    0.46    0.11
   1   8   5    0.44    0.09
  -2  -8  -5   17.68    0.53
   2   8   5   17.41    0.49
  -3  -8  -5   14.95    0.48
   3   8   5   15.48    0.44
  -4  -8  -5   28.33    0.81
   4   8   5   29.04    0.77
  -5  -8  -5   11.45    0.41
   5   8   5   10.61    0.37
  -6  -8  -5    1.81    0.23
   6   8   5    1.52    0.22
  -3   9   5    0.79    0.13
  -2   9   5    2.90    0.18
  -1   9   5   10.36    0.33
   0  -9  -5    0.17    0.12
   0   9   5    0.31    0.10
  -1  -9  -5   23.30    0.66
   1   9   5   23.37    0.63
  -2  -9  -5    1.16    0.20
   2   9   5    1.00    0.14
  -3  -9  -5   15.55    0.51
   3   9   5   16.09    0.48
  -4  -9  -5    0.22    0.16
   4   9   5    0.33    0.15
  -5  -9  -5    1.62    0.21
   5   9   5    1.62    0.21
  -3  10   5    5.17    0.25
  -2  10   5    3.43    0.21
  -1  10   5   25.87    0.70
   0  10   5    0.70    0.15
   1  10   5   20.24    0.57
  -2 -10  -5   15.06    0.50
   2  10   5   13.70    0.44
  -3 -10  -5    1.16    0.21
   3  10   5    1.30    0.18
   3  10  -6    6.19    0.29
   2  10  -6    0.24    0.15
   1  10  -6   10.20    0.37
   0  10  -6    2.59    0.21
  -1  10  -6    5.81    0.26
  -4  -9   6    9.14    0.39
   3   9  -6    0.18    0.14
   2   9  -6    9.06    0.32
   1   9  -6    0.42    0.13
   0   9  -6   26.31    0.71
  -1   9  -6    8.79    0.31
  -2   9  -6   20.33    0.56
   2  -9   6   18.47    0.57
  -3   9  -6    6.55    0.27
   3  -9   6    6.88    0.32
  -4   9  -6    2.68    0.21
   4  -9   6    2.86    0.27
  -5  -8   6    1.00    0.20
  -4  -8   6   10.60    0.41
   3   8  -6    1.46    0.16
  -3  -8   6    1.51    0.20
   2   8  -6    4.98    0.22
  -2  -8   6    5.04    0.26
   1   8  -6   14.64    0.43
   0   8  -6    0.02    0.09
  -1   8  -6   22.45    0.60
   1  -8   6   21.80    0.61
  -2   8  -6   -0.03    0.09
   2  -8   6   -0.12    0.11
  -3   8  -6    0.12    0.11
   3  -8   6    0.10    0.12
  -4   8  -6    0.10    0.10
   4  -8   6    0.17    0.14
  -5   8  -6    0.44    0.13
   5  -8   6    0.37    0.14
  -6  -7   6    0.06    0.17
  -5  -7   6    1.54    0.23
   4   7  -6    0.42    0.12
  -4  -7   6    0.45    0.14
   3   7  -6    4.56    0.20
  -3  -7   6    4.62    0.25
   2   7  -6    2.95    0.17
  -2  -7   6    3.10    0.20
   1   7  -6   20.93    0.55
  -1  -7   6   19.72    0.57
  -1  -7   6   20.30    0.54
   0   7  -6   21.21    0.56
   0  -7   6   21.32    0.57
  -1   7  -6    2.78    0.17
   1  -7   6    2.94    0.19
  -2   7  -6   35.74    0.90
   2  -7   6   36.05    0.92
  -3   7  -6   -0.04    0.08
   3  -7   6    0.03    0.11
  -4   7  -6    1.52    0.13
   4  -7   6    1.85    0.19
  -5   7  -6    0.04    0.11
   5  -7   6    0.08    0.13
  -6   7  -6   -0.05    0.12
   6  -7   6   -0.08    0.14
   5   6  -6   17.71    0.56
   4   6  -6   59.57    1.53
   4   6  -6   57.46    1.43
   3   6  -6    5.60    0.26
   3   6  -6    5.68    0.21
   2   6  -6   50.03    1.22
  -2  -6   6   51.26    1.21
  -2  -6   6   48.28    1.29
   1   6  -6  154.71    3.65
  -1  -6   6  154.40    3.62
  -1  -6   6  153.16    3.81
   0   6  -6    4.29    0.18
   0  -6   6    4.32    0.19
   0  -6   6    4.44    0.19
  -1   6  -6  331.71    7.95
   1  -6   6  345.38    7.89
  -2   6  -6   18.12    0.47
   2  -6   6   17.42    0.49
  -3   6  -6   58.64    1.44
   3  -6   6   60.31    1.46
  -4   6  -6    3.21    0.17
   4  -6   6    3.19    0.20
  -5   6  -6   20.99    0.56
   5  -6   6   20.79    0.60
  -6   6  -6    0.15    0.12
   6  -6   6    0.16    0.14
  -7   6  -6   16.15    0.48
   7  -6   6   15.54    0.51
   7   5  -6    0.60    0.15
   6   5  -6    4.05    0.24
   5   5  -6    0.69    0.14
   4   5  -6   29.98    0.76
   4   5  -6   30.13    0.82
   3   5  -6   30.27    0.75
   3   5  -6   28.98    0.80
  -3  -5   6   30.56    0.73
   2   5  -6    8.44    0.29
   2   5  -6    8.28    0.25
  -2  -5   6    8.50    0.25
   1   5  -6  247.73    5.81
   1   5  -6  244.54    6.07
  -1  -5   6  248.94    5.76
   0   5  -6   94.11    2.25
   0  -5   6   92.62    2.23
   0  -5   6   96.13    2.34
  -1   5  -6    9.35    0.28
   1  -5   6    9.90    0.30
  -2   5  -6   85.99    2.07
   2  -5   6   87.65    2.07
  -3   5  -6   28.21    0.71
   3  -5   6   27.76    0.72
  -4   5  -6   12.75    0.36
   4  -5   6   12.79    0.38
  -5   5  -6   48.06    1.18
   5  -5   6   47.75    1.20
  -6   5  -6    4.30    0.20
   6  -5   6    4.21    0.24
  -7   5  -6   19.40    0.54
   7  -5   6   19.25    0.57
  -8   5  -6    3.04    0.20
   7   4  -6    6.59    0.32
   6   4  -6    0.70    0.14
   5   4  -6   67.48    1.74
   4   4  -6    2.32    0.17
   4   4  -6    2.43    0.13
  -4  -4   6    2.29    0.11
   3   4  -6   25.84    0.62
   3   4  -6   24.32    0.67
  -3  -4   6   23.88    0.60
   2   4  -6    2.04    0.13
   2   4  -6    2.18    0.11
  -2  -4   6    2.10    0.10
   1   4  -6   10.58    0.31
   1   4  -6   10.79    0.29
  -1  -4   6   10.54    0.29
   0   4  -6    8.77    0.24
   0   4  -6    8.43    0.25
   0  -4   6    8.40    0.24
  -1   4  -6   11.35    0.32
   1  -4   6   12.14    0.33
  -2   4  -6   73.22    1.76
   2  -4   6   73.74    1.76
  -3   4  -6    1.86    0.11
   3  -4   6    1.94    0.14
  -4   4  -6   34.05    0.85
   4  -4   6   34.69    0.87
  -5   4  -6   15.44    0.42
   5  -4   6   15.43    0.45
  -6   4  -6    1.68    0.13
   6  -4   6    1.80    0.18
  -7   4  -6   13.44    0.41
   7  -4   6   14.51    0.45
  -8   4  -6    0.04    0.12
   8  -4   6    0.21    0.15
   8   3  -6    0.20    0.17
   7   3  -6    3.21    0.22
   6   3  -6    4.44    0.23
  -6  -3   6    4.52    0.17
   5   3  -6    1.06    0.16
  -5  -3   6    0.79    0.10
   4   3  -6   22.93    0.64
  -4  -3   6   23.49    0.57
   3   3  -6    0.97    0.09
   3   3  -6    0.74    0.10
  -3  -3   6    0.87    0.07
   2   3  -6   28.88    0.69
   2   3  -6   28.29    0.74
  -2  -3   6   27.77    0.68
   0   3  -6    7.14    0.21
   0   3  -6    7.02    0.20
   0  -3   6    7.09    0.20
  -1   3  -6  760.32   18.88
   1  -3   6  842.16   18.77
  -2   3  -6   11.99    0.32
   2  -3   6   11.44    0.32
  -3   3  -6   51.81    1.26
   3  -3   6   52.48    1.26
  -4   3  -6   14.99    0.41
   4  -3   6   14.97    0.42
  -5   3  -6   23.25    0.60
   5  -3   6   23.46    0.62
  -6   3  -6    0.60    0.10
   6  -3   6    0.69    0.12
  -7   3  -6    6.13    0.25
   7  -3   6    6.32    0.28
  -8   3  -6    1.14    0.18
   8  -3   6    0.78    0.16
  -9   3  -6    0.11    0.15
   9  -3   6    0.21    0.17
   8   2  -6    1.85    0.25
   7   2  -6    0.31    0.14
  -7  -2   6    0.45    0.09
   6   2  -6    9.97    0.35
  -6  -2   6    9.80    0.29
   5   2  -6    0.16    0.10
  -5  -2   6    0.15    0.06
   4   2  -6   40.81    1.08
  -4  -2   6   42.04    0.99
   3   2  -6    1.15    0.10
   3   2  -6    1.26    0.08
  -3  -2   6    0.97    0.07
   2   2  -6   73.21    1.68
   2   2  -6   71.23    1.77
  -2  -2   6   68.02    1.66
   1   2  -6   71.82    1.79
   1   2  -6   73.07    1.71
  -1  -2   6   71.03    1.69
   0   2  -6  110.69    2.74
   0   2  -6  110.56    2.61
   0  -2   6  108.32    2.57
  -1   2  -6  227.34    5.62
  -1   2  -6  218.98    5.36
   1  -2   6  231.53    5.36
  -2   2  -6  577.04   15.06
  -2   2  -6  574.78   14.00
   2  -2   6  627.08   13.94
  -3   2  -6   15.41    0.40
   3  -2   6   15.31    0.41
  -4   2  -6  309.24    7.41
   4  -2   6  314.79    7.34
   5  -2   6   19.33    0.52
  -6   2  -6   10.90    0.33
   6  -2   6   11.05    0.35
  -7   2  -6    3.75    0.20
   7  -2   6    3.92    0.22
  -8   2  -6    2.59    0.20
   8  -2   6    2.58    0.22
  -9   2  -6    0.05    0.14
   9  -2   6    0.03    0.16
   9   1  -6    0.30    0.21
   8   1  -6    0.85    0.18
  -8  -1   6    0.82    0.11
   7   1  -6    3.99    0.24
  -7  -1   6    4.28    0.18
   6   1  -6    0.46    0.12
  -6  -1   6    0.32    0.07
   5   1  -6   41.54    1.09
  -5  -1   6   42.24    1.01
   4   1  -6  105.55    2.66
  -4  -1   6  108.11    2.51
   3   1  -6   13.90    0.38
   3   1  -6   13.38    0.34
  -3  -1   6   13.01    0.34
   2   1  -6  390.02    9.29
   2   1  -6  376.72    9.49
  -2  -1   6  386.38    8.99
   1   1  -6   17.55    0.47
   1   1  -6   20.82    0.50
   0   1  -6   15.11    0.35
   0   1  -6   13.48    0.37
   0  -1   6   13.24    0.35
  -1   1  -6    0.70    0.05
  -2   1  -6  119.99    2.95
  -2   1  -6  117.51    2.80
   2  -1   6  117.65    2.78
  -3   1  -6    0.22    0.04
   3  -1   6    0.17    0.05
  -4   1  -6  259.75    6.09
  -4   1  -6  258.12    6.36
   4  -1   6  256.88    6.02
  -5   1  -6   43.29    1.08
   5  -1   6   44.92    1.08
  -6   1  -6    1.45    0.13
   6  -1   6    1.35    0.14
  -7   1  -6    7.75    0.28
   7  -1   6    8.12    0.29
  -8   1  -6    3.46    0.20
   8  -1   6    3.15    0.22
  -9   1  -6    0.59    0.15
  -9   0   6    0.21    0.13
   8   0  -6    1.04    0.18
  -8   0   6    1.37    0.15
   7   0  -6    0.47    0.13
  -7   0   6    0.23    0.09
   6   0  -6    4.86    0.23
  -6   0   6    5.04    0.13
  -6   0   6    4.85    0.19
   5   0  -6    6.60    0.25
  -5   0   6    6.87    0.22
  -5   0   6    6.77    0.14
   4   0  -6  107.64    2.72
  -4   0   6  110.85    2.57
   1   0  -6   59.83    1.49
  -1   0   6   60.13    1.41
   0   0  -6  169.38    4.28
   0   0   6  173.49    4.05
   0   0   6  175.34    4.15
  -2   0  -6   12.35    0.32
   2   0   6   12.43    0.31
   2   0   6   11.74    0.32
  -3   0  -6   81.36    2.00
   3   0   6   80.61    1.91
   3   0   6   80.75    1.93
  -4   0  -6  147.55    3.65
   4   0   6  146.78    3.51
   4   0   6  150.94    3.48
  -5   0  -6    3.68    0.15
   5   0   6    4.03    0.17
   5   0   6    3.81    0.16
   6   0   6    8.78    0.28
   6   0   6    9.08    0.28
   7   0   6    7.48    0.27
  -8   0  -6    2.03    0.17
  -9   0  -6    2.66    0.21
  -8   1   6    4.21    0.22
  -8   1   6    4.13    0.15
   7  -1  -6    4.22    0.25
  -7   1   6    4.15    0.20
  -7   1   6    4.13    0.13
  -6   1   6    0.72    0.08
  -6   1   6    0.59    0.09
   5  -1  -6    0.10    0.08
  -5   1   6    0.29    0.06
  -5   1   6    0.35    0.04
   4  -1  -6    0.67    0.11
  -4   1   6    0.67    0.06
  -4   1   6    0.61    0.09
   2  -1  -6   12.80    0.35
  -2   1   6   13.00    0.22
  -2   1   6   12.51    0.33
  -1   1   6    0.14    0.03
   0  -1  -6   88.04    2.20
   0   1   6   89.30    2.10
   0   1   6   89.83    2.13
  -1  -1  -6    0.01    0.03
   1   1   6    0.01    0.03
   1   1   6    0.04    0.02
  -2  -1  -6  112.47    2.83
   2   1   6  115.98    2.71
   2   1   6  115.76    2.69
  -3  -1  -6   94.41    2.36
   3   1   6   95.11    2.24
   3   1   6   96.43    2.27
  -4  -1  -6   34.18    0.89
   4   1   6   36.41    0.87
   4   1   6   34.70    0.85
  -5  -1  -6    4.06    0.16
   5   1   6    3.85    0.16
   5   1   6    3.89    0.16
  -6  -1  -6    0.38    0.09
   6   1   6    0.30    0.08
   6   1   6    0.19    0.08
   7   1   6    0.09    0.11
   8   1   6    1.71    0.19
  -9  -1  -6    0.24    0.14
  -8   2   6    1.58    0.19
  -8   2   6    1.71    0.13
   7  -2  -6    2.08    0.21
  -7   2   6    2.11    0.11
  -7   2   6    2.24    0.17
   6  -2  -6   17.48    0.51
  -6   2   6   17.17    0.48
  -6   2   6   17.20    0.31
   5  -2  -6   85.71    2.14
  -5   2   6   85.67    1.33
  -5   2   6   84.67    2.03
   4  -2  -6    5.50    0.20
  -4   2   6    5.29    0.12
  -4   2   6    5.30    0.18
   3  -2  -6  294.68    7.30
  -3   2   6  305.52    4.58
  -3   2   6  301.17    6.99
  -3   2   6  287.97    7.02
   2  -2  -6  958.91   24.23
  -2   2   6  998.41   15.11
  -2   2   6 1000.00   23.02
   1  -2  -6  393.55    9.85
  -1   2   6  392.41    9.44
  -1   2   6  408.39    6.16
  -1   2   6  400.66    9.37
   0  -2  -6  347.13    8.40
   0   2   6  337.95    7.97
   0   2   6  334.58    8.06
   1   2   6    0.56    0.05
   1   2   6    0.62    0.04
  -2  -2  -6   32.71    0.85
   2   2   6   33.45    0.81
   2   2   6   33.40    0.79
  -3  -2  -6   29.12    0.73
   3   2   6   27.52    0.68
   3   2   6   28.06    0.70
  -4  -2  -6    1.15    0.11
   4   2   6    1.15    0.12
   4   2   6    1.08    0.08
  -5  -2  -6    2.80    0.14
   5   2   6    2.53    0.16
  -6  -2  -6    3.86    0.19
   6   2   6    3.92    0.20
  -7  -2  -6    3.89    0.20
   7   2   6    3.85    0.20
   8   2   6    0.63    0.15
   9   2   6    4.68    0.28
  -8   3   6    1.07    0.18
  -8   3   6    1.13    0.12
  -7   3   6    1.62    0.15
  -7   3   6    1.59    0.10
   6  -3  -6    7.73    0.29
  -6   3   6    7.99    0.18
  -6   3   6    7.93    0.27
   5  -3  -6    0.27    0.09
   4  -3  -6    7.98    0.26
   4  -3  -6    8.22    0.27
   3  -3  -6    2.64    0.12
   3  -3  -6    2.62    0.13
  -3   3   6    2.77    0.10
   2  -3  -6   57.07    1.44
  -2   3   6   57.93    1.37
   1  -3  -6   60.11    1.52
  -1   3   6   59.88    1.44
  -1   3   6   62.08    1.45
  -1   3   6   61.45    0.94
   0  -3  -6   70.56    1.79
   0   3   6   73.64    1.11
   0   3   6   73.22    1.69
   0   3   6   70.74    1.71
  -1  -3  -6  371.16    9.05
   1   3   6  363.93    8.69
   1   3   6  363.36    8.61
  -2  -3  -6   11.52    0.32
   2   3   6   10.79    0.28
  -3  -3  -6   54.74    1.36
   3   3   6   52.77    1.30
  -4  -3  -6    1.16    0.11
   4   3   6    0.91    0.12
  -5  -3  -6   13.08    0.40
   5   3   6   13.71    0.39
  -6  -3  -6   19.16    0.55
   6   3   6   19.50    0.54
  -7  -3  -6    0.06    0.11
   7   3   6    0.06    0.12
  -8  -3  -6    0.31    0.14
   8   3   6    0.09    0.15
   9   3   6   -0.12    0.17
  -7   4   6    0.84    0.08
  -7   4   6    0.77    0.13
   5  -4  -6   21.69    0.60
   5  -4  -6   21.89    0.58
   4  -4  -6    5.95    0.22
   4  -4  -6    5.76    0.22
   3  -4  -6   81.56    2.06
   3  -4  -6   82.79    1.96
  -3   4   6   83.81    1.96
   2  -4  -6   71.15    1.70
   2  -4  -6   71.42    1.79
  -2   4   6   72.63    1.71
   1  -4  -6   36.64    0.95
   1  -4  -6   36.68    0.90
  -1   4   6   38.35    0.90
   0  -4  -6   30.57    0.78
   0   4   6   30.50    0.48
   0   4   6   30.31    0.74
   0   4   6   30.57    0.73
  -1  -4  -6   21.38    0.57
   1   4   6   21.52    0.54
   1   4   6   21.53    0.52
  -2  -4  -6    8.97    0.28
   2   4   6    9.02    0.26
  -3  -4  -6   91.89    2.30
   3   4   6   92.38    2.20
  -4  -4  -6  114.46    2.85
   4   4   6  114.64    2.73
  -5  -4  -6    3.02    0.18
   5   4   6    2.96    0.17
  -6  -4  -6   33.47    0.90
   6   4   6   33.17    0.86
  -7  -4  -6    8.39    0.32
   7   4   6    8.38    0.32
  -8  -4  -6    4.28    0.26
   8   4   6    4.44    0.27
   9   4   6    9.11    0.40
   6  -5  -6    1.22    0.16
   5  -5  -6    0.71    0.11
   4  -5  -6    8.96    0.29
   4  -5  -6    9.31    0.31
   3  -5  -6    2.99    0.14
   3  -5  -6    2.76    0.15
  -3   5   6    3.03    0.14
   2  -5  -6    8.01    0.25
   2  -5  -6    8.44    0.26
  -2   5   6    7.85    0.24
   1  -5  -6   71.31    1.79
   1  -5  -6   72.73    1.70
  -1   5   6   71.04    1.71
   0  -5  -6   98.71    2.47
   0   5   6  100.09    2.36
  -1  -5  -6   13.48    0.38
   1   5   6   13.29    0.36
  -2  -5  -6   31.40    0.84
   2   5   6   32.32    0.80
  -3  -5  -6    8.31    0.28
   3   5   6    8.11    0.26
  -4  -5  -6    6.18    0.25
   4   5   6    5.46    0.22
  -5  -5  -6    3.48    0.20
   5   5   6    3.32    0.18
  -6  -5  -6    1.45    0.17
   6   5   6    1.25    0.14
  -7  -5  -6    2.93    0.22
   7   5   6    2.83    0.20
  -8  -5  -6    0.84    0.18
   8   5   6    0.84    0.19
   6  -6  -6   12.87    0.41
   5  -6  -6    9.69    0.33
   4  -6  -6   26.38    0.69
   3  -6  -6   48.53    1.26
   3  -6  -6   49.58    1.21
  -3   6   6   50.46    1.21
   2  -6  -6   36.21    0.89
   2  -6  -6   35.92    0.93
  -2   6   6   35.09    0.88
   1  -6  -6   54.44    1.31
   1  -6  -6   54.97    1.38
  -1   6   6   54.36    1.32
   0  -6  -6   44.43    1.15
   0   6   6   45.39    1.10
  -1  -6  -6   60.17    1.54
   1   6   6   61.77    1.47
  -2  -6  -6   43.54    1.14
   2   6   6   44.92    1.09
  -3  -6  -6  121.88    3.00
   3   6   6  118.49    2.87
  -4  -6  -6    3.53    0.21
   4   6   6    3.42    0.18
  -5  -6  -6   19.50    0.57
   5   6   6   18.85    0.54
  -6  -6  -6    0.08    0.13
   6   6   6    0.00    0.12
  -7  -6  -6    0.12    0.13
   7   6   6    0.14    0.15
   8   6   6   -0.06    0.17
   6  -7  -6    1.70    0.21
   5  -7  -6    0.07    0.12
   4  -7  -6    0.09    0.10
   3  -7  -6    1.27    0.15
  -3   7   6    1.36    0.14
   1  -7  -6   23.25    0.63
  -1   7   6   22.72    0.60
   0  -7  -6   33.56    0.88
   0   7   6   33.81    0.84
  -1  -7  -6    0.43    0.10
   1   7   6    0.41    0.09
  -2  -7  -6   29.04    0.78
   2   7   6   28.36    0.74
   3   7   6    2.52    0.15
  -4  -7  -6    2.58    0.18
   4   7   6    2.68    0.18
  -5  -7  -6    1.14    0.18
   5   7   6    1.15    0.15
  -6  -7  -6    1.86    0.21
   6   7   6    1.96    0.20
  -7  -7  -6    0.17    0.17
   5  -8  -6    0.07    0.13
   4  -8  -6    0.28    0.12
  -3   8   6    0.21    0.11
  -2   8   6   26.66    0.69
   1  -8  -6    2.08    0.17
  -1   8   6    2.07    0.15
   0  -8  -6   13.14    0.41
   0   8   6   13.59    0.39
  -1  -8  -6    2.87    0.19
   1   8   6    2.88    0.17
  -2  -8  -6   16.89    0.50
   2   8   6   15.91    0.46
  -3  -8  -6   30.47    0.84
   3   8   6   30.65    0.80
  -4  -8  -6    2.03    0.19
   4   8   6    2.25    0.19
  -5  -8  -6    9.25    0.36
   5   8   6    8.71    0.32
  -6  -8  -6    0.82    0.18
   6   8   6    0.74    0.17
  -3   9   6    8.33    0.30
  -2   9   6    8.85    0.31
  -1   9   6   12.10    0.37
   0  -9  -6    2.84    0.21
   0   9   6    2.60    0.18
  -1  -9  -6    4.44    0.23
   1   9   6    4.79    0.22
  -2  -9  -6    3.53    0.23
   2   9   6    3.58    0.19
  -3  -9  -6    6.41    0.31
   3   9   6    6.83    0.28
  -4  -9  -6    0.02    0.14
   4   9   6   -0.07    0.12
  -5  -9  -6    2.27    0.25
   5   9   6    1.89    0.22
  -2  10   6    8.98    0.33
  -1  10   6   11.82    0.39
   0  10   6   16.88    0.50
  -1 -10  -6    1.28    0.22
   1  10   6    1.39    0.18
  -2 -10  -6   14.74    0.49
   2  10   6   14.82    0.46
  -3 -10  -6    0.49    0.19
   3  10  -7    6.35    0.31
   2  10  -7    4.51    0.26
   1  10  -7    1.50    0.21
   0  10  -7    7.10    0.30
  -1  10  -7    0.38    0.13
  -4  -9   7    6.23    0.34
   3   9  -7    1.77    0.20
   2   9  -7   16.45    0.48
   1   9  -7    5.51    0.25
   0   9  -7   14.66    0.44
  -1   9  -7   16.75    0.49
  -2   9  -7    2.08    0.19
   2  -9   7    2.38    0.27
  -3   9  -7    2.03    0.19
   3  -9   7    2.31    0.25
   4  -9   7    0.22    0.15
  -5  -8   7    3.45    0.26
  -4  -8   7    4.40    0.28
   3   8  -7   10.42    0.34
  -3  -8   7   10.30    0.39
   2   8  -7    1.40    0.16
   1   8  -7    7.12    0.26
   0   8  -7    3.50    0.19
  -1   8  -7    1.88    0.17
   1  -8   7    2.35    0.19
  -2   8  -7   -0.07    0.10
   2  -8   7   -0.07    0.12
  -3   8  -7    1.65    0.16
   3  -8   7    1.56    0.21
  -4   8  -7    1.34    0.16
   4  -8   7    1.48    0.21
  -5   8  -7    0.56    0.14
   5  -8   7    0.61    0.17
  -6  -7   7    0.18    0.17
  -5  -7   7    0.49    0.17
  -4  -7   7    0.05    0.13
   3   7  -7    5.40    0.22
  -3  -7   7    5.19    0.26
   2   7  -7    5.77    0.22
  -2  -7   7    5.47    0.26
   1   7  -7    6.80    0.25
   0   7  -7   14.57    0.42
   0  -7   7   14.82    0.43
  -1   7  -7    9.71    0.30
   1  -7   7    9.72    0.33
  -2   7  -7    2.33    0.14
   2  -7   7    2.51    0.18
  -3   7  -7    0.20    0.09
   3  -7   7    0.09    0.09
  -4   7  -7    1.10    0.14
   4  -7   7    1.12    0.18
  -5   7  -7    1.44    0.14
   5  -7   7    1.28    0.18
  -6   7  -7    1.07    0.17
   6  -7   7    1.13    0.20
   6   6  -7   20.83    0.65
   5   6  -7   18.88    0.60
   4   6  -7   57.23    1.50
   3   6  -7   81.09    1.96
   3   6  -7   81.74    2.07
   2   6  -7    5.44    0.21
   2   6  -7    6.03    0.25
  -2  -6   7    5.44    0.20
   1   6  -7   64.85    1.56
  -1  -6   7   63.39    1.63
  -1  -6   7   65.07    1.55
   0   6  -7    5.52    0.21
   0  -6   7    6.06    0.22
  -1   6  -7   33.42    0.84
   1  -6   7   33.59    0.85
  -2   6  -7   17.32    0.46
   2  -6   7   17.14    0.48
  -3   6  -7   43.37    1.07
   3  -6   7   42.84    1.09
  -4   6  -7    8.19    0.27
   4  -6   7    7.53    0.29
  -5   6  -7   28.83    0.74
   5  -6   7   28.37    0.77
  -6   6  -7    4.30    0.21
   6  -6   7    4.27    0.24
  -7   6  -7    0.65    0.14
   7  -6   7    0.60    0.17
   7   5  -7    0.06    0.17
   6   5  -7    3.82    0.24
   5   5  -7   10.98    0.39
   4   5  -7   11.43    0.39
   3   5  -7   47.56    1.22
   3   5  -7   46.70    1.14
  -3  -5   7   46.16    1.12
   2   5  -7   28.25    0.71
   2   5  -7   28.29    0.76
  -2  -5   7   28.33    0.70
   1   5  -7   46.73    1.21
   1   5  -7   47.03    1.15
  -1  -5   7   48.03    1.15
   0   5  -7   79.97    1.98
   0   5  -7   79.38    1.90
   0  -5   7   79.38    1.90
  -1   5  -7    6.53    0.21
   1  -5   7    6.66    0.23
  -2   5  -7   99.74    2.43
   2  -5   7  104.70    2.43
  -3   5  -7   18.23    0.48
   3  -5   7   17.89    0.50
  -4   5  -7   37.09    0.93
   4  -5   7   37.04    0.94
  -5   5  -7   15.09    0.43
   5  -5   7   14.99    0.45
  -6   5  -7   12.08    0.37
   6  -5   7   12.43    0.41
  -7   5  -7    0.66    0.13
   7  -5   7    0.59    0.15
  -8   5  -7    1.27    0.19
   7   4  -7    5.22    0.28
   6   4  -7    3.16    0.23
   5   4  -7   10.05    0.35
  -5  -4   7   10.18    0.28
   4   4  -7   28.11    0.76
  -4  -4   7   27.06    0.68
   3   4  -7   18.88    0.54
   3   4  -7   19.33    0.49
  -3  -4   7   18.60    0.47
   2   4  -7    0.58    0.07
   2   4  -7    0.56    0.08
  -2  -4   7    0.82    0.08
   1   4  -7    0.56    0.07
   1   4  -7    0.49    0.09
   0   4  -7   28.82    0.73
   0   4  -7   27.58    0.70
   0  -4   7   28.51    0.70
  -1   4  -7   49.89    1.20
  -1   4  -7   49.41    1.25
   1  -4   7   50.32    1.21
  -2   4  -7   77.44    1.89
   2  -4   7   80.73    1.89
  -3   4  -7   70.54    1.65
   3  -4   7   66.96    1.65
  -4   4  -7   41.62    1.03
   4  -4   7   42.10    1.05
  -5   4  -7   41.23    1.01
   5  -4   7   39.99    1.02
  -6   4  -7   12.57    0.37
   6  -4   7   12.01    0.39
  -7   4  -7    6.00    0.23
   7  -4   7    6.21    0.27
  -8   4  -7    0.87    0.14
   8  -4   7    0.73    0.17
   8   3  -7    1.55    0.25
   7   3  -7    0.17    0.15
   6   3  -7    8.86    0.33
  -6  -3   7    9.23    0.27
   5   3  -7    3.64    0.20
  -5  -3   7    3.64    0.14
   4   3  -7    0.32    0.10
  -4  -3   7    0.38    0.06
   3   3  -7   25.05    0.62
   3   3  -7   24.73    0.67
  -3  -3   7   25.09    0.61
   2   3  -7   52.42    1.23
   2   3  -7   51.49    1.31
  -2  -3   7   50.52    1.22
   1   3  -7   23.99    0.57
   1   3  -7   22.84    0.61
  -1  -3   7   22.88    0.57
   0   3  -7  179.87    4.27
   0   3  -7  179.06    4.44
   0  -3   7  182.29    4.21
  -1   3  -7   64.15    1.56
  -1   3  -7   65.17    1.62
   1  -3   7   66.57    1.56
  -2   3  -7  116.08    2.77
   2  -3   7  118.38    2.76
  -3   3  -7   63.44    1.54
   3  -3   7   65.04    1.55
  -4   3  -7    3.58    0.16
   4  -3   7    3.26    0.17
  -5   3  -7   21.07    0.55
   5  -3   7   20.43    0.56
  -6   3  -7    8.90    0.29
   6  -3   7    8.60    0.30
  -7   3  -7    3.33    0.19
   7  -3   7    3.49    0.22
  -8   3  -7    1.16    0.18
   8  -3   7    1.08    0.19
  -9   3  -7    0.02    0.15
   9  -3   7    0.18    0.17
   8   2  -7    5.48    0.33
   7   2  -7    7.06    0.31
  -7  -2   7    6.91    0.24
   6   2  -7    3.48    0.22
  -6  -2   7    3.52    0.15
   5   2  -7    8.38    0.30
  -5  -2   7    8.03    0.24
   4   2  -7    7.06    0.26
  -4  -2   7    7.55    0.22
   3   2  -7   31.98    0.78
   3   2  -7   32.58    0.85
  -3  -2   7   32.68    0.78
   2   2  -7    3.06    0.14
   2   2  -7    2.90    0.10
  -2  -2   7    3.28    0.11
   1   2  -7  237.80    5.93
   1   2  -7  240.03    5.70
  -1  -2   7  243.35    5.64
   0   2  -7  656.98   16.02
   0   2  -7  684.75   16.74
   0  -2   7  695.44   15.90
  -1   2  -7    7.90    0.21
  -1   2  -7    7.30    0.21
   1  -2   7    7.54    0.22
  -2   2  -7  480.03   11.61
  -2   2  -7  487.58   12.22
   2  -2   7  506.07   11.53
  -3   2  -7   11.98    0.33
   3  -2   7   12.09    0.34
   4  -2   7  223.26    5.22
  -5   2  -7    2.72    0.14
   5  -2   7    2.68    0.15
  -6   2  -7   13.13    0.37
   6  -2   7   11.97    0.38
  -7   2  -7    1.04    0.15
   7  -2   7    0.97    0.13
  -8   2  -7    3.52    0.22
   8  -2   7    3.27    0.23
  -9   2  -7    0.70    0.16
   9  -2   7    0.57    0.16
   8   1  -7    0.95    0.19
  -8  -1   7    1.16    0.15
   7   1  -7    1.27    0.20
  -7  -1   7    1.89    0.14
  -6  -1   7    2.72    0.14
   5   1  -7    0.12    0.09
  -5  -1   7    0.15    0.05
   4   1  -7  107.83    2.75
  -4  -1   7  112.72    2.59
   3   1  -7   44.83    1.08
   3   1  -7   43.79    1.14
  -3  -1   7   45.28    1.07
   2   1  -7   27.76    0.73
   2   1  -7   28.59    0.69
  -2  -1   7   28.00    0.68
   1   1  -7   96.55    2.40
   1   1  -7   95.36    2.32
  -1  -1   7   98.86    2.27
   0   1  -7  263.76    6.59
   0   1  -7  262.33    6.30
   0  -1   7  269.90    6.25
  -1   1  -7   64.57    1.64
  -1   1  -7   68.35    1.57
   1  -1   7   65.63    1.56
  -2   1  -7  114.66    2.77
  -2   1  -7  110.30    2.66
   2  -1   7  111.92    2.64
  -3   1  -7   63.33    1.55
  -3   1  -7   65.41    1.60
   3  -1   7   64.88    1.54
  -4   1  -7   30.22    0.75
  -4   1  -7   29.57    0.76
   4  -1   7   30.34    0.75
  -5   1  -7   20.02    0.53
   5  -1   7   20.24    0.53
  -6   1  -7    1.58    0.14
   6  -1   7    1.45    0.15
  -7   1  -7    5.88    0.24
   7  -1   7    5.91    0.25
  -8   1  -7   -0.07    0.11
   8  -1   7    0.10    0.12
  -9   1  -7    0.25    0.15
   8   0  -7    6.11    0.32
  -8   0   7    6.26    0.25
   7   0  -7    0.93    0.16
  -7   0   7    1.00    0.13
   6   0  -7   18.76    0.55
  -6   0   7   18.29    0.49
   5   0  -7    2.18    0.16
  -5   0   7    2.25    0.12
   4   0  -7   33.34    0.91
  -4   0   7   36.36    0.85
   3   0  -7   18.08    0.49
  -3   0   7   17.17    0.45
   2   0  -7  237.19    5.78
  -2   0   7  233.31    5.47
   1   0  -7   50.75    1.28
  -1   0   7   51.06    1.21
   0   0  -7   19.34    0.50
   0   0   7   18.99    0.47
   0   0   7   19.43    0.48
  -1   0  -7    0.21    0.03
   1   0   7    0.21    0.04
  -2   0  -7   28.88    0.73
   2   0   7   29.00    0.70
   2   0   7   29.26    0.71
  -3   0  -7    4.58    0.15
   3   0   7    4.59    0.16
   3   0   7    4.91    0.16
  -4   0  -7   22.45    0.58
   4   0   7   22.64    0.57
   4   0   7   22.61    0.58
  -5   0  -7    5.25    0.18
   5   0   7    5.39    0.20
   5   0   7    5.33    0.20
   6   0   7   43.90    1.09
   6   0   7   44.45    1.10
   7   0   7    0.89    0.15
  -8   0  -7   11.78    0.38
  -9   0  -7    1.37    0.19
   8  -1  -7    9.61    0.40
  -8   1   7   10.35    0.34
   7  -1  -7    0.67    0.15
  -7   1   7    0.90    0.12
  -7   1   7    0.80    0.08
   6  -1  -7   12.31    0.40
  -6   1   7   12.04    0.23
  -6   1   7   12.15    0.35
   5  -1  -7   17.35    0.51
  -5   1   7   18.04    0.47
  -5   1   7   17.84    0.31
   4  -1  -7    9.86    0.31
  -4   1   7    9.18    0.27
  -4   1   7    9.39    0.18
   3  -1  -7    4.83    0.18
  -3   1   7    4.48    0.16
  -3   1   7    4.73    0.11
   2  -1  -7   17.27    0.46
  -2   1   7   17.25    0.43
   1  -1  -7  483.50   12.04
  -1   1   7  490.74   11.41
  -1   1   7  489.27   11.78
   0  -1  -7  219.15    5.42
   0   1   7  221.36    5.19
   0   1   7  213.17    5.13
  -1  -1  -7   24.83    0.64
   1   1   7   25.44    0.62
   1   1   7   25.33    0.60
  -2  -1  -7  680.64   16.29
   2   1   7  645.11   15.62
   2   1   7  657.05   15.48
  -3  -1  -7   32.17    0.83
   3   1   7   32.48    0.79
   3   1   7   32.92    0.80
  -4  -1  -7   33.82    0.87
   4   1   7   34.53    0.83
   4   1   7   34.44    0.85
  -5  -1  -7    1.97    0.11
   5   1   7    1.84    0.13
   5   1   7    2.12    0.14
  -6  -1  -7    4.59    0.18
   6   1   7    4.57    0.19
   6   1   7    4.66    0.20
   7   1   7    0.00    0.09
   8   1   7    3.75    0.22
  -9  -1  -7    1.37    0.19
  -8   2   7    1.57    0.16
  -8   2   7    1.57    0.11
   7  -2  -7   11.44    0.41
  -7   2   7   10.95    0.23
  -7   2   7   10.97    0.35
   6  -2  -7   30.49    0.82
  -6   2   7   29.31    0.76
  -6   2   7   29.01    0.50
   5  -2  -7   -0.02    0.08
  -5   2   7    0.07    0.05
  -5   2   7    0.04    0.07
   4  -2  -7   55.27    1.40
  -4   2   7   55.25    0.87
  -4   2   7   54.86    1.33
   3  -2  -7    9.87    0.30
  -3   2   7   10.48    0.19
  -3   2   7   10.52    0.29
   2  -2  -7  103.74    2.59
  -2   2   7  105.47    1.61
  -2   2   7  104.42    2.47
  -2   2   7  104.15    2.45
   1  -2  -7   12.67    0.35
  -1   2   7   12.91    0.32
  -1   2   7   12.76    0.33
   0  -2  -7   54.49    1.39
   0   2   7   55.63    1.32
   0   2   7   56.69    1.31
   1   2   7    0.07    0.02
   1   2   7    0.05    0.04
  -2  -2  -7   67.76    1.67
   2   2   7   68.10    1.58
   2   2   7   65.55    1.60
  -3  -2  -7    0.36    0.06
   3   2   7    0.27    0.06
   3   2   7    0.32    0.04
  -4  -2  -7   97.23    2.50
   4   2   7  105.74    2.41
   4   2   7   99.78    2.37
  -5  -2  -7   11.62    0.34
   5   2   7   11.01    0.34
  -6  -2  -7   20.36    0.57
   6   2   7   20.68    0.57
  -7  -2  -7    0.38    0.11
   7   2   7    0.37    0.12
   8   2   7    8.13    0.32
   9   2   7    0.02    0.17
  -7   3   7    3.82    0.14
  -7   3   7    4.05    0.21
   6  -3  -7    1.03    0.17
  -6   3   7    1.07    0.09
  -6   3   7    1.12    0.14
   5  -3  -7   35.06    0.93
  -5   3   7   34.85    0.57
  -5   3   7   34.77    0.87
   4  -3  -7   33.73    0.87
  -4   3   7   32.77    0.82
  -4   3   7   32.86    0.54
   3  -3  -7   13.79    0.39
  -3   3   7   14.01    0.37
  -3   3   7   13.63    0.35
  -3   3   7   13.94    0.24
   2  -3  -7   47.60    1.20
  -2   3   7   47.67    1.13
  -2   3   7   47.47    0.74
  -2   3   7   46.57    1.13
   1  -3  -7    0.16    0.05
  -1   3   7    0.08    0.04
  -1   3   7    0.16    0.04
  -1   3   7    0.11    0.03
   0  -3  -7   29.97    0.76
   0   3   7   29.40    0.72
   0   3   7   29.58    0.71
  -1  -3  -7   50.42    1.26
   1   3   7   50.12    1.21
   1   3   7   50.12    1.18
  -2  -3  -7   31.35    0.80
   2   3   7   30.17    0.73
   2   3   7   30.79    0.76
  -3  -3  -7   49.73    1.24
   3   3   7   47.58    1.18
  -4  -3  -7   42.57    1.09
   4   3   7   42.33    1.05
  -5  -3  -7    0.15    0.09
   5   3   7    0.02    0.09
  -6  -3  -7    2.82    0.17
   6   3   7    2.87    0.18
  -7  -3  -7    1.41    0.16
   7   3   7    1.25    0.17
  -8  -3  -7    1.46    0.19
   8   3   7    1.16    0.18
   9   3   7    0.84    0.20
  -7   4   7   30.97    0.82
  -7   4   7   30.85    0.54
  -6   4   7    1.07    0.10
  -6   4   7    1.05    0.15
   5  -4  -7   10.36    0.35
  -5   4   7   10.42    0.21
  -5   4   7   10.37    0.33
   4  -4  -7    3.76    0.18
   3  -4  -7   22.32    0.60
  -3   4   7   22.60    0.56
   2  -4  -7    0.59    0.09
  -2   4   7    0.44    0.04
  -2   4   7    0.44    0.06
   1  -4  -7  131.73    3.25
  -1   4   7  132.18    2.03
  -1   4   7  132.09    3.09
  -1   4   7  131.50    3.11
   0  -4  -7   18.91    0.52
   0   4   7   20.19    0.49
   0   4   7   19.50    0.48
   0   4   7   19.88    0.32
  -1  -4  -7   50.29    1.27
   1   4   7   50.15    1.18
   1   4   7   50.31    1.21
  -2  -4  -7  256.56    6.24
   2   4   7  251.85    5.98
  -4  -4  -7  389.63    9.62
   4   4   7  395.19    9.30
  -5  -4  -7   39.62    1.03
   5   4   7   38.68    0.99
  -6  -4  -7    1.05    0.15
  -7  -4  -7   14.05    0.45
   7   4   7   13.73    0.44
  -8  -4  -7    0.98    0.16
   8   4   7    0.71    0.17
  -7   5   7    0.32    0.14
  -7   5   7    0.38    0.09
  -6   5   7    6.71    0.18
  -6   5   7    6.75    0.28
   5  -5  -7    0.43    0.11
   4  -5  -7   27.63    0.70
   4  -5  -7   27.27    0.74
   3  -5  -7    1.92    0.13
   3  -5  -7    1.38    0.14
  -3   5   7    1.81    0.12
   2  -5  -7  127.76    3.20
   2  -5  -7  130.45    3.04
  -2   5   7  129.73    3.06
   1  -5  -7    1.88    0.13
  -1   5   7    1.81    0.12
  -1   5   7    2.26    0.12
  -1   5   7    1.91    0.08
   0  -5  -7   60.11    1.53
   0   5   7   61.68    0.94
   0   5   7   61.97    1.44
   0   5   7   59.31    1.46
  -1  -5  -7    6.48    0.23
   1   5   7    6.55    0.21
  -2  -5  -7    4.91    0.20
   2   5   7    4.86    0.18
  -3  -5  -7    0.47    0.09
   3   5   7    0.58    0.09
  -4  -5  -7   26.89    0.73
   4   5   7   27.21    0.71
  -5  -5  -7   59.00    1.51
   5   5   7   58.49    1.45
  -6  -5  -7    2.61    0.19
   6   5   7    2.64    0.19
  -7  -5  -7   10.88    0.39
   7   5   7   11.02    0.38
  -8  -5  -7    3.27    0.25
   8   5   7    3.62    0.26
   5  -6  -7    3.40    0.20
   4  -6  -7    3.48    0.19
   3  -6  -7    6.96    0.26
   3  -6  -7    7.00    0.25
  -3   6   7    6.95    0.23
   2  -6  -7   93.76    2.22
   2  -6  -7   96.45    2.35
  -2   6   7   91.44    2.24
   1  -6  -7   68.62    1.60
   1  -6  -7   68.05    1.70
  -1   6   7   65.21    1.62
   0  -6  -7   25.63    0.70
   0   6   7   26.75    0.66
  -1  -6  -7   88.79    2.25
   1   6   7   90.99    2.15
  -2  -6  -7    0.17    0.10
   2   6   7    0.11    0.08
  -3  -6  -7   16.29    0.48
   3   6   7   16.48    0.46
  -4  -6  -7   26.10    0.73
   4   6   7   26.14    0.69
  -5  -6  -7    0.87    0.14
   5   6   7    1.01    0.15
  -6  -6  -7    0.61    0.14
   6   6   7    0.56    0.14
  -7  -6  -7   -0.09    0.15
   7   6   7    0.01    0.15
   5  -7  -7    0.29    0.12
   4  -7  -7    1.20    0.14
   3  -7  -7    0.19    0.09
   2  -7  -7    5.98    0.24
   2  -7  -7    5.85    0.24
  -2   7   7    6.05    0.22
   1  -7  -7   18.74    0.53
  -1   7   7   18.81    0.50
   0  -7  -7   21.19    0.58
   0   7   7   21.11    0.55
  -1  -7  -7   27.37    0.74
   1   7   7   27.18    0.70
  -2  -7  -7    6.63    0.27
   2   7   7    6.74    0.23
   3   7   7    8.28    0.28
  -4  -7  -7   34.55    0.95
   4   7   7   36.00    0.91
  -5  -7  -7    0.52    0.13
   5   7   7    0.43    0.13
  -6  -7  -7    4.42    0.26
   6   7   7    4.27    0.23
  -7  -7  -7    0.48    0.15
   7   7   7    0.58    0.16
   5  -8  -7    0.26    0.14
   4  -8  -7    0.52    0.13
  -2   8   7   16.95    0.47
   1  -8  -7   15.38    0.46
  -1   8   7   15.54    0.43
   0  -8  -7   11.87    0.37
   0   8   7   11.38    0.35
  -1  -8  -7   26.49    0.74
   1   8   7   27.15    0.70
  -2  -8  -7    1.62    0.18
   2   8   7    1.68    0.15
  -3  -8  -7   17.90    0.55
   3   8   7   18.17    0.51
  -4  -8  -7    3.22    0.22
   4   8   7    3.23    0.20
  -5  -8  -7    9.10    0.37
   5   8   7    9.31    0.35
  -6  -8  -7    0.92    0.17
   6   8   7    1.01    0.18
  -2   9   7    0.15    0.12
  -1   9   7    5.12    0.21
   0  -9  -7    1.21    0.16
   0   9   7    1.08    0.14
  -1  -9  -7    2.64    0.19
   1   9   7    2.04    0.18
  -2  -9  -7    0.03    0.12
   2   9   7   -0.12    0.10
  -3  -9  -7    4.51    0.27
   3   9   7    4.78    0.23
  -4  -9  -7    5.35    0.28
   4   9   7    5.64    0.27
  -2  10   7   19.32    0.55
  -1  10   7    0.96    0.16
   0  10   7   12.80    0.41
  -1 -10  -7    0.16    0.14
   1  10   7    0.13    0.12
  -2 -10  -7    3.05    0.25
   2  10   7    3.14    0.21
  -3 -10  -7    0.75    0.18
   2  10  -8    4.44    0.26
   1  10  -8    0.18    0.16
   0  10  -8    1.96    0.21
  -4  -9   8    3.30    0.29
   2   9  -8    7.00    0.28
   1   9  -8   11.35    0.37
   0   9  -8    0.13    0.13
  -1   9  -8    0.90    0.15
  -2   9  -8    1.26    0.18
   2  -9   8    1.58    0.24
  -3   9  -8    0.28    0.14
   3  -9   8    0.60    0.16
   4  -9   8    0.99    0.19
  -5  -8   8    6.47    0.33
  -4  -8   8    1.13    0.18
  -3  -8   8    5.04    0.28
   2   8  -8    0.60    0.12
   1   8  -8    0.20    0.10
   0   8  -8    0.42    0.12
   0  -8   8    0.54    0.12
  -1   8  -8    0.05    0.11
   1  -8   8    0.29    0.12
  -2   8  -8   19.07    0.53
   2  -8   8   18.33    0.54
  -3   8  -8    0.05    0.11
   3  -8   8   -0.02    0.12
  -4   8  -8    9.64    0.33
   4  -8   8    9.87    0.38
  -5   8  -8    2.24    0.17
   5  -8   8    2.34    0.22
  -5  -7   8    1.99    0.23
  -4  -7   8    5.76    0.28
  -3  -7   8    0.44    0.13
   2   7  -8    5.16    0.21
  -2  -7   8    5.03    0.25
   1   7  -8    7.76    0.27
  -1  -7   8    8.35    0.28
   0   7  -8    0.32    0.09
   0  -7   8    0.32    0.10
  -1   7  -8    0.09    0.10
   1  -7   8    0.19    0.11
  -2   7  -8    2.20    0.15
   2  -7   8    1.96    0.18
  -3   7  -8    0.95    0.11
   3  -7   8    0.66    0.13
  -4   7  -8    2.61    0.16
   4  -7   8    2.30    0.19
  -5   7  -8    9.88    0.32
   5  -7   8    9.35    0.35
  -6   7  -8    0.14    0.13
   6  -7   8    0.16    0.15
   6   6  -8   10.81    0.43
   5   6  -8   51.92    1.38
   4   6  -8    5.73    0.29
   3   6  -8   79.15    1.90
   3   6  -8   79.02    2.02
   2   6  -8    4.90    0.20
   2   6  -8    5.44    0.24
  -2  -6   8    5.14    0.20
   1   6  -8   82.14    2.05
   1   6  -8   81.52    1.95
  -1  -6   8   80.28    1.94
   0   6  -8   13.79    0.39
   0  -6   8   13.77    0.40
  -1   6  -8  152.11    3.61
   1  -6   8  152.50    3.60
  -2   6  -8    2.32    0.15
   2  -6   8    2.63    0.18
  -3   6  -8   48.11    1.17
   3  -6   8   46.83    1.19
  -4   6  -8    5.52    0.22
   4  -6   8    5.61    0.24
  -5   6  -8    1.90    0.14
   5  -6   8    1.77    0.18
  -6   6  -8    1.33    0.16
   6  -6   8    1.47    0.18
  -7   6  -8    1.13    0.16
   7  -6   8    1.38    0.20
   7   5  -8    9.81    0.40
   6   5  -8    0.40    0.14
   5   5  -8   22.16    0.66
   4   5  -8   43.40    1.14
  -4  -5   8   42.12    1.03
   3   5  -8   22.54    0.64
  -3  -5   8   23.09    0.58
   2   5  -8   63.77    1.53
   2   5  -8   63.75    1.62
  -2  -5   8   63.45    1.52
   1   5  -8    3.79    0.16
   1   5  -8    3.68    0.17
  -1  -5   8    3.62    0.16
   0   5  -8    4.72    0.18
   0   5  -8    5.03    0.19
   0  -5   8    4.57    0.19
  -1   5  -8   79.42    1.92
   1  -5   8   81.53    1.93
  -2   5  -8   11.87    0.34
   2  -5   8   12.55    0.36
  -3   5  -8   20.36    0.53
   3  -5   8   20.01    0.55
  -4   5  -8    6.33    0.22
   4  -5   8    6.17    0.24
  -5   5  -8    0.22    0.10
   5  -5   8    0.13    0.11
  -6   5  -8    0.34    0.11
   6  -5   8    0.46    0.12
  -7   5  -8    1.36    0.17
   7  -5   8    0.87    0.16
   7   4  -8    0.32    0.15
   6   4  -8    0.34    0.13
  -5  -4   8    0.63    0.09
   4   4  -8    6.07    0.26
  -4  -4   8    5.97    0.19
   3   4  -8    3.29    0.17
  -3  -4   8    3.28    0.13
   2   4  -8   30.59    0.81
   2   4  -8   30.91    0.75
  -2  -4   8   30.44    0.75
   1   4  -8    0.31    0.07
   1   4  -8    0.06    0.05
  -1  -4   8    0.14    0.05
   0   4  -8   82.42    2.00
   0   4  -8   78.10    1.91
   0  -4   8   80.81    1.91
  -1   4  -8  199.55    4.89
  -1   4  -8  197.91    4.68
   1  -4   8  199.31    4.66
  -2   4  -8    0.11    0.06
   2  -4   8    0.06    0.06
  -3   4  -8   30.11    0.75
   3  -4   8   29.92    0.77
  -4   4  -8    9.03    0.28
   4  -4   8    9.68    0.31
  -5   4  -8    3.35    0.15
   5  -4   8    3.38    0.18
  -6   4  -8    0.45    0.10
   6  -4   8    0.39    0.12
  -7   4  -8    1.02    0.15
   7  -4   8    0.81    0.15
  -8   4  -8   -0.06    0.12
   8  -4   8   -0.02    0.16
   7   3  -8    0.35    0.16
   6   3  -8    1.70    0.20
  -6  -3   8    2.37    0.13
   5   3  -8   13.67    0.44
  -5  -3   8   13.91    0.37
   4   3  -8   23.88    0.67
  -4  -3   8   23.98    0.59
   3   3  -8    0.74    0.13
  -3  -3   8    0.65    0.08
   2   3  -8   13.19    0.34
   2   3  -8   12.64    0.38
  -2  -3   8   12.69    0.33
   1   3  -8    2.74    0.13
   1   3  -8    2.54    0.11
  -1  -3   8    2.70    0.12
   0   3  -8    0.24    0.04
  -1   3  -8    0.91    0.08
   1  -3   8    0.97    0.09
  -2   3  -8   34.25    0.83
   2  -3   8   33.72    0.84
  -3   3  -8    4.07    0.15
   3  -3   8    3.67    0.16
  -4   3  -8   77.89    1.84
   4  -3   8   74.91    1.83
  -5   3  -8    3.15    0.16
   5  -3   8    3.01    0.19
  -6   3  -8    0.18    0.09
   6  -3   8    0.07    0.09
  -7   3  -8    0.18    0.11
   7  -3   8    0.25    0.13
  -8   3  -8    1.32    0.18
   8  -3   8    1.36    0.23
   9  -3   8    0.10    0.18
   8   2  -8   -0.03    0.18
   7   2  -8    1.09    0.17
  -7  -2   8    1.15    0.13
   6   2  -8    0.35    0.12
  -6  -2   8    0.44    0.08
   5   2  -8   32.59    0.88
  -5  -2   8   32.86    0.80
   4   2  -8   65.93    1.66
  -4  -2   8   64.20    1.54
   3   2  -8   23.64    0.63
  -3  -2   8   22.72    0.57
   2   2  -8  596.77   14.88
   2   2  -8  612.26   14.23
  -2  -2   8  594.72   14.04
   1   2  -8    0.18    0.04
   0   2  -8  581.60   14.43
   0   2  -8  580.86   13.81
   0  -2   8  592.09   13.71
  -1   2  -8  541.22   12.94
  -1   2  -8  560.92   13.52
   1  -2   8  542.12   12.85
  -2   2  -8   30.31    0.73
  -2   2  -8   28.92    0.74
   2  -2   8   29.66    0.74
  -3   2  -8   57.86    1.39
   3  -2   8   57.44    1.39
  -5   2  -8    0.20    0.07
   5  -2   8    0.08    0.07
  -6   2  -8   14.48    0.42
   6  -2   8   14.95    0.43
  -7   2  -8   11.40    0.35
   7  -2   8   10.26    0.36
  -8   2  -8    2.28    0.20
   8  -2   8    2.01    0.23
  -9   2  -8    4.04    0.25
   9  -2   8    3.77    0.28
   8   1  -8    1.38    0.24
  -8  -1   8    1.34    0.16
   7   1  -8    0.04    0.14
  -7  -1   8    0.23    0.09
   6   1  -8    5.70    0.26
  -6  -1   8    6.08    0.21
   5   1  -8    1.40    0.14
  -5  -1   8    1.55    0.10
   4   1  -8   48.92    1.30
  -4  -1   8   52.09    1.21
   2   1  -8  213.84    5.22
  -2  -1   8  210.47    4.97
   1   1  -8   81.03    1.97
   1   1  -8   76.32    1.89
  -1  -1   8   80.46    1.86
   0   1  -8   59.00    1.42
   0   1  -8   59.48    1.49
   0  -1   8   60.36    1.41
  -2   1  -8   19.76    0.51
  -2   1  -8   20.52    0.51
   2  -1   8   20.10    0.51
  -3   1  -8    8.47    0.24
  -3   1  -8    8.06    0.23
   3  -1   8    8.84    0.26
  -4   1  -8    1.58    0.12
  -4   1  -8    1.43    0.09
   4  -1   8    1.59    0.13
  -5   1  -8    4.44    0.18
   5  -1   8    4.16    0.18
  -6   1  -8   11.03    0.34
   6  -1   8   11.17    0.35
  -7   1  -8    4.90    0.22
   7  -1   8    4.87    0.23
  -8   1  -8    0.21    0.13
   8  -1   8    0.06    0.12
  -9   1  -8    1.36    0.20
   8   0  -8    5.36    0.32
  -8   0   8    5.31    0.24
   7   0  -8    0.42    0.15
  -7   0   8    0.54    0.10
   6   0  -8   68.75    1.78
  -6   0   8   69.46    1.66
   5   0  -8   34.74    0.93
  -5   0   8   35.24    0.86
   4   0  -8   16.80    0.49
  -4   0   8   18.36    0.46
   3   0  -8  220.31    5.43
  -3   0   8  220.85    5.14
   2   0  -8  194.79    4.75
  -2   0   8  191.45    4.52
   1   0  -8  518.61   13.52
   1   0  -8  551.86   13.50
  -1   0   8  566.96   12.78
   0   0  -8  245.02    6.14
   0   0   8  250.26    5.80
  -1   0  -8    1.91    0.09
   1   0   8    2.00    0.09
   1   0   8    2.14    0.09
  -2   0  -8  113.22    2.74
   2   0   8  108.42    2.61
   2   0   8  112.27    2.64
  -3   0  -8    0.15    0.04
   3   0   8    0.16    0.05
   3   0   8    0.17    0.05
  -4   0  -8   21.42    0.56
   4   0   8   21.66    0.56
   4   0   8   20.93    0.54
  -5   0  -8   10.25    0.30
   5   0   8   10.26    0.31
   5   0   8   10.28    0.31
   6   0   8   42.37    1.05
   6   0   8   42.71    1.07
   7   0   8    8.26    0.30
  -8   0  -8    6.93    0.27
  -9   0  -8    4.82    0.26
   8  -1  -8    0.84    0.19
  -8   1   8    0.96    0.16
   7  -1  -8    0.87    0.16
  -7   1   8    1.13    0.14
   6  -1  -8    2.55    0.18
  -6   1   8    2.43    0.14
   5  -1  -8    0.31    0.09
  -5   1   8    0.17    0.06
   4  -1  -8    0.89    0.12
  -4   1   8    0.67    0.09
   3  -1  -8    3.74    0.17
  -3   1   8    3.85    0.14
   2  -1  -8   13.41    0.36
  -2   1   8   12.35    0.33
   1  -1  -8  229.73    5.61
  -1   1   8  221.21    5.44
  -1   1   8  227.02    5.28
   0   1   8    1.29    0.07
  -1  -1  -8  117.72    2.81
   1   1   8  112.33    2.70
   1   1   8  111.92    2.66
  -2  -1  -8   23.28    0.59
   2   1   8   23.03    0.57
   2   1   8   21.76    0.55
  -3  -1  -8    2.76    0.12
   3   1   8    2.76    0.13
   3   1   8    2.60    0.12
  -4  -1  -8    2.10    0.13
   4   1   8    1.74    0.12
   4   1   8    2.02    0.12
  -5  -1  -8    0.60    0.10
   5   1   8    0.50    0.08
   5   1   8    0.42    0.08
  -6  -1  -8    5.20    0.20
   6   1   8    5.54    0.22
   7   1   8    3.97    0.20
   8   1   8    0.01    0.11
  -9  -1  -8    2.07    0.21
  -8   2   8    1.61    0.18
  -8   2   8    1.53    0.13
   7  -2  -8   27.43    0.80
  -7   2   8   28.73    0.49
  -7   2   8   28.42    0.74
   6  -2  -8   29.26    0.81
  -6   2   8   29.16    0.49
  -6   2   8   29.51    0.75
   5  -2  -8    7.16    0.26
  -5   2   8    6.50    0.22
  -5   2   8    6.57    0.15
   4  -2  -8   84.22    2.13
  -4   2   8   84.63    1.32
  -4   2   8   85.24    2.01
  -3   2   8    0.10    0.05
   2  -2  -8   19.88    0.53
  -2   2   8   19.96    0.50
   1  -2  -8    2.65    0.12
  -1   2   8    2.76    0.09
  -1   2   8    2.60    0.10
   0  -2  -8    6.80    0.20
   0   2   8    6.54    0.18
   0   2   8    6.62    0.18
  -1  -2  -8   27.36    0.70
   1   2   8   26.87    0.67
   1   2   8   27.36    0.65
  -2  -2  -8    7.94    0.24
   2   2   8    8.03    0.21
   2   2   8    8.05    0.23
  -3  -2  -8    3.48    0.14
   3   2   8    3.33    0.12
   3   2   8    3.52    0.15
  -4  -2  -8   17.52    0.47
   4   2   8   17.45    0.47
   4   2   8   16.64    0.44
  -5  -2  -8    6.98    0.24
   5   2   8    6.99    0.25
  -6  -2  -8   18.64    0.53
   6   2   8   19.18    0.53
  -7  -2  -8    0.83    0.12
   7   2   8    0.77    0.13
   8   2   8    5.95    0.28
   9   2   8    1.38    0.23
  -7   3   8    0.52    0.08
  -7   3   8    0.56    0.11
   6  -3  -8    0.38    0.12
  -6   3   8    0.34    0.10
  -6   3   8    0.32    0.06
   5  -3  -8    0.14    0.10
  -5   3   8    0.02    0.08
  -5   3   8    0.06    0.05
   4  -3  -8   39.11    1.03
  -4   3   8   39.35    0.97
  -4   3   8   39.61    0.64
  -3   3   8    2.22    0.08
  -3   3   8    2.07    0.12
   2  -3  -8  143.00    3.53
  -2   3   8  142.43    2.20
  -2   3   8  142.46    3.35
  -2   3   8  144.98    3.38
   1  -3  -8  165.05    4.10
  -1   3   8  168.29    3.88
  -1   3   8  166.14    3.92
   0  -3  -8   27.41    0.66
   0   3   8   24.42    0.61
   0   3   8   24.56    0.62
  -2  -3  -8   35.46    0.90
   2   3   8   33.47    0.83
   2   3   8   36.11    0.86
  -3  -3  -8   16.85    0.47
   3   3   8   16.67    0.45
  -4  -3  -8   21.79    0.58
   4   3   8   20.96    0.56
  -5  -3  -8   19.73    0.55
   5   3   8   19.68    0.54
  -6  -3  -8    2.79    0.17
   6   3   8    2.39    0.18
  -7  -3  -8    0.06    0.10
   7   3   8   -0.04    0.12
   8   3   8    1.40    0.20
   9   3   8    0.30    0.19
  -7   4   8    5.77    0.26
  -7   4   8    5.38    0.17
  -6   4   8    5.23    0.22
  -6   4   8    5.11    0.14
   5  -4  -8    3.63    0.20
  -5   4   8    3.53    0.17
  -5   4   8    3.62    0.11
   4  -4  -8   41.59    1.09
  -4   4   8   42.15    0.68
  -4   4   8   42.41    1.03
   3  -4  -8    3.28    0.16
  -3   4   8    3.17    0.10
  -3   4   8    3.28    0.15
   2  -4  -8  191.62    4.64
  -2   4   8  188.58    2.89
  -2   4   8  187.83    4.43
  -2   4   8  186.12    4.40
   1  -4  -8    3.10    0.15
  -1   4   8    3.51    0.13
  -1   4   8    3.53    0.09
  -1   4   8    3.26    0.13
   0  -4  -8  307.51    7.68
   0   4   8  327.30    7.33
   0   4   8  305.40    7.41
  -1  -4  -8   22.25    0.59
   1   4   8   21.90    0.56
   1   4   8   22.28    0.53
  -2  -4  -8  114.68    2.86
   2   4   8  115.57    2.73
  -3  -4  -8  128.73    3.22
   3   4   8  131.16    3.09
  -4  -4  -8    0.98    0.14
   4   4   8    1.01    0.15
  -5  -4  -8   65.15    1.66
   5   4   8   64.94    1.59
  -6  -4  -8    5.76    0.24
   6   4   8    5.88    0.24
  -7  -4  -8    2.04    0.19
   7   4   8    1.91    0.19
  -8  -4  -8    2.85    0.23
   8   4   8    2.35    0.21
  -6   5   8    0.13    0.12
  -6   5   8    0.05    0.08
  -5   5   8    0.10    0.05
  -5   5   8    0.14    0.09
   4  -5  -8   29.07    0.79
  -4   5   8   29.23    0.49
  -4   5   8   29.30    0.75
   3  -5  -8    2.22    0.16
  -3   5   8    2.27    0.09
  -3   5   8    2.36    0.15
   2  -5  -8   79.01    1.99
  -2   5   8   80.08    1.89
  -2   5   8   80.51    1.24
  -2   5   8   78.44    1.89
   1  -5  -8   71.22    1.86
  -1   5   8   75.81    1.15
  -1   5   8   72.48    1.77
  -1   5   8   77.13    1.76
   0  -5  -8    0.91    0.11
   0   5   8    0.95    0.09
   0   5   8    0.89    0.07
   0   5   8    0.86    0.10
  -1  -5  -8    1.03    0.11
   1   5   8    0.91    0.11
  -2  -5  -8    7.78    0.27
   2   5   8    7.60    0.24
  -3  -5  -8   48.63    1.25
   3   5   8   48.69    1.20
  -4  -5  -8   45.16    1.19
   4   5   8   46.05    1.13
  -5  -5  -8    3.38    0.19
   5   5   8    3.65    0.20
  -6  -5  -8   10.58    0.36
   6   5   8   10.39    0.36
  -7  -5  -8   -0.01    0.13
   7   5   8   -0.11    0.13
  -8  -5  -8    1.71    0.22
   8   5   8    2.00    0.23
  -6   6   8   17.24    0.51
  -6   6   8   17.01    0.33
  -5   6   8    8.63    0.20
  -5   6   8    8.97    0.32
  -4   6   8   16.69    0.48
  -4   6   8   17.20    0.31
   3  -6  -8   49.50    1.27
   2  -6  -8   17.65    0.47
  -2   6   8   15.90    0.44
  -2   6   8   15.59    0.43
  -2   6   8   16.15    0.29
   1  -6  -8  173.10    4.26
  -1   6   8  174.09    4.03
  -1   6   8  176.02    2.65
  -1   6   8  166.90    4.07
   0  -6  -8   10.76    0.33
   0   6   8   10.71    0.31
  -1  -6  -8   12.49    0.38
   1   6   8   13.06    0.36
  -2  -6  -8    6.93    0.26
   2   6   8    6.75    0.23
  -3  -6  -8    4.84    0.23
   3   6   8    5.11    0.20
  -4  -6  -8    0.25    0.12
   4   6   8    0.46    0.11
  -5  -6  -8   -0.05    0.12
   5   6   8   -0.05    0.11
  -6  -6  -8   -0.01    0.13
   6   6   8    0.01    0.12
  -7  -6  -8    0.48    0.16
   7   6   8    0.44    0.16
  -5   7   8    0.24    0.13
  -5   7   8    0.15    0.08
   2  -7  -8   71.98    1.84
  -2   7   8   73.63    1.14
  -2   7   8   70.44    1.75
  -2   7   8   74.48    1.74
   1  -7  -8    1.81    0.15
  -1   7   8    1.98    0.15
   0  -7  -8   11.81    0.37
   0   7   8   11.91    0.35
  -1  -7  -8    3.36    0.17
   1   7   8    3.44    0.17
  -2  -7  -8    2.12    0.17
   2   7   8    2.14    0.15
  -3  -7  -8    0.43    0.12
   3   7   8    0.47    0.10
  -4  -7  -8   20.49    0.60
   4   7   8   19.69    0.56
  -5  -7  -8    4.24    0.24
   5   7   8    4.38    0.23
  -6  -7  -8   -0.10    0.15
   6   7   8    0.12    0.14
  -5   8   8    0.56    0.15
  -5   8   8    0.46    0.10
  -2   8   8    0.48    0.11
   1  -8  -8   24.52    0.68
  -1   8   8   24.31    0.64
   0  -8  -8    2.35    0.17
   0   8   8    2.42    0.16
  -1  -8  -8   13.05    0.42
   1   8   8   14.04    0.40
  -2  -8  -8    3.62    0.21
   2   8   8    3.56    0.19
  -3  -8  -8    9.88    0.37
   3   8   8   10.57    0.34
  -4  -8  -8    9.93    0.36
   4   8   8    9.92    0.34
  -5  -8  -8    5.33    0.27
   5   8   8    5.36    0.25
  -2   9   8    9.99    0.33
  -1   9   8    8.71    0.30
   0  -9  -8    3.57    0.21
   0   9   8    3.41    0.20
  -1  -9  -8    3.65    0.22
   1   9   8    3.72    0.20
  -2  -9  -8    1.41    0.19
   2   9   8    1.40    0.17
  -3  -9  -8    0.72    0.14
   3   9   8    0.82    0.14
  -4  -9  -8    3.38    0.26
   4   9   8    3.27    0.23
  -1  10   8    1.33    0.20
   0  10   8    2.88    0.21
  -1 -10  -8    0.65    0.16
   1  10   8    0.59    0.15
  -2 -10  -8    5.47    0.29
   2  10   8    5.38    0.27
  -3 -10  -8    2.72    0.25
   1  10  -9    0.04    0.16
   2   9  -9    0.13    0.14
   1   9  -9    4.36    0.23
   0   9  -9    0.01    0.13
  -1   9  -9   -0.06    0.12
  -2   9  -9    0.12    0.14
   2  -9   9    0.23    0.16
  -3   9  -9    2.11    0.20
   3  -9   9    2.34    0.24
  -4  -8   9   10.52    0.42
  -3  -8   9    2.14    0.24
   2   8  -9    3.44    0.20
   1   8  -9    6.09    0.25
   0   8  -9    8.75    0.30
   0  -8   9    9.09    0.34
  -1   8  -9    2.15    0.18
  -2   8  -9   20.38    0.56
   2  -8   9   19.63    0.58
  -3   8  -9    3.51    0.19
   3  -8   9    4.17    0.26
  -4   8  -9    1.67    0.17
   4  -8   9    1.56    0.22
   5  -8   9    5.93    0.32
   4   7  -9    3.09    0.26
   2   7  -9    0.53    0.11
  -2  -7   9    0.35    0.12
   1   7  -9    0.61    0.10
  -1  -7   9    0.52    0.10
   0   7  -9    0.07    0.09
   0  -7   9   -0.04    0.10
  -1   7  -9    0.21    0.10
   1  -7   9    0.13    0.11
  -2   7  -9    1.16    0.12
   2  -7   9    0.97    0.17
  -3   7  -9   19.72    0.53
   3  -7   9   19.30    0.57
  -4   7  -9    2.44    0.17
   4  -7   9    2.14    0.19
  -5   7  -9   12.08    0.38
   5  -7   9   12.53    0.43
  -6   7  -9    6.96    0.28
   6  -7   9    6.54    0.31
   6   6  -9    0.94    0.19
   5   6  -9   18.29    0.58
   4   6  -9    3.83    0.25
   3   6  -9   40.17    1.05
  -3  -6   9   37.96    0.96
   2   6  -9    0.17    0.10
   2   6  -9    0.22    0.11
  -2  -6   9    0.21    0.09
   1   6  -9   88.77    2.08
   1   6  -9   87.66    2.18
  -1  -6   9   83.87    2.07
   0   6  -9    0.77    0.13
   0  -6   9    0.60    0.10
  -1   6  -9   41.33    1.01
   1  -6   9   39.84    1.02
  -2   6  -9   30.62    0.78
   2  -6   9   30.90    0.80
   3  -6   9    1.95    0.18
  -4   6  -9    9.18    0.29
   4  -6   9    9.03    0.32
  -5   6  -9    1.73    0.15
   5  -6   9    1.67    0.17
  -6   6  -9    3.34    0.19
   6  -6   9    3.20    0.23
   6   5  -9   13.88    0.49
   5   5  -9    1.23    0.17
   4   5  -9    1.61    0.18
  -4  -5   9    1.86    0.12
   3   5  -9    3.04    0.19
  -3  -5   9    2.88    0.14
   2   5  -9    2.92    0.18
   2   5  -9    3.00    0.14
  -2  -5   9    3.02    0.14
   1   5  -9   11.41    0.35
   1   5  -9   11.86    0.33
  -1  -5   9   11.65    0.33
   0   5  -9   28.13    0.69
   0   5  -9   27.24    0.72
   0  -5   9   27.27    0.70
  -1   5  -9    0.71    0.11
   1  -5   9    0.53    0.08
  -2   5  -9   49.21    1.20
   2  -5   9   48.78    1.21
  -3   5  -9    4.55    0.18
   3  -5   9    4.75    0.22
  -4   5  -9    2.38    0.14
   4  -5   9    2.35    0.18
  -5   5  -9   17.14    0.47
   5  -5   9   16.87    0.51
  -6   5  -9    3.32    0.17
   6  -5   9    3.34    0.21
  -7   5  -9    0.05    0.12
   7  -5   9    0.03    0.14
   7   4  -9   -0.10    0.16
   6   4  -9    3.09    0.24
   5   4  -9    0.61    0.12
  -5  -4   9    0.31    0.08
   4   4  -9    3.46    0.20
  -4  -4   9    3.05    0.14
   3   4  -9   13.52    0.42
  -3  -4   9   13.38    0.36
   2   4  -9   31.75    0.78
   2   4  -9   31.34    0.84
  -2  -4   9   32.14    0.78
   1   4  -9  114.00    2.69
   1   4  -9  112.53    2.82
  -1  -4   9  113.91    2.67
   0   4  -9    2.60    0.13
   0   4  -9    2.36    0.13
   0  -4   9    2.32    0.13
  -1   4  -9   89.19    2.13
   1  -4   9   89.77    2.13
  -2   4  -9   14.11    0.38
   2  -4   9   14.13    0.40
  -3   4  -9   53.75    1.29
   3  -4   9   52.57    1.30
  -4   4  -9    8.38    0.26
   4  -4   9    8.15    0.28
  -5   4  -9   14.49    0.41
   5  -4   9   15.36    0.45
  -6   4  -9    0.32    0.09
   6  -4   9    0.26    0.11
  -7   4  -9    1.95    0.17
   7  -4   9    1.94    0.21
  -8   4  -9    1.54    0.19
   8  -4   9    1.48    0.25
   7   3  -9    0.24    0.14
   6   3  -9    0.49    0.13
  -6  -3   9    0.71    0.11
   5   3  -9    2.00    0.17
  -5  -3   9    2.14    0.12
   4   3  -9   92.61    2.29
  -4  -3   9   88.87    2.14
   3   3  -9    1.39    0.14
  -3  -3   9    1.39    0.10
   2   3  -9  113.93    2.90
   2   3  -9  119.55    2.76
  -2  -3   9  117.34    2.74
   1   3  -9   33.66    0.89
   1   3  -9   35.29    0.84
  -1  -3   9   35.31    0.84
   0   3  -9   10.16    0.27
   0   3  -9    8.68    0.25
   0  -3   9    8.70    0.27
  -1   3  -9   24.12    0.59
  -1   3  -9   21.80    0.57
   1  -3   9   22.52    0.58
  -2   3  -9   11.52    0.32
   2  -3   9   11.51    0.33
  -3   3  -9   10.93    0.31
   3  -3   9   11.12    0.33
  -4   3  -9    2.89    0.14
   4  -3   9    2.91    0.17
  -5   3  -9   13.21    0.39
   5  -3   9   14.56    0.42
  -6   3  -9    0.14    0.08
   6  -3   9    0.04    0.11
  -7   3  -9    4.82    0.22
   7  -3   9    4.76    0.24
  -8   3  -9    0.20    0.14
   8  -3   9    0.31    0.16
   8   2  -9    1.29    0.21
   7   2  -9   12.45    0.45
  -7  -2   9   13.61    0.38
   6   2  -9   19.63    0.59
  -6  -2   9   18.50    0.50
   5   2  -9    2.85    0.18
  -5  -2   9    3.10    0.14
   4   2  -9   95.94    2.40
  -4  -2   9   94.91    2.25
  -3  -2   9    0.53    0.07
   2   2  -9  109.17    2.54
   2   2  -9  106.49    2.67
  -2  -2   9  106.52    2.52
   1   2  -9   14.45    0.39
   1   2  -9   13.74    0.35
  -1  -2   9   13.01    0.35
   0   2  -9    7.82    0.21
   0   2  -9    7.66    0.23
   0  -2   9    7.11    0.22
  -1   2  -9    0.45    0.07
   1  -2   9    0.30    0.06
  -2   2  -9   57.24    1.40
  -2   2  -9   59.04    1.45
   2  -2   9   59.01    1.40
  -3   2  -9    0.94    0.08
   3  -2   9    0.69    0.10
   4  -2   9   64.25    1.55
   5  -2   9   17.26    0.49
  -6   2  -9    0.94    0.13
   6  -2   9    0.81    0.14
  -7   2  -9    6.64    0.26
   7  -2   9    6.32    0.28
  -8   2  -9    9.94    0.36
   8  -2   9   10.25    0.38
   8   1  -9    1.64    0.25
  -8  -1   9    1.79    0.17
   7   1  -9    1.84    0.23
  -7  -1   9    2.26    0.16
   6   1  -9    1.11    0.18
  -6  -1   9    1.04    0.13
   5   1  -9    0.30    0.10
  -5  -1   9    0.22    0.06
   4   1  -9   19.90    0.57
  -4  -1   9   20.32    0.51
   3   1  -9    7.12    0.24
  -3  -1   9    7.16    0.21
   2   1  -9   20.55    0.55
  -2  -1   9   20.11    0.50
   1   1  -9  379.85    9.34
   1   1  -9  396.00    9.70
  -1  -1   9  403.56    9.20
   0   1  -9   61.21    1.46
   0   1  -9   61.28    1.53
   0  -1   9   62.00    1.46
  -1   1  -9   59.92    1.42
  -1   1  -9   59.75    1.48
   1  -1   9   58.42    1.41
  -2   1  -9  165.59    4.02
  -2   1  -9  159.80    4.19
   2  -1   9  185.66    4.00
  -3   1  -9    7.86    0.24
  -3   1  -9    8.81    0.23
   3  -1   9    8.47    0.26
  -4   1  -9    3.59    0.15
   4  -1   9    3.62    0.17
  -5   1  -9    0.29    0.08
   5  -1   9    0.19    0.08
  -6   1  -9    1.57    0.14
   6  -1   9    1.24    0.15
  -7   1  -9    2.13    0.17
   7  -1   9    2.20    0.19
  -8   1  -9    5.98    0.26
  -9   1  -9    0.04    0.15
   8   0  -9    0.40    0.18
  -8   0   9    0.58    0.12
   7   0  -9   18.11    0.58
  -7   0   9   18.30    0.50
   6   0  -9    6.25    0.28
  -6   0   9    6.16    0.23
   5   0  -9    7.19    0.28
  -5   0   9    7.77    0.24
   4   0  -9   32.82    0.87
  -4   0   9   32.99    0.81
   3   0  -9    1.08    0.11
  -3   0   9    1.17    0.09
   2   0  -9    7.39    0.24
  -2   0   9    7.49    0.21
   1   0  -9   49.07    1.22
   1   0  -9   50.61    1.26
  -1   0   9   50.32    1.18
   0   0  -9   25.18    0.61
   0   0  -9   25.26    0.65
   0   0   9   25.01    0.61
  -1   0  -9    4.35    0.14
   1   0   9    4.43    0.14
   1   0   9    4.49    0.14
  -2   0  -9  170.66    4.05
   2   0   9  162.26    3.89
   2   0   9  161.84    3.85
  -3   0  -9    0.96    0.08
   3   0   9    1.07    0.09
  -4   0  -9  302.58    7.34
   4   0   9  299.80    7.08
   4   0   9  295.95    7.02
   5   0   9   30.89    0.78
   5   0   9   30.80    0.79
   6   0   9    0.04    0.08
  -8   0  -9    3.39    0.21
  -9   0  -9    1.46    0.20
   8  -1  -9    0.36    0.19
  -8   1   9    0.41    0.12
   7  -1  -9    0.23    0.16
  -7   1   9    0.17    0.10
   6  -1  -9    0.28    0.12
  -6   1   9    0.06    0.08
   5  -1  -9    5.94    0.24
  -5   1   9    5.91    0.21
   4  -1  -9   32.28    0.85
  -4   1   9   31.41    0.79
   3  -1  -9   26.70    0.71
  -3   1   9   26.28    0.66
   2  -1  -9  271.35    6.80
  -2   1   9  278.32    6.47
   1  -1  -9   45.93    1.15
  -1   1   9   46.27    1.08
  -1   1   9   44.53    1.10
   0  -1  -9  123.17    3.08
   0   1   9  122.33    2.92
   0   1   9  129.52    2.96
  -1  -1  -9    0.48    0.07
   1   1   9    0.49    0.07
  -2  -1  -9   35.73    0.89
   2   1   9   34.41    0.85
   2   1   9   35.48    0.86
  -3  -1  -9    0.00    0.05
   3   1   9    0.00    0.06
   3   1   9    0.07    0.05
  -4  -1  -9    4.08    0.17
   4   1   9    3.66    0.15
   4   1   9    3.72    0.17
  -5  -1  -9   12.38    0.36
   5   1   9   12.52    0.35
   5   1   9   12.73    0.37
   6   1   9    0.61    0.11
   7   1   9    1.67    0.17
   8   1   9    1.66    0.17
  -9  -1  -9    0.11    0.14
   7  -2  -9   13.16    0.47
  -7   2   9   13.17    0.40
   6  -2  -9    6.20    0.27
  -6   2   9    6.26    0.15
  -6   2   9    6.22    0.23
   5  -2  -9    5.27    0.23
  -5   2   9    5.17    0.13
  -5   2   9    5.08    0.20
   4  -2  -9    0.39    0.09
  -4   2   9    0.30    0.07
  -4   2   9    0.19    0.05
   3  -2  -9    1.46    0.11
  -3   2   9    1.63    0.11
   2  -2  -9   45.40    1.15
  -2   2   9   45.33    1.09
   1  -2  -9    5.69    0.19
  -1   2   9    5.53    0.17
  -1   2   9    5.60    0.16
   0  -2  -9   23.98    0.63
   0   2   9   24.56    0.59
   0   2   9   24.48    0.59
  -1  -2  -9    5.32    0.16
   1   2   9    4.40    0.14
   1   2   9    4.79    0.15
  -2  -2  -9   53.00    1.32
   2   2   9   50.39    1.24
   2   2   9   54.50    1.27
  -3  -2  -9   40.86    1.04
   3   2   9   41.36    0.98
   3   2   9   40.74    1.01
  -4  -2  -9  299.68    7.16
   4   2   9  289.91    6.80
   4   2   9  286.43    6.87
   5   2   9    0.30    0.09
  -6  -2  -9    6.08    0.23
   6   2   9    5.99    0.23
   7   2   9    1.77    0.18
   8   2   9    0.68    0.16
   9   2   9    0.52    0.18
  -7   3   9    7.22    0.18
  -7   3   9    7.27    0.27
   6  -3  -9    1.18    0.18
  -6   3   9    0.67    0.11
  -6   3   9    0.84    0.09
   5  -3  -9   16.12    0.49
  -5   3   9   16.15    0.45
  -5   3   9   16.38    0.29
   4  -3  -9   26.25    0.70
  -4   3   9   25.43    0.43
  -4   3   9   25.62    0.66
   3  -3  -9   20.72    0.56
  -3   3   9   20.10    0.52
  -3   3   9   20.20    0.34
   2  -3  -9   25.23    0.66
  -2   3   9   24.81    0.62
   1  -3  -9   28.78    0.75
  -1   3   9   29.21    0.70
  -1   3   9   28.32    0.70
   0  -3  -9   14.31    0.40
   0   3   9   14.80    0.37
   0   3   9   14.64    0.37
  -1  -3  -9    0.81    0.08
   1   3   9    0.97    0.08
   1   3   9    0.73    0.06
  -2  -3  -9    0.22    0.06
   2   3   9    0.30    0.05
  -3  -3  -9    0.02    0.07
   3   3   9   -0.07    0.06
  -4  -3  -9    5.73    0.22
   4   3   9    5.33    0.21
  -5  -3  -9   69.12    1.79
   5   3   9   72.97    1.73
  -6  -3  -9    3.06    0.18
   6   3   9    3.05    0.18
  -7  -3  -9    4.00    0.21
   7   3   9    3.74    0.21
   8   3   9    0.59    0.15
  -7   4   9    0.09    0.07
  -7   4   9    0.12    0.11
   6  -4  -9    0.12    0.14
  -6   4   9    0.06    0.06
  -6   4   9   -0.01    0.09
   5  -4  -9   -0.03    0.10
  -5   4   9    0.06    0.08
  -5   4   9    0.07    0.06
   4  -4  -9    2.92    0.17
  -4   4   9    2.43    0.09
  -4   4   9    2.49    0.14
   3  -4  -9   19.91    0.55
  -3   4   9   19.84    0.34
  -3   4   9   19.82    0.52
   2  -4  -9  233.44    5.70
  -2   4   9  230.15    5.41
  -2   4   9  231.98    3.55
   1  -4  -9    5.15    0.19
  -1   4   9    5.10    0.17
  -1   4   9    5.12    0.17
   0  -4  -9  101.11    2.61
   0   4   9  104.38    2.49
   0   4   9  109.84    2.46
  -1  -4  -9   83.11    2.08
   1   4   9   83.30    1.95
   1   4   9   83.60    1.99
  -2  -4  -9    1.35    0.13
   2   4   9    1.71    0.11
  -3  -4  -9   83.22    2.07
   3   4   9   81.84    1.98
  -4  -4  -9   78.11    1.94
   4   4   9   75.63    1.86
  -5  -4  -9    2.01    0.17
   5   4   9    2.23    0.17
  -6  -4  -9   12.45    0.40
   6   4   9   12.01    0.39
  -7  -4  -9    0.08    0.12
   7   4   9   -0.01    0.13
  -8  -4  -9    1.52    0.21
   8   4   9    1.61    0.22
  -6   5   9   18.25    0.52
  -6   5   9   18.16    0.34
   5  -5  -9    2.15    0.19
   4  -5  -9    4.36    0.22
  -4   5   9    4.27    0.13
  -4   5   9    4.25    0.19
   3  -5  -9    0.25    0.10
  -3   5   9    0.40    0.08
  -3   5   9    0.29    0.05
   2  -5  -9    6.48    0.24
  -2   5   9    6.53    0.15
  -2   5   9    6.52    0.22
   1  -5  -9  121.14    3.00
  -1   5   9  118.94    2.86
  -1   5   9  121.34    1.86
  -1   5   9  122.45    2.84
   0  -5  -9    3.92    0.17
   0   5   9    4.10    0.14
   0   5   9    3.99    0.15
  -1  -5  -9  134.36    3.30
   1   5   9  131.83    3.15
  -2  -5  -9   62.50    1.57
   2   5   9   61.25    1.50
  -3  -5  -9   17.76    0.51
   3   5   9   17.79    0.48
  -4  -5  -9    1.73    0.17
   4   5   9    1.90    0.15
  -5  -5  -9   15.55    0.47
   5   5   9   15.28    0.45
  -6  -5  -9    0.04    0.13
   6   5   9    0.71    0.14
  -7  -5  -9    0.66    0.15
   7   5   9    0.52    0.15
  -8  -5  -9   -0.11    0.16
   8   5   9   -0.05    0.17
  -6   6   9    1.08    0.11
  -6   6   9    0.83    0.13
  -5   6   9    5.63    0.16
  -5   6   9    5.58    0.24
   4  -6  -9    1.64    0.19
  -4   6   9    1.65    0.09
  -4   6   9    1.75    0.14
   3  -6  -9   24.80    0.68
  -3   6   9   24.85    0.64
  -3   6   9   24.54    0.42
   2  -6  -9   26.74    0.73
  -2   6   9   27.60    0.69
  -2   6   9   27.34    0.45
   1  -6  -9    2.07    0.14
  -1   6   9    1.74    0.13
  -1   6   9    1.50    0.09
  -1   6   9    1.58    0.13
   0  -6  -9   23.92    0.64
   0   6   9   23.51    0.61
  -1  -6  -9    8.24    0.27
   1   6   9    8.41    0.26
  -2  -6  -9    1.46    0.15
   2   6   9    1.37    0.13
  -3  -6  -9    3.82    0.20
   3   6   9    3.85    0.17
  -4  -6  -9    0.91    0.16
   4   6   9    1.03    0.13
  -5  -6  -9    5.85    0.26
   5   6   9    5.56    0.25
  -6  -6  -9    0.60    0.15
   6   6   9    0.39    0.14
  -7  -6  -9    5.30    0.29
   7   6   9    5.05    0.26
  -5   7   9   12.85    0.41
  -5   7   9   13.18    0.27
  -4   7   9    4.98    0.15
  -4   7   9    5.09    0.23
   3  -7  -9   27.93    0.78
  -3   7   9   28.63    0.73
  -3   7   9   28.39    0.48
   2  -7  -9   14.96    0.45
   1  -7  -9    0.03    0.10
  -1   7   9    0.03    0.09
   0  -7  -9   10.55    0.34
   0   7   9   10.34    0.32
  -2  -7  -9   17.43    0.50
   2   7   9   16.54    0.47
  -3  -7  -9    4.71    0.23
   3   7   9    4.43    0.19
  -4  -7  -9    0.39    0.14
   4   7   9    0.53    0.11
  -5  -7  -9    3.79    0.22
   5   7   9    3.90    0.22
  -6  -7  -9    2.56    0.23
   6   7   9    2.72    0.20
  -5   8   9    1.79    0.15
  -5   8   9    1.75    0.22
  -4   8   9    2.04    0.14
  -4   8   9    2.34    0.21
   2  -8  -9    7.16    0.28
   1  -8  -9   23.78    0.67
  -1   8   9   23.83    0.63
   0  -8  -9    4.89    0.22
   0   8   9    5.03    0.21
  -1  -8  -9   22.48    0.63
   1   8   9   22.46    0.60
  -2  -8  -9    5.59    0.25
   2   8   9    5.46    0.22
  -3  -8  -9    4.10    0.23
   3   8   9    3.75    0.19
  -4  -8  -9   28.06    0.79
   4   8   9   27.59    0.75
  -5  -8  -9    0.42    0.14
   5   8   9    0.48    0.15
   1  -9  -9    3.63    0.22
  -1   9   9    3.54    0.21
   0  -9  -9    4.83    0.24
   0   9   9    5.16    0.23
  -1  -9  -9    1.66    0.19
   1   9   9    1.53    0.17
  -2  -9  -9    1.63    0.20
   2   9   9    2.02    0.16
  -3  -9  -9    1.03    0.17
   3   9   9    0.91    0.15
  -4  -9  -9   -0.05    0.16
   4   9   9    0.06    0.13
  -1  10   9    1.38    0.20
   0  10   9    0.55    0.15
  -1 -10  -9    8.16    0.34
   1  10   9    8.15    0.32
  -2 -10  -9    0.41    0.16
   1   9 -10    0.68    0.14
   0   9 -10    0.05    0.13
  -1   9 -10    1.79    0.19
  -2   9 -10    0.16    0.14
   2  -9  10    0.00    0.15
   3  -9  10    0.00    0.15
  -4  -8  10    6.89    0.36
   1   8 -10    0.22    0.13
   0   8 -10   21.45    0.58
   0  -8  10   20.48    0.60
  -1   8 -10   18.78    0.54
   1  -8  10   18.97    0.56
  -2   8 -10    0.28    0.13
   2  -8  10    0.11    0.12
  -3   8 -10   11.63    0.37
   3  -8  10   11.68    0.42
  -4   8 -10    6.39    0.26
   4  -8  10    6.42    0.31
   5   7 -10    0.30    0.18
   4   7 -10    6.45    0.34
   3   7 -10    1.93    0.24
   1   7 -10   11.96    0.36
  -1  -7  10   11.86    0.37
   0   7 -10    0.82    0.14
   0  -7  10    0.89    0.13
  -1   7 -10   41.21    1.02
   1  -7  10   40.27    1.04
  -2   7 -10    0.31    0.11
   2  -7  10    0.34    0.13
  -3   7 -10    8.62    0.28
   3  -7  10    8.16    0.31
  -4   7 -10    8.58    0.29
   4  -7  10    8.38    0.34
  -5   7 -10    0.18    0.11
   5  -7  10    0.19    0.15
   6   6 -10    0.54    0.19
   5   6 -10   21.48    0.67
   4   6 -10    1.51    0.21
   3   6 -10   62.76    1.58
  -3  -6  10   58.93    1.46
   2   6 -10    4.92    0.24
  -2  -6  10    4.93    0.21
   1   6 -10   69.19    1.67
  -1  -6  10   68.98    1.67
   0   6 -10   35.23    0.88
   0  -6  10   34.89    0.89
  -1   6 -10    3.51    0.17
   1  -6  10    3.48    0.20
  -2   6 -10    2.58    0.15
   2  -6  10    2.51    0.17
  -3   6 -10    6.32    0.23
   3  -6  10    6.01    0.25
  -4   6 -10    4.33    0.19
   4  -6  10    3.77    0.21
  -5   6 -10    1.02    0.14
   5  -6  10    0.92    0.15
  -6   6 -10    0.14    0.12
   6  -6  10    0.29    0.13
   6   5 -10    2.95    0.26
   5   5 -10    5.52    0.28
   4   5 -10   11.01    0.38
  -4  -5  10   11.44    0.32
   3   5 -10    0.09    0.11
  -3  -5  10    0.05    0.07
   2   5 -10    2.86    0.18
  -2  -5  10    2.77    0.13
   1   5 -10    6.35    0.25
   1   5 -10    6.20    0.21
  -1  -5  10    6.46    0.23
   0   5 -10    0.62    0.11
   0  -5  10    0.31    0.09
  -1   5 -10   11.87    0.32
   1  -5  10   10.68    0.34
  -2   5 -10   16.28    0.44
   2  -5  10   16.51    0.47
  -3   5 -10   23.51    0.61
   3  -5  10   23.61    0.64
  -4   5 -10   19.99    0.53
   4  -5  10   19.55    0.56
  -5   5 -10    4.05    0.19
   5  -5  10    3.86    0.21
  -6   5 -10    1.48    0.14
   6  -5  10    1.61    0.18
  -7   5 -10    0.36    0.13
   7  -5  10    0.31    0.16
   7   4 -10   -0.01    0.15
   6   4 -10    7.27    0.33
   5   4 -10    8.71    0.34
  -5  -4  10    8.66    0.26
   4   4 -10    1.46    0.18
  -4  -4  10    1.44    0.11
   3   4 -10   65.36    1.65
  -3  -4  10   63.74    1.54
   2   4 -10    7.44    0.26
  -2  -4  10    7.09    0.22
   1   4 -10  192.60    4.47
   1   4 -10  189.04    4.68
  -1  -4  10  187.96    4.44
   0   4 -10   41.89    1.07
   0   4 -10   42.27    1.02
   0  -4  10   41.56    1.03
  -1   4 -10    4.70    0.16
   1  -4  10    4.13    0.18
  -2   4 -10    3.93    0.15
   2  -4  10    3.91    0.19
  -3   4 -10    0.21    0.07
   3  -4  10    0.16    0.09
  -4   4 -10    1.28    0.11
   4  -4  10    1.25    0.15
  -5   4 -10    3.86    0.18
  -6   4 -10    4.83    0.21
   6  -4  10    4.76    0.25
  -7   4 -10    1.83    0.17
   7  -4  10    1.92    0.22
  -8   4 -10    2.49    0.20
   8  -4  10    2.36    0.25
   7   3 -10   -0.03    0.16
   6   3 -10    0.27    0.15
  -6  -3  10    0.44    0.09
   5   3 -10    2.41    0.19
  -5  -3  10    2.49    0.13
   4   3 -10    0.12    0.10
  -4  -3  10    0.11    0.06
   3   3 -10    7.05    0.26
  -3  -3  10    6.47    0.21
   2   3 -10   18.44    0.52
  -2  -3  10   18.32    0.47
   1   3 -10   19.70    0.50
   1   3 -10   21.71    0.55
  -1  -3  10   19.14    0.51
   0   3 -10   13.62    0.38
   0   3 -10   14.12    0.36
   0  -3  10   13.94    0.37
  -1   3 -10   10.18    0.28
   1  -3  10   10.31    0.30
  -2   3 -10    1.12    0.10
   2  -3  10    1.44    0.12
  -3   3 -10    2.10    0.13
   3  -3  10    1.99    0.14
  -4   3 -10    2.02    0.13
   4  -3  10    2.34    0.16
  -5   3 -10    1.72    0.12
   5  -3  10    1.55    0.17
  -6   3 -10   20.39    0.56
   6  -3  10   20.80    0.58
  -7   3 -10    4.15    0.21
   7  -3  10    4.24    0.25
  -8   3 -10    3.94    0.22
   8  -3  10    4.28    0.27
   7   2 -10    8.96    0.37
  -7  -2  10    9.55    0.30
   6   2 -10   59.59    1.54
  -6  -2  10   57.78    1.41
   5   2 -10    0.16    0.10
  -5  -2  10    0.18    0.07
   4   2 -10   38.31    1.01
  -4  -2  10   37.95    0.93
   3   2 -10   64.70    1.62
  -3  -2  10   63.14    1.51
  -2  -2  10    2.62    0.12
   1   2 -10  251.29    5.98
   1   2 -10  250.60    6.22
  -1  -2  10  257.96    5.94
   0   2 -10   11.31    0.32
   0   2 -10   11.33    0.29
   0  -2  10   10.80    0.30
  -1   2 -10   49.08    1.16
  -1   2 -10   47.83    1.20
   1  -2  10   47.26    1.16
  -2   2 -10    0.78    0.08
   2  -2  10    0.63    0.08
  -3   2 -10   43.10    1.06
   3  -2  10   43.67    1.07
  -4   2 -10    0.70    0.10
   5  -2  10   73.18    1.77
   6  -2  10   34.21    0.89
  -7   2 -10    0.82    0.13
   7  -2  10    0.71    0.12
  -8   2 -10   14.62    0.46
   8  -2  10   15.92    0.50
  -8  -1  10    3.14    0.19
   7   1 -10    0.29    0.17
  -7  -1  10    0.25    0.10
   6   1 -10   13.92    0.46
  -6  -1  10   14.66    0.40
   5   1 -10    6.79    0.27
  -5  -1  10    6.71    0.22
   4   1 -10    1.67    0.13
  -4  -1  10    1.34    0.10
   3   1 -10   10.24    0.32
  -3  -1  10    9.68    0.27
   2   1 -10    1.89    0.12
  -2  -1  10    1.58    0.08
   1   1 -10  259.56    6.37
   1   1 -10  256.24    6.16
  -1  -1  10  263.00    6.04
   0   1 -10   21.11    0.55
   0   1 -10   20.67    0.51
   0  -1  10   20.40    0.51
  -1   1 -10   24.89    0.63
  -1   1 -10   24.70    0.61
   1  -1  10   24.35    0.61
  -2   1 -10  236.40    5.63
  -2   1 -10  239.12    5.87
   2  -1  10  237.24    5.55
  -3   1 -10    0.83    0.08
   3  -1  10    0.76    0.10
  -4   1 -10    2.01    0.13
   4  -1  10    2.01    0.15
  -5   1 -10    6.82    0.24
   5  -1  10    6.76    0.25
  -6   1 -10   22.12    0.60
   6  -1  10   22.16    0.60
  -7   1 -10    2.96    0.19
   7  -1  10    2.71    0.20
  -8   1 -10    3.02    0.19
   8   0 -10    0.10    0.17
  -8   0  10   -0.09    0.11
   7   0 -10   24.42    0.73
  -7   0  10   24.07    0.64
   6   0 -10    5.58    0.26
  -6   0  10    5.31    0.21
   5   0 -10   16.71    0.51
  -5   0  10   17.39    0.46
   4   0 -10   28.41    0.77
  -4   0  10   28.24    0.70
   3   0 -10   15.47    0.45
  -3   0  10   15.68    0.41
   2   0 -10   25.48    0.67
  -2   0  10   24.90    0.62
   1   0 -10   33.99    0.86
   1   0 -10   32.00    0.81
  -1   0  10   34.31    0.81
   0   0 -10   48.61    1.19
   0   0 -10   47.15    1.13
   0   0  10   46.60    1.13
  -1   0 -10   25.88    0.67
   1   0  10   26.51    0.64
   1   0  10   26.04    0.64
  -2   0 -10   15.25    0.41
   2   0  10   15.87    0.41
   2   0  10   15.70    0.41
  -3   0 -10   18.42    0.48
   3   0  10   18.69    0.48
   3   0  10   18.40    0.48
  -4   0 -10    4.62    0.18
   4   0  10    4.79    0.19
   4   0  10    4.79    0.21
   5   0  10   63.15    1.54
   5   0  10   64.71    1.56
   6   0  10    8.11    0.29
   6   0  10    8.09    0.28
  -8   0 -10    2.44    0.19
  -9   0 -10    0.24    0.16
   8  -1 -10    0.41    0.20
   7  -1 -10    5.03    0.29
  -7   1  10    4.94    0.23
   6  -1 -10   12.42    0.41
  -6   1  10   12.85    0.37
   5  -1 -10   26.25    0.74
  -5   1  10   27.14    0.68
   4  -1 -10    1.83    0.15
  -4   1  10    1.73    0.10
   3  -1 -10  141.50    3.61
  -3   1  10  150.48    3.42
   2  -1 -10   62.01    1.56
  -2   1  10   61.42    1.46
   1  -1 -10    0.14    0.05
  -1   1  10    0.17    0.04
   0  -1 -10    2.86    0.12
   0   1  10    2.90    0.10
   0   1  10    2.92    0.11
  -1  -1 -10    0.98    0.08
   1   1  10    1.03    0.07
   1   1  10    0.86    0.07
  -2  -1 -10    8.29    0.24
   2   1  10    8.30    0.24
   2   1  10    8.46    0.24
  -3  -1 -10   29.73    0.77
   3   1  10   30.61    0.74
   3   1  10   29.70    0.75
  -4  -1 -10   41.35    1.03
   4   1  10   39.61    1.00
   4   1  10   40.50    0.99
  -5  -1 -10   40.02    1.01
   5   1  10   39.40    0.97
   5   1  10   38.56    0.99
   6   1  10    4.56    0.21
   7   1  10    1.98    0.18
   8   1  10    2.80    0.22
  -9  -1 -10    0.17    0.15
   7  -2 -10    0.17    0.15
  -7   2  10    0.15    0.11
   6  -2 -10    0.25    0.13
  -6   2  10    0.25    0.09
   5  -2 -10    1.23    0.16
  -5   2  10    1.13    0.11
   4  -2 -10    6.10    0.24
  -4   2  10    6.21    0.21
   3  -2 -10    2.28    0.14
  -3   2  10    1.72    0.11
   2  -2 -10   34.00    0.89
  -2   2  10   34.61    0.83
   1  -2 -10   14.57    0.40
  -1   2  10   13.68    0.35
  -1   2  10   14.14    0.36
   0  -2 -10  151.18    3.75
   0   2  10  153.49    3.60
   0   2  10  152.78    3.56
  -1  -2 -10   27.46    0.71
   1   2  10   27.51    0.68
   1   2  10   27.24    0.66
  -2  -2 -10    8.92    0.27
   2   2  10    9.21    0.26
   2   2  10    8.99    0.24
  -3  -2 -10   25.98    0.69
   3   2  10   26.80    0.65
   3   2  10   25.93    0.67
  -4  -2 -10    5.56    0.22
   4   2  10    5.93    0.21
  -5  -2 -10   19.97    0.55
   5   2  10   20.05    0.55
  -6  -2 -10    3.80    0.20
   6   2  10    3.45    0.20
   7   2  10    1.79    0.18
   8   2  10    0.08    0.15
   7  -3 -10    0.67    0.17
  -7   3  10    0.64    0.11
   6  -3 -10    5.09    0.28
  -6   3  10    5.39    0.23
  -6   3  10    5.32    0.15
   5  -3 -10    3.32    0.19
  -5   3  10    3.52    0.16
  -5   3  10    3.44    0.11
   4  -3 -10    0.62    0.10
  -4   3  10    0.36    0.05
  -4   3  10    0.45    0.08
   3  -3 -10   14.74    0.44
  -3   3  10   15.02    0.40
   2  -3 -10   27.65    0.73
  -2   3  10   27.05    0.68
   1  -3 -10   19.44    0.51
  -1   3  10   18.78    0.47
  -1   3  10   18.11    0.47
   0  -3 -10    0.44    0.07
   0   3  10    0.47    0.06
   0   3  10    0.39    0.05
  -1  -3 -10   43.16    1.09
   1   3  10   42.30    1.04
   1   3  10   43.28    1.02
  -2  -3 -10   54.65    1.36
   2   3  10   53.49    1.30
   2   3  10   52.88    1.27
  -3  -3 -10    3.62    0.17
   3   3  10    3.95    0.17
  -4  -3 -10    3.66    0.17
   4   3  10    3.99    0.18
  -5  -3 -10    0.50    0.10
   5   3  10    0.34    0.10
  -6  -3 -10    0.49    0.11
   6   3  10    0.45    0.12
  -7  -3 -10    0.67    0.13
   7   3  10    0.52    0.12
   8   3  10    0.38    0.15
   6  -4 -10   31.51    0.89
  -6   4  10   31.69    0.54
  -6   4  10   32.32    0.82
   5  -4 -10    1.06    0.16
  -5   4  10    0.77    0.08
  -5   4  10    0.80    0.12
   4  -4 -10   60.62    1.56
  -4   4  10   61.43    0.97
  -4   4  10   61.30    1.48
   3  -4 -10   89.88    2.25
  -3   4  10   89.56    2.13
  -3   4  10   90.16    1.40
   2  -4 -10    5.28    0.22
  -2   4  10    5.91    0.19
   1  -4 -10  581.68   14.43
  -1   4  10  580.19   13.81
  -1   4  10  597.06   13.68
   0  -4 -10   10.79    0.32
   0   4  10   10.69    0.28
   0   4  10   10.53    0.29
  -1  -4 -10   56.55    1.44
   1   4  10   57.55    1.38
   1   4  10   57.49    1.35
  -2  -4 -10   30.72    0.82
   2   4  10   31.89    0.78
  -4  -4 -10   23.78    0.66
   4   4  10   24.11    0.63
  -5  -4 -10    9.80    0.33
   5   4  10    9.13    0.31
  -6  -4 -10    6.02    0.26
   6   4  10    5.75    0.24
  -7  -4 -10    1.05    0.15
   7   4  10    1.07    0.18
  -8  -4 -10    4.23    0.27
   8   4  10    4.20    0.27
  -6   5  10    3.83    0.14
  -6   5  10    4.09    0.21
   5  -5 -10    2.35    0.20
  -5   5  10    2.35    0.12
  -5   5  10    2.46    0.17
  -4   5  10    0.73    0.08
  -4   5  10    0.70    0.11
   3  -5 -10    0.12    0.10
  -3   5  10   -0.07    0.05
  -3   5  10   -0.05    0.08
   2  -5 -10    0.43    0.10
  -2   5  10    0.39    0.07
  -2   5  10    0.25    0.05
   1  -5 -10    0.91    0.12
  -1   5  10    0.80    0.10
  -1   5  10    0.77    0.12
   0  -5 -10   43.56    1.14
   0   5  10   44.71    1.06
   0   5  10   45.39    1.08
  -1  -5 -10    1.82    0.13
   1   5  10    2.02    0.13
  -2  -5 -10   65.21    1.63
   2   5  10   63.42    1.55
  -3  -5 -10   19.94    0.55
   3   5  10   18.98    0.52
  -4  -5 -10    2.13    0.17
   4   5  10    2.37    0.14
  -5  -5 -10    0.50    0.12
   5   5  10    0.52    0.11
  -6  -5 -10    0.05    0.12
   6   5  10    0.02    0.10
  -7  -5 -10    0.50    0.15
   7   5  10    0.51    0.15
  -8  -5 -10    1.64    0.24
  -6   6  10    0.05    0.13
  -6   6  10   -0.08    0.08
  -5   6  10   10.86    0.36
  -5   6  10   10.70    0.23
   4  -6 -10    6.27    0.28
  -4   6  10    6.16    0.16
  -4   6  10    6.18    0.24
   3  -6 -10    1.52    0.17
  -3   6  10    1.58    0.14
  -3   6  10    1.32    0.10
   2  -6 -10    0.43    0.11
  -2   6  10    0.50    0.09
  -2   6  10    0.47    0.06
   1  -6 -10   39.46    1.02
  -1   6  10   39.19    0.97
   0  -6 -10   12.35    0.37
   0   6  10   12.04    0.35
  -1  -6 -10    1.17    0.13
   1   6  10    1.32    0.12
  -2  -6 -10    0.86    0.12
   2   6  10    0.90    0.12
  -3  -6 -10    0.26    0.09
   3   6  10    0.24    0.09
  -4  -6 -10    0.79    0.14
   4   6  10    0.87    0.14
  -5  -6 -10   14.06    0.45
   5   6  10   14.10    0.44
  -6  -6 -10    0.05    0.13
   6   6  10    0.72    0.14
  -7  -6 -10    8.04    0.33
   7   6  10    7.54    0.34
  -5   7  10    0.11    0.13
  -5   7  10    0.18    0.09
  -4   7  10    1.01    0.17
  -4   7  10    1.04    0.11
   3  -7 -10   -0.01    0.12
  -3   7  10   -0.02    0.06
  -3   7  10    0.00    0.10
   2  -7 -10    0.38    0.12
   1  -7 -10   24.37    0.66
  -1   7  10   23.57    0.62
   0  -7 -10    5.98    0.23
   0   7  10    6.10    0.23
  -1  -7 -10    5.39    0.23
   1   7  10    5.42    0.21
  -2  -7 -10    0.25    0.10
   2   7  10    0.27    0.10
  -3  -7 -10    2.34    0.18
   3   7  10    2.32    0.15
  -4  -7 -10    9.33    0.34
   4   7  10    9.10    0.32
  -5  -7 -10    3.55    0.24
   5   7  10    3.70    0.22
  -6  -7 -10    2.49    0.21
   6   7  10    2.11    0.21
   2  -8 -10    8.59    0.32
   1  -8 -10    0.10    0.11
  -1   8  10    0.10    0.11
   0  -8 -10   22.71    0.64
   0   8  10   22.94    0.61
  -1  -8 -10    1.31    0.15
   1   8  10    1.54    0.15
  -2  -8 -10   47.90    1.25
   2   8  10   47.78    1.20
  -3  -8 -10    0.96    0.15
   3   8  10    1.24    0.16
  -4  -8 -10   17.65    0.54
   4   8  10   17.55    0.52
  -5  -8 -10   13.92    0.47
   5   8  10   13.39    0.45
   1  -9 -10    2.71    0.21
   0  -9 -10    0.88    0.14
   0   9  10    1.10    0.16
  -1  -9 -10    0.68    0.14
   1   9  10    0.66    0.14
  -2  -9 -10    0.77    0.15
   2   9  10    0.74    0.12
  -3  -9 -10    0.09    0.15
   3   9  10    0.07    0.12
  -4  -9 -10    0.41    0.17
   4   9  10    0.42    0.15
   0 -10 -10    0.26    0.15
   0  10  10    0.42    0.16
  -1 -10 -10    7.45    0.32
   1  10  10    7.66    0.31
  -2 -10 -10    6.81    0.32
   1   9 -11    0.63    0.16
   0   9 -11    3.26    0.22
  -1   9 -11    0.62    0.15
   1  -9  11    0.59    0.18
  -2   9 -11    3.22    0.23
   2  -9  11    2.91    0.28
   3  -9  11    6.54    0.36
  -4  -8  11    3.47    0.30
   1   8 -11   10.49    0.35
   0   8 -11    0.20    0.12
   0  -8  11    0.00    0.13
  -1   8 -11    5.99    0.26
   1  -8  11    5.37    0.28
  -2   8 -11   21.92    0.60
   2  -8  11   20.90    0.63
  -3   8 -11    0.40    0.13
   3  -8  11    0.17    0.15
  -4   8 -11    6.33    0.27
   4  -8  11    6.42    0.33
   5   7 -11    0.07    0.19
   4   7 -11    0.43    0.15
   3   7 -11    1.17    0.17
  -2  -7  11    0.50    0.12
   1   7 -11   23.47    0.62
  -1  -7  11   23.16    0.63
   0   7 -11   21.94    0.59
   0  -7  11   21.83    0.61
  -1   7 -11    8.71    0.30
   1  -7  11    8.82    0.34
  -2   7 -11   37.03    0.93
   2  -7  11   36.11    0.95
  -3   7 -11    0.91    0.15
   3  -7  11    0.60    0.13
  -4   7 -11    6.96    0.26
   4  -7  11    6.40    0.30
  -5   7 -11    8.63    0.30
   5  -7  11    8.94    0.37
   5   6 -11   16.02    0.55
   4   6 -11    8.67    0.34
   3   6 -11    2.70    0.22
  -3  -6  11    2.97    0.16
   2   6 -11   20.93    0.60
  -2  -6  11   20.21    0.55
   1   6 -11    2.56    0.16
  -1  -6  11    2.12    0.18
   0   6 -11    5.40    0.22
   0  -6  11    4.86    0.22
  -1   6 -11   10.14    0.31
   1  -6  11   10.35    0.35
  -2   6 -11    5.99    0.22
   2  -6  11    6.00    0.26
  -3   6 -11    9.94    0.30
   3  -6  11    9.73    0.34
  -4   6 -11    1.59    0.13
   4  -6  11    1.59    0.17
  -5   6 -11    4.15    0.20
   5  -6  11    4.11    0.25
  -6   6 -11    0.11    0.12
   6  -6  11   -0.10    0.14
   6   5 -11    0.08    0.17
   5   5 -11    0.68    0.15
   4   5 -11    5.07    0.25
  -4  -5  11    5.01    0.19
   3   5 -11    4.52    0.23
  -3  -5  11    4.67    0.18
   2   5 -11   12.14    0.39
  -2  -5  11   12.61    0.35
   1   5 -11   26.72    0.67
   1   5 -11   26.76    0.72
  -1  -5  11   26.08    0.68
   0   5 -11    5.30    0.19
   0  -5  11    5.14    0.21
  -1   5 -11   14.53    0.40
   1  -5  11   14.72    0.43
  -2   5 -11   14.76    0.42
   2  -5  11   16.02    0.45
  -3   5 -11    7.46    0.25
   3  -5  11    7.32    0.28
  -4   5 -11    5.14    0.21
   4  -5  11    5.05    0.23
  -5   5 -11    0.18    0.09
   5  -5  11    0.40    0.13
  -6   5 -11    2.45    0.17
   6  -5  11    2.37    0.20
  -7   5 -11    1.60    0.17
   7  -5  11    1.61    0.23
   6   4 -11    1.76    0.22
   5   4 -11   20.88    0.63
  -5  -4  11   21.25    0.54
   4   4 -11   13.25    0.43
  -4  -4  11   12.90    0.36
   3   4 -11   34.58    0.92
  -3  -4  11   33.62    0.84
   2   4 -11   12.52    0.38
  -2  -4  11   12.04    0.34
   1   4 -11   30.59    0.74
   1   4 -11   29.74    0.79
  -1  -4  11   29.54    0.75
   0   4 -11    2.30    0.14
   0   4 -11    2.66    0.13
   0  -4  11    2.14    0.15
  -1   4 -11   27.42    0.69
   1  -4  11   27.62    0.71
  -2   4 -11   20.58    0.53
   2  -4  11   20.21    0.55
  -3   4 -11   20.94    0.54
   3  -4  11   20.53    0.57
  -4   4 -11   19.03    0.51
   4  -4  11   19.42    0.55
  -5   4 -11    0.10    0.09
   5  -4  11    0.02    0.11
  -6   4 -11    1.09    0.14
   6  -4  11    1.33    0.17
  -7   4 -11    4.11    0.21
   7  -4  11    3.70    0.25
   8  -4  11    0.41    0.18
   7   3 -11    1.31    0.22
   6   3 -11    2.09    0.21
  -6  -3  11    2.01    0.14
   5   3 -11    0.10    0.10
  -5  -3  11    0.19    0.07
   4   3 -11    1.17    0.16
  -4  -3  11    1.10    0.10
   3   3 -11    0.30    0.09
  -3  -3  11    0.01    0.05
   2   3 -11    3.72    0.18
  -2  -3  11    3.97    0.15
   1   3 -11  127.29    3.26
   1   3 -11  136.09    3.11
  -1  -3  11  132.21    3.09
   0   3 -11    4.14    0.15
   0   3 -11    4.04    0.16
   0  -3  11    4.03    0.16
  -1   3 -11    0.76    0.10
   1  -3  11    0.65    0.10
  -2   3 -11   10.76    0.31
   2  -3  11   10.78    0.33
  -3   3 -11    9.81    0.29
   3  -3  11   10.07    0.32
  -4   3 -11    4.74    0.19
   4  -3  11    4.83    0.22
  -5   3 -11   14.69    0.42
   5  -3  11   15.29    0.45
  -6   3 -11    2.72    0.16
   6  -3  11    2.83    0.19
  -7   3 -11    8.16    0.30
   7  -3  11    8.30    0.33
  -8   3 -11    0.22    0.12
   8  -3  11    0.00    0.16
   7   2 -11    3.68    0.27
  -7  -2  11    3.99    0.19
   6   2 -11    9.12    0.36
  -6  -2  11    9.75    0.29
   5   2 -11   13.40    0.44
  -5  -2  11   13.01    0.36
   4   2 -11    0.66    0.12
  -4  -2  11    0.92    0.10
   3   2 -11    1.43    0.14
  -3  -2  11    1.38    0.09
   2   2 -11    1.67    0.14
  -2  -2  11    1.39    0.10
   1   2 -11    5.15    0.21
   1   2 -11    6.51    0.17
  -1  -2  11    5.52    0.18
   0   2 -11    5.51    0.17
   0   2 -11    5.65    0.19
   0  -2  11    5.42    0.18
  -1   2 -11   72.84    1.83
  -1   2 -11   73.68    1.75
   1  -2  11   74.30    1.75
  -2   2 -11   72.08    1.70
  -2   2 -11   69.36    1.76
   2  -2  11   71.76    1.70
  -3   2 -11   92.68    2.24
   3  -2  11   95.51    2.24
  -4   2 -11  200.34    4.72
   4  -2  11  199.73    4.70
  -5   2 -11    0.48    0.09
   5  -2  11    0.35    0.11
  -6   2 -11   19.91    0.55
   6  -2  11   20.33    0.57
  -7   2 -11   16.54    0.48
   7  -2  11   17.04    0.51
  -8   2 -11    0.14    0.14
   8  -2  11   -0.12    0.14
   7   1 -11    0.97    0.19
  -7  -1  11    0.81    0.12
   6   1 -11    0.02    0.13
  -6  -1  11    0.06    0.08
   5   1 -11    2.72    0.19
  -5  -1  11    2.45    0.14
   4   1 -11    1.16    0.13
  -4  -1  11    1.18    0.09
   3   1 -11   12.16    0.38
  -3  -1  11   12.62    0.33
   2   1 -11    6.47    0.24
  -2  -1  11    6.79    0.20
   1   1 -11    9.70    0.29
  -1  -1  11    9.34    0.26
   0   1 -11    0.34    0.05
   0   1 -11    0.47    0.07
   0  -1  11    0.25    0.05
  -1   1 -11   15.70    0.42
  -1   1 -11   16.00    0.41
   1  -1  11   15.86    0.42
  -2   1 -11   25.44    0.64
  -2   1 -11   25.67    0.66
   2  -1  11   25.57    0.65
  -3   1 -11    4.36    0.15
  -3   1 -11    4.37    0.17
   3  -1  11    4.69    0.19
  -4   1 -11   63.17    1.55
   4  -1  11   64.99    1.55
  -5   1 -11   44.64    1.10
   5  -1  11   43.20    1.09
  -6   1 -11    6.39    0.24
   6  -1  11    6.41    0.26
  -7   1 -11    6.18    0.26
   7  -1  11    6.11    0.27
  -8   1 -11    0.21    0.13
   7   0 -11    2.93    0.26
  -7   0  11    2.88    0.18
   6   0 -11   19.19    0.58
  -6   0  11   18.75    0.51
   5   0 -11    3.64    0.21
  -5   0  11    3.48    0.16
   4   0 -11    3.58    0.19
  -4   0  11    3.45    0.14
   3   0 -11    3.42    0.17
  -3   0  11    3.14    0.14
   2   0 -11   60.62    1.55
  -2   0  11   61.77    1.45
   1   0 -11   15.14    0.40
  -1   0  11   13.42    0.36
   0   0 -11  194.56    4.84
   0   0 -11  201.71    4.64
   0   0  11  192.98    4.58
  -1   0 -11  128.28    3.20
   1   0  11  128.67    3.04
   1   0  11  132.38    3.07
  -2   0 -11    5.01    0.17
   2   0  11    4.99    0.18
   2   0  11    5.26    0.18
  -3   0 -11  377.72    8.83
   3   0  11  350.63    8.46
   3   0  11  349.92    8.42
  -4   0 -11  127.76    3.08
   4   0  11  123.03    2.97
   4   0  11  123.45    2.94
   5   0  11   63.57    1.55
   5   0  11   64.55    1.57
   6   0  11    3.56    0.21
   6   0  11    3.41    0.18
  -7   0 -11    3.20    0.19
  -8   0 -11    0.13    0.13
   7  -1 -11    0.08    0.14
  -7   1  11    0.15    0.09
   6  -1 -11    0.54    0.15
  -6   1  11    0.29    0.10
   5  -1 -11    2.64    0.17
  -5   1  11    2.41    0.13
   4  -1 -11   23.71    0.66
  -4   1  11   24.16    0.61
   3  -1 -11    2.42    0.16
  -3   1  11    2.05    0.11
   2  -1 -11   22.83    0.62
  -2   1  11   22.93    0.57
   1  -1 -11    0.72    0.09
  -1   1  11    0.93    0.07
   0  -1 -11    9.75    0.29
   0   1  11    9.60    0.26
   0   1  11    9.89    0.26
   1   1  11    2.70    0.12
   1   1  11    2.62    0.11
  -2  -1 -11    0.59    0.09
   2   1  11    0.80    0.09
   2   1  11    0.52    0.09
  -3  -1 -11    1.53    0.11
   3   1  11    1.61    0.11
   3   1  11    1.80    0.11
  -4  -1 -11    9.14    0.28
   4   1  11    8.84    0.27
   4   1  11    9.14    0.28
  -5  -1 -11   78.14    1.96
   5   1  11   79.53    1.91
   5   1  11   78.52    1.88
   6   1  11   12.44    0.39
   7   1  11    1.23    0.17
   8   1  11    3.56    0.24
   7  -2 -11    0.05    0.16
  -7   2  11   -0.05    0.09
   6  -2 -11    0.42    0.14
  -6   2  11    0.48    0.10
   5  -2 -11    0.47    0.12
  -5   2  11    0.69    0.10
   4  -2 -11    7.42    0.27
  -4   2  11    7.51    0.24
   3  -2 -11   39.64    1.02
  -3   2  11   38.74    0.95
   2  -2 -11    7.16    0.25
  -2   2  11    6.87    0.21
   1  -2 -11   84.46    2.10
  -1   2  11   83.89    1.98
   0  -2 -11   13.59    0.35
   0   2  11   11.75    0.32
   0   2  11   11.46    0.31
  -1  -2 -11    4.18    0.15
   1   2  11    4.20    0.15
   1   2  11    4.16    0.13
  -2  -2 -11   22.06    0.59
   2   2  11   22.13    0.55
   2   2  11   22.85    0.57
  -3  -2 -11   16.91    0.47
   3   2  11   16.74    0.44
   3   2  11   17.43    0.45
  -4  -2 -11    0.06    0.08
   4   2  11    0.24    0.08
  -5  -2 -11   11.62    0.36
   5   2  11   11.53    0.36
  -6  -2 -11    0.10    0.10
   6   2  11   -0.02    0.10
   7   2  11   10.07    0.35
   8   2  11    0.18    0.15
   7  -3 -11    5.16    0.31
  -7   3  11    5.65    0.23
   6  -3 -11   17.12    0.54
  -6   3  11   16.98    0.48
   5  -3 -11    0.42    0.12
  -5   3  11    0.52    0.08
   4  -3 -11    1.69    0.17
  -4   3  11    1.99    0.13
   3  -3 -11   -0.15    0.08
  -3   3  11   -0.04    0.06
   2  -3 -11    3.30    0.17
  -2   3  11    3.52    0.14
   1  -3 -11  130.92    3.23
  -1   3  11  130.07    3.05
   0  -3 -11   26.11    0.70
   0   3  11   26.31    0.65
   0   3  11   27.21    0.65
  -1  -3 -11   36.67    0.94
   1   3  11   35.91    0.90
   1   3  11   37.72    0.88
  -2  -3 -11    4.57    0.17
   2   3  11    4.51    0.14
   2   3  11    4.73    0.17
  -3  -3 -11    9.98    0.31
   3   3  11    9.72    0.29
  -4  -3 -11    5.54    0.21
   4   3  11    5.80    0.21
  -5  -3 -11   28.21    0.77
   5   3  11   28.95    0.75
  -6  -3 -11    2.18    0.17
   6   3  11    1.66    0.16
  -7  -3 -11    1.50    0.18
   7   3  11    1.13    0.18
   8   3  11    0.00    0.16
   6  -4 -11    0.25    0.17
  -6   4  11    0.21    0.11
   5  -4 -11    9.50    0.35
  -5   4  11    9.39    0.30
  -5   4  11   10.06    0.20
   4  -4 -11    2.11    0.18
  -4   4  11    2.05    0.13
  -4   4  11    2.00    0.09
   3  -4 -11   54.43    1.41
  -3   4  11   55.18    1.32
   2  -4 -11   21.18    0.58
  -2   4  11   21.15    0.54
   1  -4 -11   20.16    0.56
  -1   4  11   20.47    0.51
   0  -4 -11   74.82    1.86
   0   4  11   72.13    1.76
   0   4  11   74.80    1.74
  -1  -4 -11    3.12    0.15
   1   4  11    3.08    0.11
   1   4  11    2.84    0.14
  -2  -4 -11   34.79    0.91
   2   4  11   35.22    0.87
  -4  -4 -11   26.74    0.72
   4   4  11   26.32    0.69
  -5  -4 -11   11.70    0.37
   5   4  11   11.68    0.37
  -6  -4 -11   24.19    0.67
   6   4  11   22.94    0.65
  -7  -4 -11    8.75    0.33
   7   4  11    8.17    0.32
   8   4  11   10.22    0.40
  -6   5  11    2.12    0.13
  -6   5  11    2.16    0.18
   5  -5 -11   13.34    0.45
  -5   5  11   13.79    0.41
  -5   5  11   13.97    0.27
   4  -5 -11    0.28    0.12
  -4   5  11    0.32    0.06
  -4   5  11    0.38    0.09
   3  -5 -11   45.41    1.17
  -3   5  11   44.24    0.72
  -3   5  11   44.18    1.09
   2  -5 -11   21.45    0.60
  -2   5  11   21.50    0.55
   1  -5 -11   39.30    1.02
  -1   5  11   38.68    0.95
   0  -5 -11   35.73    0.91
   0   5  11   34.20    0.86
  -1  -5 -11   29.28    0.79
   1   5  11   30.37    0.75
  -2  -5 -11    0.21    0.08
   2   5  11    0.17    0.08
  -3  -5 -11    4.85    0.20
   3   5  11    4.88    0.19
  -4  -5 -11    0.75    0.13
   4   5  11    1.08    0.14
  -5  -5 -11    2.49    0.19
   5   5  11    2.38    0.18
  -6  -5 -11    2.01    0.19
   6   5  11    1.86    0.19
  -7  -5 -11    1.39    0.21
   7   5  11    1.59    0.18
  -8  -5 -11    0.71    0.18
  -5   6  11    1.80    0.17
  -5   6  11    1.64    0.12
   4  -6 -11    2.04    0.23
  -4   6  11    2.97    0.12
  -4   6  11    2.87    0.17
   3  -6 -11    7.46    0.29
  -3   6  11    7.34    0.25
  -3   6  11    7.14    0.17
   2  -6 -11    2.44    0.17
  -2   6  11    2.28    0.14
  -2   6  11    2.47    0.10
   1  -6 -11   27.10    0.73
   0  -6 -11   14.47    0.43
   0   6  11   14.16    0.40
  -1  -6 -11    8.52    0.29
   1   6  11    8.84    0.27
  -2  -6 -11   38.95    1.03
   2   6  11   39.43    0.98
  -3  -6 -11   20.70    0.58
   3   6  11   19.82    0.55
  -4  -6 -11    1.43    0.17
   4   6  11    1.43    0.14
  -5  -6 -11    6.26    0.26
   5   6  11    6.23    0.26
  -6  -6 -11    3.84    0.24
   6   6  11    3.57    0.23
  -7  -6 -11    0.17    0.17
   7   6  11    0.07    0.16
  -5   7  11    1.81    0.13
  -5   7  11    1.74    0.19
  -4   7  11    0.32    0.08
  -4   7  11    0.29    0.12
   3  -7 -11    0.48    0.14
  -3   7  11    0.29    0.10
  -3   7  11    0.25    0.07
   2  -7 -11    1.95    0.18
   1  -7 -11   22.04    0.62
   0  -7 -11    1.17    0.14
   0   7  11    0.88    0.13
  -1  -7 -11    7.04    0.26
   1   7  11    7.48    0.25
  -2  -7 -11    5.08    0.23
   2   7  11    4.96    0.21
  -3  -7 -11    2.39    0.17
   3   7  11    2.29    0.17
  -4  -7 -11    2.29    0.18
   4   7  11    2.58    0.19
  -5  -7 -11    1.39    0.17
   5   7  11    1.09    0.16
  -6  -7 -11    1.99    0.23
   6   7  11    1.64    0.19
   2  -8 -11    6.15    0.28
   0  -8 -11   28.37    0.77
   0   8  11   27.51    0.73
  -1  -8 -11   12.85    0.41
   1   8  11   13.31    0.39
  -2  -8 -11   39.08    1.02
   2   8  11   36.80    0.97
  -3  -8 -11   27.99    0.78
   3   8  11   27.72    0.75
  -4  -8 -11   -0.06    0.14
   4   8  11    0.00    0.13
  -5  -8 -11    7.40    0.33
   5   8  11    7.23    0.30
   1  -9 -11    2.24    0.22
   0  -9 -11    2.22    0.20
   0   9  11    2.21    0.18
  -1  -9 -11    0.59    0.14
   1   9  11    0.62    0.14
  -2  -9 -11    0.03    0.13
   2   9  11    0.04    0.13
  -3  -9 -11    1.67    0.21
   3   9  11    1.41    0.19
   0 -10 -11    7.67    0.33
  -1 -10 -11    0.01    0.15
   0   9 -12    9.56    0.35
  -1   9 -12    8.35    0.32
   1  -9  12    8.42    0.37
  -2   9 -12    1.69    0.22
   2  -9  12    1.63    0.26
  -4  -8  12    0.99    0.22
   0   8 -12    8.14    0.30
   0  -8  12    8.14    0.34
  -1   8 -12    5.26    0.25
   1  -8  12    5.24    0.27
  -2   8 -12    5.40    0.25
   2  -8  12    5.62    0.30
  -3   8 -12    7.62    0.29
   3  -8  12    7.22    0.34
   4   7 -12    0.27    0.16
  -2  -7  12   10.47    0.35
  -1  -7  12    0.14    0.12
   0   7 -12   31.11    0.80
   0  -7  12   30.62    0.82
  -1   7 -12    9.88    0.33
   1  -7  12    9.56    0.36
  -2   7 -12    0.11    0.11
   2  -7  12    0.10    0.11
  -3   7 -12   15.50    0.44
   3  -7  12   14.48    0.48
  -4   7 -12    1.52    0.15
   4  -7  12    1.58    0.20
  -5   7 -12    3.95    0.22
   5  -7  12    3.95    0.28
   5   6 -12    0.74    0.19
   4   6 -12    5.56    0.28
   3   6 -12   12.65    0.43
  -3  -6  12   12.41    0.37
   2   6 -12    2.02    0.19
  -2  -6  12    2.13    0.16
  -1  -6  12   35.15    0.90
   0   6 -12    0.49    0.10
   0  -6  12    0.36    0.11
  -1   6 -12    1.76    0.14
   1  -6  12    1.68    0.18
  -3   6 -12    0.10    0.10
   3  -6  12    0.10    0.11
  -4   6 -12    0.16    0.11
   4  -6  12    0.03    0.13
  -5   6 -12    2.24    0.17
   5  -6  12    2.02    0.20
  -6   6 -12    3.06    0.20
   6  -6  12    3.05    0.24
   5   5 -12    2.15    0.20
   4   5 -12    1.28    0.18
  -4  -5  12    1.17    0.12
   3   5 -12   15.24    0.48
  -3  -5  12   15.90    0.43
   2   5 -12   20.53    0.59
  -2  -5  12   20.24    0.54
   1   5 -12   17.47    0.51
  -1  -5  12   17.74    0.48
   0   5 -12   69.23    1.68
   0  -5  12   70.84    1.70
  -1   5 -12    5.79    0.20
   1  -5  12    5.81    0.24
  -2   5 -12    7.47    0.25
   2  -5  12    7.92    0.29
  -3   5 -12    1.70    0.14
   3  -5  12    1.68    0.16
  -4   5 -12    7.09    0.25
   4  -5  12    6.87    0.29
  -5   5 -12    1.51    0.13
   5  -5  12    1.42    0.20
  -6   5 -12    9.66    0.32
   6  -5  12    9.79    0.38
   7  -5  12    1.73    0.22
   6   4 -12    2.21    0.24
   5   4 -12   13.98    0.47
  -5  -4  12   14.03    0.39
   4   4 -12    6.58    0.28
  -4  -4  12    6.58    0.22
   3   4 -12    0.27    0.11
  -3  -4  12    0.31    0.08
   2   4 -12   20.76    0.59
  -2  -4  12   20.94    0.54
   1   4 -12    9.82    0.32
  -1  -4  12    9.88    0.29
   0   4 -12   51.06    1.24
   0   4 -12   50.76    1.31
   0  -4  12   52.66    1.26
  -1   4 -12    4.02    0.16
   1  -4  12    3.90    0.19
  -2   4 -12    8.48    0.26
   2  -4  12    8.91    0.29
  -3   4 -12    6.96    0.23
   3  -4  12    7.25    0.27
  -4   4 -12    6.60    0.24
   4  -4  12    6.60    0.27
  -5   4 -12   23.23    0.63
   5  -4  12   24.48    0.67
  -6   4 -12    0.70    0.12
   6  -4  12    0.94    0.14
  -7   4 -12    0.04    0.12
   7  -4  12   -0.05    0.15
   6   3 -12    4.81    0.28
  -6  -3  12    4.80    0.20
   5   3 -12    0.87    0.15
  -5  -3  12    0.64    0.09
   4   3 -12   -0.04    0.11
  -4  -3  12    0.05    0.07
   3   3 -12    8.29    0.30
  -3  -3  12    8.30    0.25
   2   3 -12    0.95    0.14
  -2  -3  12    1.08    0.10
   1   3 -12    9.98    0.31
  -1  -3  12    9.54    0.28
   0   3 -12    1.79    0.11
   0  -3  12    1.74    0.13
  -1   3 -12    0.19    0.06
  -1   3 -12    0.09    0.06
   1  -3  12    0.00    0.06
  -2   3 -12   83.35    1.96
   2  -3  12   81.11    1.97
  -3   3 -12    9.41    0.28
   3  -3  12    8.83    0.30
  -4   3 -12   15.43    0.42
   4  -3  12   14.94    0.44
  -5   3 -12   35.21    0.90
   5  -3  12   36.00    0.93
  -6   3 -12    1.38    0.15
   6  -3  12    1.32    0.20
  -7   3 -12    1.64    0.15
   7  -3  12    1.40    0.20
   8  -3  12    0.31    0.17
   7   2 -12    6.82    0.33
  -7  -2  12    7.48    0.26
   6   2 -12    4.55    0.27
  -6  -2  12    4.49    0.19
   5   2 -12   10.36    0.37
  -5  -2  12    9.99    0.30
   4   2 -12    0.15    0.10
  -4  -2  12    0.11    0.06
   3   2 -12   36.00    0.95
  -3  -2  12   35.68    0.87
   2   2 -12    0.32    0.08
  -2  -2  12    0.19    0.05
   1   2 -12  182.83    4.44
  -1  -2  12  177.30    4.20
   0   2 -12   90.10    2.27
   0   2 -12   90.67    2.16
   0  -2  12   92.88    2.16
  -1   2 -12   12.47    0.33
  -1   2 -12   12.24    0.35
   1  -2  12   12.17    0.35
  -2   2 -12  125.64    2.95
  -2   2 -12  123.36    3.07
   2  -2  12  124.19    2.94
  -3   2 -12    1.48    0.12
   3  -2  12    1.57    0.14
  -4   2 -12   47.87    1.17
   4  -2  12   47.15    1.18
  -5   2 -12   44.22    1.10
   5  -2  12   44.06    1.11
  -6   2 -12   -0.03    0.09
   6  -2  12   -0.01    0.12
  -7   2 -12    5.83    0.24
   7  -2  12    5.98    0.28
  -8   2 -12    0.25    0.13
   8  -2  12    0.39    0.15
   7   1 -12    0.03    0.16
  -7  -1  12    0.00    0.09
   6   1 -12    8.30    0.35
  -6  -1  12    8.11    0.27
   5   1 -12    8.05    0.32
  -5  -1  12    8.38    0.25
   4   1 -12    3.09    0.17
  -4  -1  12    3.16    0.14
   3   1 -12   55.97    1.43
  -3  -1  12   55.54    1.33
   2   1 -12   34.88    0.91
  -2  -1  12   34.68    0.84
   1   1 -12    0.25    0.07
  -1  -1  12    0.16    0.06
   0   1 -12    7.08    0.22
   0   1 -12    6.60    0.19
   0  -1  12    6.34    0.20
  -1   1 -12    0.02    0.05
  -1   1 -12    0.03    0.05
   1  -1  12    0.19    0.05
  -2   1 -12   41.59    1.04
  -2   1 -12   40.83    1.00
   2  -1  12   41.27    1.01
  -3   1 -12   60.98    1.53
  -3   1 -12   61.73    1.48
   3  -1  12   61.20    1.48
  -4   1 -12    0.97    0.13
   4  -1  12    0.66    0.10
  -5   1 -12   97.61    2.34
   5  -1  12   96.97    2.33
  -6   1 -12    2.52    0.16
   6  -1  12    1.95    0.20
  -7   1 -12    2.25    0.17
   7  -1  12    2.27    0.20
  -8   1 -12    2.40    0.20
   7   0 -12    0.54    0.18
  -7   0  12    0.57    0.11
   6   0 -12    6.33    0.29
  -6   0  12    6.15    0.23
   5   0 -12    0.10    0.10
  -5   0  12   -0.03    0.06
   4   0 -12    6.59    0.26
  -4   0  12    6.73    0.22
   3   0 -12   17.02    0.49
  -3   0  12   16.72    0.44
   2   0 -12    3.79    0.17
  -2   0  12    4.10    0.15
   1   0 -12  295.43    7.29
  -1   0  12  294.53    6.90
   0   0 -12  147.14    3.70
   0   0 -12  153.41    3.54
   0   0  12  149.58    3.50
  -1   0 -12   73.03    1.80
  -1   0 -12   72.76    1.72
   1   0  12   70.63    1.71
  -2   0 -12   68.11    1.71
   2   0  12   68.28    1.64
   2   0  12   69.66    1.65
  -3   0 -12    1.88    0.12
   3   0  12    2.16    0.14
   3   0  12    2.10    0.14
  -4   0 -12   18.31    0.49
   4   0  12   18.49    0.50
   4   0  12   18.77    0.50
   5   0  12    2.97    0.18
   5   0  12    2.32    0.16
   6   0  12    2.06    0.20
   6   0  12    2.18    0.18
  -7   0 -12    8.33    0.31
  -8   0 -12    0.61    0.13
   7  -1 -12    3.13    0.28
  -7   1  12    3.29    0.19
   6  -1 -12    7.43    0.32
  -6   1  12    7.29    0.26
   5  -1 -12    5.61    0.26
  -5   1  12    5.64    0.20
   4  -1 -12    1.82    0.16
  -4   1  12    1.71    0.12
   3  -1 -12    0.82    0.12
  -3   1  12    0.60    0.09
   2  -1 -12    1.43    0.12
  -2   1  12    1.47    0.10
   1  -1 -12   15.68    0.44
  -1   1  12   15.65    0.40
   0  -1 -12    4.13    0.16
   0   1  12    4.04    0.14
   0   1  12    3.79    0.14
  -1  -1 -12   44.73    1.16
   1   1  12   45.87    1.10
   1   1  12   47.14    1.11
  -2  -1 -12   32.50    0.82
   2   1  12   31.82    0.78
   2   1  12   31.90    0.80
  -3  -1 -12    1.34    0.11
   3   1  12    1.57    0.12
   3   1  12    1.25    0.13
  -4  -1 -12    2.57    0.14
   4   1  12    2.70    0.16
   4   1  12    2.58    0.15
  -5  -1 -12    2.59    0.17
   5   1  12    2.40    0.16
   6   1  12    6.64    0.27
   7   1  12    5.97    0.27
   8   1  12    5.80    0.29
   7  -2 -12    4.13    0.30
   6  -2 -12   13.76    0.46
  -6   2  12   12.97    0.39
   5  -2 -12   13.42    0.44
  -5   2  12   14.24    0.39
   4  -2 -12   37.32    0.99
  -4   2  12   36.70    0.91
   3  -2 -12    1.89    0.15
  -3   2  12    1.77    0.11
   2  -2 -12   68.45    1.71
  -2   2  12   66.86    1.61
   1  -2 -12  285.16    7.19
  -1   2  12  301.23    6.86
   0  -2 -12   21.06    0.59
   0   2  12   25.34    0.55
   0   2  12   20.47    0.55
  -1  -2 -12   34.40    0.90
   1   2  12   34.61    0.85
   1   2  12   36.87    0.86
  -2  -2 -12    0.50    0.08
   2   2  12    0.53    0.07
   2   2  12    0.58    0.08
  -3  -2 -12   12.33    0.36
   3   2  12   12.27    0.34
   3   2  12   12.23    0.35
  -4  -2 -12    0.31    0.08
   4   2  12    0.40    0.09
  -5  -2 -12  112.00    2.82
   5   2  12  114.96    2.73
   6   2  12    0.61    0.12
   7   2  12   19.83    0.58
   8   2  12    5.95    0.30
   7  -3 -12   -0.01    0.18
   6  -3 -12    1.59    0.20
  -6   3  12    1.78    0.16
   5  -3 -12    0.57    0.14
  -5   3  12    0.69    0.11
   4  -3 -12    0.09    0.11
  -4   3  12    0.10    0.07
   3  -3 -12    4.76    0.21
  -3   3  12    4.78    0.18
   2  -3 -12    7.43    0.27
  -2   3  12    8.68    0.24
   1  -3 -12   50.34    1.28
  -1   3  12   49.60    1.19
   0  -3 -12    0.56    0.08
   0   3  12    0.35    0.05
  -1  -3 -12    3.93    0.16
   1   3  12    4.02    0.16
   1   3  12    4.11    0.14
  -2  -3 -12    3.16    0.14
   2   3  12    2.50    0.15
   2   3  12    2.60    0.12
  -3  -3 -12    3.70    0.17
   3   3  12    3.79    0.17
  -4  -3 -12   14.17    0.41
   4   3  12   13.92    0.41
  -5  -3 -12    4.91    0.22
   5   3  12    4.94    0.22
   6   3  12    0.02    0.10
   7   3  12    1.20    0.19
   8   3  12    5.61    0.30
   6  -4 -12    1.39    0.22
  -6   4  12    1.74    0.17
   5  -4 -12   47.01    1.25
  -5   4  12   46.86    1.16
   4  -4 -12    7.00    0.28
  -4   4  12    6.24    0.22
   3  -4 -12   27.23    0.75
  -3   4  12   27.18    0.69
   2  -4 -12   31.04    0.82
  -2   4  12   30.03    0.75
   1  -4 -12    3.36    0.16
  -1   4  12    3.18    0.14
   0  -4 -12    0.93    0.12
   0   4  12    0.54    0.09
   0   4  12    0.80    0.08
  -1  -4 -12    1.46    0.11
   1   4  12    1.37    0.11
  -2  -4 -12    3.49    0.17
   2   4  12    3.66    0.16
  -3  -4 -12    0.02    0.07
   3   4  12    0.08    0.08
  -4  -4 -12   34.23    0.90
   4   4  12   33.84    0.87
  -5  -4 -12   46.58    1.20
   5   4  12   45.87    1.16
  -6  -4 -12    5.13    0.25
   6   4  12    4.80    0.23
  -7  -4 -12   18.03    0.55
   7   4  12   17.87    0.54
   5  -5 -12    2.91    0.24
  -5   5  12    3.09    0.19
   4  -5 -12   12.89    0.42
  -4   5  12   12.14    0.36
   3  -5 -12   28.23    0.78
  -3   5  12   28.59    0.72
   2  -5 -12    7.91    0.28
  -2   5  12    7.90    0.25
   1  -5 -12    0.12    0.07
   0  -5 -12   16.89    0.48
   0   5  12   16.92    0.45
  -1  -5 -12    1.59    0.14
   1   5  12    1.34    0.13
  -2  -5 -12    0.72    0.13
   2   5  12    0.90    0.12
  -3  -5 -12    0.27    0.09
   3   5  12    0.28    0.10
  -4  -5 -12    6.35    0.25
   4   5  12    6.62    0.25
  -5  -5 -12    4.41    0.22
   5   5  12    4.31    0.22
  -6  -5 -12    4.15    0.24
   6   5  12    4.00    0.23
  -7  -5 -12    1.93    0.20
   7   5  12    1.90    0.19
  -8  -5 -12    1.28    0.20
  -5   6  12    9.89    0.23
  -5   6  12   10.07    0.34
   4  -6 -12    3.41    0.24
  -4   6  12    3.72    0.20
  -4   6  12    3.59    0.13
   3  -6 -12    7.31    0.30
  -3   6  12    7.05    0.25
   2  -6 -12    0.48    0.12
  -2   6  12    0.35    0.08
   1  -6 -12    0.01    0.09
   0  -6 -12   -0.04    0.08
   0   6  12   -0.04    0.08
  -1  -6 -12   18.68    0.52
   1   6  12   17.44    0.49
  -2  -6 -12    1.27    0.13
   2   6  12    1.29    0.14
  -3  -6 -12   30.00    0.81
   3   6  12   29.54    0.78
  -4  -6 -12   16.93    0.51
   4   6  12   17.95    0.50
  -5  -6 -12    1.67    0.18
   5   6  12    1.59    0.16
  -6  -6 -12    5.67    0.28
   6   6  12    5.88    0.28
  -7  -6 -12    3.84    0.27
  -5   7  12    2.96    0.22
  -4   7  12    1.78    0.18
  -4   7  12    1.79    0.12
   3  -7 -12   12.69    0.43
   2  -7 -12    6.17    0.27
   1  -7 -12    0.12    0.11
   0  -7 -12   17.49    0.51
   0   7  12   17.06    0.47
  -1  -7 -12    3.69    0.20
   1   7  12    3.90    0.20
  -2  -7 -12   -0.01    0.11
   2   7  12   -0.08    0.10
  -3  -7 -12    4.31    0.23
   3   7  12    3.99    0.20
  -4  -7 -12    0.34    0.13
   4   7  12    0.07    0.12
  -5  -7 -12    0.31    0.15
   5   7  12    0.34    0.15
  -6  -7 -12    0.70    0.17
   6   7  12    0.63    0.17
   2  -8 -12   21.14    0.62
   1  -8 -12   11.24    0.38
   0  -8 -12   13.46    0.43
  -1  -8 -12   22.46    0.66
   1   8  12   23.84    0.63
  -2  -8 -12    0.61    0.13
   2   8  12    0.66    0.13
  -3  -8 -12   11.36    0.39
   3   8  12   11.30    0.37
  -4  -8 -12    4.01    0.24
   4   8  12    4.06    0.24
   5   8  12    0.99    0.18
   1  -9 -12    0.08    0.15
   0  -9 -12    0.86    0.16
  -1  -9 -12    0.29    0.13
   1   9  12    0.44    0.13
  -2  -9 -12    1.02    0.17
   2   9  12    1.09    0.18
  -3  -9 -12    0.50    0.16
   3   9  12    0.49    0.15
  -1   9 -13    6.00    0.28
   1  -9  13    6.04    0.35
   0  -8  13    1.36    0.22
  -1   8 -13    7.17    0.29
   1  -8  13    7.09    0.33
  -2   8 -13    0.06    0.13
   2  -8  13    0.01    0.16
  -3   8 -13    3.97    0.23
   3  -8  13    3.67    0.28
   4   7 -13    8.26    0.39
  -2  -7  13   17.53    0.51
  -1  -7  13    9.11    0.32
   0   7 -13    2.33    0.19
   0  -7  13    1.74    0.20
  -1   7 -13    8.07    0.29
   1  -7  13    7.50    0.32
  -2   7 -13    1.60    0.16
   2  -7  13    1.51    0.19
  -3   7 -13    1.90    0.17
   3  -7  13    2.23    0.23
  -4   7 -13   -0.05    0.11
   4  -7  13    0.11    0.15
   5   6 -13    5.67    0.33
   4   6 -13    0.57    0.16
   3   6 -13   12.03    0.42
  -3  -6  13   11.76    0.36
  -2  -6  13    0.35    0.11
  -1  -6  13    3.92    0.21
   0   6 -13    2.00    0.18
   0  -6  13    2.08    0.18
  -1   6 -13    5.33    0.22
   1  -6  13    5.02    0.24
  -2   6 -13    1.38    0.14
   2  -6  13    1.51    0.19
  -3   6 -13    9.50    0.30
   3  -6  13    9.74    0.37
  -4   6 -13    4.45    0.20
   4  -6  13    4.48    0.25
  -5   6 -13    0.02    0.12
   5  -6  13    0.14    0.15
   5   5 -13    0.79    0.15
   4   5 -13    4.53    0.25
  -4  -5  13    4.54    0.19
   3   5 -13    1.73    0.19
  -3  -5  13    1.53    0.14
   2   5 -13   28.57    0.77
  -2  -5  13   27.25    0.71
  -1  -5  13    4.58    0.19
   0   5 -13   28.57    0.73
   0  -5  13   29.11    0.76
  -1   5 -13    0.55    0.09
   1  -5  13    0.43    0.11
  -2   5 -13    4.88    0.19
   2  -5  13    4.76    0.24
  -3   5 -13    1.67    0.14
   3  -5  13    1.77    0.19
  -4   5 -13    6.14    0.23
   4  -5  13    5.90    0.28
  -5   5 -13    9.86    0.32
   5  -5  13    9.57    0.38
  -6   5 -13    0.98    0.16
   6  -5  13    0.73    0.16
   6   4 -13    7.50    0.34
   5   4 -13    0.42    0.15
  -5  -4  13    0.48    0.09
   4   4 -13    3.50    0.22
  -4  -4  13    3.54    0.15
   3   4 -13    0.77    0.13
  -3  -4  13    0.95    0.11
   2   4 -13    2.83    0.18
  -2  -4  13    3.08    0.15
   1   4 -13    6.48    0.26
  -1  -4  13    7.42    0.24
   0   4 -13   26.96    0.68
   0  -4  13   27.41    0.70
  -1   4 -13    7.28    0.23
   1  -4  13    7.16    0.26
  -3   4 -13   21.89    0.56
   3  -4  13   20.88    0.59
  -4   4 -13    7.09    0.25
   4  -4  13    7.16    0.29
  -5   4 -13    1.94    0.16
   5  -4  13    2.08    0.19
  -6   4 -13    0.26    0.11
   6  -4  13    0.15    0.14
  -7   4 -13    0.90    0.16
   7  -4  13    0.83    0.16
  -7  -3  13    0.58    0.12
   6   3 -13    0.34    0.16
  -6  -3  13    0.15    0.10
   5   3 -13    2.30    0.19
  -5  -3  13    2.37    0.13
   4   3 -13    0.77    0.13
  -4  -3  13    0.80    0.11
   3   3 -13    3.97    0.21
  -3  -3  13    4.15    0.16
   2   3 -13   -0.02    0.07
  -2  -3  13   -0.07    0.06
   1   3 -13    7.37    0.26
  -1  -3  13    7.74    0.24
   0   3 -13    0.33    0.07
   0   3 -13    0.46    0.08
   0  -3  13    0.30    0.08
  -1   3 -13   63.27    1.51
   1  -3  13   62.72    1.53
  -2   3 -13    2.87    0.14
   2  -3  13    2.74    0.17
  -3   3 -13   42.25    1.06
   3  -3  13   44.06    1.09
  -4   3 -13   18.84    0.52
   4  -3  13   19.69    0.55
  -5   3 -13    1.39    0.14
   5  -3  13    1.44    0.18
  -6   3 -13    3.32    0.17
   6  -3  13    3.07    0.23
  -7   3 -13   -0.04    0.11
   7  -3  13    0.05    0.15
   8  -3  13   -0.12    0.17
  -7  -2  13    0.07    0.11
   6   2 -13    5.20    0.28
  -6  -2  13    5.48    0.22
   5   2 -13    0.60    0.14
  -5  -2  13    0.54    0.09
   4   2 -13    6.08    0.27
  -4  -2  13    6.11    0.20
   3   2 -13    8.78    0.31
  -3  -2  13    8.59    0.26
   2   2 -13   56.18    1.46
  -2  -2  13   57.88    1.36
   1   2 -13   10.05    0.31
  -1  -2  13    8.92    0.27
   0   2 -13  385.30    9.00
   0   2 -13  375.24    9.40
   0  -2  13  386.31    8.97
  -1   2 -13   33.14    0.80
  -1   2 -13   31.47    0.84
   1  -2  13   33.22    0.82
  -2   2 -13   51.01    1.22
   2  -2  13   49.39    1.23
  -3   2 -13  177.39    4.15
   3  -2  13  173.88    4.13
  -4   2 -13    1.41    0.13
   4  -2  13    1.55    0.16
  -5   2 -13   43.73    1.09
   5  -2  13   43.76    1.11
  -6   2 -13   -0.08    0.11
   6  -2  13    0.10    0.10
  -7   2 -13    2.74    0.19
   7  -2  13    2.54    0.23
  -8   2 -13    0.06    0.12
   8  -2  13   -0.15    0.17
  -7  -1  13    0.09    0.11
   6   1 -13    3.23    0.25
  -6  -1  13    3.10    0.17
   5   1 -13    4.80    0.25
  -5  -1  13    5.00    0.19
   4   1 -13    0.40    0.11
  -4  -1  13    0.35    0.07
   3   1 -13   38.15    1.03
  -3  -1  13   39.23    0.94
   2   1 -13   28.13    0.76
  -2  -1  13   28.31    0.70
   1   1 -13    0.14    0.08
  -1  -1  13    0.13    0.05
   0   1 -13   65.94    1.66
   0  -1  13   66.53    1.58
  -1   1 -13   41.92    0.98
  -1   1 -13   39.22    1.02
   1  -1  13   39.82    0.98
  -2   1 -13    1.30    0.11
   2  -1  13    1.25    0.13
  -3   1 -13   52.87    1.29
   3  -1  13   52.91    1.29
  -4   1 -13   39.33    0.99
   4  -1  13   40.38    1.00
  -5   1 -13   38.31    0.96
   5  -1  13   37.28    0.96
  -6   1 -13   27.13    0.72
   6  -1  13   26.95    0.73
  -7   1 -13    0.23    0.11
   7  -1  13    0.28    0.13
  -8   1 -13    1.86    0.20
   7   0 -13    1.49    0.26
  -7   0  13    1.54    0.16
   6   0 -13    5.38    0.29
  -6   0  13    5.37    0.22
   5   0 -13    4.55    0.24
  -5   0  13    4.46    0.18
   4   0 -13    5.30    0.23
  -4   0  13    5.39    0.19
   3   0 -13   72.44    1.85
  -3   0  13   73.47    1.73
   2   0 -13    0.14    0.08
  -2   0  13    0.12    0.06
   1   0 -13  232.70    5.76
  -1   0  13  236.10    5.46
   0   0 -13   40.10    1.01
   0   0  13   38.97    0.95
  -1   0 -13   68.35    1.67
  -1   0 -13   67.16    1.60
   1   0  13   64.93    1.59
  -2   0 -13   37.46    0.97
   2   0  13   39.00    0.94
   2   0  13   38.44    0.94
  -3   0 -13   22.46    0.59
   3   0  13   22.44    0.58
   3   0  13   22.04    0.58
   4   0  13    0.82    0.10
   4   0  13    0.72    0.10
   5   0  13   29.58    0.77
   5   0  13   30.35    0.78
  -7   0 -13    4.13    0.22
  -8   0 -13    2.66    0.22
   7  -1 -13    1.69    0.27
   6  -1 -13    4.57    0.27
  -6   1  13    4.18    0.19
   5  -1 -13   -0.01    0.12
  -5   1  13    0.06    0.07
   4  -1 -13    0.83    0.15
  -4   1  13    0.96    0.11
   3  -1 -13   17.29    0.50
  -3   1  13   17.51    0.45
   2  -1 -13   29.98    0.81
  -2   1  13   30.60    0.75
   1  -1 -13   44.45    1.14
  -1   1  13   44.65    1.07
   0  -1 -13   86.25    2.22
   0   1  13   92.30    2.10
  -1  -1 -13    8.54    0.26
   1   1  13    8.25    0.25
   1   1  13    8.21    0.23
  -2  -1 -13   34.04    0.87
   2   1  13   34.10    0.84
   2   1  13   33.17    0.83
  -3  -1 -13    1.14    0.11
   3   1  13    1.45    0.12
  -4  -1 -13    4.32    0.18
   4   1  13    4.17    0.19
   4   1  13    4.06    0.19
   5   1  13   73.32    1.79
   6   1  13    6.19    0.25
   7   1  13    2.59    0.19
   8   1  13    5.11    0.27
   7  -2 -13   -0.02    0.16
   6  -2 -13    0.59    0.16
  -6   2  13    0.50    0.11
   5  -2 -13    0.31    0.13
  -5   2  13    0.20    0.08
   4  -2 -13    0.68    0.12
  -4   2  13    0.88    0.11
   3  -2 -13    0.05    0.08
  -3   2  13    0.03    0.07
   2  -2 -13    0.04    0.08
  -2   2  13    0.00    0.05
   1  -2 -13    5.01    0.20
  -1   2  13    4.95    0.17
   0  -2 -13    3.69    0.16
   0   2  13    3.64    0.14
  -1  -2 -13   50.31    1.24
   1   2  13   48.25    1.18
   1   2  13   48.25    1.17
  -2  -2 -13    9.33    0.28
   2   2  13    8.91    0.27
   2   2  13    9.05    0.26
  -3  -2 -13   83.95    2.09
   3   2  13   82.05    1.99
   3   2  13   85.77    2.02
  -4  -2 -13   38.38    0.98
   4   2  13   37.31    0.95
  -5  -2 -13   17.21    0.50
   5   2  13   17.65    0.50
   6   2  13   69.55    1.72
   7   2  13    0.47    0.13
   8   2  13   20.69    0.62
   7  -3 -13    1.12    0.21
   6  -3 -13    3.14    0.25
  -6   3  13    3.11    0.19
   5  -3 -13    1.35    0.19
  -5   3  13    1.45    0.14
   4  -3 -13   22.13    0.63
  -4   3  13   20.95    0.56
   3  -3 -13   41.68    1.09
  -3   3  13   41.27    1.01
   2  -3 -13    2.60    0.16
  -2   3  13    2.55    0.13
   1  -3 -13   18.52    0.52
  -1   3  13   18.06    0.47
   0  -3 -13    1.94    0.12
   0   3  13    1.82    0.11
  -1  -3 -13    0.92    0.11
   1   3  13    0.57    0.08
   1   3  13    0.65    0.08
  -2  -3 -13    2.00    0.12
   2   3  13    1.99    0.11
   2   3  13    2.11    0.14
  -3  -3 -13    2.10    0.13
   3   3  13    2.20    0.15
  -5  -3 -13    4.80    0.22
   5   3  13    4.44    0.22
  -6  -3 -13    6.34    0.25
   6   3  13    6.07    0.27
   7   3  13    0.27    0.15
   8   3  13    2.25    0.24
   6  -4 -13   13.32    0.48
  -6   4  13   13.12    0.40
   5  -4 -13    0.75    0.14
  -5   4  13    0.55    0.11
   4  -4 -13   19.65    0.58
  -4   4  13   19.06    0.52
   3  -4 -13    1.28    0.16
  -3   4  13    0.97    0.13
   2  -4 -13   19.22    0.54
  -2   4  13   18.29    0.49
   1  -4 -13    9.93    0.32
  -1   4  13   10.30    0.28
   0  -4 -13  172.41    4.25
   0   4  13  171.50    4.01
  -1  -4 -13    6.85    0.24
   1   4  13    6.52    0.22
  -2  -4 -13  143.69    3.54
   2   4  13  142.55    3.40
  -3  -4 -13   51.77    1.34
   3   4  13   52.63    1.29
  -4  -4 -13    4.81    0.22
   4   4  13    5.04    0.21
  -5  -4 -13   31.96    0.85
   5   4  13   31.18    0.82
  -6  -4 -13    0.65    0.13
   6   4  13    0.65    0.14
  -7  -4 -13    2.84    0.22
   7   4  13    2.81    0.23
   5  -5 -13   -0.03    0.14
  -5   5  13    0.04    0.11
   4  -5 -13    3.24    0.23
  -4   5  13    3.32    0.18
   3  -5 -13   12.46    0.40
  -3   5  13   12.63    0.36
   2  -5 -13    3.95    0.19
  -2   5  13    3.84    0.17
   1  -5 -13    0.57    0.10
  -1   5  13    0.46    0.07
   0  -5 -13    0.08    0.09
  -1  -5 -13    1.82    0.14
   1   5  13    1.76    0.14
  -2  -5 -13    2.88    0.17
   2   5  13    3.12    0.17
  -3  -5 -13    6.11    0.23
   3   5  13    6.20    0.24
  -4  -5 -13    2.00    0.15
   4   5  13    2.18    0.17
  -5  -5 -13    2.12    0.18
   5   5  13    1.72    0.18
  -6  -5 -13    1.01    0.18
   6   5  13    0.86    0.15
  -7  -5 -13    1.45    0.21
   7   5  13    1.33    0.18
  -5   6  13    0.33    0.13
   4  -6 -13    8.01    0.35
  -4   6  13    7.90    0.29
   3  -6 -13    1.76    0.19
  -3   6  13    1.51    0.15
   2  -6 -13   16.53    0.50
  -2   6  13   17.01    0.46
   1  -6 -13    9.52    0.32
   0  -6 -13    2.34    0.16
  -1  -6 -13    7.30    0.26
   1   6  13    7.64    0.26
  -2  -6 -13   50.95    1.31
   2   6  13   50.47    1.25
  -3  -6 -13    4.43    0.22
   3   6  13    4.55    0.22
  -4  -6 -13    8.37    0.31
   4   6  13    8.91    0.31
  -5  -6 -13    9.26    0.34
   5   6  13    9.31    0.33
  -6  -6 -13    0.53    0.15
   6   6  13    0.69    0.16
  -7  -6 -13    2.52    0.22
  -4   7  13    1.87    0.19
   3  -7 -13    3.08    0.24
   2  -7 -13    5.25    0.26
   1  -7 -13    2.83    0.19
   0  -7 -13    0.29    0.12
  -1  -7 -13    4.77    0.22
   1   7  13    4.42    0.21
  -2  -7 -13   -0.02    0.11
   2   7  13   -0.05    0.10
  -3  -7 -13    5.26    0.24
   3   7  13    5.24    0.24
  -4  -7 -13    0.88    0.14
   4   7  13    0.86    0.15
  -5  -7 -13    0.24    0.14
   5   7  13   -0.03    0.13
   2  -8 -13    6.68    0.31
   1  -8 -13   21.95    0.64
   0  -8 -13    0.47    0.14
  -1  -8 -13    9.95    0.35
   1   8  13    9.91    0.33
  -2  -8 -13    9.68    0.35
   2   8  13   10.26    0.34
  -3  -8 -13    0.39    0.14
   3   8  13    0.34    0.14
  -4  -8 -13    1.62    0.18
   4   8  13    1.58    0.20
   1  -9 -13    0.42    0.16
   0  -9 -13    0.20    0.14
  -1  -9 -13    1.47    0.19
   1   9  13    1.64    0.18
  -2  -9 -13    0.37    0.15
   2   9  13    0.46    0.15
   3   9  13    4.58    0.25
  -1  -8  14    7.22    0.34
   0  -8  14    1.22    0.18
  -1   8 -14    1.29    0.20
   1  -8  14    1.40    0.25
  -2   8 -14    1.71    0.21
   2  -8  14    1.64    0.23
  -3   8 -14    2.56    0.21
   4   7 -14    3.36    0.32
  -2  -7  14    0.10    0.13
  -1  -7  14   14.08    0.45
   0  -7  14    5.95    0.29
  -1   7 -14    3.60    0.21
   1  -7  14    3.48    0.25
  -2   7 -14    0.15    0.11
   2  -7  14    0.26    0.15
  -3   7 -14    3.28    0.20
   3  -7  14    3.32    0.26
  -4   7 -14   -0.01    0.13
   4  -7  14   -0.07    0.14
   4   6 -14    0.01    0.16
   3   6 -14    0.47    0.15
  -3  -6  14    0.26    0.11
  -2  -6  14    0.42    0.11
  -1  -6  14    1.05    0.16
   0  -6  14    5.12    0.25
  -1   6 -14    1.08    0.14
   1  -6  14    1.23    0.18
  -2   6 -14    8.80    0.29
   2  -6  14    8.86    0.34
  -3   6 -14    5.39    0.23
   3  -6  14    5.04    0.28
  -4   6 -14    7.04    0.28
   4  -6  14    8.31    0.34
  -5   6 -14   15.59    0.45
   5  -6  14   15.35    0.51
   5   5 -14    0.12    0.16
   4   5 -14    6.92    0.31
  -4  -5  14    7.07    0.25
   3   5 -14    1.11    0.18
  -3  -5  14    1.04    0.14
   2   5 -14    9.43    0.34
  -2  -5  14    9.19    0.29
  -1  -5  14    0.02    0.08
   0  -5  14    1.43    0.16
  -1   5 -14    0.70    0.12
   1  -5  14    0.54    0.12
  -2   5 -14   17.51    0.49
   2  -5  14   18.45    0.53
  -3   5 -14    3.88    0.18
   3  -5  14    3.87    0.24
  -4   5 -14    3.42    0.17
   4  -5  14    3.50    0.22
  -5   5 -14   16.39    0.47
   5  -5  14   16.05    0.52
  -6   5 -14    2.02    0.18
   6  -5  14    2.00    0.26
  -6  -4  14    5.74    0.23
   5   4 -14    0.45    0.14
  -5  -4  14    0.51    0.10
   4   4 -14    7.99    0.32
  -4  -4  14    8.29    0.26
   3   4 -14    7.78    0.31
  -3  -4  14    8.09    0.26
   2   4 -14   29.15    0.81
  -2  -4  14   30.52    0.75
   1   4 -14   43.00    1.15
  -1  -4  14   46.02    1.10
   0  -4  14    7.90    0.27
  -1   4 -14    8.85    0.27
   1  -4  14    8.36    0.29
  -2   4 -14    0.24    0.08
   2  -4  14    0.45    0.11
  -3   4 -14    0.43    0.10
   3  -4  14    0.41    0.12
  -4   4 -14    0.25    0.09
   4  -4  14    0.25    0.11
  -5   4 -14    2.52    0.16
   5  -4  14    2.50    0.20
  -6   4 -14    0.60    0.13
   6  -4  14    0.63    0.17
  -7   4 -14    0.07    0.13
   7  -4  14   -0.06    0.15
   6   3 -14    2.79    0.27
  -6  -3  14    2.94    0.17
   5   3 -14    0.01    0.12
  -5  -3  14   -0.04    0.09
   4   3 -14   -0.04    0.12
  -4  -3  14    0.02    0.08
   3   3 -14    3.30    0.21
  -3  -3  14    3.64    0.15
   2   3 -14    1.56    0.14
  -2  -3  14    1.56    0.11
   1   3 -14    2.51    0.16
  -1  -3  14    2.65    0.13
  -1   3 -14    4.12    0.16
   1  -3  14    3.99    0.18
  -2   3 -14    4.54    0.18
   2  -3  14    4.37    0.20
  -3   3 -14    0.16    0.08
   3  -3  14    0.12    0.10
  -4   3 -14    2.00    0.14
   4  -3  14    1.97    0.17
  -5   3 -14   13.32    0.40
   5  -3  14   13.66    0.44
  -6   3 -14    0.07    0.11
   6  -3  14   -0.01    0.12
  -7   3 -14    0.12    0.11
   7  -3  14    0.17    0.16
   8  -3  14   -0.08    0.19
   6   2 -14    2.22    0.24
  -6  -2  14    2.20    0.16
   5   2 -14    6.78    0.30
  -5  -2  14    6.59    0.23
   3   2 -14    0.90    0.15
  -3  -2  14    0.64    0.09
   2   2 -14   97.14    2.46
  -2  -2  14   98.61    2.31
   1   2 -14  126.20    3.21
  -1  -2  14  132.18    3.04
   0   2 -14    6.71    0.23
   0  -2  14    5.61    0.21
  -1   2 -14   83.36    1.92
  -1   2 -14   79.26    2.01
   1  -2  14   79.49    1.93
  -2   2 -14    3.26    0.16
  -3   2 -14    0.90    0.12
   3  -2  14    0.77    0.11
  -4   2 -14    3.45    0.17
   4  -2  14    3.50    0.21
  -5   2 -14    1.03    0.12
   5  -2  14    0.76    0.13
  -6   2 -14    0.75    0.13
   6  -2  14    0.09    0.13
  -7   2 -14    1.14    0.15
   7  -2  14    1.11    0.17
   6   1 -14    1.01    0.18
  -6  -1  14    1.07    0.14
   5   1 -14    1.06    0.18
  -5  -1  14    1.42    0.13
   4   1 -14    1.07    0.16
  -4  -1  14    1.27    0.10
   3   1 -14    1.23    0.14
  -3  -1  14    1.15    0.11
   2   1 -14    5.20    0.21
  -2  -1  14    4.63    0.17
   1   1 -14   34.26    0.91
  -1  -1  14   35.71    0.86
   0   1 -14   36.98    0.98
   0  -1  14   38.85    0.93
  -1   1 -14   46.19    1.17
  -1   1 -14   46.29    1.11
   1  -1  14   45.42    1.12
  -2   1 -14   54.22    1.32
  -2   1 -14   55.56    1.38
   2  -1  14   54.34    1.33
  -3   1 -14    0.19    0.08
   3  -1  14    0.04    0.09
  -4   1 -14   26.61    0.70
   4  -1  14   27.66    0.72
  -5   1 -14    4.94    0.22
   5  -1  14    4.94    0.24
  -6   1 -14    5.17    0.24
   6  -1  14    5.16    0.27
  -7   1 -14    0.02    0.11
  -8   1 -14    2.31    0.19
   6   0 -14    1.06    0.19
  -6   0  14    0.96    0.12
   5   0 -14   55.67    1.48
  -5   0  14   56.88    1.36
   4   0 -14   26.36    0.74
  -4   0  14   26.17    0.66
   3   0 -14   25.34    0.70
  -3   0  14   25.21    0.63
   2   0 -14  189.62    4.66
  -2   0  14  187.04    4.39
   1   0 -14   36.69    0.97
  -1   0  14   37.75    0.91
   0   0 -14  128.08    3.14
   0   0  14  125.16    2.97
  -1   0 -14    0.87    0.10
  -1   0 -14    0.99    0.10
   1   0  14    1.02    0.09
  -2   0 -14    5.02    0.18
  -2   0 -14    4.76    0.18
   2   0  14    4.98    0.19
  -3   0 -14   56.72    1.40
   3   0  14   54.25    1.35
   4   0  14   20.09    0.54
   4   0  14   19.42    0.53
   5   0  14    0.76    0.12
  -6   0 -14   23.07    0.63
  -7   0 -14    0.12    0.13
  -8   0 -14    0.44    0.14
   6  -1 -14    2.03    0.23
  -6   1  14    2.17    0.14
   5  -1 -14    2.91    0.22
  -5   1  14    2.76    0.16
   4  -1 -14    4.56    0.23
  -4   1  14    4.49    0.17
   3  -1 -14    9.31    0.31
  -3   1  14    8.84    0.27
   2  -1 -14   11.87    0.37
  -2   1  14   11.59    0.32
   1  -1 -14   37.59    0.98
  -1   1  14   37.58    0.91
   0  -1 -14    9.35    0.29
   0   1  14    9.49    0.27
  -1  -1 -14   45.73    1.17
   1   1  14   45.73    1.10
   1   1  14   45.87    1.11
  -2  -1 -14    3.97    0.17
   2   1  14    4.35    0.16
   2   1  14    4.03    0.17
  -3  -1 -14   38.00    0.94
   3   1  14   35.93    0.91
   3   1  14   35.16    0.90
  -4  -1 -14   27.27    0.71
   4   1  14   27.27    0.70
   4   1  14   26.94    0.71
   5   1  14    0.59    0.12
   6   1  14    5.52    0.24
   7   1  14    0.02    0.13
   6  -2 -14   15.85    0.54
  -6   2  14   16.80    0.47
   5  -2 -14   14.17    0.47
  -5   2  14   13.90    0.40
   4  -2 -14    8.81    0.33
  -4   2  14    9.18    0.28
   3  -2 -14   27.63    0.76
  -3   2  14   27.77    0.69
   2  -2 -14    0.83    0.11
  -2   2  14    0.76    0.09
   1  -2 -14   18.12    0.51
  -1   2  14   17.98    0.46
   0  -2 -14    1.76    0.14
   0   2  14    1.79    0.11
  -1  -2 -14   18.61    0.51
   1   2  14   18.71    0.47
   1   2  14   18.63    0.49
  -2  -2 -14   10.99    0.34
   2   2  14   11.44    0.33
   2   2  14   11.91    0.32
  -3  -2 -14   54.11    1.39
   3   2  14   55.20    1.32
   3   2  14   55.24    1.35
  -4  -2 -14   90.18    2.26
   4   2  14   90.98    2.19
  -5  -2 -14    6.12    0.24
   5   2  14    6.51    0.26
   6   2  14   22.86    0.64
   7   2  14    4.63    0.26
   8   2  14    1.03    0.19
   6  -3 -14    2.97    0.26
  -6   3  14    2.75    0.17
   5  -3 -14    2.87    0.22
  -5   3  14    3.08    0.16
   4  -3 -14    2.99    0.19
  -4   3  14    2.86    0.15
   3  -3 -14   11.06    0.38
  -3   3  14   11.52    0.33
   2  -3 -14    0.31    0.10
  -2   3  14    0.33    0.07
   1  -3 -14   10.22    0.32
  -1   3  14   10.24    0.29
   0  -3 -14   87.09    2.14
   0   3  14   83.49    2.01
  -1  -3 -14    6.96    0.24
   1   3  14    6.54    0.20
   1   3  14    6.74    0.23
   2   3  14    0.14    0.08
  -3  -3 -14    2.98    0.16
   3   3  14    2.69    0.16
  -4  -3 -14   16.13    0.46
   4   3  14   15.93    0.46
  -5  -3 -14    9.05    0.30
   5   3  14    8.69    0.30
  -6  -3 -14    1.47    0.17
   6   3  14    1.51    0.19
   7   3  14    3.19    0.23
   6  -4 -14    9.67    0.41
   5  -4 -14    3.27    0.24
  -5   4  14    3.27    0.18
   4  -4 -14   10.75    0.38
  -4   4  14   10.36    0.33
   3  -4 -14   10.44    0.36
  -3   4  14   10.00    0.30
   2  -4 -14   15.41    0.45
  -2   4  14   14.88    0.41
   1  -4 -14   20.22    0.58
  -1   4  14   20.95    0.53
   0  -4 -14    0.30    0.09
   0   4  14    0.34    0.07
  -1  -4 -14   57.39    1.45
   1   4  14   56.22    1.38
  -2  -4 -14    0.66    0.12
   2   4  14    1.07    0.15
  -3  -4 -14   90.20    2.25
   3   4  14   89.29    2.16
  -4  -4 -14   10.62    0.34
   4   4  14   10.47    0.34
  -5  -4 -14    2.01    0.17
   5   4  14    2.15    0.16
  -6  -4 -14    1.45    0.18
   6   4  14    1.40    0.19
   7   4  14    0.02    0.13
   5  -5 -14    4.06    0.28
  -5   5  14    4.15    0.22
   4  -5 -14    8.94    0.35
  -4   5  14    9.18    0.30
   3  -5 -14    0.00    0.12
  -3   5  14   -0.07    0.08
   2  -5 -14    0.29    0.10
  -2   5  14    0.01    0.08
   1  -5 -14    0.05    0.10
  -1   5  14    0.14    0.07
   0  -5 -14   19.13    0.54
  -1  -5 -14   16.48    0.48
   1   5  14   16.55    0.46
  -2  -5 -14    0.09    0.10
   2   5  14    0.03    0.10
  -3  -5 -14   19.77    0.56
   3   5  14   19.52    0.54
  -4  -5 -14    0.05    0.10
   4   5  14   -0.04    0.11
  -5  -5 -14    0.15    0.12
   5   5  14    0.16    0.13
  -6  -5 -14    0.42    0.14
   6   5  14    0.25    0.14
  -7  -5 -14    0.15    0.15
   5  -6 -14    1.94    0.27
   4  -6 -14    4.21    0.28
  -4   6  14    4.51    0.22
   3  -6 -14   17.27    0.54
  -3   6  14   17.55    0.48
   2  -6 -14   18.26    0.55
   1  -6 -14    2.72    0.17
   0  -6 -14   22.84    0.64
  -1  -6 -14    1.61    0.16
   1   6  14    1.77    0.14
  -2  -6 -14   16.91    0.50
   2   6  14   16.94    0.48
  -3  -6 -14   13.62    0.43
   3   6  14   13.80    0.41
  -4  -6 -14    0.08    0.11
   4   6  14    0.12    0.12
  -5  -6 -14    9.24    0.35
   5   6  14    9.96    0.35
  -6  -6 -14    2.69    0.23
   6   6  14    2.47    0.23
   4  -7 -14   11.42    0.45
  -4   7  14   11.54    0.38
   3  -7 -14    4.54    0.27
   2  -7 -14    1.41    0.20
   1  -7 -14    2.79    0.20
   0  -7 -14    3.54    0.21
  -1  -7 -14    1.97    0.18
  -2  -7 -14   -0.02    0.10
   2   7  14   -0.10    0.11
  -3  -7 -14    1.09    0.16
   3   7  14    0.99    0.14
  -4  -7 -14    0.35    0.12
   4   7  14    0.50    0.13
  -5  -7 -14    0.08    0.12
   5   7  14    0.00    0.15
   3  -8 -14   14.75    0.52
   2  -8 -14    3.09    0.24
   1  -8 -14    2.04    0.20
   0  -8 -14    2.79    0.20
  -1  -8 -14    0.30    0.12
  -2  -8 -14    2.98    0.20
   2   8  14    2.93    0.20
  -3  -8 -14    0.47    0.15
   3   8  14    0.41    0.14
   4   8  14    1.50    0.21
   0  -9 -14    0.67    0.16
   2   9  14    5.46    0.27
  -1  -8  15    1.98    0.24
   0  -8  15    4.19    0.29
   1  -8  15    7.17    0.36
  -2   8 -15    0.86    0.17
  -2  -7  15    1.84    0.20
  -1  -7  15    0.61    0.15
   0  -7  15    0.75    0.16
   1  -7  15    7.47    0.32
  -2   7 -15    0.11    0.12
   2  -7  15    0.11    0.16
  -3   7 -15    7.52    0.29
   3  -7  15    7.26    0.36
  -4   7 -15    5.22    0.25
   4   6 -15    0.40    0.17
   3   6 -15    2.42    0.23
  -3  -6  15    2.56    0.18
  -2  -6  15    0.17    0.11
  -1  -6  15    5.13    0.25
   0  -6  15   10.12    0.35
   1  -6  15    3.51    0.24
  -2   6 -15    1.41    0.15
   2  -6  15    1.19    0.17
  -3   6 -15   25.33    0.65
   3  -6  15   23.34    0.70
  -4   6 -15    0.60    0.13
   4  -6  15    0.61    0.16
  -5   6 -15    7.89    0.29
   5  -6  15    7.46    0.35
  -5  -5  15    2.80    0.20
   4   5 -15    2.72    0.23
  -4  -5  15    2.71    0.17
   3   5 -15    0.84    0.15
  -3  -5  15    0.71    0.11
   2   5 -15    3.24    0.21
  -2  -5  15    3.78    0.18
  -1  -5  15    5.57    0.23
   0  -5  15    5.07    0.24
  -1   5 -15   31.88    0.80
   1  -5  15   31.60    0.84
  -2   5 -15    0.01    0.09
   2  -5  15   -0.01    0.12
  -3   5 -15   22.05    0.59
   3  -5  15   22.36    0.65
  -4   5 -15   10.44    0.33
   4  -5  15   10.17    0.39
  -5   5 -15    0.50    0.13
   5  -5  15    0.33    0.15
  -6   5 -15    5.41    0.25
   6  -5  15    5.56    0.32
   5   4 -15    2.07    0.23
  -5  -4  15    2.08    0.16
   4   4 -15    1.24    0.18
  -4  -4  15    1.42    0.14
   3   4 -15    4.48    0.24
  -3  -4  15    4.33    0.19
   2   4 -15    2.85    0.20
  -2  -4  15    3.16    0.16
   1   4 -15   14.29    0.45
  -1  -4  15   14.95    0.42
   0  -4  15   12.71    0.38
  -1   4 -15    1.05    0.13
   1  -4  15    1.01    0.14
  -2   4 -15    0.02    0.08
   2  -4  15    0.01    0.09
  -3   4 -15   13.58    0.38
   3  -4  15   12.51    0.42
  -4   4 -15   -0.05    0.10
   4  -4  15    0.10    0.13
  -5   4 -15    2.74    0.18
   5  -4  15    2.93    0.22
  -6   4 -15    4.05    0.22
   6  -4  15    3.91    0.27
   7  -4  15    0.95    0.21
  -6  -3  15    0.98    0.15
   5   3 -15    0.17    0.16
  -5  -3  15    0.28    0.10
   4   3 -15    2.51    0.21
  -4  -3  15    2.56    0.15
   3   3 -15   16.57    0.51
  -3  -3  15   17.00    0.45
   2   3 -15    3.19    0.19
  -2  -3  15    3.25    0.15
   1   3 -15    5.55    0.23
  -1  -3  15    5.41    0.20
   0   3 -15   33.96    0.89
   0  -3  15   33.59    0.85
  -1   3 -15    0.04    0.07
   1  -3  15   -0.07    0.09
  -2   3 -15    4.55    0.18
   2  -3  15    4.10    0.20
  -3   3 -15    2.07    0.14
   3  -3  15    2.14    0.18
  -4   3 -15    3.25    0.18
   4  -3  15    3.40    0.21
  -5   3 -15    9.89    0.32
   5  -3  15    9.35    0.35
  -6   3 -15    2.82    0.19
   6  -3  15    2.97    0.25
  -7   3 -15    2.04    0.19
   7  -3  15    1.96    0.26
  -6  -2  15   14.22    0.41
   5   2 -15    1.48    0.21
  -5  -2  15    1.46    0.13
   4   2 -15   20.49    0.61
  -4  -2  15   21.06    0.54
   3   2 -15   25.20    0.72
  -3  -2  15   26.13    0.65
   2   2 -15   36.69    0.99
  -2  -2  15   37.82    0.92
   1   2 -15   87.18    2.21
  -1  -2  15   88.76    2.09
   0   2 -15    7.26    0.27
   0  -2  15    7.58    0.24
  -1   2 -15   25.18    0.68
   1  -2  15   26.06    0.67
  -2   2 -15    0.00    0.08
   2  -2  15   -0.02    0.08
  -3   2 -15    7.39    0.24
   3  -2  15    6.82    0.27
  -4   2 -15    1.08    0.13
   4  -2  15    1.20    0.18
  -5   2 -15   10.54    0.34
   5  -2  15   10.62    0.37
  -6   2 -15    5.65    0.25
   6  -2  15    5.58    0.27
  -7   2 -15    0.04    0.12
   7  -2  15   -0.05    0.15
   6   1 -15    1.85    0.24
  -6  -1  15    1.91    0.16
   5   1 -15    2.66    0.22
  -5  -1  15    2.62    0.16
   4   1 -15    4.00    0.21
  -4  -1  15    4.04    0.16
   3   1 -15   10.38    0.37
  -3  -1  15   12.25    0.32
   2   1 -15   29.25    0.80
  -2  -1  15   29.56    0.73
   1   1 -15    5.19    0.22
  -1  -1  15    5.46    0.19
   0   1 -15  201.20    5.02
   0  -1  15  206.66    4.76
  -1   1 -15   22.08    0.59
   1  -1  15   22.08    0.57
  -2   1 -15   85.00    2.13
  -2   1 -15   84.49    2.05
   2  -1  15   87.45    2.05
  -3   1 -15   26.61    0.68
   3  -1  15   26.87    0.70
  -4   1 -15    2.05    0.15
   4  -1  15    1.97    0.17
  -5   1 -15    3.00    0.18
   5  -1  15    2.88    0.20
  -6   1 -15    0.84    0.14
   6  -1  15    0.91    0.15
  -7   1 -15    0.65    0.15
   6   0 -15    4.68    0.30
  -6   0  15    5.19    0.22
   5   0 -15    1.94    0.20
  -5   0  15    1.90    0.13
   4   0 -15    3.56    0.21
  -4   0  15    3.33    0.16
   3   0 -15    6.30    0.25
  -3   0  15    6.40    0.21
   2   0 -15    0.13    0.08
  -2   0  15    0.05    0.06
   1   0 -15   18.50    0.53
  -1   0  15   19.06    0.48
   0   0 -15    3.71    0.17
   0   0  15    3.45    0.14
  -1   0 -15   28.56    0.75
   1   0  15   28.58    0.71
  -2   0 -15   10.13    0.31
  -2   0 -15   11.02    0.32
   2   0  15   10.72    0.32
  -3   0 -15    8.21    0.25
  -3   0 -15    8.10    0.26
   3   0  15    7.70    0.27
  -4   0 -15    9.37    0.30
   4   0  15    9.23    0.32
  -5   0 -15    1.57    0.16
   5   0  15    1.26    0.17
  -6   0 -15   14.42    0.44
  -7   0 -15    0.69    0.15
   6  -1 -15    3.19    0.24
  -6   1  15    3.45    0.18
   5  -1 -15    0.71    0.15
  -5   1  15    0.79    0.11
   4  -1 -15   36.42    1.00
  -4   1  15   37.40    0.92
   3  -1 -15    5.68    0.24
  -3   1  15    4.86    0.18
   2  -1 -15    4.60    0.20
  -2   1  15    4.62    0.16
   1  -1 -15   28.19    0.75
  -1   1  15   27.64    0.69
   0  -1 -15   16.25    0.45
   0   1  15   14.99    0.41
  -1  -1 -15    7.14    0.24
   1   1  15    6.67    0.22
  -2  -1 -15    1.01    0.11
   2   1  15    0.77    0.13
   2   1  15    1.08    0.12
  -3  -1 -15    2.39    0.15
   3   1  15    2.33    0.16
   3   1  15    2.22    0.15
  -4  -1 -15    2.24    0.14
   4   1  15    1.93    0.17
   4   1  15    2.33    0.17
   5   1  15    0.05    0.11
   6   1  15    4.69    0.23
   7   1  15    0.12    0.14
   6  -2 -15    4.28    0.27
   5  -2 -15    1.03    0.17
  -5   2  15    1.17    0.13
   4  -2 -15    2.72    0.20
  -4   2  15    2.51    0.15
   3  -2 -15   11.32    0.37
  -3   2  15   10.79    0.32
   2  -2 -15    4.26    0.21
  -2   2  15    4.29    0.16
   1  -2 -15   22.78    0.63
  -1   2  15   23.52    0.58
   0  -2 -15  301.92    7.29
   0   2  15  291.72    6.90
  -1  -2 -15   43.91    1.13
   1   2  15   44.31    1.06
  -2  -2 -15  247.01    6.10
   2   2  15  253.40    5.86
   2   2  15  245.12    5.79
   3   2  15    0.60    0.10
  -4  -2 -15   46.80    1.20
   4   2  15   46.92    1.17
  -5  -2 -15   12.54    0.38
   5   2  15   12.64    0.40
   6   2  15   -0.03    0.12
   7   2  15    1.15    0.20
   6  -3 -15    2.29    0.26
   5  -3 -15    4.72    0.27
  -5   3  15    5.17    0.20
   4  -3 -15   -0.11    0.13
  -4   3  15    0.17    0.09
   3  -3 -15    2.58    0.20
  -3   3  15    2.61    0.14
   2  -3 -15    1.26    0.15
  -2   3  15    1.12    0.12
   1  -3 -15   11.76    0.36
  -1   3  15   11.28    0.32
   0  -3 -15    1.74    0.15
   0   3  15    1.76    0.11
  -1  -3 -15    3.51    0.17
   1   3  15    3.62    0.15
  -2  -3 -15    2.51    0.16
   2   3  15    2.53    0.15
  -3  -3 -15   22.05    0.60
   3   3  15   21.72    0.59
  -4  -3 -15    1.87    0.16
   4   3  15    1.63    0.17
  -5  -3 -15    1.70    0.15
   5   3  15    2.31    0.17
   6   3  15    7.33    0.30
   7   3  15    1.32    0.21
   5  -4 -15    0.32    0.16
  -5   4  15    0.09    0.11
   4  -4 -15   27.06    0.80
  -4   4  15   29.06    0.72
   3  -4 -15    0.79    0.14
  -3   4  15    0.54    0.10
   2  -4 -15   69.07    1.76
  -2   4  15   68.50    1.64
   1  -4 -15   26.52    0.72
  -1   4  15   25.54    0.65
   0  -4 -15    1.08    0.13
   0   4  15    1.63    0.11
  -1  -4 -15   32.57    0.86
  -2  -4 -15   35.65    0.92
   2   4  15   34.26    0.88
  -3  -4 -15    1.38    0.15
   3   4  15    1.65    0.16
  -4  -4 -15    5.48    0.23
   4   4  15    5.37    0.24
  -5  -4 -15    0.56    0.12
   5   4  15    0.61    0.12
  -6  -4 -15    0.05    0.12
   6   4  15    0.14    0.12
   7   4  15   -0.01    0.15
   5  -5 -15    0.06    0.17
  -5   5  15   -0.03    0.11
   4  -5 -15   -0.06    0.15
  -4   5  15    0.08    0.10
   3  -5 -15    0.44    0.14
  -3   5  15    0.50    0.11
   2  -5 -15    0.06    0.12
  -2   5  15    0.08    0.08
   1  -5 -15    8.65    0.30
   0  -5 -15    0.04    0.10
  -1  -5 -15    8.54    0.30
  -2  -5 -15    0.00    0.10
   2   5  15    0.06    0.09
  -3  -5 -15   14.13    0.43
   3   5  15   14.05    0.42
  -4  -5 -15    0.09    0.09
   4   5  15   -0.03    0.11
  -5  -5 -15    0.74    0.13
   5   5  15    0.58    0.12
  -6  -5 -15    1.54    0.19
   6   5  15    1.51    0.20
  -7  -5 -15    0.02    0.16
   4  -6 -15    4.35    0.29
  -4   6  15    4.13    0.22
   3  -6 -15    1.32    0.18
  -3   6  15    1.03    0.16
   2  -6 -15   25.10    0.72
   1  -6 -15   10.88    0.36
   0  -6 -15    7.38    0.28
  -1  -6 -15   22.59    0.64
  -2  -6 -15    0.15    0.11
   2   6  15    0.21    0.11
  -3  -6 -15   11.60    0.38
   3   6  15   11.44    0.37
  -4  -6 -15   -0.06    0.12
   4   6  15   -0.02    0.12
  -5  -6 -15    3.01    0.19
   5   6  15    3.14    0.23
  -6  -6 -15    0.47    0.16
   6   6  15    0.47    0.16
   3  -7 -15    2.56    0.25
   2  -7 -15    3.88    0.24
   1  -7 -15    0.48    0.14
   0  -7 -15   -0.04    0.12
  -1  -7 -15    4.23    0.22
  -2  -7 -15    0.08    0.12
   2   7  15    0.06    0.11
  -3  -7 -15    0.77    0.14
   3   7  15    0.79    0.14
  -4  -7 -15    2.27    0.18
   4   7  15    2.56    0.21
  -5  -7 -15    1.13    0.19
   5   7  15    1.04    0.18
   2  -8 -15    6.17    0.31
   1  -8 -15    0.58    0.15
  -1  -8 -15   -0.06    0.13
  -2  -8 -15    5.76    0.26
  -3  -8 -15    0.97    0.17
   3   8  15    1.19    0.20
   4   8  15    3.20    0.25
  -2   8 -16    3.86    0.27
  -2  -7  16    0.71    0.16
  -1  -7  16    5.78    0.29
   0  -7  16   -0.13    0.15
   1  -7  16    6.47    0.33
  -2   7 -16    7.66    0.29
   2  -7  16    7.45    0.34
  -3   7 -16    0.47    0.14
   4   6 -16    2.17    0.25
  -3  -6  16    0.08    0.12
  -2  -6  16   14.82    0.44
  -1  -6  16   10.14    0.36
   0  -6  16   10.15    0.37
   1  -6  16   20.27    0.60
  -2   6 -16    0.71    0.13
   2  -6  16    0.72    0.16
  -3   6 -16    7.23    0.28
   3  -6  16    7.59    0.35
  -4   6 -16    1.40    0.17
   4  -6  16    1.13    0.18
   4   5 -16    0.04    0.16
  -4  -5  16    0.00    0.09
   3   5 -16    2.56    0.22
  -3  -5  16    2.43    0.16
  -2  -5  16    0.81    0.14
  -1  -5  16   12.33    0.38
   0  -5  16    0.83    0.14
   1  -5  16    8.60    0.33
  -2   5 -16    3.32    0.18
   2  -5  16    3.57    0.23
  -3   5 -16    0.69    0.12
   3  -5  16    0.73    0.14
  -4   5 -16    3.88    0.20
   4  -5  16    3.43    0.24
  -5   5 -16    1.07    0.16
   5  -5  16    1.06    0.19
  -5  -4  16    7.94    0.28
   4   4 -16    1.40    0.21
  -4  -4  16    1.17    0.14
   3   4 -16    4.36    0.24
  -3  -4  16    4.20    0.18
   2   4 -16    1.90    0.19
  -2  -4  16    1.96    0.14
   1   4 -16    1.41    0.17
  -1  -4  16    1.44    0.13
   0  -4  16    0.09    0.10
   1  -4  16    3.61    0.21
  -2   4 -16    0.78    0.11
   2  -4  16    0.60    0.13
  -3   4 -16    0.23    0.10
   3  -4  16    0.13    0.13
  -4   4 -16    0.25    0.11
   4  -4  16    0.41    0.13
  -5   4 -16    2.30    0.18
   5  -4  16    2.19    0.24
  -6   4 -16    2.45    0.20
   6  -4  16    2.51    0.28
   5   3 -16    0.24    0.17
  -5  -3  16    0.30    0.10
   4   3 -16    0.29    0.14
  -4  -3  16    0.12    0.09
   3   3 -16    0.06    0.12
  -3  -3  16   -0.05    0.08
   2   3 -16    4.40    0.21
  -2  -3  16    3.18    0.16
   1   3 -16    9.18    0.32
  -1  -3  16    9.25    0.29
   0   3 -16    7.33    0.26
   0  -3  16    6.63    0.25
   1  -3  16    8.11    0.29
   2  -3  16    0.63    0.12
  -3   3 -16    0.88    0.13
   3  -3  16    0.69    0.12
  -4   3 -16    0.25    0.10
   4  -3  16    0.20    0.13
  -5   3 -16    2.75    0.19
   5  -3  16    2.67    0.23
  -6   3 -16   -0.13    0.13
   6  -3  16    0.12    0.14
   7  -3  16    6.84    0.37
   5   2 -16   28.93    0.83
  -5  -2  16   28.26    0.73
   4   2 -16    1.03    0.19
  -4  -2  16    1.26    0.12
   3   2 -16   31.99    0.88
  -3  -2  16   32.43    0.80
   2   2 -16   23.84    0.68
  -2  -2  16   25.33    0.63
   1   2 -16    2.23    0.16
  -1  -2  16    2.04    0.14
   0   2 -16   30.55    0.83
   0  -2  16   32.10    0.79
  -1   2 -16    4.19    0.19
   1  -2  16    4.44    0.19
  -2   2 -16    2.11    0.15
   2  -2  16    1.81    0.17
  -3   2 -16    8.50    0.28
   3  -2  16    8.45    0.30
  -4   2 -16   13.70    0.40
   4  -2  16   13.43    0.43
  -5   2 -16    6.24    0.24
   5  -2  16    5.98    0.29
  -6   2 -16   22.60    0.63
   6  -2  16   22.77    0.66
  -7   2 -16    1.95    0.20
   7  -2  16    1.97    0.27
   5   1 -16    1.58    0.19
  -5  -1  16    1.78    0.15
   4   1 -16    9.01    0.33
  -4  -1  16    8.59    0.28
   3   1 -16    0.36    0.12
  -3  -1  16    0.21    0.07
   2   1 -16   42.56    1.15
  -2  -1  16   45.24    1.07
   1   1 -16    8.85    0.30
  -1  -1  16    8.51    0.26
  -1   1 -16    6.17    0.23
   1  -1  16    5.93    0.21
  -2   1 -16    2.33    0.15
  -2   1 -16    2.33    0.14
   2  -1  16    2.52    0.17
  -3   1 -16    0.02    0.08
   3  -1  16   -0.03    0.09
  -4   1 -16   17.22    0.48
   4  -1  16   17.79    0.50
  -5   1 -16    4.05    0.19
   5  -1  16    3.96    0.23
  -6   1 -16    3.99    0.21
   6  -1  16    4.28    0.26
  -7   1 -16    3.42    0.23
   5   0 -16    0.49    0.15
  -5   0  16    0.54    0.10
   4   0 -16   18.36    0.56
  -4   0  16   17.89    0.48
   3   0 -16    1.31    0.15
  -3   0  16    1.05    0.10
   2   0 -16    8.60    0.31
  -2   0  16    8.33    0.25
   1   0 -16   10.97    0.35
  -1   0  16   11.13    0.31
   0   0 -16   30.92    0.83
   0   0  16   31.34    0.77
  -1   0 -16   14.15    0.41
   1   0  16   14.35    0.39
  -2   0 -16   32.79    0.83
  -2   0 -16   33.36    0.86
   2   0  16   33.35    0.83
  -3   0 -16    7.69    0.26
   3   0  16    7.86    0.27
  -4   0 -16    3.25    0.18
   4   0  16    3.41    0.20
  -5   0 -16    0.22    0.11
   5   0  16    0.36    0.12
  -6   0 -16   10.64    0.37
  -7   0 -16    0.64    0.16
   5  -1 -16    2.15    0.20
  -5   1  16    1.96    0.14
   4  -1 -16    7.09    0.31
  -4   1  16    7.45    0.25
   3  -1 -16   24.07    0.68
  -3   1  16   23.30    0.60
   2  -1 -16    2.88    0.17
  -2   1  16    3.71    0.15
   1  -1 -16   31.50    0.86
  -1   1  16   33.32    0.80
   0  -1 -16   76.09    1.90
   0   1  16   74.36    1.78
  -1  -1 -16   21.77    0.60
   1   1  16   21.93    0.56
  -2  -1 -16    2.04    0.15
   2   1  16    1.90    0.14
   2   1  16    1.86    0.15
  -3  -1 -16    3.06    0.16
   3   1  16    3.11    0.17
   3   1  16    2.80    0.17
   4   1  16   24.34    0.65
   5   1  16    3.04    0.20
   6   1  16    7.26    0.30
   7   1  16    1.85    0.22
   5  -2 -16    2.59    0.21
  -5   2  16    2.73    0.16
   4  -2 -16    5.90    0.28
  -4   2  16    6.18    0.23
   3  -2 -16    3.12    0.19
  -3   2  16    2.87    0.14
   2  -2 -16   33.46    0.90
  -2   2  16   33.29    0.83
   1  -2 -16    0.91    0.12
  -1   2  16    1.01    0.11
   0  -2 -16   23.71    0.65
   0   2  16   23.47    0.59
  -1  -2 -16   27.81    0.74
   1   2  16   27.28    0.69
  -2  -2 -16   18.38    0.53
   2   2  16   19.45    0.50
   2   2  16   18.97    0.52
  -3  -2 -16   48.57    1.23
   3   2  16   47.34    1.19
  -4  -2 -16    1.42    0.14
   4   2  16    1.52    0.17
   5   2  16    1.75    0.16
   6   2  16    0.62    0.14
   7   2  16    0.02    0.15
   5  -3 -16    3.22    0.25
  -5   3  16    3.34    0.18
   4  -3 -16    5.09    0.28
  -4   3  16    5.50    0.22
   3  -3 -16    0.01    0.12
  -3   3  16   -0.07    0.08
   2  -3 -16    0.11    0.10
  -2   3  16    0.02    0.08
   1  -3 -16    0.54    0.10
  -1   3  16    0.45    0.08
   0  -3 -16    3.16    0.18
   0   3  16    3.22    0.14
  -1  -3 -16   21.28    0.59
   1   3  16   21.64    0.54
  -2  -3 -16    3.28    0.16
   2   3  16    3.23    0.18
  -3  -3 -16   39.39    1.02
   3   3  16   38.47    0.98
  -4  -3 -16   14.41    0.43
   4   3  16   14.36    0.43
  -5  -3 -16    0.79    0.14
   5   3  16    0.86    0.15
   6   3  16    2.86    0.22
   7   3  16    0.10    0.15
   5  -4 -16   18.54    0.61
  -5   4  16   19.15    0.53
   4  -4 -16    0.37    0.14
  -4   4  16    0.15    0.10
   3  -4 -16   55.68    1.45
  -3   4  16   55.43    1.35
   2  -4 -16   15.90    0.49
  -2   4  16   16.89    0.45
   1  -4 -16   14.51    0.44
  -1   4  16   14.95    0.40
   0  -4 -16   12.78    0.40
   0   4  16   12.89    0.35
  -1  -4 -16    0.03    0.08
  -2  -4 -16    6.02    0.24
  -3  -4 -16    0.21    0.10
   3   4  16    0.32    0.11
  -4  -4 -16    0.09    0.10
   4   4  16    0.08    0.11
  -5  -4 -16    0.92    0.15
   5   4  16    0.95    0.15
  -6  -4 -16    7.02    0.28
   6   4  16    7.07    0.31
   4  -5 -16    5.13    0.30
  -4   5  16    5.33    0.23
   3  -5 -16    5.00    0.26
  -3   5  16    5.15    0.22
   2  -5 -16    2.14    0.19
  -2   5  16    1.99    0.15
   1  -5 -16    5.45    0.23
   0  -5 -16    0.32    0.11
  -1  -5 -16    0.00    0.09
  -2  -5 -16    0.70    0.12
  -3  -5 -16    1.05    0.15
   3   5  16    1.20    0.17
  -4  -5 -16    3.13    0.20
   4   5  16    2.76    0.20
  -5  -5 -16    0.44    0.13
   5   5  16    0.49    0.14
  -6  -5 -16    0.01    0.13
   6   5  16    0.10    0.15
  -7  -5 -16    0.43    0.16
   4  -6 -16    5.43    0.32
  -4   6  16    5.56    0.25
   3  -6 -16   14.47    0.49
  -3   6  16   14.56    0.42
   2  -6 -16    1.46    0.21
   1  -6 -16    6.37    0.26
   0  -6 -16    0.15    0.12
  -1  -6 -16    0.21    0.11
  -2  -6 -16    0.14    0.10
  -3  -6 -16    6.02    0.26
   3   6  16    5.82    0.25
  -4  -6 -16    0.66    0.12
   4   6  16    0.73    0.15
  -5  -6 -16    0.18    0.13
   5   6  16    0.18    0.13
   3  -7 -16    0.43    0.18
   2  -7 -16    0.42    0.16
   1  -7 -16    1.68    0.20
   0  -7 -16    0.60    0.14
  -1  -7 -16    0.00    0.10
  -2  -7 -16    1.74    0.18
  -3  -7 -16    0.42    0.12
   3   7  16    0.44    0.14
  -4  -7 -16    0.74    0.14
   4   7  16    0.61    0.16
   0  -8 -16    2.87    0.23
  -1  -8 -16    4.36    0.25
   3   8  16   16.88    0.52
  -1  -7  17    4.67    0.28
   0  -7  17    7.05    0.34
   1  -7  17    1.36    0.20
  -3   7 -17    8.89    0.33
  -3  -6  17    3.61    0.22
  -2  -6  17    1.34    0.17
  -1  -6  17   17.27    0.52
   0  -6  17    5.28    0.26
   1  -6  17   10.02    0.38
   2  -6  17    1.60    0.23
  -3   6 -17    0.05    0.12
   3  -6  17    0.03    0.16
  -4   6 -17   -0.02    0.13
   4   5 -17    0.14    0.17
  -4  -5  17    0.30    0.12
   3   5 -17   11.22    0.42
  -3  -5  17   11.72    0.36
  -2  -5  17    1.11    0.15
  -1  -5  17   17.22    0.49
   0  -5  17   16.85    0.51
   1  -5  17    2.91    0.20
   2  -5  17    3.44    0.24
  -3   5 -17    0.06    0.11
   3  -5  17    0.20    0.15
  -4   5 -17   -0.11    0.12
   4  -5  17    0.15    0.17
  -5   5 -17    3.30    0.22
   5  -5  17    3.22    0.29
   4   4 -17    0.78    0.17
  -4  -4  17    0.82    0.14
   3   4 -17    0.16    0.13
  -3  -4  17    0.20    0.10
   2   4 -17    2.92    0.21
  -2  -4  17    2.76    0.16
  -1  -4  17    0.28    0.09
   0  -4  17    5.35    0.24
   1  -4  17    0.21    0.12
   2  -4  17    5.04    0.26
  -3   4 -17    6.54    0.25
   3  -4  17    6.53    0.30
  -4   4 -17    5.13    0.23
   4  -4  17    4.51    0.28
  -5   4 -17   19.94    0.56
   5  -4  17   19.60    0.61
  -6   4 -17    3.24    0.22
   6  -4  17    3.39    0.31
   4   3 -17    0.37    0.16
  -4  -3  17    0.27    0.09
   3   3 -17    1.03    0.19
  -3  -3  17    0.83    0.13
   2   3 -17    0.48    0.12
  -2  -3  17    0.19    0.09
   1   3 -17    1.17    0.16
   0  -3  17   15.89    0.45
   1  -3  17    1.15    0.14
   2  -3  17    0.77    0.12
  -3   3 -17    5.71    0.22
   3  -3  17    5.53    0.27
  -4   3 -17    0.95    0.15
   4  -3  17    0.82    0.14
  -5   3 -17   17.86    0.51
   5  -3  17   18.08    0.56
  -6   3 -17    2.59    0.19
   6  -3  17    2.80    0.28
   7  -3  17    0.79    0.22
   5   2 -17    4.60    0.29
  -5  -2  17    4.29    0.20
   4   2 -17    0.37    0.15
  -4  -2  17    0.44    0.11
   3   2 -17    4.52    0.24
  -3  -2  17    4.40    0.18
   2   2 -17    1.78    0.18
  -2  -2  17    1.88    0.12
   1   2 -17   11.43    0.37
  -1  -2  17   11.14    0.33
   0   2 -17    3.10    0.18
   0  -2  17    3.36    0.17
   1  -2  17   11.48    0.35
   2  -2  17    8.28    0.29
  -3   2 -17    0.20    0.09
   3  -2  17    0.13    0.11
  -4   2 -17   10.59    0.33
   4  -2  17   10.31    0.37
  -5   2 -17   19.18    0.55
   5  -2  17   20.27    0.59
  -6   2 -17    5.16    0.25
   6  -2  17    5.42    0.31
   7  -2  17    8.36    0.40
   5   1 -17    1.23    0.19
  -5  -1  17    1.13    0.14
   4   1 -17   26.09    0.76
  -4  -1  17   26.22    0.67
   3   1 -17   13.53    0.45
  -3  -1  17   13.81    0.39
   2   1 -17   15.92    0.49
  -2  -1  17   16.39    0.44
   1   1 -17   12.86    0.41
  -1  -1  17   13.38    0.37
   0   1 -17    2.05    0.16
   0  -1  17    2.22    0.13
  -1   1 -17   23.11    0.64
   1  -1  17   24.34    0.62
   2  -1  17    4.40    0.21
  -3   1 -17    9.43    0.30
   3  -1  17    9.94    0.33
  -4   1 -17    4.56    0.21
   4  -1  17    4.61    0.24
  -5   1 -17    8.95    0.31
   5  -1  17    8.70    0.34
  -6   1 -17    3.37    0.22
   6  -1  17    3.28    0.25
  -7   1 -17    4.99    0.27
   5   0 -17    1.80    0.20
  -5   0  17    1.71    0.15
   4   0 -17    0.43    0.15
  -4   0  17    0.48    0.09
   3   0 -17    8.44    0.32
  -3   0  17    7.85    0.25
   2   0 -17   13.90    0.44
  -2   0  17   13.90    0.38
   1   0 -17    1.41    0.13
  -1   0  17    1.45    0.10
   0   0 -17   24.24    0.67
   0   0  17   24.61    0.62
  -1   0 -17   73.25    1.86
   1   0  17   74.19    1.76
  -2   0 -17   31.44    0.83
   2   0  17   31.83    0.81
  -3   0 -17   25.71    0.66
   3   0  17   24.32    0.66
  -4   0 -17   28.19    0.72
   4   0  17   26.51    0.73
  -5   0 -17    0.50    0.12
  -6   0 -17    2.15    0.20
  -7   0 -17    0.52    0.15
   5  -1 -17    1.05    0.16
  -5   1  17    0.94    0.14
   4  -1 -17    1.81    0.20
  -4   1  17    2.55    0.15
   3  -1 -17    2.44    0.20
  -3   1  17    3.18    0.15
   2  -1 -17    2.91    0.18
  -2   1  17    2.94    0.14
   1  -1 -17    0.19    0.09
  -1   1  17   -0.07    0.07
   0  -1 -17    1.84    0.14
   0   1  17    1.98    0.12
  -1  -1 -17    2.18    0.16
   1   1  17    2.60    0.14
  -2  -1 -17   15.93    0.46
   2   1  17   15.48    0.43
  -3  -1 -17    7.85    0.27
   3   1  17    7.78    0.28
   3   1  17    8.23    0.28
   4   1  17   12.60    0.39
   5   1  17    1.05    0.17
   6   1  17    0.40    0.12
   5  -2 -17    8.53    0.37
  -5   2  17    8.71    0.29
   4  -2 -17   16.36    0.53
  -4   2  17   16.97    0.46
   3  -2 -17   19.93    0.59
  -3   2  17   19.36    0.52
   2  -2 -17   96.17    2.46
  -2   2  17   98.77    2.31
   1  -2 -17    2.30    0.15
  -1   2  17    2.18    0.13
   0  -2 -17    6.10    0.24
   0   2  17    6.08    0.20
  -1  -2 -17   38.26    1.00
   1   2  17   38.00    0.93
  -2  -2 -17    3.87    0.19
   2   2  17    4.15    0.18
  -3  -2 -17    7.22    0.26
   3   2  17    6.78    0.26
  -4  -2 -17    2.13    0.16
   4   2  17    1.84    0.18
   5   2  17    0.52    0.13
   6   2  17    0.71    0.15
   7   2  17    0.68    0.17
   4  -3 -17    0.29    0.14
  -4   3  17    0.35    0.10
   3  -3 -17    0.77    0.15
  -3   3  17    0.51    0.10
   2  -3 -17    0.27    0.10
  -2   3  17    0.36    0.08
   1  -3 -17   11.53    0.38
  -1   3  17   11.39    0.33
   0  -3 -17   10.24    0.34
   0   3  17   10.77    0.30
  -1  -3 -17    1.54    0.15
   1   3  17    1.39    0.12
  -2  -3 -17   21.49    0.60
  -3  -3 -17   31.91    0.84
   3   3  17   30.64    0.81
  -4  -3 -17    5.78    0.24
   4   3  17    5.70    0.25
  -5  -3 -17    0.22    0.11
   5   3  17    0.08    0.13
   6   3  17    0.48    0.14
   4  -4 -17    0.12    0.16
   3  -4 -17    6.65    0.30
  -3   4  17    6.46    0.25
   2  -4 -17    7.91    0.31
  -2   4  17    7.65    0.25
   1  -4 -17    3.03    0.18
  -1   4  17    3.24    0.15
   0  -4 -17    4.66    0.22
  -1  -4 -17    4.85    0.22
  -2  -4 -17    0.39    0.11
  -3  -4 -17    1.23    0.14
   3   4  17    1.16    0.16
  -4  -4 -17    9.10    0.32
   4   4  17    9.26    0.33
  -5  -4 -17    5.49    0.24
   5   4  17    4.98    0.24
  -6  -4 -17    1.26    0.18
   6   4  17    1.50    0.19
   4  -5 -17    1.43    0.24
  -4   5  17    1.41    0.17
   3  -5 -17    4.97    0.28
  -3   5  17    5.11    0.22
   2  -5 -17    6.79    0.29
  -2   5  17    6.36    0.23
   1  -5 -17    1.78    0.18
   0  -5 -17    3.70    0.21
  -1  -5 -17    5.86    0.24
  -2  -5 -17    2.71    0.18
  -3  -5 -17    2.84    0.17
   3   5  17    2.95    0.22
  -4  -5 -17    0.64    0.12
   4   5  17    0.69    0.14
  -5  -5 -17    0.34    0.13
   5   5  17    0.21    0.14
  -6  -5 -17    0.44    0.15
   6   5  17    0.39    0.17
   3  -6 -17   10.66    0.41
   2  -6 -17    0.13    0.15
   1  -6 -17    2.90    0.19
   0  -6 -17    3.43    0.21
  -1  -6 -17    9.52    0.33
  -2  -6 -17    2.10    0.18
  -3  -6 -17    5.53    0.25
   3   6  17    5.37    0.26
  -4  -6 -17    8.68    0.33
   4   6  17    9.16    0.34
  -5  -6 -17    0.04    0.14
   5   6  17    0.07    0.15
   1  -7 -17   -0.01    0.14
   0  -7 -17    2.16    0.19
  -1  -7 -17    0.27    0.14
  -2  -7 -17    1.09    0.18
  -3  -7 -17    2.29    0.21
   4   7  17    1.34    0.23
  -1  -6  18    1.08    0.17
   0  -6  18    3.53    0.23
   1  -6  18   -0.04    0.13
   2  -6  18    0.11    0.17
  -3   6 -18    1.40    0.19
  -4   6 -18    0.03    0.14
  -3  -5  18    4.34    0.22
  -2  -5  18    7.23    0.27
  -1  -5  18    0.24    0.13
   0  -5  18    0.07    0.13
   1  -5  18    2.43    0.22
   2  -5  18    1.02    0.17
  -3   5 -18    0.00    0.12
   3  -5  18    0.05    0.14
  -4   5 -18    2.90    0.20
   4  -5  18    2.74    0.28
  -5   5 -18    0.35    0.15
   4   4 -18    2.17    0.25
   3   4 -18    0.78    0.16
  -3  -4  18    0.86    0.13
   2   4 -18    0.18    0.13
  -2  -4  18    0.26    0.10
  -1  -4  18    1.09    0.13
   0  -4  18    0.15    0.10
   1  -4  18   13.10    0.43
   2  -4  18    0.07    0.12
  -3   4 -18   16.71    0.47
   3  -4  18   15.71    0.52
  -4   4 -18   10.66    0.34
   4  -4  18    9.71    0.41
  -5   4 -18    0.49    0.14
   5  -4  18    0.17    0.18
   4   3 -18    0.50    0.17
  -4  -3  18    0.26    0.10
   3   3 -18    4.53    0.27
  -3  -3  18    4.62    0.20
   2   3 -18    1.63    0.19
  -2  -3  18    1.79    0.15
   1   3 -18    2.71    0.19
  -1  -3  18    2.51    0.15
   0  -3  18   10.56    0.33
   1  -3  18   11.03    0.36
   2  -3  18    0.20    0.13
  -3   3 -18   21.16    0.56
   3  -3  18   19.67    0.59
  -4   3 -18   17.09    0.48
   4  -3  18   16.58    0.53
  -5   3 -18    0.41    0.13
   5  -3  18    0.16    0.16
  -6   3 -18    8.49    0.32
   6  -3  18    8.02    0.39
   4   2 -18   10.14    0.40
  -4  -2  18   10.66    0.33
   3   2 -18    4.59    0.24
  -3  -2  18    4.71    0.20
   2   2 -18   13.38    0.44
  -2  -2  18   13.50    0.39
   1   2 -18    3.64    0.21
  -1  -2  18    3.62    0.17
   0   2 -18   32.46    0.89
   0  -2  18   34.33    0.85
   1  -2  18    1.97    0.17
   2  -2  18   12.78    0.40
  -3   2 -18   22.70    0.60
   3  -2  18   22.11    0.63
  -4   2 -18    2.33    0.17
   4  -2  18    2.30    0.22
  -5   2 -18    3.92    0.20
   5  -2  18    3.95    0.25
  -6   2 -18    4.91    0.25
   6  -2  18    5.02    0.31
   4   1 -18    0.99    0.18
  -4  -1  18    1.22    0.14
   3   1 -18    7.41    0.32
  -3  -1  18    7.90    0.26
   2   1 -18    1.23    0.16
  -2  -1  18    1.51    0.13
   1   1 -18    0.55    0.12
  -1  -1  18    0.85    0.11
   0   1 -18   24.58    0.69
   0  -1  18   25.71    0.65
  -1   1 -18    0.09    0.10
   1  -1  18    0.04    0.08
   2  -1  18    5.72    0.24
  -3   1 -18   25.23    0.66
   3  -1  18   25.19    0.68
  -4   1 -18    8.96    0.30
   4  -1  18    8.23    0.33
  -5   1 -18    1.39    0.17
   5  -1  18    1.24    0.20
  -6   1 -18    2.58    0.21
   4   0 -18    1.08    0.17
  -4   0  18    1.03    0.12
   3   0 -18    1.19    0.19
  -3   0  18    0.83    0.13
   2   0 -18    0.15    0.11
  -2   0  18    0.13    0.09
   1   0 -18    6.76    0.27
  -1   0  18    6.88    0.23
   0   0 -18    6.04    0.24
   0   0  18    5.97    0.21
  -1   0 -18    0.12    0.10
  -2   0 -18   18.85    0.54
   2   0  18   18.90    0.51
  -3   0 -18    4.96    0.23
   3   0  18    6.31    0.25
  -4   0 -18    1.47    0.16
   4   0  18    1.33    0.18
  -5   0 -18    0.37    0.13
  -6   0 -18    1.82    0.20
  -7   0 -18   -0.04    0.16
   4  -1 -18    2.13    0.22
  -4   1  18    2.40    0.15
   3  -1 -18    8.20    0.32
  -3   1  18    8.02    0.27
   2  -1 -18   -0.02    0.12
  -2   1  18   -0.05    0.07
   1  -1 -18    0.06    0.10
  -1   1  18   -0.15    0.08
   0  -1 -18    6.51    0.25
   0   1  18    6.46    0.21
  -1  -1 -18    9.69    0.33
   1   1  18    9.79    0.29
  -2  -1 -18   30.38    0.82
   2   1  18   31.07    0.78
  -3  -1 -18   37.80    0.97
   3   1  18   36.30    0.94
   4   1  18    3.01    0.22
   5   1  18    0.14    0.13
  -7  -1 -18    0.20    0.16
   4  -2 -18    5.99    0.30
  -4   2  18    6.16    0.23
   3  -2 -18   51.61    1.37
  -3   2  18   52.00    1.26
   2  -2 -18    0.30    0.13
  -2   2  18    0.21    0.09
   1  -2 -18   48.80    1.28
  -1   2  18   49.59    1.19
   0  -2 -18    4.61    0.21
   0   2  18    4.46    0.17
  -1  -2 -18    3.49    0.19
   1   2  18    3.70    0.17
  -2  -2 -18    4.45    0.20
   2   2  18    4.37    0.19
  -3  -2 -18    4.27    0.20
  -4  -2 -18    0.04    0.10
   4   2  18    0.07    0.11
   5   2  18    2.60    0.21
   6   2  18   10.45    0.38
   4  -3 -18    1.73    0.23
  -4   3  18    1.68    0.15
   3  -3 -18    2.63    0.20
  -3   3  18    2.46    0.15
   2  -3 -18    0.49    0.13
  -2   3  18    0.24    0.08
   1  -3 -18    0.65    0.11
  -1   3  18    0.63    0.09
   0  -3 -18    2.15    0.17
   0   3  18    2.07    0.13
  -1  -3 -18    0.12    0.09
  -2  -3 -18    0.32    0.11
  -3  -3 -18    0.72    0.12
  -4  -3 -18    2.07    0.17
   4   3  18    1.78    0.20
  -5  -3 -18    3.22    0.20
   5   3  18    3.29    0.23
   6   3  18    0.69    0.17
  -4   4  18    4.42    0.22
   3  -4 -18    6.19    0.31
  -3   4  18    6.34    0.24
  -2   4  18    0.73    0.10
   1  -4 -18    1.62    0.18
  -1   4  18    1.86    0.14
   0  -4 -18    0.57    0.12
  -1  -4 -18    0.88    0.13
  -2  -4 -18    7.55    0.27
  -3  -4 -18   13.99    0.43
  -4  -4 -18    7.46    0.28
   4   4  18    7.26    0.30
  -5  -4 -18    9.83    0.35
   5   4  18   10.35    0.37
   6   4  18    2.38    0.24
   3  -5 -18    0.83    0.18
  -3   5  18    0.64    0.12
   2  -5 -18   10.41    0.38
  -2   5  18    9.61    0.31
   1  -5 -18    0.81    0.15
   0  -5 -18    0.05    0.12
  -1  -5 -18    2.28    0.18
  -2  -5 -18    0.15    0.10
  -3  -5 -18    0.19    0.12
  -4  -5 -18    0.37    0.13
   4   5  18    0.32    0.14
  -5  -5 -18    3.22    0.22
   5   5  18    3.01    0.24
  -6  -5 -18    0.15    0.15
   2  -6 -18    0.51    0.17
   1  -6 -18    0.11    0.12
   0  -6 -18    2.12    0.18
  -1  -6 -18    0.94    0.17
  -2  -6 -18   21.82    0.63
  -3  -6 -18    1.87    0.20
  -4  -6 -18   12.17    0.41
   4   6  18   11.85    0.41
   5   6  18    1.26    0.19
   4   7  18    3.28    0.27
  -1  -5  19    0.22    0.13
   0  -5  19    1.08    0.16
   1  -5  19    0.30    0.13
   2  -5  19    0.78    0.16
   3  -5  19    2.56    0.24
  -4   5 -19    8.73    0.32
   3   4 -19    0.15    0.16
  -2  -4  19    4.36    0.20
  -1  -4  19    4.47    0.22
   0  -4  19    0.24    0.12
   1  -4  19   17.69    0.53
   2  -4  19    7.20    0.32
   3  -4  19    0.94    0.18
  -4   4 -19   17.28    0.49
   4  -4  19   15.63    0.55
  -5   4 -19    8.58    0.32
   5  -4  19    8.05    0.40
   3   3 -19    3.10    0.25
  -3  -3  19    3.43    0.19
   2   3 -19    0.74    0.15
  -2  -3  19    0.65    0.10
  -1  -3  19    8.84    0.30
   0  -3  19    0.24    0.10
   1  -3  19    0.92    0.15
   2  -3  19   15.20    0.47
   3  -3  19    0.84    0.16
  -4   3 -19   11.77    0.37
   4  -3  19   11.15    0.43
  -5   3 -19    9.55    0.33
   5  -3  19    8.83    0.38
   6  -3  19    0.85    0.21
   4   2 -19    0.72    0.18
   3   2 -19    0.78    0.14
  -3  -2  19    0.46    0.11
   2   2 -19   12.46    0.42
  -2  -2  19   12.73    0.37
   1   2 -19    8.74    0.33
  -1  -2  19    8.78    0.29
   0   2 -19    2.90    0.19
   0  -2  19    2.61    0.16
   1  -2  19   84.37    2.03
   2  -2  19    7.52    0.30
   3  -2  19   28.90    0.78
  -4   2 -19    8.51    0.30
   4  -2  19    8.02    0.33
  -5   2 -19    0.73    0.13
   5  -2  19    0.51    0.17
  -6   2 -19    0.40    0.15
   6  -2  19    0.36    0.18
   4   1 -19    1.89    0.22
  -4  -1  19    2.02    0.16
   3   1 -19    5.05    0.26
  -3  -1  19    5.56    0.22
   2   1 -19    2.72    0.20
  -2  -1  19    2.81    0.15
   1   1 -19   20.63    0.62
  -1  -1  19   21.96    0.57
   0   1 -19    1.08    0.15
   0  -1  19    1.32    0.13
  -1   1 -19   26.66    0.73
   1  -1  19   27.23    0.70
   2  -1  19    8.43    0.31
   3  -1  19    1.50    0.18
  -4   1 -19   12.06    0.37
   4  -1  19   11.70    0.41
  -5   1 -19    0.14    0.12
   5  -1  19    0.06    0.15
  -6   1 -19    0.26    0.15
   4   0 -19    0.14    0.15
  -4   0  19    0.10    0.09
   3   0 -19   35.87    1.01
  -3   0  19   36.83    0.91
   2   0 -19   24.90    0.72
  -2   0  19   25.88    0.66
   1   0 -19   18.37    0.55
  -1   0  19   18.40    0.49
   0   0 -19   13.39    0.42
   0   0  19   13.68    0.39
  -1   0 -19    1.76    0.16
   1   0  19    1.75    0.13
  -2   0 -19    4.96    0.23
   2   0  19    4.90    0.22
   3   0  19    1.38    0.17
  -4   0 -19    1.63    0.17
   4   0  19    1.49    0.21
  -5   0 -19    1.09    0.18
  -6   0 -19    0.08    0.15
   4  -1 -19   -0.02    0.15
  -4   1  19   -0.16    0.10
   3  -1 -19    0.02    0.14
  -3   1  19    0.07    0.10
   2  -1 -19    6.73    0.29
  -2   1  19    6.98    0.24
   1  -1 -19    8.59    0.32
  -1   1  19    8.38    0.26
   0  -1 -19    4.12    0.21
   0   1  19    4.00    0.18
  -1  -1 -19    3.27    0.19
   1   1  19    3.35    0.17
  -2  -1 -19    0.23    0.10
   2   1  19    0.39    0.10
   3   1  19    4.51    0.22
  -6  -1 -19    1.22    0.20
  -4   2  19    1.58    0.16
   3  -2 -19   11.72    0.41
  -3   2  19    9.88    0.32
   2  -2 -19    1.34    0.18
  -2   2  19    0.98    0.14
   1  -2 -19    3.54    0.21
  -1   2  19    3.32    0.17
   0  -2 -19    8.07    0.29
   0   2  19    7.83    0.25
  -1  -2 -19    4.52    0.22
   1   2  19    4.63    0.19
  -2  -2 -19    1.12    0.16
  -3  -2 -19    7.56    0.27
   4   2  19   15.38    0.47
   5   2  19   -0.02    0.13
   6   2  19    3.58    0.26
   3  -3 -19    2.05    0.22
  -3   3  19    1.98    0.15
   2  -3 -19   29.05    0.81
  -2   3  19   28.48    0.73
   1  -3 -19    6.46    0.28
  -1   3  19    6.67    0.23
   0  -3 -19    0.01    0.10
   0   3  19    0.03    0.08
  -1  -3 -19    7.56    0.29
  -2  -3 -19    0.51    0.12
  -3  -3 -19    5.39    0.23
  -4  -3 -19    2.58    0.18
   4   3  19    2.23    0.21
   5   3  19    0.41    0.15
   6   3  19    1.27    0.19
   3  -4 -19    2.25    0.21
  -3   4  19    2.41    0.16
   2  -4 -19    4.03    0.23
  -2   4  19    3.76    0.19
   1  -4 -19    4.23    0.22
  -1   4  19    4.48    0.19
   0  -4 -19    2.93    0.19
  -1  -4 -19   36.56    0.98
  -2  -4 -19    7.55    0.29
  -3  -4 -19   45.08    1.18
  -4  -4 -19    5.43    0.25
  -5  -4 -19    5.82    0.27
   5   4  19    6.19    0.30
  -3   5  19    0.02    0.11
   2  -5 -19    0.61    0.16
   1  -5 -19    1.33    0.19
   0  -5 -19    2.86    0.19
  -1  -5 -19   -0.06    0.11
  -2  -5 -19    1.97    0.18
  -3  -5 -19    1.32    0.16
  -4  -5 -19    1.79    0.19
  -5  -5 -19    0.16    0.14
   5   5  19    0.14    0.16
   0  -6 -19    5.02    0.26
  -1  -6 -19    2.21    0.18
  -2  -6 -19    7.54    0.31
  -3  -6 -19    9.49    0.34
   3   4 -20    4.62    0.32
  -1  -4  20    7.89    0.29
   0  -4  20   20.42    0.58
   1  -4  20    0.09    0.14
   2  -4  20   19.22    0.58
   3  -4  20    8.40    0.37
   4  -4  20    1.01    0.21
  -5   4 -20    5.00    0.28
   3   3 -20    0.63    0.18
   2   3 -20    0.83    0.16
  -2  -3  20    0.71    0.11
  -1  -3  20    5.05    0.23
   0  -3  20   16.30    0.48
   1  -3  20    0.30    0.13
   2  -3  20    6.02    0.29
   3  -3  20   15.31    0.49
   4  -3  20    1.89    0.25
  -5   3 -20    2.53    0.22
   5  -3  20    2.00    0.28
   3   2 -20    5.06    0.30
  -3  -2  20    5.52    0.23
   2   2 -20    1.19    0.17
  -2  -2  20    1.13    0.15
   1   2 -20   14.03    0.47
  -1  -2  20   15.59    0.43
   0  -2  20    5.93    0.23
   1  -2  20    0.98    0.17
   2  -2  20    9.10    0.34
   3  -2  20    0.40    0.14
   4  -2  20    0.00    0.15
  -5   2 -20    2.10    0.20
   5  -2  20    1.93    0.23
   6  -2  20    1.31    0.21
   3   1 -20    0.47    0.15
  -3  -1  20    0.38    0.10
   2   1 -20    4.10    0.24
  -2  -1  20    3.92    0.20
   1   1 -20    5.62    0.26
  -1  -1  20    5.46    0.23
   0   1 -20    7.10    0.29
   0  -1  20    7.26    0.26
   1  -1  20    0.24    0.09
   2  -1  20   27.91    0.75
   3  -1  20    5.43    0.26
   4  -1  20    3.64    0.25
  -5   1 -20    1.35    0.18
   5  -1  20    1.02    0.19
  -6   1 -20    2.19    0.22
   3   0 -20    5.35    0.28
  -3   0  20    5.95    0.23
   2   0 -20   10.97    0.39
  -2   0  20   11.38    0.34
   1   0 -20   10.16    0.36
  -1   0  20   10.53    0.32
   0   0 -20    2.80    0.19
   0   0  20    2.42    0.15
  -1   0 -20    0.08    0.11
   1   0  20    0.12    0.10
   2   0  20    0.29    0.11
   3   0  20    1.35    0.18
   4   0  20    1.57    0.20
  -5   0 -20    4.78    0.25
  -6   0 -20    4.70    0.27
   3  -1 -20    1.22    0.21
  -3   1  20    1.40    0.15
   2  -1 -20    2.67    0.21
  -2   1  20    2.49    0.17
   1  -1 -20    3.09    0.19
  -1   1  20    3.11    0.15
   0  -1 -20    3.57    0.21
   0   1  20    3.67    0.18
  -1  -1 -20    4.40    0.22
   1   1  20    4.49    0.20
  -2  -1 -20    0.89    0.16
   2   1  20    0.78    0.12
  -6  -1 -20    0.85    0.17
   3  -2 -20    0.60    0.15
   2  -2 -20    8.55    0.34
  -2   2  20    7.81    0.28
   1  -2 -20    2.98    0.21
  -1   2  20    2.79    0.16
   0  -2 -20    2.55    0.19
   0   2  20    2.53    0.15
  -1  -2 -20    9.80    0.35
   1   2  20    9.62    0.30
  -2  -2 -20    7.57    0.29
  -3  -2 -20    0.16    0.12
   5   2  20    4.29    0.26
   6   2  20    1.32    0.23
  -3   3  20   -0.05    0.10
   2  -3 -20   15.21    0.50
  -2   3  20   14.85    0.42
   1  -3 -20    0.12    0.13
  -1   3  20    0.10    0.10
   0  -3 -20    1.08    0.15
   0   3  20    1.36    0.13
  -1  -3 -20    4.47    0.24
  -2  -3 -20    0.34    0.13
  -3  -3 -20    0.44    0.12
  -4  -3 -20    0.62    0.13
   5   3  20    4.04    0.26
   6   3  20    0.27    0.17
   2  -4 -20    2.05    0.23
  -2   4  20    2.35    0.19
   1  -4 -20    5.81    0.28
   0  -4 -20    0.05    0.13
  -1  -4 -20   25.72    0.73
  -2  -4 -20   11.60    0.39
  -3  -4 -20    5.72    0.26
  -4  -4 -20   10.53    0.37
  -5  -4 -20    0.11    0.14
   5   4  20   -0.18    0.16
   1  -5 -20    0.77    0.15
   0  -5 -20    0.74    0.15
  -1  -5 -20    0.84    0.15
  -2  -5 -20    3.50    0.22
  -3  -5 -20    5.54    0.27
  -4  -5 -20    3.57    0.22
   5   5  20    1.76    0.25
   1  -4  21   34.49    0.93
   2  -4  21    3.14    0.27
   2   3 -21    9.68    0.38
  -1  -3  21    6.11    0.25
   0  -3  21    1.36    0.17
   1  -3  21   15.36    0.48
   2  -3  21    2.73    0.24
   3  -3  21    2.45    0.23
   4  -3  21    5.56    0.33
  -5   3 -21   -0.05    0.15
   2   2 -21    2.15    0.24
  -2  -2  21    1.99    0.18
   1   2 -21    9.04    0.35
  -1  -2  21    9.25    0.32
   0  -2  21    0.98    0.16
   1  -2  21    0.10    0.12
   2  -2  21    0.70    0.13
   3  -2  21    2.79    0.23
   4  -2  21    2.19    0.25
  -5   2 -21    2.23    0.24
   5  -2  21    1.49    0.22
   2   1 -21   14.20    0.48
  -2  -1  21   14.88    0.43
   1   1 -21    0.48    0.14
  -1  -1  21    0.25    0.10
   0   1 -21    7.15    0.30
   0  -1  21    7.48    0.27
   1  -1  21    0.12    0.11
   2  -1  21    0.07    0.13
   3  -1  21    4.56    0.25
   4  -1  21   -0.07    0.15
  -5   1 -21   -0.03    0.15
   2   0 -21    3.36    0.24
  -2   0  21    3.54    0.19
   1   0 -21    0.06    0.13
  -1   0  21   -0.01    0.10
   0   0 -21    0.03    0.12
   0   0  21   -0.02    0.10
  -1   0 -21    3.62    0.21
   1   0  21    3.59    0.19
   2   0  21    0.87    0.13
   3   0  21    9.93    0.35
  -5   0 -21    2.09    0.21
  -6   0 -21    3.87    0.26
   2  -1 -21   17.46    0.55
  -2   1  21   17.88    0.48
   1  -1 -21    0.46    0.14
  -1   1  21    0.10    0.09
   0  -1 -21    2.57    0.21
   0   1  21    3.08    0.17
  -1  -1 -21   -0.04    0.11
   1   1  21    0.08    0.10
  -2  -1 -21    1.00    0.17
   2   1  21    1.14    0.17
  -5  -1 -21    1.95    0.22
  -6  -1 -21    3.64    0.27
   2  -2 -21    7.23    0.31
  -2   2  21    7.78    0.27
   1  -2 -21    0.82    0.15
  -1   2  21    0.49    0.10
   0  -2 -21    6.88    0.29
   0   2  21    7.17    0.25
  -1  -2 -21    7.26    0.30
   1   2  21    7.17    0.26
  -2  -2 -21   13.71    0.44
  -3  -2 -21   23.03    0.66
  -2   3  21    1.12    0.15
   1  -3 -21    0.44    0.15
   0  -3 -21    0.64    0.15
  -1  -3 -21   -0.10    0.13
  -2  -3 -21    0.54    0.14
  -3  -3 -21    4.30    0.24
  -4  -3 -21    9.07    0.34
  -2   4  21    3.35    0.19
   1  -4 -21   33.64    0.94
   0  -4 -21    4.71    0.26
  -1  -4 -21    1.04    0.17
  -2  -4 -21   13.46    0.45
  -3  -4 -21    3.41    0.22
  -4  -4 -21    0.15    0.14
  -2  -5 -21   -0.02    0.12
   1  -3  22    0.37    0.15
   2  -3  22    9.40    0.37
   2   2 -22    4.63    0.30
   0  -2  22    0.62    0.13
   1  -2  22    3.12    0.22
   2  -2  22    0.25    0.15
   3  -2  22    1.67    0.21
   4  -2  22   10.52    0.42
   2   1 -22    3.88    0.27
   1   1 -22    0.62    0.16
   0  -1  22    3.43    0.21
   1  -1  22    0.69    0.14
   2  -1  22    3.86    0.25
   3  -1  22    0.64    0.16
   4  -1  22    4.12    0.29
   2   0 -22    0.00    0.16
   1   0 -22    3.90    0.25
  -1   0  22    3.96    0.21
   0   0 -22   -0.04    0.13
   0   0  22    0.02    0.10
   1   0  22    6.10    0.25
   2   0  22    3.01    0.22
   3   0  22    3.77    0.24
  -2   1  22    3.57    0.19
   1  -1 -22    0.37    0.15
  -1   1  22    0.22    0.10
   0  -1 -22   -0.13    0.13
   0   1  22   -0.05    0.11
  -1  -1 -22    5.02    0.26
   1   1  22    5.07    0.23
   2   1  22    4.98    0.25
  -2   2  22    4.31    0.21
   1  -2 -22    0.75    0.17
  -1   2  22    0.49    0.11
   0  -2 -22    0.17    0.14
   0   2  22    0.15    0.11
  -1  -2 -22    8.51    0.33
  -2  -2 -22    4.39    0.26
  -2   3  22    0.02    0.11
  -1   3  22    0.84    0.15
   0  -3 -22    0.17    0.15
  -1  -3 -22    4.50    0.26
  -2  -3 -22   20.39    0.61
  -3  -3 -22    0.59    0.15
  -1  -4 -22    0.84    0.15
  -2  -4 -22    0.04    0.13
  -3  -4 -22    0.51    0.16
   2  -2  23   11.58    0.42
   1   1 -23    0.21    0.17
   0  -1  23   -0.04    0.12
   1  -1  23    0.50    0.13
   2  -1  23    0.44    0.16
   3  -1  23    1.91    0.23
   4  -1  23    1.91    0.26
   1   0 -23    7.00    0.32
   0   0 -23    3.64    0.24
   0   0  23    3.37    0.21
   1   0  23    0.34    0.12
   2   0  23   15.42    0.48
   3   0  23    1.72    0.22
  -1   1  23    0.55    0.13
   0  -1 -23    6.05    0.29
   0   1  23    6.70    0.26
  -1  -1 -23    1.13    0.17
   1   1  23    1.27    0.19
  -1   2  23   25.87    0.68
   0  -2 -23    0.72    0.17
   0   2  23    0.56    0.13
  -1  -2 -23    3.29    0.23
  -2  -2 -23   13.63    0.46
  -1   3  23    0.13    0.12
  -1  -3 -23    0.02    0.16
  -2  -3 -23    6.77    0.32
  -3  -3 -23    2.63    0.25
   0   0 -24    2.06    0.23
   1   0  24    0.04    0.14
   2   0  24    0.23    0.15
  -1  -1 -24    0.43    0.16
   1   1  24    0.23    0.14
   0   2  24    8.41    0.31
  -2  -2 -24    1.30    0.22
   0   0   0    0.00    0.00
;
_shelx_hkl_checksum              18549
_shelx_res_file
;
TITL    hagen1a in P -1
    hagen1a_v2.res
    created by SHELXL-2016/6 at 16:50:57 on 01-Jun-2017
CELL 0.71073   7.13300   8.11550  17.79770  87.7466  81.8403  87.8490
ZERR    2.00   0.00090   0.00110   0.00230   0.0021   0.0022   0.0022
LATT 1
SFAC C  H  N  O  S  Cl
UNIT 38 24  4 8  6  4
MERG 2
OMIT -2 50
L.S. 4
acta
FMAP -2
PLAN 5
BOND $H
WGHT    0.044800    0.637500
FVAR       0.36954
S1    5    0.370240    0.037059    0.774849    11.00000    0.05750    0.04790 =
         0.03740   -0.00033   -0.01182    0.00236
S2    5    0.280217    0.436623    0.601431    11.00000    0.05536    0.03034 =
         0.04186   -0.00134    0.00203   -0.00572
S3    5    0.291597   -0.084825    0.608352    11.00000    0.04440    0.03104 =
         0.03821    0.00066   -0.00800   -0.00082
CL1   6   -0.258534    0.263172    1.033111    11.00000    0.10769    0.13509 =
         0.06290    0.00108    0.01852    0.03735
CL2   6   -0.352718    0.555648    0.872649    11.00000    0.08613    0.12708 =
         0.07515   -0.01226    0.02572    0.02367
N1    3    0.338255    0.164260    0.704689    11.00000    0.05797    0.03960 =
         0.03712   -0.00197   -0.01018   -0.00009
C11   1   -0.083217    0.204206    0.959773    11.00000    0.07936    0.08232 =
         0.04312    0.00289    0.00045    0.01962
O11   4    0.549205    0.069879    0.796935    11.00000    0.05519    0.09296 =
         0.05288   -0.00131   -0.01774    0.00192
C12   1   -0.131169    0.109826    0.903859    11.00000    0.05498    0.10622 =
         0.06129    0.00354   -0.00838    0.00271
AFIX  43
H12   2   -0.255949    0.079825    0.904470    11.00000   -1.20000
AFIX   0
O12   4    0.333554   -0.129145    0.758322    11.00000    0.09452    0.04200 =
         0.04709    0.00158   -0.01414    0.00521
C13   1    0.007710    0.059618    0.846521    11.00000    0.06178    0.08363 =
         0.04745   -0.00718   -0.01536   -0.00338
AFIX  43
H13   2   -0.022673   -0.004985    0.808228    11.00000   -1.20000
AFIX   0
C14   1    0.191265    0.105707    0.846368    11.00000    0.05817    0.05089 =
         0.03730    0.00087   -0.00998   -0.00068
C15   1    0.237555    0.202973    0.902578    11.00000    0.07341    0.07258 =
         0.05071   -0.01404   -0.00756   -0.01304
AFIX  43
H15   2    0.361647    0.235004    0.901832    11.00000   -1.20000
AFIX   0
C16   1    0.098248    0.252033    0.959705    11.00000    0.09683    0.08404 =
         0.05009   -0.02093   -0.00365   -0.00539
AFIX  43
H16   2    0.127549    0.317278    0.997969    11.00000   -1.20000
AFIX   0
C21   1   -0.173858    0.517799    0.797800    11.00000    0.06021    0.05696 =
         0.05239   -0.00130    0.00451    0.01154
O21   4    0.216925    0.520243    0.537708    11.00000    0.10065    0.03394 =
         0.04436    0.00437   -0.00134    0.00502
C22   1   -0.219490    0.446257    0.734286    11.00000    0.04664    0.05891 =
         0.06375    0.00026   -0.00531    0.00006
AFIX  43
H22   2   -0.343084    0.416516    0.731865    11.00000   -1.20000
AFIX   0
O22   4    0.461189    0.467981    0.620723    11.00000    0.05374    0.05654 =
         0.06868   -0.00987    0.00605   -0.02059
C23   1   -0.078583    0.419652    0.674477    11.00000    0.05368    0.04431 =
         0.04783   -0.00506   -0.01150   -0.00287
AFIX  43
H23   2   -0.106709    0.374468    0.630332    11.00000   -1.20000
AFIX   0
C24   1    0.105026    0.460325    0.680219    11.00000    0.04734    0.02864 =
         0.04054   -0.00284   -0.00409   -0.00007
C25   1    0.150034    0.530708    0.744239    11.00000    0.05359    0.05286 =
         0.05367   -0.01579   -0.00960   -0.00406
AFIX  43
H25   2    0.274276    0.557063    0.747588    11.00000   -1.20000
AFIX   0
C26   1    0.007386    0.561291    0.803208    11.00000    0.07486    0.06826 =
         0.04800   -0.02280   -0.00880    0.00596
AFIX  43
H26   2    0.033945    0.611211    0.846482    11.00000   -1.20000
AFIX   0
C31   1    0.305586    0.114507    0.639729    11.00000    0.03719    0.03415 =
         0.03707    0.00037   -0.00323    0.00030
N32   3    0.274990    0.231241    0.583204    11.00000    0.04821    0.03021 =
         0.03489   -0.00140   -0.00394    0.00104
C33   1    0.249937    0.163487    0.512522    11.00000    0.03105    0.03513 =
         0.03525   -0.00277   -0.00144    0.00029
C34   1    0.227539    0.243929    0.444245    11.00000    0.04547    0.03937 =
         0.04054    0.00323   -0.00465    0.00035
AFIX  43
H34   2    0.223853    0.358527    0.439781    11.00000   -1.20000
AFIX   0
C35   1    0.210786    0.149107    0.382825    11.00000    0.04612    0.05169 =
         0.03598    0.00390   -0.00918   -0.00252
AFIX  43
H35   2    0.194170    0.201233    0.336651    11.00000   -1.20000
AFIX   0
C36   1    0.218138   -0.021253    0.388402    11.00000    0.04568    0.05003 =
         0.03933   -0.00630   -0.00770   -0.00570
AFIX  43
H36   2    0.207626   -0.081849    0.346003    11.00000   -1.20000
AFIX   0
C37   1    0.240873   -0.102123    0.456112    11.00000    0.04203    0.03700 =
         0.04405   -0.00489   -0.00670   -0.00446
AFIX  43
H37   2    0.245905   -0.216761    0.460103    11.00000   -1.20000
AFIX   0
C38   1    0.256123   -0.007724    0.518426    11.00000    0.03035    0.03573 =
         0.03666    0.00078   -0.00335   -0.00165
HKLF 4
REM     hagen1a in P -1
REM R1 =  0.0361 for    3301 Fo > 4sig(Fo)  and  0.0382 for all    3530 data
REM    271 parameters refined using      0 restraints
END
WGHT      0.0444      0.6373
REM Highest difference peak  0.584,  deepest hole -0.617,  1-sigma level  0.045
Q1    1  -0.1846  0.3333  1.0500  11.00000  0.05   -0.62
Q2    1  -0.3464  0.1837  1.0172  11.00000  0.05    0.58
Q3    1  -0.3059  0.6600  0.8632  11.00000  0.05    0.41
Q4    1  -0.2940  0.2597  1.0182  11.00000  0.05   -0.33
Q5    1  -0.4132  0.4668  0.8707  11.00000  0.05   -0.31
;
_shelx_res_checksum              23359
loop_
_space_group_symop_operation_xyz
'x, y, z'
'-x, -y, -z'
loop_
_atom_site_type_symbol
_atom_site_label
_atom_site_fract_x
_atom_site_fract_y
_atom_site_fract_z
_atom_site_U_iso_or_equiv
_atom_site_adp_type
_atom_site_calc_flag
_atom_site_occupancy
S S1 0.37024(8) 0.03706(7) 0.77485(3) 0.04724(16) Uani d 1
S S2 0.28022(8) 0.43662(6) 0.60143(3) 0.04326(16) Uani d 1
S S3 0.29160(7) -0.08482(6) 0.60835(3) 0.03773(15) Uani d 1
Cl Cl1 -0.25853(15) 0.26317(14) 1.03311(5) 0.1060(4) Uani d 1
Cl Cl2 -0.35272(13) 0.55565(14) 0.87265(5) 0.1002(3) Uani d 1
N N1 0.3383(3) 0.1643(2) 0.70469(10) 0.0446(4) Uani d 1
C C11 -0.0832(4) 0.2042(4) 0.95977(15) 0.0698(8) Uani d 1
O O11 0.5492(2) 0.0699(3) 0.79694(10) 0.0662(5) Uani d 1
C C12 -0.1312(4) 0.1098(4) 0.90386(16) 0.0744(8) Uani d 1
H H12 -0.255949 0.079825 0.904470 0.089 Uiso calc 1
O O12 0.3336(3) -0.1291(2) 0.75832(9) 0.0611(5) Uani d 1
C C13 0.0077(4) 0.0596(4) 0.84652(15) 0.0634(7) Uani d 1
H H13 -0.022673 -0.004985 0.808228 0.076 Uiso calc 1
C C14 0.1913(3) 0.1057(3) 0.84637(12) 0.0486(5) Uani d 1
C C15 0.2376(4) 0.2030(4) 0.90258(15) 0.0651(7) Uani d 1
H H15 0.361647 0.235004 0.901832 0.078 Uiso calc 1
C C16 0.0982(5) 0.2520(4) 0.95971(16) 0.0771(8) Uani d 1
H H16 0.127549 0.317278 0.997969 0.092 Uiso calc 1
C C21 -0.1739(4) 0.5178(3) 0.79780(14) 0.0581(6) Uani d 1
O O21 0.2169(3) 0.52024(18) 0.53771(9) 0.0608(5) Uani d 1
C C22 -0.2195(3) 0.4463(3) 0.73429(15) 0.0568(6) Uani d 1
H H22 -0.343084 0.416516 0.731865 0.068 Uiso calc 1
O O22 0.4612(2) 0.4680(2) 0.62072(10) 0.0604(5) Uani d 1
C C23 -0.0786(3) 0.4197(3) 0.67448(13) 0.0481(5) Uani d 1
H H23 -0.106709 0.374468 0.630332 0.058 Uiso calc 1
C C24 0.1050(3) 0.4603(2) 0.68022(11) 0.0390(4) Uani d 1
C C25 0.1500(3) 0.5307(3) 0.74424(14) 0.0527(6) Uani d 1
H H25 0.274276 0.557063 0.747588 0.063 Uiso calc 1
C C26 0.0074(4) 0.5613(3) 0.80321(14) 0.0634(7) Uani d 1
H H26 0.033945 0.611211 0.846482 0.076 Uiso calc 1
C C31 0.3056(3) 0.1145(2) 0.63973(11) 0.0364(4) Uani d 1
N N32 0.2750(2) 0.23124(19) 0.58320(9) 0.0380(4) Uani d 1
C C33 0.2499(3) 0.1635(2) 0.51252(11) 0.0341(4) Uani d 1
C C34 0.2275(3) 0.2439(3) 0.44425(12) 0.0421(5) Uani d 1
H H34 0.223853 0.358527 0.439781 0.051 Uiso calc 1
C C35 0.2108(3) 0.1491(3) 0.38283(12) 0.0444(5) Uani d 1
H H35 0.194170 0.201233 0.336651 0.053 Uiso calc 1
C C36 0.2181(3) -0.0213(3) 0.38840(12) 0.0446(5) Uani d 1
H H36 0.207626 -0.081849 0.346003 0.054 Uiso calc 1
C C37 0.2409(3) -0.1021(3) 0.45611(12) 0.0408(4) Uani d 1
H H37 0.245905 -0.216761 0.460103 0.049 Uiso calc 1
C C38 0.2561(3) -0.0077(2) 0.51843(11) 0.0344(4) Uani d 1
loop_
_atom_site_aniso_label
_atom_site_aniso_U_11
_atom_site_aniso_U_22
_atom_site_aniso_U_33
_atom_site_aniso_U_12
_atom_site_aniso_U_13
_atom_site_aniso_U_23
S1 0.0575(3) 0.0479(3) 0.0374(3) 0.0024(2) -0.0118(2) -0.0003(2)
S2 0.0554(3) 0.0303(3) 0.0419(3) -0.0057(2) 0.0020(2) -0.0013(2)
S3 0.0444(3) 0.0310(3) 0.0382(3) -0.00082(19) -0.0080(2) 0.00066(19)
Cl1 0.1077(7) 0.1351(8) 0.0629(5) 0.0373(6) 0.0185(4) 0.0011(5)
Cl2 0.0861(6) 0.1271(8) 0.0752(5) 0.0237(5) 0.0257(4) -0.0123(5)
N1 0.0580(11) 0.0396(9) 0.0371(9) -0.0001(8) -0.0102(8) -0.0020(7)
C11 0.0794(19) 0.0823(19) 0.0431(14) 0.0196(15) 0.0004(13) 0.0029(13)
O11 0.0552(10) 0.0930(14) 0.0529(10) 0.0019(9) -0.0177(8) -0.0013(9)
C12 0.0550(15) 0.106(2) 0.0613(17) 0.0027(15) -0.0084(13) 0.0035(16)
O12 0.0945(13) 0.0420(9) 0.0471(9) 0.0052(8) -0.0141(9) 0.0016(7)
C13 0.0618(16) 0.0836(19) 0.0475(13) -0.0034(13) -0.0154(12) -0.0072(12)
C14 0.0582(13) 0.0509(13) 0.0373(11) -0.0007(10) -0.0100(10) 0.0009(9)
C15 0.0734(17) 0.0726(17) 0.0507(14) -0.0130(14) -0.0076(12) -0.0140(12)
C16 0.097(2) 0.084(2) 0.0501(15) -0.0054(17) -0.0037(15) -0.0209(14)
C21 0.0602(15) 0.0570(14) 0.0524(14) 0.0115(11) 0.0045(11) -0.0013(11)
O21 0.1006(14) 0.0339(8) 0.0444(9) 0.0050(8) -0.0013(8) 0.0044(7)
C22 0.0466(13) 0.0589(14) 0.0638(15) 0.0001(11) -0.0053(11) 0.0003(12)
O22 0.0537(10) 0.0565(10) 0.0687(11) -0.0206(8) 0.0060(8) -0.0099(8)
C23 0.0537(13) 0.0443(12) 0.0478(12) -0.0029(10) -0.0115(10) -0.0051(9)
C24 0.0473(11) 0.0286(9) 0.0405(11) -0.0001(8) -0.0041(9) -0.0028(8)
C25 0.0536(13) 0.0529(13) 0.0537(13) -0.0041(10) -0.0096(10) -0.0158(11)
C26 0.0749(18) 0.0683(16) 0.0480(14) 0.0060(13) -0.0088(12) -0.0228(12)
C31 0.0372(10) 0.0342(10) 0.0371(10) 0.0003(8) -0.0032(8) 0.0004(8)
N32 0.0482(9) 0.0302(8) 0.0349(8) 0.0010(7) -0.0039(7) -0.0014(6)
C33 0.0310(9) 0.0351(10) 0.0352(10) 0.0003(7) -0.0014(7) -0.0028(8)
C34 0.0455(11) 0.0394(11) 0.0405(11) 0.0004(9) -0.0046(9) 0.0032(9)
C35 0.0461(11) 0.0517(12) 0.0360(11) -0.0025(9) -0.0092(9) 0.0039(9)
C36 0.0457(11) 0.0500(12) 0.0393(11) -0.0057(9) -0.0077(9) -0.0063(9)
C37 0.0420(11) 0.0370(10) 0.0441(11) -0.0045(8) -0.0067(9) -0.0049(9)
C38 0.0303(9) 0.0357(10) 0.0367(10) -0.0017(7) -0.0033(7) 0.0008(8)
loop_
_atom_type_symbol
_atom_type_description
_atom_type_scat_dispersion_real
_atom_type_scat_dispersion_imag
_atom_type_scat_source
C C 0.0033 0.0016 'International Tables Vol C Tables 4.2.6.8 and 6.1.1.4'
H H 0.0000 0.0000 'International Tables Vol C Tables 4.2.6.8 and 6.1.1.4'
N N 0.0061 0.0033 'International Tables Vol C Tables 4.2.6.8 and 6.1.1.4'
O O 0.0106 0.0060 'International Tables Vol C Tables 4.2.6.8 and 6.1.1.4'
S S 0.1246 0.1234 'International Tables Vol C Tables 4.2.6.8 and 6.1.1.4'
Cl Cl 0.1484 0.1585 'International Tables Vol C Tables 4.2.6.8 and 6.1.1.4'
loop_
_geom_angle_atom_site_label_1
_geom_angle_atom_site_label_2
_geom_angle_atom_site_label_3
_geom_angle
O11 S1 O12 118.29(12)
O11 S1 N1 107.50(11)
O12 S1 N1 111.51(9)
O11 S1 C14 108.24(11)
O12 S1 C14 108.49(11)
N1 S1 C14 101.45(10)
O22 S2 O21 119.94(11)
O22 S2 N32 108.05(10)
O21 S2 N32 104.94(9)
O22 S2 C24 110.58(10)
O21 S2 C24 108.54(10)
N32 S2 C24 103.39(9)
C31 S3 C38 90.95(9)
C31 N1 S1 122.39(15)
C16 C11 C12 121.6(3)
C16 C11 Cl1 119.4(2)
C12 C11 Cl1 118.9(3)
C11 C12 C13 119.2(3)
C11 C12 H12 120.4
C13 C12 H12 120.4
C14 C13 C12 119.6(3)
C14 C13 H13 120.2
C12 C13 H13 120.2
C13 C14 C15 120.7(2)
C13 C14 S1 119.75(18)
C15 C14 S1 119.6(2)
C16 C15 C14 119.4(3)
C16 C15 H15 120.3
C14 C15 H15 120.3
C11 C16 C15 119.5(3)
C11 C16 H16 120.2
C15 C16 H16 120.2
C26 C21 C22 121.9(2)
C26 C21 Cl2 119.4(2)
C22 C21 Cl2 118.7(2)
C23 C22 C21 118.6(2)
C23 C22 H22 120.7
C21 C22 H22 120.7
C22 C23 C24 119.7(2)
C22 C23 H23 120.2
C24 C23 H23 120.2
C25 C24 C23 121.4(2)
C25 C24 S2 119.38(17)
C23 C24 S2 119.02(16)
C26 C25 C24 118.7(2)
C26 C25 H25 120.7
C24 C25 H25 120.7
C21 C26 C25 119.7(2)
C21 C26 H26 120.2
C25 C26 H26 120.2
N1 C31 N32 118.90(18)
N1 C31 S3 130.18(16)
N32 C31 S3 110.92(14)
C31 N32 C33 114.44(16)
C31 N32 S2 119.26(13)
C33 N32 S2 126.24(13)
C34 C33 C38 120.44(18)
C34 C33 N32 129.24(18)
C38 C33 N32 110.29(16)
C35 C34 C33 118.10(19)
C35 C34 H34 120.9
C33 C34 H34 120.9
C36 C35 C34 121.6(2)
C36 C35 H35 119.2
C34 C35 H35 119.2
C37 C36 C35 120.63(19)
C37 C36 H36 119.7
C35 C36 H36 119.7
C36 C37 C38 118.20(19)
C36 C37 H37 120.9
C38 C37 H37 120.9
C33 C38 C37 121.04(18)
C33 C38 S3 113.31(14)
C37 C38 S3 125.62(15)
loop_
_geom_bond_atom_site_label_1
_geom_bond_atom_site_label_2
_geom_bond_distance
S1 O11 1.4252(18)
S1 O12 1.4331(18)
S1 N1 1.6244(18)
S1 C14 1.761(2)
S2 O22 1.4165(18)
S2 O21 1.4186(17)
S2 N32 1.7133(16)
S2 C24 1.752(2)
S3 C31 1.743(2)
S3 C38 1.7439(19)
Cl1 C11 1.743(3)
Cl2 C21 1.737(2)
N1 C31 1.294(3)
C11 C16 1.365(4)
C11 C12 1.368(4)
C12 C13 1.380(4)
C12 H12 0.9300
C13 C14 1.375(3)
C13 H13 0.9300
C14 C15 1.381(3)
C15 C16 1.377(4)
C15 H15 0.9300
C16 H16 0.9300
C21 C26 1.370(4)
C21 C22 1.375(4)
C22 C23 1.374(3)
C22 H22 0.9300
C23 C24 1.381(3)
C23 H23 0.9300
C24 C25 1.377(3)
C25 C26 1.377(3)
C25 H25 0.9300
C26 H26 0.9300
C31 N32 1.389(3)
N32 C33 1.429(2)
C33 C34 1.383(3)
C33 C38 1.389(3)
C34 C35 1.383(3)
C34 H34 0.9300
C35 C36 1.382(3)
C35 H35 0.9300
C36 C37 1.376(3)
C36 H36 0.9300
C37 C38 1.391(3)
C37 H37 0.9300
loop_
_geom_hbond_atom_site_label_D
_geom_hbond_atom_site_label_H
_geom_hbond_atom_site_label_A
_geom_hbond_site_symmetry_A
_geom_hbond_distance_DH
_geom_hbond_distance_HA
_geom_hbond_distance_DA
_geom_hbond_angle_DHA
_geom_hbond_publ_flag
C12 H12 O11 1_455 0.93 2.53 3.203(3) 130 y
C22 H22 O22 1_455 0.93 2.59 3.249(3) 128 y
C37 H37 O21 1_545 0.93 2.50 3.339(3) 151 y
C34 H34 O21 . 0.93 2.22 2.837(3) 123 y

_cod_database_fobs_code 1546687
