#------------------------------------------------------------------------------
#$Date: 2017-06-05 03:49:33 +0300 (Mon, 05 Jun 2017) $
#$Revision: 197505 $
#$URL: file:///home/coder/svn-repositories/cod/cif/1/54/60/1546087.cif $
#------------------------------------------------------------------------------
#
# This file is available in the Crystallography Open Database (COD),
# http://www.crystallography.net/
#
# All data on this site have been placed in the public domain by the
# contributors.
#
data_1546087
loop_
_publ_author_name
'Ueda, Hiroki'
'Masutomi, Koji'
'Shibata, Yu'
'Tanaka, Ken'
_publ_section_title
;
 Rhodium-Catalyzed Asymmetric [2 + 2 + 2] Cyclization of 1,6-Enynes with
 Aliphatic and Aromatic Alkenes.
;
_journal_issue                   11
_journal_name_full               'Organic letters'
_journal_page_first              2913
_journal_page_last               2916
_journal_paper_doi               10.1021/acs.orglett.7b01149
_journal_volume                  19
_journal_year                    2017
_chemical_absolute_configuration syn
_chemical_formula_moiety         'C22 H24 Br N O3 S'
_chemical_formula_sum            'C22 H24 Br N O3 S'
_chemical_formula_weight         462.39
_space_group_crystal_system      orthorhombic
_space_group_IT_number           19
_space_group_name_Hall           'P 2ac 2ab'
_space_group_name_H-M_alt        'P 21 21 21'
_symmetry_space_group_name_Hall  'P 2ac 2ab'
_symmetry_space_group_name_H-M   'P 21 21 21'
_atom_sites_solution_hydrogens   geom
_atom_sites_solution_primary     dual
_audit_creation_date             2017-04-14
_audit_creation_method
;
Olex2 1.2-ac3
(compiled 2016.03.30 svn.r3266 for Rigaku Oxford Diffraction, GUI svn.r5168)
;
_cell_angle_alpha                90
_cell_angle_beta                 90
_cell_angle_gamma                90
_cell_formula_units_Z            4
_cell_length_a                   9.730(2)
_cell_length_b                   10.167(2)
_cell_length_c                   21.994(6)
_cell_measurement_reflns_used    2756
_cell_measurement_temperature    193(2)
_cell_measurement_theta_max      21.6090
_cell_measurement_theta_min      2.2020
_cell_volume                     2175.8(9)
_computing_cell_refinement       'CrysAlisPro 1.171.39.12b (Rigaku OD, 2015)'
_computing_data_collection       'CrysAlisPro 1.171.39.12b (Rigaku OD, 2015)'
_computing_data_reduction        'CrysAlisPro 1.171.39.12b (Rigaku OD, 2015)'
_computing_molecular_graphics    'Olex2 (Dolomanov et al., 2009)'
_computing_publication_material  'Olex2 (Dolomanov et al., 2009)'
_computing_structure_refinement  'ShelXL (Sheldrick, 2015)'
_computing_structure_solution    'ShelXT (Sheldrick, 2015)'
_diffrn_ambient_temperature      193(2)
_diffrn_detector                 'CCD plate'
_diffrn_measured_fraction_theta_full 0.999
_diffrn_measured_fraction_theta_max 0.960
_diffrn_measurement_details
;
List of Runs (angles in degrees, time in seconds):

  # Type    Start    End  Width  t~exp~   \w     \q     \k     \f   Frames
--------------------------------------------------------------------------
  1  \w    -46.00 -20.00   0.50   60.00    --   20.00  54.00 -90.00   52
  2  \w     22.00  83.00   0.50   60.00    --   20.00  54.00 -90.00  122
  3  \w     -8.00  80.00   0.50   60.00    --   20.00  54.00 150.00  176
  4  \w    -74.00 109.00   0.50   60.00    --   20.00  54.00  60.00  366
  5  \w    -34.00  -9.00   0.50   60.00    --   20.00  54.00-150.00   50
  6  \w     63.00  88.00   0.50   60.00    --   20.00  54.00-180.00   50
  7  \w    -52.00   9.00   0.50   60.00    --   20.00  54.00-120.00  122
  8  \w     38.00  63.00   0.50   60.00    --   20.00  54.00-120.00   50
  9  \w    -73.00 -46.00   0.50   60.00    --   20.00  54.00 120.00   54
;
_diffrn_measurement_device       'two-circle diffractometer'
_diffrn_measurement_device_type  'XtaLAB Mini II'
_diffrn_measurement_method       '\w scans'
_diffrn_orient_matrix_type
'CrysAlisPro convention (1999,Acta A55,543-557)'
_diffrn_orient_matrix_UB_11      0.0216111000
_diffrn_orient_matrix_UB_12      -0.0582023000
_diffrn_orient_matrix_UB_13      -0.0150437000
_diffrn_orient_matrix_UB_21      0.0184100000
_diffrn_orient_matrix_UB_22      -0.0278846000
_diffrn_orient_matrix_UB_23      0.0283515000
_diffrn_orient_matrix_UB_31      -0.0672437000
_diffrn_orient_matrix_UB_32      -0.0264316000
_diffrn_orient_matrix_UB_33      0.0028990000
_diffrn_radiation_monochromator  graphite
_diffrn_radiation_probe          x-ray
_diffrn_radiation_type           MoK\a
_diffrn_radiation_wavelength     0.71073
_diffrn_reflns_av_R_equivalents  0.0871
_diffrn_reflns_av_unetI/netI     0.1024
_diffrn_reflns_Laue_measured_fraction_full 0.999
_diffrn_reflns_Laue_measured_fraction_max 0.960
_diffrn_reflns_limit_h_max       13
_diffrn_reflns_limit_h_min       -12
_diffrn_reflns_limit_k_max       14
_diffrn_reflns_limit_k_min       -14
_diffrn_reflns_limit_l_max       31
_diffrn_reflns_limit_l_min       -31
_diffrn_reflns_number            19408
_diffrn_reflns_point_group_measured_fraction_full 0.994
_diffrn_reflns_point_group_measured_fraction_max 0.929
_diffrn_reflns_theta_full        26.000
_diffrn_reflns_theta_max         30.745
_diffrn_reflns_theta_min         2.207
_diffrn_source                   'fine-focus sealed X-ray tube'
_diffrn_source_type              'Enhance (Mo) X-ray Source'
_exptl_absorpt_coefficient_mu    2.007
_exptl_absorpt_correction_T_max  1.00000
_exptl_absorpt_correction_T_min  0.64840
_exptl_absorpt_correction_type   multi-scan
_exptl_absorpt_process_details
;
CrysAlisPro 1.171.39.12b (Rigaku Oxford Diffraction, 2015)
Empirical absorption correction using spherical harmonics,
 implemented in SCALE3 ABSPACK scaling algorithm.
;
_exptl_crystal_colour            colourless
_exptl_crystal_colour_primary    colourless
_exptl_crystal_density_diffrn    1.412
_exptl_crystal_description       block
_exptl_crystal_F_000             952
_exptl_crystal_size_max          0.3
_exptl_crystal_size_mid          0.12
_exptl_crystal_size_min          0.1
_refine_diff_density_max         0.757
_refine_diff_density_min         -0.768
_refine_diff_density_rms         0.088
_refine_ls_abs_structure_details
;
 Flack x determined using 914 quotients [(I+)-(I-)]/[(I+)+(I-)]
 (Parsons, Flack and Wagner, Acta Cryst. B69 (2013) 249-259).
;
_refine_ls_abs_structure_Flack   0.004(11)
_refine_ls_extinction_method     none
_refine_ls_goodness_of_fit_ref   1.018
_refine_ls_hydrogen_treatment    constr
_refine_ls_matrix_type           full
_refine_ls_number_parameters     256
_refine_ls_number_reflns         6297
_refine_ls_number_restraints     0
_refine_ls_restrained_S_all      1.018
_refine_ls_R_factor_all          0.1496
_refine_ls_R_factor_gt           0.0731
_refine_ls_shift/su_max          0.000
_refine_ls_shift/su_mean         0.000
_refine_ls_structure_factor_coef Fsqd
_refine_ls_weighting_details
'w=1/[\s^2^(Fo^2^)+(0.0958P)^2^] where P=(Fo^2^+2Fc^2^)/3'
_refine_ls_weighting_scheme      calc
_refine_ls_wR_factor_gt          0.1767
_refine_ls_wR_factor_ref         0.2087
_reflns_Friedel_coverage         0.723
_reflns_Friedel_fraction_full    0.988
_reflns_Friedel_fraction_max     0.890
_reflns_number_gt                3166
_reflns_number_total             6297
_reflns_threshold_expression     'I > 2\s(I)'
_cod_data_source_file            ol7b01149_si_001.cif
_cod_data_source_block           y6220f
_cod_depositor_comments          'Adding full bibliography for 1546087.cif.'
_cod_original_cell_volume        2175.7(9)
_cod_database_code               1546087
_chemical_oxdiff_formula         C30H40NO3Br
_chemical_oxdiff_usercomment     ueda-diene-chiral,-80
_shelx_space_group_comment
;
The symmetry employed for this shelxl refinement is uniquely defined
by the following loop, which should always be used as a source of
symmetry information in preference to the above space-group names.
They are only intended as comments.
;
_reflns_odcompleteness_completeness 99.73
_reflns_odcompleteness_iscentric 1
_reflns_odcompleteness_theta     26.32
_olex2_refinement_description
;
1. Fixed Uiso
 At 1.2 times of:
  All C(H) groups, All C(H,H) groups
 At 1.5 times of:
  All C(H,H,H) groups
2.a Ternary CH refined with riding coordinates:
 C3(H3)
2.b Secondary CH2 refined with riding coordinates:
 C4(H4A,H4B), C1(H1A,H1B)
2.c Aromatic/amide H refined with riding coordinates:
 C18(H18), C17(H17), C21(H21), C10(H10), C20(H20), C11(H11), C7(H7), C8(H8)
2.d X=CH2 refined with riding coordinates:
 C15(H15A,H15B)
2.e Idealised Me refined as rotating group:
 C5(H5A,H5B,H5C), C13(H13A,H13B,H13C), C22(H22A,H22B,H22C)
;
_shelx_res_file
;
TITL y6220f_a.res in P2(1)2(1)2(1)
    y6220f.res
    created by SHELXL-2016/6 at 15:49:43 on 14-Apr-2017
REM Old TITL y6220F in P2(1)2(1)2(1)
REM SHELXT solution in P2(1)2(1)2(1)
REM R1 0.232, Rweak 0.086, Alpha 0.006, Orientation as input
REM Flack x = 0.076 ( 0.014 ) from Parsons' quotients
REM Formula found by SHELXT: C21 N3 O3 Br
CELL 0.71073 9.7301 10.1666 21.9938 90 90 90
ZERR 4 0.0023 0.0022 0.0059 0 0 0
LATT -1
SYMM 0.5-X,-Y,0.5+Z
SYMM -X,0.5+Y,0.5-Z
SYMM 0.5+X,0.5-Y,-Z
SFAC C H Br N O S
UNIT 88 96 4 4 12 4

L.S. 20
PLAN  3
BOND $H
LIST 6
MORE -1
CONF
fmap 2
acta 52
REM <olex2.extras>
REM <HklSrc "%.\\y6220F.hkl">
REM </olex2.extras>

WGHT    0.095800
FVAR       0.56344
BR1   3    0.229808   -0.177147    0.392826    11.00000    0.13634    0.06563 =
         0.06865   -0.01358    0.00451   -0.00574
S1    6    0.230434    0.441690    0.451880    11.00000    0.05031    0.05648 =
         0.03277   -0.00143    0.00101    0.00256
O1    5    0.356507    0.471502    0.480719    11.00000    0.06108    0.06602 =
         0.04124   -0.00196   -0.01376   -0.01167
O2    5    0.103829    0.476409    0.480418    11.00000    0.07239    0.07031 =
         0.04760   -0.00739    0.01894    0.01206
O3    5    0.213108    1.150236    0.120110    11.00000    0.10421    0.06553 =
         0.04951    0.00324   -0.01285   -0.01791
N1    4    0.232009    0.510539    0.385794    11.00000    0.04236    0.04934 =
         0.03973   -0.00239    0.00149    0.00185
C2    1    0.302705    0.528332    0.285210    11.00000    0.03351    0.06004 =
         0.03486    0.00429   -0.00565    0.00379
C18   1    0.224755    0.978249    0.190782    11.00000    0.04350    0.06583 =
         0.04493   -0.00467   -0.00908   -0.00542
AFIX  43
H18   2    0.204379    1.038853    0.221145    11.00000   -1.20000
AFIX   0
C6    1    0.227348    0.270387    0.438319    11.00000    0.04023    0.05890 =
         0.03327    0.00188    0.00286   -0.00394
C16   1    0.277639    0.754066    0.162707    11.00000    0.02862    0.07255 =
         0.03723   -0.00081    0.00026   -0.01201
C4    1    0.106019    0.504451    0.347986    11.00000    0.04884    0.05324 =
         0.04278   -0.00038    0.00153    0.01096
AFIX  23
H4A   2    0.057782    0.587940    0.348531    11.00000   -1.20000
H4B   2    0.044542    0.436111    0.362390    11.00000   -1.20000
AFIX   0
C17   1    0.245387    0.849665    0.205124    11.00000    0.04044    0.06938 =
         0.03391    0.00292   -0.00076   -0.00362
AFIX  43
H17   2    0.237382    0.824637    0.245641    11.00000   -1.20000
AFIX   0
C14   1    0.302369    0.615421    0.179565    11.00000    0.03498    0.08196 =
         0.03611    0.00914    0.00495    0.00437
C9    1    0.230123    0.006450    0.410776    11.00000    0.07588    0.06521 =
         0.04400    0.00080    0.00246   -0.00609
C19   1    0.234258    1.018896    0.130402    11.00000    0.05429    0.05512 =
         0.05143    0.00270   -0.00470   -0.01236
C21   1    0.288121    0.796241    0.101776    11.00000    0.04548    0.07064 =
         0.03870    0.00418   -0.00772    0.00474
AFIX  43
H21   2    0.309561    0.735664    0.071545    11.00000   -1.20000
AFIX   0
C10   1    0.351252    0.071621    0.418450    11.00000    0.04701    0.06934 =
         0.05360    0.00502    0.00255    0.01054
AFIX  43
H10   2    0.433925    0.026767    0.413932    11.00000   -1.20000
AFIX   0
C1    1    0.356790    0.506163    0.347911    11.00000    0.03876    0.06966 =
         0.04798    0.00725   -0.00591   -0.00499
AFIX  23
H1A   2    0.402082    0.421445    0.351083    11.00000   -1.20000
H1B   2    0.420971    0.574750    0.359476    11.00000   -1.20000
AFIX   0
C3    1    0.159306    0.472575    0.283334    11.00000    0.04274    0.06189 =
         0.04362   -0.00515   -0.00191    0.00524
AFIX  13
H3    2    0.104205    0.519140    0.252873    11.00000   -1.20000
AFIX   0
C20   1    0.266304    0.930199    0.086045    11.00000    0.04501    0.08859 =
         0.03489    0.00653   -0.00328   -0.00482
AFIX  43
H20   2    0.273817    0.957237    0.045787    11.00000   -1.20000
AFIX   0
C11   1    0.352095    0.201190    0.432603    11.00000    0.04157    0.06197 =
         0.04543    0.00319    0.00380    0.00626
AFIX  43
H11   2    0.435151    0.244584    0.438561    11.00000   -1.20000
AFIX   0
C7    1    0.106506    0.203104    0.431381    11.00000    0.04276    0.06931 =
         0.04897    0.01223    0.00436   -0.00502
AFIX  43
H7    2    0.023305    0.246768    0.436457    11.00000   -1.20000
AFIX   0
C12   1    0.366145    0.594002    0.241165    11.00000    0.03812    0.06999 =
         0.03742    0.00140    0.00145    0.00564
C5    1    0.154883    0.324115    0.271431    11.00000    0.05582    0.05926 =
         0.06550   -0.01238    0.00515    0.00329
AFIX 137
H5A   2    0.191996    0.305989    0.231866    11.00000   -1.50000
H5B   2    0.061460    0.294014    0.273278    11.00000   -1.50000
H5C   2    0.208421    0.279341    0.301695    11.00000   -1.50000
AFIX   0
C8    1    0.107103    0.071796    0.417000    11.00000    0.05867    0.07180 =
         0.04935    0.00227   -0.00232   -0.01882
AFIX  43
H8    2    0.024641    0.027112    0.411478    11.00000   -1.20000
AFIX   0
C13   1    0.505669    0.660456    0.248906    11.00000    0.04707    0.10511 =
         0.06436    0.02337   -0.01103   -0.01269
AFIX 137
H13A  2    0.529303    0.663002    0.291268    11.00000   -1.50000
H13B  2    0.501283    0.748510    0.233263    11.00000   -1.50000
H13C  2    0.574200    0.611664    0.227058    11.00000   -1.50000
AFIX   0
C15   1    0.282316    0.513765    0.142533    11.00000    0.08336    0.07826 =
         0.04321    0.00888   -0.00413    0.00247
AFIX  93
H15A  2    0.250693    0.527740    0.103156    11.00000   -1.20000
H15B  2    0.299918    0.428719    0.156021    11.00000   -1.20000
AFIX   0
C22   1    0.212933    1.194128    0.057842    11.00000    0.15521    0.05578 =
         0.05931    0.00369   -0.01583   -0.01148
AFIX 137
H22A  2    0.149350    1.142039    0.034729    11.00000   -1.50000
H22B  2    0.303498    1.184743    0.041076    11.00000   -1.50000
H22C  2    0.185834    1.284855    0.056219    11.00000   -1.50000
AFIX   0
HKLF 4




REM  y6220f_a.res in P2(1)2(1)2(1)
REM R1 =  0.0731 for    3166 Fo > 4sig(Fo)  and  0.1496 for all    6297 data
REM    256 parameters refined using      0 restraints

END

WGHT      0.0958      0.0000

REM Highest difference peak  0.757,  deepest hole -0.768,  1-sigma level  0.088
Q1    1   0.1202 -0.1484  0.3759  11.00000  0.05    0.76
Q2    1   0.2339 -0.0800  0.3969  11.00000  0.05    0.43
Q3    1   0.2311  0.3469  0.4473  11.00000  0.05    0.41
;
_shelx_res_checksum              85114
_shelx_hkl_file
;
   0   0   3 1.88343 1.27234   8
   0   0  -3 0.93330 1.30636   4
   0   0   3 3.31661 1.35323   2
   0   0   3 4.27815 1.17329   4
   0   0  -4 6366.59 686.901   8
   0   0   4 6121.89 686.906   4
   0   0   4 6382.62 686.904   8
   0   0   4 6067.45 686.917   2
   0   0  -4 5861.37 686.910   4
   0   0   5 2.20426 1.74706   4
   0   0   5 1.63799 2.15083   8
   0   0  -5-0.83925 1.85673   8
   0   0  -5 2.08199 2.07426   4
   0   0   5 0.18094 2.13110   2
   0   0   6 7972.07 930.866   4
   0   0   6 8685.50 930.871   8
   0   0  -6 7971.20 930.883   4
   0   0   6 8510.63 930.893   2
   0   0  -6 8668.74 930.865   8
   0   0   7 3.17912 2.97447   2
   0   0   7 3.38963 2.26624   4
   0   0   7 4.21991 2.84272   8
   0   0  -7 5.49506 2.90066   4
   0   0  -8 244.615 30.6968   4
   0   0   8 278.693 30.6781   8
   0   0   8 288.676 30.7325   2
   0   0   8 279.457 30.6080   4
   0   0   9-1.28139 2.60337   4
   0   0   9 0.06783 3.73747   2
   0   0  -9-0.43099 3.66134   4
   0   0   9 1.71772 3.55172   8
   0   0  10 218.788 22.4465   8
   0   0  10 222.915 22.5190   2
   0   0  10 204.569 22.2713   4
   0   0 -10 145.675 22.4160   4
   0   0  11 4.63446 2.89926   4
   0   0 -11 0.56555 4.65555   4
   0   0  11 5.94303 4.49137   8
   0   0  11 3.06682 4.42352   2
   0   0  12 206.692 22.1452   4
   0   0  12 173.504 22.5024   2
   0   0  12 213.650 22.4859   8
   0   0 -12 176.674 22.5299   4
   0   0 -13-3.83361 5.44938   4
   0   0  13 8.97718 5.17345   2
   0   0 -14 272.639 38.4989   4
   0   0  14 421.368 38.6056   2
   0   0 -15 0.78826 6.15989   4
   0   0  15-0.55350 5.65094   2
   0   0 -16 18.1548 6.86055   4
   0   0  16 27.3689 6.60478   2
   0   0  17 7.54815 6.38998   2
   0   0  18 413.763 48.7079   2
   0   0 -18 449.886 48.7934   3
   0   0 -19 0.28186 7.83719   3
   0   0  19 3.31321 7.13720   2
   0   0 -20 202.422 25.6505   3
   0   0  20 228.256 25.5337   2
   0   0  21-2.26123 7.94182   2
   0   0 -21-2.46019 8.42004   3
   0   0  22 61.2476 11.6867   2
   0   0 -22 71.7101 11.5877   3
   0   0  23 8.61261 9.01956   2
   0   0 -23-0.34621 9.23393   3
   0   0 -24 18.9747 9.82376   3
   0   0  24 34.0864 9.81604   2
   0   0 -25-9.16078 9.55420   3
   0   0  25 0.38564 9.24172   2
   0   0  26 2.77343 9.22044   2
   0   0 -26 7.18132 9.84031   3
   0   0  27-0.20426 9.57953   2
   0   0 -27 2.92700 9.87682   3
   0   0  28 2.73262 9.88389   2
   0   0  29-3.68122 10.0722   2
   0   0  30 28.0845 10.4718   2
   0   1  -1 0.20992 3.93387   9
   0  -1  -1 267.548 4.20533   4
   0  -1  -2 1455.64 164.663   3
   0  -1   2 1577.28 164.654   9
   0   1  -2 1658.75 164.665   4
   0  -1  -2 1337.09 164.647   5
   0   1   2 1580.07 164.652   5
   0  -1   2 1496.15 164.652   6
   0   1   2 1316.29 164.650   4
   0   1   3 297.445 33.9865   2
   0   1   3 274.958 34.0233   4
   0  -1  -3 264.142 33.9809   5
   0  -1  -3 316.593 33.9865   2
   0   1  -3 325.982 34.0246   4
   0  -1  -3 351.011 34.0519   4
   0  -1   3 330.255 34.0183   6
   0  -1  -3 316.210 34.0254   3
   0  -1  -4 507.028 55.7292   2
   0  -1  -4 470.763 55.7764   4
   0  -1   4 483.031 55.7434   4
   0   1  -4 445.949 55.7559   4
   0   1  -4 533.552 55.7439   6
   0  -1  -4 535.379 55.7836   3
   0   1   4 515.029 55.7384   2
   0   1   4 449.060 55.7587   4
   0   1   4 564.284 55.7731   3
   0  -1   5 3521.89 391.976   4
   0  -1   5 3344.65 391.981   8
   0  -1  -5 3757.45 392.000   3
   0   1   5 3556.62 391.990   4
   0   1  -5 3422.29 391.984   4
   0  -1  -5 3660.65 391.972   2
   0  -1  -5 3432.71 391.946   8
   0   1   5 3641.13 391.976   2
   0  -1  -5 3422.33 391.994   4
   0  -1  -6 3902.45 434.250   3
   0  -1  -6 3909.99 434.193   8
   0  -1   6 3957.89 434.223   4
   0   1  -6 3987.82 434.243   4
   0  -1   6 3917.98 434.238   8
   0   1   6 4075.28 434.232   2
   0   1   6 3590.38 434.227   4
   0  -1  -6 3883.58 434.247   4
   0  -1  -7 2289.45 276.826   4
   0  -1   7 2636.36 276.840   8
   0   1  -7 2551.21 276.829   4
   0   1   7 2292.73 276.806   4
   0  -1   7 2376.24 276.837   2
   0  -1  -7 2579.66 276.772   8
   0   1   7 2531.18 276.816   2
   0  -1  -7 2488.94 276.833   3
   0  -1   7 2583.24 276.800   4
   0  -1  -8 2578.58 291.306   3
   0  -1  -8 2521.73 291.308   4
   0  -1   8 2786.72 291.266   4
   0  -1   8 2583.20 291.317   2
   0   1  -8 2398.16 291.289   4
   0  -1   8 2775.96 291.312   8
   0   1   8 2632.95 291.290   2
   0   1   8 2439.31 291.275   4
   0  -1  -8 2755.31 291.246   8
   0   1  -9 3508.71 375.183   4
   0  -1  -9 3690.06 375.130   8
   0  -1  -9 3137.12 375.174   3
   0  -1   9 3346.00 375.195   2
   0  -1  -9 2984.52 375.175   4
   0   1   9 3067.60 375.139   4
   0   1   9 3314.86 375.165   2
   0  -1   9 3480.13 375.182   8
   0  -1   9 3695.29 375.143   4
   0  -1  10 2758.87 267.747   4
   0  -1 -10 2542.28 267.718   8
   0  -1 -10 1998.44 267.780   4
   0   1  10 2295.11 267.738   4
   0  -1  10 2408.04 267.811   2
   0   1 -10 2294.51 267.775   4
   0  -1 -10 2251.66 267.788   3
   0  -1  10 2419.39 267.774   8
   0   1  10 2553.55 267.785   2
   0   1  11 65.2212 6.98220   2
   0   1 -11 42.8997 7.09396   4
   0  -1  11 40.3762 7.39538   2
   0  -1 -11 45.2924 7.49003   3
   0  -1  11 62.7828 6.34260   4
   0  -1  11 43.1987 7.28362   8
   0   1  11 42.3971 6.43222   4
   0  -1 -11 43.7525 7.50606   4
   0  -1 -11 49.7608 6.34238   8
   0   1  12 83.8841 11.6902   2
   0  -1  12 88.1998 11.8354   8
   0   1 -12 80.4402 11.7744   4
   0  -1 -12 110.168 11.9551   3
   0   1  12 102.444 11.2456   4
   0  -1  12 87.1233 11.9970   2
   0  -1 -12 95.2175 12.0709   4
   0  -1  12 102.414 11.1417   4
   0  -1 -13 1641.90 158.190   3
   0   1  13 1497.04 158.151   2
   0   1 -13 1417.62 158.142   4
   0  -1 -13 1011.43 158.105   4
   0  -1  13 1427.08 158.131   8
   0  -1  13 1656.34 158.221   2
   0  -1  14 256.443 25.2467   8
   0  -1  14 241.415 25.3674   2
   0   1  14 247.369 25.2063   2
   0  -1 -14 268.913 25.3729   3
   0  -1 -14 133.539 25.3166   4
   0   1 -14 168.708 25.2727   4
   0  -1  15 222.898 23.9354   8
   0  -1 -15 265.136 24.0207   3
   0   1 -15 182.259 23.9728   4
   0  -1  15 223.573 24.0146   2
   0   1  15 220.841 23.8651   2
   0  -1  16 12.2078 6.87164   8
   0   1  16 21.5806 6.53815   2
   0  -1 -16 9.58704 7.13023   4
   0   1 -16 12.9494 7.10991   4
   0  -1 -16 28.1748 7.03454   3
   0  -1  16 22.9960 6.71739   2
   0  -1  17 51.6151 8.86256   2
   0  -1  17 43.7923 8.92363   8
   0   1  17 46.6991 8.30977   2
   0  -1 -17 50.7660 9.21973   3
   0   1 -17 40.7822 8.75862   4
   0  -1 -18 60.1148 10.2787   3
   0  -1  18 72.2703 10.0804   2
   0   1  18 53.6667 9.87086   2
   0   1  19 163.505 18.5686   2
   0  -1  19 135.182 18.3583   2
   0  -1 -19 150.050 18.6434   3
   0  -1  20 67.7596 10.8220   2
   0   1  20 71.1338 11.1256   2
   0  -1 -20 61.7603 11.2464   3
   0  -1  21 14.2279 8.30734   2
   0  -1 -21 11.6528 8.54465   3
   0   1  21 7.84165 8.31065   2
   0  -1  22-3.10784 8.65195   2
   0  -1 -22 7.36078 8.62959   3
   0   1  22 12.2301 8.34688   2
   0   1 -22 13.8563 8.86386   3
   0   1  23 31.5261 9.92947   2
   0   1 -23 45.7445 10.6320   3
   0  -1  23 60.1346 10.2738   2
   0  -1 -23 41.5573 10.3140   3
   0   1  24 39.3433 10.0807   2
   0   1 -24 32.2982 10.8348   3
   0  -1 -24 39.3848 10.6691   3
   0  -1  24 67.3254 10.8514   2
   0  -1 -25 1.31057 9.85293   3
   0  -1  25 0.20431 9.72443   2
   0   1 -25 9.23983 9.82149   3
   0   1  25 7.57444 8.80284   2
   0  -1 -26 56.4559 11.7968   3
   0  -1  26 45.0768 11.4078   2
   0   1  26 41.4848 10.8914   2
   0  -1  27 36.3138 10.3149   2
   0  -1 -27 20.4666 10.3168   3
   0  -1  28 36.4485 10.7125   2
   0  -1 -28 12.4452 10.1106   3
   0  -1  29 8.22391 10.4616   2
   0  -1  30 15.0103 10.1511   2
   0  -1  31 3.90730 10.2229   2
   0  -2   0 3835.15 390.537   4
   0   2   0 2952.58 390.494   1
   0   2   0 3869.76 390.521   7
   0   2   0 3834.86 390.550   4
   0  -2   0 3387.20 390.542   3
   0  -2   0 3835.70 390.528   7
   0   2   1 70.1560 9.24797   4
   0  -2  -1 75.1306 9.11148   7
   0  -2  -1 65.6544 9.28736   3
   0  -2   1 87.2543 9.30898   3
   0   2  -1 92.1249 9.14010   7
   0  -2  -1 82.4156 9.18554   4
   0   2  -1 93.6832 9.32228   4
   0   2   1 80.2663 9.09609   7
   0  -2  -2 6.61969 2.28043   3
   0  -2  -2 4.22150 1.62028   4
   0   2   2 5.95922 2.05187   4
   0   2  -2 7.12791 2.22490   4
   0   2  -2 6.82677 2.26703   9
   0   2   2 5.42827 1.27204   7
   0  -2  -2 4.23547 1.35285   7
   0   2   3 1092.24 144.236   2
   0   2  -3 1461.92 144.302   9
   0   2  -3 1381.29 144.311   4
   0  -2  -3 1340.48 144.286   4
   0   2   3 1255.57 144.299   4
   0   2   3 1226.91 144.283   4
   0   2   3 1358.95 144.277   5
   0  -2  -3 1322.52 144.251   7
   0  -2  -3 1495.61 144.339   3
   0  -2   3 1442.94 144.284   9
   0  -2  -3 1220.67 144.233   2
   0  -2   3 1414.72 144.298   6
   0  -2  -4 394.635 40.9089   2
   0   2   4 391.281 40.9781   4
   0   2   4 412.685 40.9532   5
   0   2   4 356.944 41.0168   4
   0   2   4 305.128 40.9072   2
   0  -2   4 402.779 41.0167   6
   0  -2  -4 330.153 40.9059   7
   0  -2   4 399.045 40.9640   9
   0  -2  -4 352.178 40.9476   5
   0   2  -4 385.911 41.0178   4
   0  -2  -4 382.481 41.0530   3
   0  -2  -5-0.95906 1.83661   5
   0  -2   5 0.70034 2.14414   9
   0  -2  -5 2.64864 1.69918   2
   0   2  -5 4.49535 2.40262   6
   0   2  -5 1.66937 2.77946   4
   0  -2  -5 3.22717 2.97125   3
   0   2   5 2.95075 2.80066   4
   0   2   5 3.88296 2.55782   3
   0   2   5 0.67249 1.82742   2
   0  -2  -5 2.51829 2.75519   4
   0  -2   5-0.63656 3.07416   6
   0  -2  -6 2857.11 309.254   4
   0  -2   6 2740.93 309.221   4
   0  -2  -6 2713.29 309.248   3
   0   2   6 3373.45 309.270   3
   0   2   6 2641.21 309.192   2
   0  -2  -6 2589.23 309.199   5
   0   2   6 2496.01 309.235   4
   0   2  -6 2937.05 309.209   6
   0  -2  -6 2812.58 309.187   2
   0   2  -6 2834.88 309.250   4
   0   2  -7 155.170 16.1961   6
   0  -2  -7 123.737 16.3842   3
   0   2   7 179.636 16.2886   3
   0  -2  -7 129.693 16.0751   5
   0   2  -7 145.418 16.3502   4
   0   2   7 134.221 16.1576   2
   0   2   7 126.469 16.2888   4
   0  -2   7 142.805 16.1316   4
   0  -2  -7 142.352 16.0930   2
   0  -2  -7 159.863 16.4550   4
   0   2   8 100.590 12.9631   4
   0  -2  -8 111.803 13.1652   3
   0   2  -8 116.406 12.8362   6
   0  -2   8 97.0320 12.7473   4
   0   2   8 112.587 12.8908   2
   0  -2  -8 127.425 13.2587   4
   0   2   8 142.580 12.9511   3
   0  -2   8 81.2057 13.1086   8
   0   2  -8 88.0883 13.0197   4
   0  -2  -8 125.200 12.6743   8
   0  -2  -9 22.4341 4.83790   4
   0  -2   9 15.1010 4.55714   2
   0   2  -9 3.24616 4.28282   4
   0  -2  -9 20.2801 4.60637   3
   0   2   9 17.6954 3.76828   4
   0  -2   9 19.3746 4.77560   8
   0  -2  -9 17.4244 2.98071   8
   0   2  -9 14.5082 3.60574   6
   0  -2   9 14.6414 3.18674   4
   0   2   9 26.5275 3.99917   2
   0   2 -10 216.621 20.4138   6
   0  -2 -10 130.759 20.7159   3
   0   2  10 155.857 20.4376   4
   0  -2  10 177.811 20.6971   2
   0  -2 -10 164.026 20.7790   4
   0   2 -10 167.493 20.7015   4
   0  -2  10 179.913 20.3505   4
   0  -2  10 192.098 20.7716   8
   0   2  10 203.688 20.5430   2
   0  -2 -10 182.872 20.2515   8
   0   2  11 1782.91 227.960   4
   0  -2 -11 2286.24 228.076   3
   0  -2 -11 1565.00 227.997   4
   0   2 -11 2073.27 228.039   4
   0   2 -11 2245.38 227.947   6
   0  -2  11 2184.16 227.963   4
   0  -2  11 2005.51 228.043   8
   0   2  11 2286.80 228.011   2
   0  -2  11 2034.47 228.042   2
   0  -2  12 90.0941 10.7876   4
   0  -2  12 99.4567 11.6866   2
   0  -2 -12 79.1752 11.7788   4
   0   2  12 105.886 11.4471   2
   0   2 -12 91.2965 11.6213   4
   0  -2 -12 102.829 11.8454   3
   0  -2  12 84.4511 11.7761   8
   0   2 -12 87.9925 10.9112   6
   0  -2  13 44.3556 7.64371   8
   0  -2 -13 53.5552 7.76533   3
   0  -2  13 46.4396 5.80393   4
   0  -2 -13 28.4739 7.58301   4
   0  -2  13 44.4176 7.54658   2
   0   2 -13 31.0542 7.40443   4
   0   2  13 44.9296 7.07004   2
   0  -2 -14 301.267 28.3858   3
   0  -2  14 289.189 28.4640   2
   0  -2  14 265.422 28.3061   8
   0   2  14 306.262 28.2415   2
   0   2 -14 210.978 28.2290   4
   0   2 -15 74.4109 11.5283   4
   0  -2 -15 110.284 11.8371   3
   0  -2  15 90.4437 11.7792   2
   0  -2  15 93.7457 11.7400   8
   0   2  15 106.550 11.5366   2
   0  -2  16 221.711 25.0736   2
   0  -2 -16 230.188 25.1339   3
   0   2  16 217.837 24.8811   2
   0  -2  16 224.479 24.9155   8
   0   2 -16 180.289 24.8743   4
   0  -2 -17 929.106 93.5105   3
   0  -2  17 862.087 93.4311   8
   0   2  17 852.979 93.3992   2
   0  -2  17 910.696 93.5121   2
   0   2 -17 648.499 93.4062   4
   0  -2 -18 481.483 55.4666   3
   0   2  18 467.320 55.2553   2
   0  -2  18 517.414 55.4420   2
   0  -2  18 499.950 55.3706   8
   0  -2 -19 8.95861 8.22551   3
   0   2  19 11.4253 7.30894   2
   0  -2  19 5.77076 7.81793   2
   0  -2  19 15.8944 8.24937   8
   0  -2 -20 1.46868 8.10592   3
   0  -2  20 14.8477 8.62042   8
   0  -2  20 8.18005 8.06673   2
   0   2  20 14.4632 7.36764   2
   0   2  21 133.510 17.7882   2
   0  -2  21 144.056 18.0370   2
   0  -2 -21 146.402 18.0202   3
   0  -2 -22 139.939 20.5353   3
   0  -2  22 181.332 20.6465   2
   0   2  22 173.587 20.3789   2
   0   2  23 40.2857 9.83742   2
   0  -2 -23 31.2162 10.1700   3
   0  -2  23 65.5340 10.5851   2
   0  -2  24 64.6655 11.3276   2
   0  -2 -24 40.8338 10.8268   3
   0  -2 -25 3.57541 9.37275   3
   0  -2  25 16.4759 9.71783   2
   0  -2  26-3.64552 10.1719   2
   0  -2 -26-8.88075 9.55253   3
   0  -2  27 0.66526 10.4974   2
   0  -2 -27-4.41385 9.76614   3
   0  -2 -28 12.9690 10.6286   3
   0  -2  28 28.7878 10.4909   2
   0  -2  29-8.69835 10.3215   2
   0  -2 -29 8.42809 10.6627   3
   0  -2  30 81.9927 13.4784   2
   0  -2 -30 54.4864 13.2639   3
   0  -3   0 4.81483 2.13572   4
   0   3   0 4.88342 3.16963   4
   0   3   0 5.15138 1.63376   7
   0  -3   0 6.62832 3.12802   3
   0   3   0 1.07642 2.10584   1
   0   3   1 1543.46 158.264   7
   0   3  -1 1536.62 158.305   3
   0   3  -1 1618.35 158.289   7
   0  -3  -1 1501.14 158.273   7
   0   3  -1 1587.19 158.343   4
   0  -3  -1 1120.80 158.219   1
   0  -3  -1 1427.74 158.289   4
   0   3  -1 1318.60 158.242   1
   0   3   1 1448.80 158.329   4
   0  -3   1 1619.02 158.309   4
   0  -3   1 1546.01 158.327   3
   0  -3  -1 1468.97 158.326   3
   0  -3   2 6281.59 653.196   4
   0  -3  -2 5725.51 653.151   7
   0   3   2 5476.44 653.144   7
   0  -3  -2 5922.69 653.180   4
   0   3  -2 6333.23 653.194   9
   0   3  -2 6046.97 653.181   7
   0  -3  -2 5351.30 653.200   3
   0   3  -2 5733.92 653.207   4
   0   3  -2 6198.61 653.190   3
   0   3   2 5924.16 653.193   4
   0   3   3 516.524 54.4051   7
   0   3   3 517.195 54.4378   5
   0  -3  -3 447.269 54.5109   3
   0   3  -3 484.750 54.5236   4
   0  -3  -3 550.746 54.4160   7
   0  -3  -3 509.545 54.4560   4
   0   3  -3 542.675 54.5159   9
   0   3  -3 538.695 54.4867   3
   0   3   3 555.902 54.5039   4
   0   3  -3 507.434 54.4629   7
   0  -3  -3 397.292 54.3528   2
   0  -3  -4 194.975 24.0973   3
   0  -3   4 246.559 23.9480   9
   0  -3   4 218.710 24.0321   6
   0  -3  -4 215.149 23.9111   4
   0   3   4 235.340 23.8682   5
   0   3   4 209.737 23.9604   4
   0   3  -4 245.599 24.0464   9
   0   3  -4 212.626 24.0450   4
   0  -3  -4 198.848 23.7667   2
   0   3   4 191.224 23.9551   4
   0  -3  -4 206.152 23.8003   7
   0   3   5 18.9626 2.78377   5
   0  -3  -5 13.5191 4.57218   3
   0   3   5 16.8065 3.48189   4
   0   3   5 15.3121 3.56076   4
   0   3   5 13.9305 2.77571   2
   0   3  -5 11.4505 3.91492   4
   0  -3   5 20.7356 3.07468   9
   0  -3  -5 18.8104 2.42204   2
   0  -3   5 17.0182 3.93137   6
   0  -3  -5 10.9201 2.51399   7
   0  -3   6 151.230 15.7440   9
   0   3   6 162.738 15.8064   3
   0   3   6 138.431 15.6645   5
   0  -3  -6 153.281 15.6098   2
   0   3   6 113.524 15.6745   2
   0  -3  -6 137.442 15.6103   7
   0   3   6 112.076 15.9109   4
   0   3   6 122.535 15.8048   4
   0  -3  -6 142.048 16.0783   3
   0  -3   6 152.488 16.0417   6
   0   3  -6 134.708 15.9685   4
   0   3  -7 490.566 47.3894   4
   0   3   7 354.549 47.1685   2
   0  -3   7 439.574 47.2248   4
   0  -3  -7 417.897 47.3635   3
   0   3   7 355.373 47.3007   4
   0  -3  -7 365.855 47.1806   5
   0  -3   7 448.130 47.2203   9
   0  -3   7 480.543 47.3667   6
   0   3   7 435.945 47.2732   4
   0  -3  -7 439.643 47.1459   2
   0   3   7 506.427 47.2940   3
   0   3  -8 13.7640 4.41543   4
   0  -3  -8 2.18362 4.65642   3
   0  -3  -8 9.46895 2.82100   5
   0   3   8 20.3517 3.58322   3
   0   3   8 7.00433 3.05024   2
   0   3  -8 11.2851 3.52311   6
   0  -3   8 9.37280 2.98776   9
   0  -3  -8 10.1759 2.60686   2
   0  -3   8 10.6248 2.89261   4
   0   3   8 8.23810 3.70693   4
   0   3   8 13.5465 3.90457   4
   0   3   9 1.99142 3.66199   4
   0   3  -9 12.8767 3.38630   6
   0  -3   9 0.71722 2.90049   9
   0   3  -9 3.19714 4.61221   4
   0  -3  -9 5.96173 4.88742   3
   0  -3  -9 1.47437 4.29807   4
   0  -3  -9 6.68497 2.86183   5
   0   3   9 5.78620 3.30159   2
   0  -3   9 5.38448 2.78513   4
   0   3  10 652.463 75.0165   2
   0   3  10 554.574 75.0700   4
   0  -3  10 705.566 75.0284   4
   0  -3  10 691.084 75.1729   8
   0  -3 -10 622.008 74.9765   5
   0  -3 -10 739.275 75.1880   3
   0   3 -10 763.621 75.0304   6
   0  -3 -10 641.547 75.1405   4
   0   3 -10 729.611 75.2304   4
   0  -3 -11 45.3499 7.15015   3
   0   3 -11 48.0390 5.83579   6
   0   3 -11 31.8663 6.95601   4
   0  -3  11 40.7958 6.93886   2
   0  -3 -11 33.6319 6.93387   4
   0  -3 -11 40.6807 5.60307   5
   0  -3  11 49.6504 7.38592   8
   0   3  11 36.4678 6.05100   2
   0   3  12 940.336 93.7857   2
   0  -3 -12 813.690 93.6956   5
   0   3 -12 762.268 93.8795   4
   0  -3 -12 1022.35 93.9675   3
   0  -3 -12 620.804 93.8228   4
   0  -3  12 960.106 93.9913   8
   0  -3  12 855.478 93.9273   2
   0   3 -13 46.0525 8.60104   4
   0  -3  13 60.2014 8.71244   8
   0   3  13 52.8406 7.49659   2
   0  -3 -13 59.4010 8.58863   3
   0  -3  13 64.8992 8.33519   2
   0  -3 -13 24.0415 8.25656   4
   0  -3  14-3.39747 6.08940   2
   0  -3 -14 8.73711 6.60926   3
   0   3  14 0.36206 5.02211   2
   0   3 -14 1.83091 6.47050   4
   0  -3 -14-5.85654 6.41271   4
   0  -3  14 11.5081 7.03537   8
   0  -3 -15 144.747 18.0520   3
   0  -3  15 162.473 18.2395   2
   0  -3  15 158.112 18.2123   8
   0   3 -15 139.360 18.2273   4
   0   3  15 143.042 17.6632   2
   0  -3 -16 252.825 30.0359   3
   0   3  16 258.906 29.6464   2
   0  -3  16 293.812 30.0745   2
   0   3 -16 208.541 29.9489   4
   0  -3  16 286.265 30.0323   8
   0  -3  17 21.5491 7.97658   2
   0  -3 -17 21.8821 8.08170   3
   0  -3  17 25.4577 7.79174   8
   0   3 -17 15.5196 8.09259   4
   0   3  17 27.5169 6.79791   2
   0  -3 -18 12.6088 7.88971   3
   0   3 -18 2.55898 8.01836   4
   0  -3  18 5.29827 7.84905   2
   0   3  18 0.12137 6.38911   2
   0  -3  18-2.13739 7.72467   8
   0  -3 -19 6.02199 8.00701   3
   0  -3  19 10.7884 8.10243   8
   0  -3  19 9.06729 8.15320   2
   0  -3  20 284.362 30.1688   8
   0  -3  20 266.281 30.1934   2
   0  -3 -20 223.407 30.0566   3
   0  -3  21 235.099 26.0906   8
   0  -3  21 215.432 25.7855   2
   0  -3 -21 199.385 25.8110   3
   0  -3  22 56.5536 11.1235   2
   0  -3  22 50.3507 11.3489   8
   0  -3 -22 61.8425 11.3701   3
   0  -3 -23 43.6496 10.9132   3
   0  -3  23 49.1833 10.8280   2
   0  -3 -24 14.6762 9.79334   3
   0  -3  24 19.6386 9.66984   2
   0  -3  25 15.0381 10.1791   2
   0  -3 -25-0.75249 9.72580   3
   0  -3  26 37.1322 11.3652   2
   0  -3 -26 42.5834 10.8978   3
   0  -3 -27 8.36793 9.92906   3
   0  -3  27 12.5479 10.5586   2
   0  -3 -28 11.4388 10.2515   3
   0  -3  28 20.2888 11.4266   2
   0  -3 -29 6.94354 10.3549   3
   0  -3  29 7.35601 10.4112   2
   0  -3 -30 9.27353 10.7268   3
   0  -3  30 5.77670 10.9081   2
   0  -4   0 2869.77 307.253   4
   0  -4   0 2486.86 307.272   3
   0   4   0 3156.88 307.270   3
   0   4   0 3340.75 307.344   4
   0   4   0 2877.25 307.223   7
   0   4   0 1996.58 307.260   1
   0   4   1 1626.14 183.860   4
   0  -4  -1 1698.84 183.802   7
   0  -4   1 1763.63 183.824   4
   0  -4   1 1654.08 183.862   3
   0  -4  -1 1481.18 183.857   3
   0   4  -1 1547.34 183.753   1
   0  -4  -1 1625.59 183.810   4
   0   4   1 1617.16 183.771   7
   0   4  -1 1721.48 183.789   7
   0   4  -1 1648.59 183.873   4
   0   4  -1 1820.01 183.832   3
   0   4  -2 517.838 52.7832   4
   0  -4  -2 511.353 52.6523   4
   0   4  -2 506.184 52.5935   1
   0   4  -2 573.082 52.7637   9
   0  -4  -2 335.141 52.5099   1
   0  -4  -2 465.077 52.7828   3
   0   4  -2 540.698 52.7036   3
   0  -4   2 565.225 52.6895   4
   0  -4   2 484.502 52.7612   3
   0   4   2 578.383 52.7605   4
   0   4  -2 522.662 52.6342   7
   0  -4  -2 502.058 52.6152   7
   0   4   2 479.190 52.5680   7
   0   4  -3 95.3384 10.9702   4
   0   4  -3 93.4584 10.4119   7
   0  -4  -3 111.862 10.3783   7
   0   4   3 107.008 10.3263   7
   0  -4  -3 120.135 11.1574   3
   0   4  -3 116.915 10.6281   3
   0  -4   3 95.9647 10.5284   4
   0  -4  -3 109.987 10.4946   4
   0   4   3 98.2150 10.7844   4
   0  -4  -3 77.7466 10.1938   2
   0   4  -3 103.812 10.9840   9
   0   4   4 13.1536 3.84734   4
   0   4  -4 15.6972 2.80959   7
   0   4   4 16.0667 2.64115   5
   0   4  -4 19.2372 4.51497   4
   0  -4  -4 20.6249 4.72968   3
   0   4  -4 23.5596 4.49575   9
   0  -4  -4 5.87457 1.98152   2
   0   4  -4 20.1138 3.49766   3
   0  -4  -4 10.6847 3.04277   4
   0  -4  -4 15.9563 2.59896   7
   0   4   4 15.6658 2.51124   7
   0   4   5 1308.20 162.701   4
   0   4  -5 1723.23 162.749   9
   0  -4  -5 1389.17 162.581   2
   0  -4   5 1388.04 162.717   6
   0  -4   5 1668.33 162.699   9
   0  -4  -5 1389.92 162.752   3
   0  -4  -5 1396.09 162.620   7
   0   4  -5 1568.60 162.711   7
   0   4   5 1514.02 162.673   5
   0   4  -5 1659.26 162.797   4
   0   4   5 1126.60 162.683   4
   0   4  -5 1772.86 162.729   3
   0  -4   6 312.614 41.2372   6
   0  -4  -6 338.620 41.3554   3
   0   4  -6 321.557 41.3013   4
   0   4   6 427.696 41.0914   5
   0   4   6 383.746 41.1937   4
   0  -4  -6 381.307 40.9680   2
   0  -4   6 384.699 41.1255   9
   0  -4  -6 344.520 40.9944   7
   0   4   6 306.152 41.1573   4
   0   4   6 417.306 41.1645   3
   0  -4   7 5684.01 588.728   9
   0   4   7 5875.91 588.740   5
   0  -4  -7 6447.27 588.858   3
   0   4   7 4713.87 588.667   2
   0  -4   7 5444.30 588.760   6
   0   4  -7 5854.30 588.826   4
   0   4   7 5011.71 588.740   4
   0  -4  -7 5223.97 588.667   7
   0   4   7 4433.83 588.762   4
   0   4   8 161.616 16.9079   4
   0  -4  -8 151.144 16.5200   7
   0   4  -8 126.975 17.2089   4
   0   4   8 116.855 16.6440   2
   0  -4   8 153.516 17.2476   6
   0   4   8 148.740 16.9711   4
   0   4   9 299.100 43.0043   4
   0   4   9 371.244 42.9262   2
   0   4   9 425.241 43.0272   4
   0   4  -9 379.711 43.2083   4
   0   4  10 142.457 17.1068   2
   0   4  10 159.454 17.2311   4
   0  -4 -10 142.870 17.0000   5
   0   4 -10 121.986 17.6211   4
   0  -4 -10 194.879 17.8796   3
   0   4  11 534.724 69.4841   4
   0  -4 -11 582.956 69.4003   5
   0   4  11 572.668 69.4246   2
   0  -4 -11 777.487 69.7674   3
   0   4 -11 664.063 69.7057   4
   0  -4  11 718.295 69.6938   2
   0  -4  11 688.410 69.7073   8
   0  -4  12 19.9905 6.59002   8
   0   4  12 9.56317 4.29442   2
   0  -4  12 4.61095 5.80666   2
   0   4  12-2.23436 4.82628   4
   0  -4 -12 14.4732 6.29436   3
   0   4 -12 2.54107 6.35033   4
   0   4  13 530.688 60.3922   2
   0  -4 -13 637.421 60.7155   3
   0   4 -13 498.735 60.6566   4
   0  -4  13 579.542 60.6569   2
   0  -4  13 583.433 60.7626   8
   0   4  13 470.997 60.4212   4
   0  -4  14 351.530 42.8075   2
   0   4 -14 339.581 42.8962   4
   0  -4 -14 439.046 42.9621   3
   0  -4  14 389.883 43.0424   8
   0  -4  15 13.0691 7.66665   8
   0   4 -15 1.75230 7.82910   4
   0  -4  15 0.56345 6.93590   2
   0  -4 -15 6.85335 7.24766   3
   0  -4  16 120.988 16.5731   8
   0   4 -16 96.6497 16.3666   4
   0  -4  16 154.042 16.3940   2
   0  -4 -16 133.022 16.2210   3
   0  -4  17 211.271 22.8949   8
   0  -4  17 207.225 22.8050   2
   0  -4 -17 182.792 22.8486   3
   0   4 -17 153.068 22.9511   4
   0   4 -18 0.33090 8.46660   4
   0  -4 -18-21.0473 8.14751   3
   0  -4  18-5.25809 8.13173   8
   0  -4  18-4.77177 7.94741   2
   0  -4  19 5.14596 8.36909   2
   0  -4  19 5.99783 8.65648   8
   0  -4 -19 6.94352 8.32305   3
   0  -4 -20-7.88496 8.65881   3
   0  -4  20-0.18067 8.77326   2
   0  -4  20 0.88059 8.86247   8
   0  -4  21 40.4065 10.5527   2
   0  -4 -21 49.8787 10.5318   3
   0  -4  21 49.8032 10.5317   8
   0  -4 -22-3.01535 9.29435   3
   0  -4  22-8.50584 9.42212   8
   0  -4  22 12.9037 9.16720   2
   0  -4  23-8.33437 10.1278   8
   0  -4 -23 11.7778 9.61547   3
   0  -4  23 17.6908 9.31577   2
   0  -4  24 44.3329 11.4088   8
   0  -4  24 46.3817 11.0168   2
   0  -4 -24 34.2952 10.9625   3
   0  -4 -25 82.6968 14.5745   3
   0  -4  25 102.134 14.8721   2
   0  -4  26 15.1727 10.3610   2
   0  -4 -26 2.42235 10.1833   3
   0  -4  27 20.1075 11.0337   2
   0  -4 -27 19.6784 10.6402   3
   0  -4  28 1.47388 10.8411   2
   0  -4 -28 17.0791 10.5784   3
   0  -4  29-5.45381 10.9074   2
   0  -4 -29 0.42677 10.3962   3
   0   5   0-2.28733 4.97119   4
   0  -5   0 4.13549 2.91674   4
   0   5   0-4.03724 2.35680   7
   0   5   0 0.53775 3.20829   3
   0  -5   0-8.52471 5.16861   3
   0  -5   1 5764.76 609.760   4
   0   5   1 5294.27 609.713   7
   0   5  -1 4728.58 609.805   4
   0  -5  -1 5536.26 609.814   3
   0   5  -1 5718.63 609.760   3
   0   5  -1 4744.78 609.719   1
   0  -5  -1 5714.79 609.763   4
   0   5   1 5964.25 609.756   3
   0   5  -1 5647.94 609.731   7
   0   5   1 5977.25 609.852   4
   0  -5   1 5458.08 609.797   3
   0   5   2 13.8769 2.79437   7
   0   5   2 11.6083 5.06473   4
   0  -5   2 6.40431 5.37895   3
   0  -5  -2 17.9309 3.58396   4
   0  -5  -2 20.9988 3.59996   7
   0  -5  -2 26.1933 5.78352   3
   0   5  -2 32.7664 5.41012   4
   0   5  -2 22.2927 3.96014   3
   0   5  -2 33.0183 5.43745   9
   0   5  -2 14.2818 2.97992   7
   0   5  -2 13.4173 2.92757   1
   0   5  -3 55.2441 8.24390   4
   0  -5  -3 73.2505 7.02224   7
   0   5   3 77.2059 8.09074   4
   0   5  -3 55.6289 6.90586   7
   0  -5  -3 73.8226 8.54892   3
   0   5  -3 64.5371 7.39470   3
   0   5  -3 51.9860 6.79117   1
   0   5  -3 66.4781 8.11775   9
   0   5   3 74.3428 6.79279   7
   0  -5  -3 42.3090 6.51528   1
   0  -5  -3 50.2697 7.06897   4
   0   5  -4 1040.65 130.420   4
   0   5   4 1122.26 130.382   4
   0   5   4 1101.67 130.255   7
   0   5   4 1187.17 130.306   5
   0  -5  -4 1065.37 130.304   4
   0   5  -4 1373.82 130.367   3
   0   5  -4 1308.73 130.415   9
   0  -5  -4 1307.87 130.493   3
   0   5  -4 1174.39 130.316   7
   0  -5  -4 1154.34 130.278   7
   0   5   5 1348.40 144.984   5
   0   5  -5 1639.07 145.072   3
   0   5  -5 1461.54 145.102   9
   0  -5  -5 1268.10 145.143   3
   0  -5  -5 1281.21 145.001   4
   0   5  -5 1303.88 145.119   4
   0  -5   5 1166.43 145.101   6
   0  -5  -5 1231.66 144.932   7
   0   5   5 1203.07 145.043   4
   0   5   5 1241.02 144.929   7
   0   5  -6 591.966 66.4616   4
   0   5   6 639.530 66.2291   5
   0   5  -6 668.558 66.4303   9
   0   5   6 430.410 66.2535   4
   0  -5  -6 686.581 66.5053   3
   0   5   6 490.474 66.3010   4
   0  -5   6 591.600 66.4433   6
   0   5  -6 725.133 66.3115   3
   0  -5  -6 593.631 66.1522   7
   0  -5  -7 27.4478 6.69597   3
   0   5   7 16.5570 5.30769   4
   0  -5   7 9.13840 6.11144   6
   0   5   7 30.8564 4.08260   5
   0   5   7 22.8749 5.02620   4
   0   5  -7 34.0827 6.30246   4
   0   5   8 444.277 43.4225   5
   0   5  -8 360.288 43.7747   4
   0  -5   8 400.043 43.7487   6
   0  -5  -8 490.335 43.9422   3
   0  -5  -9 20.1327 6.98052   3
   0   5   9 25.5123 5.32102   4
   0   5  -9 22.6395 6.68702   4
   0  -5   9 17.3348 6.86735   6
   0  -5 -10 85.9160 11.7634   3
   0   5  10 79.6725 10.6852   4
   0  -5  10 102.649 11.6578   6
   0   5 -10 74.6396 11.6221   4
   0   5  11-0.36837 4.92913   4
   0   5 -11 6.06898 6.55712   4
   0  -5 -11 3.20775 7.52884   3
   0  -5  11 1.15555 5.77757   2
   0   5  12 94.6436 14.5389   4
   0  -5  12 139.471 15.4408   8
   0   5 -12 112.575 15.5611   4
   0  -5 -12 151.915 16.0596   3
   0  -5  12 137.912 15.1291   2
   0   5 -13 251.635 32.6527   4
   0  -5  13 294.986 32.5850   8
   0  -5 -13 291.149 32.7408   3
   0  -5  13 287.826 32.3696   2
   0  -5  14 32.7981 8.59474   8
   0  -5 -14 25.4825 8.73346   3
   0  -5  14 28.2237 7.59943   2
   0   5 -14 13.3542 8.16713   4
   0  -5  15 107.392 14.6001   8
   0   5 -15 94.2170 13.9182   4
   0  -5  15 107.497 13.7979   2
   0  -5 -15 97.4236 13.9493   3
   0  -5  16 89.7038 11.6154   2
   0  -5 -16 72.8198 11.6823   3
   0  -5  16 77.6633 12.0192   8
   0   5 -16 49.1849 11.9108   4
   0  -5  17 85.5883 11.8232   2
   0  -5  17 86.0707 12.2050   8
   0   5 -17 56.4654 12.5044   4
   0  -5 -17 61.9209 11.7936   3
   0   5 -18 88.5736 14.6842   4
   0  -5  18 94.2095 14.4196   8
   0  -5  18 107.489 14.1503   2
   0  -5 -18 102.769 14.0825   3
   0  -5  19 75.9181 13.7760   8
   0  -5 -19 74.5768 13.5397   3
   0  -5  19 120.632 13.7939   2
   0   5 -19 88.6210 14.2155   4
   0  -5  20 11.9226 9.33630   8
   0  -5  20 6.23453 9.11961   2
   0  -5 -20 2.88735 8.88305   3
   0  -5 -21-1.05462 9.12365   3
   0  -5  21 2.43620 9.15076   8
   0  -5  21 5.63555 9.35498   2
   0  -5 -22-2.18063 9.52469   3
   0  -5  22 16.9633 9.76102   8
   0  -5  22 15.2236 9.51408   2
   0  -5 -23-7.12748 9.72590   3
   0  -5  23 16.1337 10.0991   8
   0  -5  23 0.40497 9.33791   2
   0  -5  24-2.65563 10.5403   8
   0  -5 -24 5.61207 10.1393   3
   0  -5  24 22.0134 10.1374   2
   0  -5  25 5.79030 10.4432   2
   0  -5 -25 1.19532 9.97198   3
   0  -5  25-6.42378 10.8341   8
   0  -5 -26 12.0132 10.3884   3
   0  -5  26-1.84618 10.4416   2
   0  -5  27 12.8809 10.9455   2
   0  -5 -27 2.33837 10.5803   3
   0  -5 -28 0.21781 10.5041   3
   0  -5  28-1.74449 10.9551   2
   0  -5 -29 0.45670 11.0737   3
   0   6   0 2907.35 328.218   4
   0   6   0 2774.98 328.078   7
   0  -6   0 3394.16 328.273   3
   0   6  -1 157.760 17.3945   7
   0   6   1 132.112 18.1597   4
   0  -6   1 136.482 18.2255   3
   0   6   1 149.449 17.3274   7
   0  -6  -1 182.753 18.2834   3
   0   6  -1 163.020 18.2810   4
   0  -6  -2 53.0394 8.36322   3
   0   6   2 43.0068 7.82991   4
   0   6  -2 79.1624 7.74952   9
   0   6   2 37.1635 5.53711   7
   0   6  -2 48.6051 7.71924   4
   0  -6   2 41.1481 7.84397   3
   0   6  -3 90.1315 12.3668   4
   0  -6  -3 94.2576 12.7355   3
   0   6   3 76.8686 12.1657   4
   0   6  -3 129.262 12.4450   9
   0   6  -4 936.266 110.996   4
   0   6  -4 1174.14 110.978   9
   0  -6  -4 960.128 110.792   7
   0  -6  -4 1141.23 111.103   3
   0   6   4 842.108 110.940   4
   0   6   5 130.310 16.3517   4
   0   6  -5 170.602 16.6131   9
   0   6  -5 125.287 16.6756   4
   0  -6  -5 133.602 16.8267   3
   0  -6   5 126.558 16.7122   6
   0  -6   6 62.9912 10.1969   6
   0   6  -6 48.1312 10.1995   4
   0   6  -6 83.3954 10.0149   9
   0   6   6 60.9358 9.57908   4
   0   6   7 24.9831 6.04313   4
   0  -6   7 22.5127 6.99397   6
   0  -6  -7 30.0817 7.62699   3
   0   6  -7 36.1509 6.90584   9
   0   6  -7 20.7908 7.22019   4
   0   6  -8 1342.08 152.973   4
   0  -6   8 1547.97 152.952   6
   0   6   8 1134.73 152.826   4
   0  -6  -8 1605.37 153.039   3
   0   6   9 37.8361 6.86448   4
   0  -6  -9 37.1307 8.14466   3
   0   6  -9 32.2147 8.24174   4
   0  -6   9 44.0253 8.12030   6
   0   6 -10 708.622 82.8952   4
   0  -6  10 797.525 82.8531   6
   0   6  10 636.051 82.6592   4
   0  -6 -10 892.200 82.9850   3
   0  -6  11 224.153 25.1284   2
   0   6  11 184.188 24.9331   4
   0  -6 -11 237.265 25.6635   3
   0   6 -11 204.382 25.5984   4
   0  -6  11 244.876 25.3826   6
   0  -6  12 215.581 25.1111   2
   0  -6 -12 195.943 25.5012   3
   0   6 -12 216.186 25.3064   4
   0  -6  12 227.580 25.3617   8
   0  -6  13 237.943 28.0098   8
   0  -6 -13 268.913 28.1950   3
   0  -6  13 247.515 27.7420   2
   0   6 -13 200.309 27.9684   4
   0  -6  14 166.643 20.3100   8
   0   6 -14 160.494 20.6665   4
   0  -6 -14 153.145 20.3565   3
   0  -6  14 170.696 19.9492   2
   0  -6  15 133.597 17.5340   8
   0  -6 -15 147.178 17.4291   3
   0   6 -15 119.245 17.3849   4
   0  -6  15 120.508 16.6075   2
   0  -6  16-10.9698 9.76882   8
   0  -6  16 14.7295 8.43315   2
   0  -6 -16 16.2566 9.78905   3
   0   6 -16 13.2569 9.18343   4
   0  -6  17 121.835 16.8515   8
   0  -6 -17 131.319 17.0485   3
   0  -6  17 131.531 16.2419   2
   0   6 -17 97.4526 16.7457   4
   0  -6  18 61.1784 11.3984   2
   0   6 -18 56.3523 12.5530   4
   0  -6 -18 77.4327 13.1094   3
   0  -6  18 57.5531 12.0445   8
   0  -6 -19 15.0847 11.1888   3
   0  -6  19 2.37243 9.85270   8
   0   6 -19 12.2659 10.6760   4
   0  -6  19 19.5517 9.41669   2
   0  -6 -20 40.9749 11.1117   3
   0  -6  20 20.7474 9.54339   2
   0  -6  21 14.7788 10.0748   8
   0  -6  21 11.5604 9.80365   2
   0  -6 -21 20.9657 11.1817   3
   0  -6  22 93.0546 15.4932   8
   0  -6 -22 123.770 16.3593   3
   0  -6  22 94.7457 15.3669   2
   0  -6 -23 75.2688 13.6218   3
   0  -6  23 60.5303 12.8043   8
   0  -6  23 62.5127 12.4791   2
   0  -6  24 42.8107 12.0884   2
   0  -6  24 63.2819 12.8244   8
   0  -6 -24 67.4737 13.3859   3
   0  -6  25 0.41134 11.3905   8
   0  -6 -25 21.2446 12.1378   3
   0  -6  25 13.0424 10.7051   2
   0  -6 -26 3.95620 12.0812   3
   0  -6  26 14.9037 11.5426   8
   0  -6  26 5.72277 10.7970   2
   0  -6 -27 1.01115 12.3747   3
   0  -6  27 2.70528 10.9282   2
   0  -6 -28 0.25800 12.2768   3
   0  -6  28 8.97368 11.4009   2
   0  -7   0-8.21347 6.98225   3
   0   7   0-7.34421 6.23930   4
   0   7  -1 140.451 16.9995   4
   0  -7   1 121.665 17.0196   3
   0   7   1 123.099 17.0389   4
   0  -7  -1 176.503 17.2977   3
   0   7  -2 26.4239 7.10860   9
   0  -7  -2 20.0656 7.61733   3
   0   7  -2 28.3591 7.31464   4
   0   7   2 18.9751 7.05716   4
   0   7  -3 709.200 69.7938   9
   0  -7  -3 658.088 69.9423   3
   0   7  -3 595.850 69.8133   4
   0   7   3 533.861 69.7726   4
   0   7  -4 116.131 15.2805   4
   0  -7  -4 138.479 15.5730   3
   0   7   4 104.460 15.0851   4
   0   7  -4 125.449 15.0453   9
   0  -7  -5 1047.34 102.969   3
   0   7  -5 842.866 102.843   4
   0   7  -5 1035.72 102.790   9
   0   7   5 789.917 102.752   4
   0  -7  -6 37.5269 8.28101   3
   0   7  -6 19.8549 7.84380   4
   0  -7   6 18.7373 8.14903   6
   0   7   6 19.3165 7.34708   4
   0   7  -6 43.2643 7.95329   9
   0  -7   7 29.9038 8.28580   6
   0   7   7 15.6579 7.02327   4
   0   7  -7 30.3214 8.01965   4
   0   7  -7 42.1913 7.92592   9
   0  -7  -7 26.4918 8.76036   3
   0  -7  -8 37.9724 9.33597   3
   0  -7   8 33.6231 8.07801   6
   0   7   8 25.1699 7.03394   4
   0   7  -8 23.5000 8.16234   4
   0  -7   9 284.004 30.4954   6
   0  -7  -9 310.021 30.8436   3
   0   7   9 217.481 30.0318   4
   0   7  -9 271.900 30.5765   4
   0   7  10 11.3661 6.32209   4
   0  -7 -10 12.5181 8.27956   3
   0  -7  10 11.2000 6.27392   2
   0  -7  10 8.54356 8.13192   6
   0   7 -10 5.45547 8.41656   4
   0  -7 -11 72.1383 10.5568   3
   0  -7  11 56.5420 10.3011   6
   0  -7  11 51.2415 8.95301   2
   0   7 -11 46.7820 10.4547   4
   0   7  11 46.2666 8.55467   4
   0  -7  12 11.0022 7.24935   2
   0  -7  12-0.71913 8.31497   8
   0   7 -12 6.70300 8.68081   4
   0  -7  12 9.63636 8.32945   6
   0  -7 -12 5.18368 8.57136   3
   0   7 -13 93.2956 14.5078   4
   0  -7  13 111.526 13.6376   2
   0  -7  13 105.008 14.5344   8
   0  -7 -13 92.6376 14.5019   3
   0   7 -14 85.0637 12.5154   4
   0  -7  14 62.2976 12.3783   8
   0  -7 -14 59.5364 12.5464   3
   0  -7  14 80.8836 11.2337   2
   0  -7  15 98.0187 13.8994   8
   0  -7  15 86.7172 12.8683   2
   0   7 -15 90.3758 14.1263   4
   0  -7 -15 64.7645 13.6947   3
   0  -7  16 121.764 15.4690   8
   0   7 -16 82.0265 15.0302   4
   0  -7  16 92.3511 14.1179   2
   0  -7 -16 98.9380 14.7282   3
   0  -7  17 74.8656 12.1822   2
   0   7 -17 50.6849 13.2075   4
   0  -7  17 79.0649 13.6903   8
   0  -7 -17 83.7340 13.3664   3
   0  -7 -18 26.8879 10.4342   3
   0   7 -18 7.70067 10.5753   4
   0  -7  18 23.1077 10.9251   8
   0  -7  18 10.4637 9.16718   2
   0  -7 -19 58.4856 12.0833   3
   0   7 -19 34.0827 12.9326   4
   0  -7  19 52.4139 11.1393   2
   0  -7  19 60.1563 12.4679   8
   0  -7  20 31.3538 10.1606   2
   0  -7  20 11.8337 10.8130   8
   0  -7 -20 18.8775 10.8960   3
   0  -7 -21 0.83275 10.5054   3
   0  -7  21 7.81188 10.6677   8
   0  -7  21 2.11342 9.93476   2
   0  -7  22 12.5800 10.8135   8
   0  -7  22 12.1994 9.93694   2
   0  -7 -22 7.47206 11.1617   3
   0  -7  23 25.3463 10.5967   2
   0  -7  23 10.3669 10.9599   8
   0  -7 -23 26.6803 11.4311   3
   0  -7  24 29.9604 11.8614   8
   0  -7  24 27.1237 11.3541   2
   0  -7 -24 41.8131 11.9518   3
   0  -7 -25 4.33963 11.1557   3
   0  -7  25 11.4436 10.6433   2
   0  -7  25 19.6647 11.6326   8
   0  -7  26 0.24579 10.9553   2
   0  -7  26 6.62441 11.9240   8
   0  -7 -26 4.19371 11.4326   3
   0  -7  27 6.82946 11.1850   2
   0  -7  27 4.71978 11.9497   8
   0   8   0 271.446 37.5402   4
   0  -8   0 392.440 37.6858   3
   0   8  -1 48.0380 9.40740   4
   0  -8  -1 34.9900 9.86593   3
   0  -8   1 57.5601 9.31650   3
   0   8   1 39.5477 9.16264   4
   0   8  -2 228.467 32.6494   4
   0   8   2 258.662 32.7013   4
   0   8  -2 316.055 32.5975   9
   0  -8  -2 335.062 32.8901   3
   0   8  -3 33.5021 8.13988   9
   0   8   3 30.3817 8.30325   4
   0  -8  -3 32.8783 8.97331   3
   0   8  -3 18.4313 8.15772   4
   0   8  -4 20.8242 8.66695   4
   0   8   4 19.5249 8.75730   4
   0  -8  -4 23.0064 9.62785   3
   0   8  -4 49.3972 8.07775   9
   0  -8  -5 46.7450 11.0010   3
   0   8  -5 75.8436 10.2469   9
   0   8  -5 42.9870 10.5357   4
   0   8   5 71.1075 10.4576   4
   0  -8  -6 668.294 71.6256   3
   0   8   6 575.786 71.3565   4
   0   8  -6 803.281 71.4477   9
   0  -8   6 592.397 71.4762   6
   0   8  -6 543.364 71.4866   4
   0  -8   7 12.7190 8.54541   6
   0   8   7 8.81341 7.44246   4
   0  -8  -7-0.96222 8.98746   3
   0   8  -7 7.76974 7.76552   9
   0   8  -7 12.4693 8.17415   4
   0   8   8 14.6579 7.54060   4
   0  -8   8 6.23241 8.18099   6
   0  -8  -8 15.5415 8.95175   3
   0   8  -8 7.36989 8.55939   4
   0   8  -9 7.53094 8.89347   4
   0  -8   9 5.38979 8.48650   6
   0   8   9 5.21988 7.27769   4
   0  -8  -9-2.31924 8.85620   3
   0  -8 -10 49.4729 11.3021   3
   0   8  10 44.2064 9.37723   4
   0  -8  10 64.4189 10.5575   6
   0   8 -10 49.4275 10.6793   4
   0  -8 -11 60.7794 12.2878   3
   0  -8  11 66.6224 11.5248   6
   0   8 -11 57.2287 11.7952   4
   0  -8 -12 22.7609 10.2378   3
   0  -8  12 26.3606 9.73248   8
   0  -8  12 14.2471 9.55239   6
   0   8 -12 15.0145 9.70061   4
   0  -8 -13 1.11468 10.0727   3
   0   8 -13 13.9555 9.85599   4
   0  -8  13 22.9312 9.74094   8
   0  -8 -14 96.5423 15.3584   3
   0  -8  14 107.554 14.6083   2
   0  -8  14 97.3196 15.4885   8
   0   8 -14 111.084 15.5347   4
   0  -8  15 21.3183 10.8871   8
   0  -8 -15 18.2376 9.97603   3
   0  -8  15 19.5610 8.91830   2
   0   8 -15 18.3893 10.7414   4
   0  -8  16 6.20377 10.9890   8
   0  -8 -16 9.45333 9.92908   3
   0  -8  16 10.4201 8.95675   2
   0   8 -16 12.8854 11.2805   4
   0   8 -17 1.83274 10.9869   4
   0  -8 -17 2.84852 9.73378   3
   0  -8  17 26.7743 11.1638   8
   0  -8  17-2.28188 9.11309   2
   0  -8 -18 63.1115 12.7479   3
   0   8 -18 37.4521 13.0554   4
   0  -8  18 77.4334 13.4640   8
   0  -8  18 70.1584 11.8862   2
   0   8 -19 13.3663 11.9529   4
   0  -8  19 20.8365 9.76185   2
   0  -8 -19 21.2717 11.1872   3
   0  -8  19 13.8208 11.3091   8
   0  -8 -20 32.9502 11.7595   3
   0  -8  20 32.3559 10.7524   2
   0  -8  20 30.8776 12.1000   8
   0  -8  21 2.64604 11.5359   8
   0  -8 -21 18.5625 11.1231   3
   0  -8  21 30.0167 10.4328   2
   0  -8  22 13.5925 11.6386   8
   0  -8  22 23.6260 10.4401   2
   0  -8 -22 4.25833 11.2280   3
   0  -8  23 11.2092 11.3861   8
   0  -8 -23 0.91444 11.2814   3
   0  -8  23 4.09955 10.3552   2
   0  -8  24 3.38456 11.2429   8
   0  -8  24-6.39604 10.5342   2
   0  -8 -24 0.69838 11.3507   3
   0  -8  25 7.34483 11.6568   8
   0  -8  25 6.12757 10.6816   2
   0  -8 -25 0.23698 11.4708   3
   0  -8  26-1.00886 11.0212   2
   0   9   0 1.15939 8.35149   4
   0  -9   0-0.15110 8.38198   3
   0   9  -1 27.3456 8.82639   9
   0  -9  -1 36.7017 9.48595   3
   0   9   1 10.2270 8.81786   4
   0   9  -1 47.4476 9.13586   4
   0   9   2 111.214 17.1286   4
   0  -9  -2 160.399 17.6592   3
   0   9  -2 110.050 17.0103   4
   0   9  -2 147.274 16.9178   9
   0   9  -3-12.0591 8.05106   9
   0   9   3-3.50338 8.06787   4
   0  -9  -3 17.7639 9.24370   3
   0   9  -3-1.87986 8.45989   4
   0   9   4 6.94285 8.21646   4
   0  -9  -4 11.2505 9.18301   3
   0   9  -4 7.35160 8.62243   4
   0   9  -4 6.56549 8.13844   9
   0  -9  -5 24.6815 9.85283   3
   0   9  -5 12.9452 8.94292   4
   0   9  -5 30.7622 8.62035   9
   0  -9   5 19.5997 10.0103   6
   0   9   5 15.6833 8.62257   4
   0   9   6 376.343 45.8104   4
   0  -9  -6 417.270 46.1618   3
   0   9  -6 502.420 45.7523   9
   0  -9   6 352.920 45.8304   6
   0   9  -6 350.062 45.8351   4
   0  -9  -7 18.2743 10.5489   3
   0   9  -7 21.3190 9.51520   4
   0  -9   7 17.7518 9.47455   6
   0   9   7 11.8561 8.71595   4
   0   9  -7 24.8159 8.63076   9
   0   9   8 73.4923 12.0651   4
   0  -9   8 70.7085 12.6690   6
   0   9  -8 55.8981 12.8819   4
   0   9  -9-2.74875 9.90015   4
   0  -9   9 28.2584 9.61721   6
   0  -9  -9 23.9560 10.4453   3
   0   9   9 9.85501 8.23668   4
   0  -9  10 48.1732 10.4342   6
   0  -9 -10 29.7362 11.1215   3
   0   9 -10 22.6380 10.7017   4
   0  -9  11 38.5743 11.2795   6
   0   9 -11 42.2911 11.2242   4
   0  -9 -11 60.8606 11.7865   3
   0   9 -12 104.921 15.9614   4
   0  -9  12 87.5696 15.5310   6
   0  -9 -12 109.033 16.2701   3
   0  -9  12 121.846 15.7586   8
   0  -9  13 16.6734 10.6094   8
   0  -9  13 6.05088 10.0566   6
   0   9 -13 26.2136 10.8673   4
   0  -9 -13 23.2212 11.0571   3
   0  -9  14 19.6906 10.6396   8
   0   9 -14 0.22191 10.8082   4
   0  -9 -14 9.39452 11.4733   3
   0  -9  15 16.8995 11.7979   8
   0   9 -15 40.9915 11.5666   4
   0  -9 -15 10.5695 11.7229   3
   0   9 -16 11.2737 12.0828   4
   0  -9 -16 7.64262 11.4806   3
   0  -9  16 1.26037 11.8868   8
   0  -9 -17 9.88509 11.2492   3
   0  -9  17 15.7397 11.8160   8
   0   9 -17 0.25261 11.9855   4
   0  -9  18-6.87579 11.7866   8
   0  -9 -18 1.74692 11.1977   3
   0   9 -18 8.64278 11.7228   4
   0  -9 -19 28.0588 11.6277   3
   0  -9  19-2.79364 11.6317   8
   0   9 -19 17.0905 12.1835   4
   0  -9  20 47.4681 13.5062   8
   0  -9 -20 57.3309 12.7433   3
   0  -9 -21-4.95894 11.3607   3
   0  -9  21 19.0989 11.9237   8
   0  -9 -22 5.21837 11.2253   3
   0  -9  22-12.9025 11.5110   8
   0  -9  23 16.2567 11.7542   8
   0  -9 -23 0.23049 11.1804   3
   0 -10   0 10.0387 9.28931   3
   0  10   0 6.00344 9.15565   4
   0  10   1 84.7381 14.2759   4
   0  10  -1 103.670 14.3491   4
   0 -10  -1 97.6903 14.4296   3
   0 -10  -2 4.58086 9.72677   3
   0  10  -2 25.6490 9.60067   4
   0  10   2 7.69013 9.22943   4
   0  10   3 115.571 16.9004   4
   0  10  -3 106.623 16.9720   4
   0 -10  -3 153.645 17.6411   3
   0 -10  -4 42.2886 11.4398   3
   0  10   4 37.5132 10.0604   4
   0  10  -4 32.3625 10.6486   4
   0 -10   5 36.9138 11.1520   6
   0  10  -5 21.1270 10.4867   4
   0 -10  -5 53.6341 10.8060   3
   0  10   5 19.9467 9.74658   4
   0  10   6 15.5292 9.56911   4
   0 -10  -6 37.2883 10.7554   3
   0  10  -6 14.4876 9.91815   4
   0 -10   6 7.19749 10.3659   6
   0 -10   7 99.5362 16.7992   6
   0  10  -7 128.364 17.0764   4
   0  10   7 110.168 16.1981   4
   0 -10  -7 140.904 17.3878   3
   0  10  -8 0.20886 10.2866   4
   0 -10   8 7.70537 9.70938   6
   0 -10  -8 11.4931 11.3563   3
   0  10   8 12.9099 9.26449   4
   0 -10  -9-8.58849 10.9777   3
   0 -10   9 8.35541 10.2424   6
   0  10  -9 5.21990 10.4723   4
   0 -10  10 28.4293 10.4725   6
   0 -10 -10-0.42432 11.1481   3
   0  10 -10 14.1746 10.9438   4
   0 -10  11 50.4364 11.7226   8
   0 -10 -11 71.5039 12.8645   3
   0 -10  11 28.9279 11.7509   6
   0  10 -11 35.9102 12.1369   4
   0 -10  12 30.4553 11.9462   6
   0 -10  12 62.0242 11.9846   8
   0  10 -12 38.6390 12.2941   4
   0 -10 -12 60.2943 12.6888   3
   0 -10  13 8.48765 11.0143   8
   0 -10 -13-1.30409 11.4327   3
   0  10 -13 13.1866 11.2673   4
   0 -10  13-0.16903 10.3184   6
   0 -10  14 37.2745 12.1670   8
   0 -10 -14 17.9385 11.7106   3
   0  10 -14 12.6187 11.5074   4
   0  10 -15 31.6150 13.2611   4
   0 -10  15 55.6810 13.6895   8
   0 -10 -15 70.9157 13.2460   3
   0  10 -16 8.27498 12.2487   4
   0 -10  16 23.8381 12.3093   8
   0 -10 -16 0.69591 11.7283   3
   0 -10 -17 61.7918 13.1522   3
   0  10 -17 20.8998 13.4294   4
   0 -10  17 30.8647 13.2158   8
   0 -10  18-2.76211 12.4281   8
   0 -10 -18 25.8818 12.1867   3
   0  10 -18-3.86018 12.6349   4
   0 -10 -19 2.99473 12.2536   3
   0 -10  19-3.44447 12.6026   8
   0  10 -19 11.8794 12.7405   4
   0 -10 -20 0.75131 12.3123   3
   0 -10  20 22.1095 11.9186   8
   0 -10  21 4.60565 12.1246   8
   0 -10 -21 0.50795 12.1751   3
   0  11   0-8.62558 10.0412   4
   0  11   1-5.15190 10.0067   4
   0 -11  -1 1.51545 10.2348   3
   0  11  -1 1.04487 10.2096   4
   0  11  -2 61.7052 12.9996   4
   0  11   2 55.0673 12.6797   4
   0 -11  -2 83.3716 12.8643   3
   0  11  -3 10.2655 10.5465   4
   0 -11  -3 19.1045 10.7825   3
   0  11   3-6.51267 9.67496   4
   0 -11  -4 66.0019 12.1397   3
   0 -11   4 38.5501 12.9858   6
   0  11  -4 53.9823 11.8097   4
   0  11   4 29.8426 11.2518   4
   0 -11   5 18.3696 11.6709   6
   0  11   5 0.81069 9.73354   4
   0 -11  -5-18.3101 11.5786   3
   0  11  -5-3.76568 10.4253   4
   0  11   6 10.1182 9.67782   4
   0  11  -6-9.67101 10.8888   4
   0 -11   6-10.5138 11.0646   6
   0 -11  -6 11.5969 10.8172   3
   0 -11  -7 8.41015 11.1224   3
   0 -11   7 16.7041 10.9914   6
   0  11   7 18.8763 9.98370   4
   0  11  -7 10.0132 10.8708   4
   0 -11  -8 34.7222 11.7617   3
   0  11  -8 9.40635 11.3086   4
   0 -11   8 34.5312 11.0327   6
   0 -11   9 11.0363 11.3564   6
   0 -11  -9 31.3622 12.0407   3
   0  11  -9 31.9042 11.6814   4
   0 -11  10 8.23679 10.9584   6
   0 -11  10 16.8058 11.0513   8
   0  11 -10 1.72079 11.4374   4
   0 -11 -10 13.6399 12.3241   3
   0 -11 -11 13.8157 12.1089   3
   0  11 -11 8.87465 11.7371   4
   0 -11  11 37.6813 11.2918   8
   0 -11  11 4.90775 11.2413   6
   0 -11  12 27.2178 11.5395   6
   0 -11 -12 31.2006 12.6731   3
   0  11 -12 18.7130 12.4132   4
   0 -11  12 30.3888 11.7801   8
   0 -11  13 8.64336 12.1498   8
   0  11 -13 13.2847 12.2271   4
   0 -11 -13 1.20329 12.3433   3
   0 -11  14 16.0607 12.6081   8
   0 -11 -14 10.3731 12.5786   3
   0  11 -14 4.73302 12.2698   4
   0 -11  15 5.20067 12.6886   8
   0  11 -15 1.34456 12.1776   4
   0 -11 -15-3.90355 12.2450   3
   0  11 -16 17.8264 13.2581   4
   0 -11  16 22.4073 13.1597   8
   0 -11 -16 14.2588 12.5393   3
   0  11 -17 12.2745 13.6492   4
   0 -11 -17 4.23052 12.3277   3
   0 -11  17 17.2605 13.0595   8
   0  11 -18 3.54257 13.2540   4
   0 -11 -18 0.49858 12.0453   3
   0 -11  18-4.29692 12.7697   8
   0 -11 -19 0.25258 12.2673   3
   0  11 -19-7.66389 13.0086   4
   0 -11  19 14.3069 12.5042   8
   0  12   0 42.2203 11.9047   4
   0  12   1-6.51940 10.1633   4
   0  12  -1-6.03271 10.9815   4
   0  12   2 13.3747 10.6243   4
   0 -12  -2 3.12852 10.7890   3
   0  12  -2-2.32261 10.8115   4
   0  12   3-4.02508 10.3233   4
   0  12  -3 21.2803 11.2588   4
   0 -12   3 17.5582 12.7138   6
   0 -12  -3-7.41152 10.8109   3
   0  12   4 30.6659 11.1532   4
   0 -12  -4 33.7442 11.7849   3
   0  12  -4 29.7640 11.8964   4
   0 -12   4 43.7015 13.2382   6
   0  12  -5 2.91964 11.3182   4
   0 -12   5 16.3000 12.4015   6
   0 -12  -5 1.96527 11.2471   3
   0  12   5 28.8438 10.4591   4
   0 -12   6 6.97738 11.9001   6
   0  12  -6-5.68496 11.4627   4
   0  12   6 9.68987 10.2348   4
   0 -12  -6 7.51600 12.1114   3
   0 -12   7 42.1157 12.6360   6
   0  12  -7 36.6209 12.9864   4
   0 -12  -7 56.4522 13.5696   3
   0  12  -8 29.9961 12.7400   4
   0 -12   8 25.0836 12.2928   6
   0 -12  -8 44.6192 12.5990   3
   0  12  -9 26.5105 12.4885   4
   0 -12  -9 27.2884 12.3080   3
   0 -12   9 22.4569 12.3380   6
   0 -12 -10 13.6973 12.3453   3
   0 -12  10 6.44202 11.8179   6
   0  12 -10 12.2990 12.3534   4
   0 -12 -11 20.4626 13.0447   3
   0 -12  11 33.0717 12.3526   6
   0 -12  11 31.7902 12.2415   8
   0  12 -11 35.5386 13.2457   4
   0  12 -12 25.7384 12.7961   4
   0 -12 -12 10.3110 12.5428   3
   0 -12  12 18.8802 12.6912   8
   0 -12 -13 58.0422 14.1219   3
   0 -12  13 27.3095 13.6930   8
   0  12 -13 32.3959 13.7154   4
   0  12 -14 2.25476 12.5138   4
   0 -12  14 18.3894 13.0145   8
   0 -12 -14 7.52291 12.5584   3
   0  12 -15 17.8147 12.9310   4
   0 -12 -15 0.26275 12.5995   3
   0 -12  15 18.0320 13.2433   8
   0 -12  16-18.3554 12.9236   8
   0 -12 -16 0.26439 12.9331   3
   0  12 -16-10.7210 13.5443   4
   0  12 -17 0.63614 13.9011   4
   0 -12  17 2.22133 12.6076   8
   0  13   0 6.21563 11.6910   4
   0  13   1 24.3358 11.7652   4
   0  13  -1 16.3354 11.6634   4
   0  13  -2 4.10495 11.9801   4
   0  13   2 13.2016 11.3916   4
   0 -13   2 20.5359 13.3967   6
   0 -13   3 3.34197 13.2726   6
   0  13   3-6.74295 10.9826   4
   0  13  -3 25.0288 11.7903   4
   0  13  -4-0.26063 11.9140   4
   0 -13   4 29.6877 12.9798   6
   0 -13  -4 8.48836 11.7060   3
   0  13   4-3.57763 10.9646   4
   0  13   5 31.1081 11.4783   4
   0 -13  -5 18.3232 11.9479   3
   0  13  -5 14.5425 12.5710   4
   0 -13   5 29.1426 12.9556   6
   0 -13  -6-4.51180 11.8962   3
   0  13  -6 24.5784 12.2986   4
   0 -13   6 6.85301 12.2486   6
   0 -13  -7 4.16622 12.1891   3
   0  13  -7-5.46750 12.3891   4
   0 -13   7 4.29638 12.0360   6
   0 -13   8 6.16613 12.5315   6
   0  13  -8-1.10738 12.5267   4
   0 -13  -8-1.28272 12.8177   3
   0  13  -9-12.7090 12.8843   4
   0 -13   9-0.21040 12.1640   6
   0 -13  -9 2.86809 12.7003   3
   0  13 -10 12.1828 12.8599   4
   0 -13  10 0.20981 11.9015   6
   0 -13 -10 9.77977 12.6510   3
   0 -13 -11-0.25170 12.0061   3
   0  13 -11 1.47052 12.7805   4
   0  13 -12 6.50023 12.8286   4
   0 -13 -12-0.25738 12.4569   3
   0 -13 -13 0.26182 12.5326   3
   0 -13  14 0.99181 12.7749   8
   0  14   0 9.48324 11.9294   4
   0  14   1-3.45079 11.5809   4
   0  14  -1 10.0562 12.0745   4
   0 -14   1 10.2351 13.7690   6
   0  14   2 0.52502 11.4267   4
   0  14  -2 5.95388 11.9856   4
   0 -14   2 8.89034 13.7087   6
   0 -14   3 0.23297 13.2446   6
   0  14  -3-1.67418 12.2762   4
   0  14   3-2.62033 11.3713   4
   0 -14   4 1.15169 12.9066   6
   0  14  -4-2.22409 12.0525   4
   0  14   4-1.03057 11.2022   4
   0  14  -5-2.23517 12.1324   4
   0 -14   5-0.22270 12.3416   6
   0 -14   6 0.21875 12.3127   6
   0 -14  -7 10.8166 11.7522   3
   0 -14   7 0.90670 12.8038   6
   0 -14  -8-0.25464 12.0353   3
  -1   0  -1 1.09513 0.84230   4
  -1   0  -2 5812.73 575.826   4
  -1   0  -2 5606.34 575.779   7
   1   0   2 5102.42 575.796   1
  -1   0   2 4193.82 575.796   2
   1   0   2 5178.91 575.779   7
   1   0   3 1171.87 138.573   7
  -1   0   3 1277.97 138.611   2
  -1   0  -3 1170.16 138.574   3
  -1   0  -3 1247.88 138.573   7
  -1   0  -3 1448.67 138.649   4
   1   0   3 1299.36 138.574   3
  -1   0  -4 11032.2 1205.36   7
  -1   0  -4 11171.9 1205.42   4
  -1   0   4 11043.7 1205.39   2
  -1   0  -4 10304.6 1205.37   3
   1   0  -5 4.13627 1.48009   4
  -1   0  -5 7.55853 2.22491   3
  -1   0  -5 1.18498 2.93559   4
  -1   0   5 3.66545 1.26683   4
  -1   0   5 5.55657 2.52025   2
  -1   0   6 132.818 15.1199   4
  -1   0   6 162.701 15.4177   2
  -1   0  -6 129.815 15.4770   4
   1   0  -6 108.306 15.1510   4
  -1   0  -6 146.925 15.3091   3
   1   0   6 171.904 15.3550   4
   1   0  -7 7.67319 2.60538   8
  -1   0  -7 6.20676 2.81580   3
   1   0   7 6.89041 2.70366   4
  -1   0  -7 5.19251 3.71364   4
   1   0  -7 3.84049 2.19674   4
  -1   0   7 11.1588 3.36665   2
  -1   0   7 5.31818 1.76335   4
  -1   0   8 1244.06 127.607   4
   1   0   8 1178.30 127.688   4
   1   0  -8 909.279 127.613   4
   1   0   8 1120.05 127.637   8
  -1   0  -8 1204.21 127.760   4
  -1   0   8 1316.85 127.753   2
  -1   0  -8 1119.61 127.664   3
   1   0  -8 1237.33 127.667   8
  -1   0   9 44.3794 6.57814   2
  -1   0  -9 29.0761 6.95182   4
   1   0   9 44.9621 6.11271   8
  -1   0  -9 46.8341 6.28953   3
   1   0  -9 36.4715 6.00421   4
   1   0   9 51.7124 6.06623   4
  -1   0   9 50.7158 5.62068   4
   1   0  -9 50.5544 6.00322   8
   1   0 -10 826.218 82.1626   8
   1   0 -10 568.264 82.1074   4
   1   0  10 775.398 82.1707   8
  -1   0  10 790.331 82.2601   2
  -1   0 -10 689.798 82.1642   3
   1   0  10 758.427 82.1657   4
  -1   0  10 796.071 82.0762   4
  -1   0 -10 710.245 82.3026   4
   1   0 -11 137.376 21.6704   4
  -1   0  11 212.799 21.5316   4
   1   0  11 196.630 21.7015   4
  -1   0  11 158.910 22.0139   2
   1   0 -11 225.301 21.7277   8
  -1   0 -11 191.507 22.1937   4
  -1   0 -11 176.191 21.7946   3
   1   0  11 209.154 21.8161   8
  -1   0 -12 163.617 20.5397   4
   1   0 -12 197.142 20.0356   8
   1   0  12 192.402 20.1498   8
   1   0 -12 112.019 20.0835   4
  -1   0 -12 167.915 20.2686   3
  -1   0  12 182.991 20.4499   2
   1   0  12 204.844 20.0464   4
   1   0 -13 42.3073 8.84163   4
   1   0  13 78.1099 8.43452   4
   1   0  13 69.3105 8.83378   8
  -1   0 -13 67.9721 9.17972   3
  -1   0 -13 52.7773 9.76094   4
  -1   0  13 81.1191 9.40126   2
   1   0  13 66.4110 9.16724   2
  -1   0 -14 52.0502 7.16060   3
   1   0 -14 23.6069 6.83124   4
  -1   0 -14 38.4783 8.13152   4
   1   0  14 36.4837 7.04264   2
  -1   0  14 54.9225 7.76720   2
   1   0  14 43.7528 6.77558   8
  -1   0 -15 11.9410 5.95649   3
   1   0  15-4.07288 5.53937   8
  -1   0  15 7.18228 6.61468   2
  -1   0 -15 4.72042 6.80187   4
   1   0  15 3.57996 5.56550   2
   1   0  16 554.197 60.7529   8
   1   0  16 545.676 60.8803   2
  -1   0 -16 601.358 60.8373   3
  -1   0 -16 413.891 60.8842   4
  -1   0  16 588.088 60.9468   2
  -1   0 -17 31.3663 8.87940   4
  -1   0 -17 46.0974 7.78643   3
   1   0  17 40.7368 8.01456   2
  -1   0  17 37.8365 8.31726   2
   1   0  17 25.2607 7.51017   8
   1   0  18 186.368 22.1784   2
  -1   0 -18 212.550 22.0358   3
  -1   0 -18 134.526 22.4568   4
  -1   0  18 199.325 22.2614   2
  -1   0 -19 28.1622 8.36566   3
  -1   0  19 32.9322 8.62844   2
   1   0  19 38.3613 8.15104   2
  -1   0  20 440.701 49.6718   2
   1   0  20 437.053 49.5688   2
  -1   0 -20 434.186 49.5423   3
  -1   0  21 2.97053 7.98428   2
  -1   0 -21 0.58651 7.99863   3
   1   0 -21 4.39528 8.70732   3
   1   0  21-0.15406 7.82031   2
   1   0 -22 83.3820 13.7783   3
  -1   0  22 101.514 13.1210   2
  -1   0 -22 74.9610 12.8900   3
   1   0  22 83.5572 12.6187   2
   1   0 -23 2.87932 9.63399   3
  -1   0  23 5.38882 8.91657   2
   1   0  23 8.02893 8.47763   2
  -1   0 -23 0.63048 8.52314   3
  -1   0  24-12.3454 8.83265   2
   1   0  24 8.27089 8.81773   2
   1   0 -24 8.82449 9.87458   3
   1   0 -25 19.8184 10.1722   3
   1   0  25-4.89738 8.99672   2
  -1   0  25 11.5164 9.30548   2
  -1   0  26 21.0908 9.97094   2
   1   0  26 33.0773 10.1829   2
   1   0 -26 36.4512 11.6983   3
  -1   0  27 2.20829 9.47460   2
   1   0  27 12.4575 9.89911   2
   1   0 -27-5.10927 11.0214   3
   1   0 -28 50.9938 13.0706   3
   1   0  28 55.4380 11.8852   2
  -1   0  28 56.4532 11.9324   2
   1   0 -29 0.44190 10.9265   3
  -1   0  29 3.31171 9.94904   2
  -1   0  30 10.3182 10.0768   2
   1   0 -30 0.22577 10.9992   3
  -1   0  31 8.77308 10.3031   2
   1  -1  31 1.63032 10.1278   2
   1  -1  30 27.8024 11.0011   2
   1   1 -29-1.86296 11.5903   3
   1  -1  29 10.1590 10.6902   2
   1  -1  28 3.97272 10.1652   2
   1   1 -28 0.21786 10.9953   3
   1   1 -27 34.3740 11.2737   3
  -1   1  27 0.61220 9.95240   2
   1  -1  27 22.8629 10.1659   2
  -1   1  26 2.17138 9.47957   2
   1   1 -26 17.1351 10.8360   3
   1  -1  26 5.41250 9.66307   2
   1   1 -25 20.5977 10.8500   3
   1  -1  25 21.4430 9.35805   2
  -1   1  25 27.3867 9.37912   2
  -1  -1 -25 17.0683 9.19468   3
  -1   1  24-7.95106 8.78507   2
   1  -1  24 16.3776 8.68115   2
  -1  -1 -24-11.3636 8.63989   3
  -1  -1 -23 4.25491 8.50809   3
   1  -1  23 10.5112 8.77279   2
  -1   1  23-9.29102 8.27571   2
  -1   1  22 15.4548 8.54615   2
   1  -1  22 22.9334 8.72198   2
  -1  -1 -22 12.0173 8.38246   3
   1  -1  21 136.251 16.2910   2
  -1  -1 -21 128.667 16.4492   3
  -1   1  21 107.586 16.1978   2
   1  -1  20 25.0387 8.21544   2
  -1   1  20 11.1628 7.87532   2
  -1  -1 -20 32.3502 8.36205   3
  -1   1  19 32.3862 8.47569   2
   1  -1  19 37.2564 8.28855   8
  -1  -1 -19 38.0244 8.57339   3
   1  -1  19 29.7374 8.49214   2
   1  -1  18 91.8528 13.2330   2
  -1   1  18 87.6861 13.1401   2
   1  -1  18 102.902 12.7485   8
  -1  -1 -18 100.668 13.0024   3
  -1  -1 -17 314.083 45.2399   4
  -1  -1 -17 433.815 44.9463   3
   1  -1  17 433.350 44.8753   8
   1  -1  17 394.657 45.0008   2
  -1   1  17 381.446 44.9748   2
   1  -1  16 61.0455 8.81549   2
  -1  -1 -16 41.5355 9.91085   4
   1  -1  16 51.5928 8.50844   8
  -1   1  16 54.0401 8.78347   2
  -1  -1 -16 50.6628 8.72382   3
   1  -1  15 51.7702 7.27246   8
   1   1 -15 24.9136 6.93791   4
  -1   1  15 29.7659 7.52490   2
   1  -1  15 39.1668 7.30943   2
  -1  -1 -15 48.6438 7.36074   3
  -1  -1 -15 30.8164 8.68913   4
   1   1 -14 48.7279 8.09245   4
  -1   1  14 51.3096 8.60192   2
   1  -1  14 52.3811 8.65697   8
  -1  -1 -14 76.1437 8.52994   3
  -1  -1 -14 59.8087 9.65036   4
   1  -1  14 50.7786 8.50402   2
  -1  -1 -13 1548.92 184.581   4
  -1   1  13 1791.92 184.524   2
  -1  -1 -13 1948.72 184.518   3
   1  -1  13 1749.05 184.483   8
   1   1 -13 1378.78 184.400   4
   1  -1  12 319.736 31.3466   4
   1   1 -12 268.238 31.3856   4
  -1  -1 -12 230.156 31.7564   4
   1  -1  12 287.671 31.5547   8
  -1   1  12 238.813 31.5936   2
  -1  -1 -12 290.637 31.5825   3
   1   1 -11 1494.60 173.238   4
  -1   1  11 1654.39 173.317   2
   1  -1  11 1421.68 173.244   8
  -1  -1 -11 1462.94 173.269   3
   1  -1  11 1701.63 173.265   4
   1   1 -11 1684.24 173.255   8
  -1  -1 -11 1467.45 173.374   4
   1   1 -10 3040.92 317.137   8
  -1   1  10 2600.22 317.060   4
  -1   1  10 3084.70 317.184   2
  -1  -1 -10 2645.36 317.221   4
  -1  -1 -10 2771.31 317.145   3
   1  -1  10 3346.46 317.156   4
   1   1 -10 2704.05 317.113   4
   1   1  -9 261.616 29.8112   4
  -1  -1  -9 279.857 29.9415   3
  -1   1   9 228.082 29.6770   4
  -1   1   9 281.910 29.9540   2
   1  -1   9 313.335 29.8180   4
  -1  -1  -9 280.947 30.1561   4
  -1  -1  -8 9.67528 3.82580   3
  -1  -1  -8 9.96992 4.96474   4
   1   1  -8 13.4092 3.03800   4
   1  -1   8 11.4037 2.99941   4
  -1   1   8 10.0499 2.44873   4
  -1   1   8 14.0111 3.72749   2
   1   1  -8 18.7838 3.15047   2
   1  -1   7 2868.57 289.250   4
  -1   1   7 2803.83 289.254   2
  -1  -1  -7 2677.84 289.240   3
  -1  -1  -7 2674.52 289.321   4
  -1   1   7 2227.26 289.173   4
   1   1  -7 2643.65 289.221   4
   1   1  -7 2765.85 289.257   2
  -1  -1  -6 3648.62 378.569   3
  -1   1   6 3671.28 378.580   2
  -1  -1  -6 3887.12 378.645   4
   1   1  -6 3714.96 378.578   2
   1   1  -6 3409.58 378.532   4
  -1   1   6 2919.40 378.502   4
   1   1  -5 4260.41 452.396   4
  -1   1   5 3584.73 452.371   4
  -1  -1  -5 4158.78 452.421   3
   1   1  -5 4582.30 452.442   2
  -1  -1  -5 4236.51 452.481   4
  -1   1   5 4186.67 452.428   2
  -1  -1  -4 5142.91 594.238   3
  -1  -1  -4 6107.25 594.300   4
   1   1  -4 5298.03 594.220   4
   1   1  -4 5500.15 594.249   2
   1  -1   4 5224.75 594.203   6
  -1   1   4 5225.52 594.250   2
   1   1  -3 21.9818 3.15071   9
   1   1  -3 27.7431 2.94170   2
  -1  -1  -3 21.1918 3.77955   4
  -1  -1  -3 17.7512 3.09012   3
   1   1  -3 31.4955 2.90528   4
   1  -1   3 24.5311 2.80951   6
   1  -1   3 18.5439 2.90250   7
  -1  -1  -3 18.4918 2.67529   1
  -1   1   3 12.6612 3.11098   2
   1   1  -2 375.746 42.9497   8
   1   1  -2 384.514 42.9606   9
   1   1  -2 366.265 42.9303   4
   1  -1   2 370.417 42.9472   7
   1   1  -2 423.018 42.9487   2
   1  -1   2 404.121 42.9691   1
  -1  -1  -2 349.325 42.9514   3
  -1  -1  -2 452.884 43.0441   4
   1   1  -1 1657.72 178.957   4
  -1  -1  -1 1483.29 178.960   3
  -1   1   1 1495.74 178.939   4
  -1  -1  -1 1997.67 179.012   4
   1  -1   1 1653.34 178.969   7
  -1   1   1 1634.89 178.946   3
   1  -1   1 1671.17 178.961   4
   1   1  -1 1558.88 178.945   2
   1   1  -1 1587.01 178.952   8
   1   1   0 255.713 35.0933   4
   1   1   0 368.947 35.0629   4
  -1   1   0 264.025 35.0252   4
  -1  -1   0 238.707 35.0337   3
   1  -1   0 354.275 35.0546   5
  -1  -1   0 280.139 35.0298   6
   1  -1   0 346.412 35.0617   7
   1   1   0 339.918 35.0182   2
   1   1   0 371.932 35.0651   3
   1  -1   0 352.173 35.0366   4
   1  -1  -1 1715.05 166.909   7
  -1   1  -1 1533.00 166.898   4
   1  -1  -1 1442.52 166.866   4
   1   1   1 1532.94 166.889   3
   1  -1  -1 1599.86 166.907   5
   1  -1  -1 1349.00 166.873   3
  -1  -1   1 1516.51 166.878   2
  -1  -1   1 1480.23 166.890   6
  -1   1  -2 407.269 40.9879   4
  -1  -1   2 399.248 40.9368   4
  -1   1  -2 408.169 40.9733   1
  -1  -1   2 360.118 40.9755   8
   1  -1  -2 302.001 40.9447   3
   1   1   2 335.329 40.9140   1
  -1  -1   2 383.440 40.9513   2
   1   1   2 391.261 40.9556   3
  -1  -1   3 149.267 15.9900   2
  -1  -1   3 144.618 16.0381   8
   1  -1  -3 106.301 15.9827   3
   1   1   3 150.133 15.9538   3
  -1   1  -3 149.309 16.0660   4
  -1  -1   3 149.002 15.9077   4
  -1  -1   4 5506.53 633.110   2
  -1  -1   4 5790.65 633.075   4
   1   1   4 5974.03 633.093   3
  -1   1  -4 5787.22 633.125   4
  -1  -1   4 5282.25 633.107   8
  -1  -1   5 4616.58 498.997   4
  -1   1  -5 4505.09 498.982   6
  -1   1  -5 4888.78 499.072   4
   1   1   5 4968.59 499.034   3
  -1  -1   5 4395.30 499.048   2
  -1   1  -5 4436.85 499.026   7
   1  -1  -5 4183.60 498.982   4
   1   1   5 4385.47 498.973   8
   1  -1  -5 4464.64 499.025   2
  -1  -1   5 4504.02 499.049   8
  -1  -1   6 3708.69 417.241   8
   1   1   6 3748.01 417.261   4
  -1  -1   6 3804.53 417.182   4
   1  -1  -6 3474.35 417.178   4
  -1   1  -6 3768.45 417.171   6
  -1   1  -6 3780.10 417.261   4
   1  -1  -6 3796.47 417.216   2
   1   1   6 3720.92 417.165   8
  -1  -1   6 3613.45 417.241   2
   1   1   6 4250.79 417.232   3
  -1   1  -7 2994.37 319.011   4
   1   1   7 3340.50 318.979   3
  -1  -1   7 2869.15 318.995   8
   1  -1  -7 2996.87 318.961   2
   1   1   7 2944.37 319.014   4
  -1  -1   7 2720.01 318.992   2
  -1  -1   7 2976.90 318.924   4
   1   1   7 2764.30 318.904   8
   1  -1  -7 2502.74 318.920   4
  -1  -1   8 9.31803 2.23784   4
   1  -1  -8 11.7389 2.93435   4
   1   1   8 10.2568 3.35809   4
  -1  -1   8 9.32796 4.33969   8
  -1  -1   8 6.81907 3.84172   2
   1   1   8 7.29030 2.66801   8
  -1   1  -8 9.14333 3.98703   4
   1  -1  -8 9.22646 2.71139   2
   1  -1  -9 293.599 32.4132   8
   1   1   9 276.499 32.5245   4
   1  -1  -9 223.235 32.3983   4
  -1   1  -9 243.913 32.5921   4
   1   1   9 285.965 32.3687   8
  -1  -1   9 312.796 32.3410   4
   1  -1  -9 338.061 32.4481   2
  -1  -1   9 331.559 32.6298   8
  -1  -1   9 296.407 32.5929   2
   1  -1 -10 2967.83 311.540   8
   1  -1 -10 3109.89 311.579   2
  -1  -1  10 2762.50 311.622   2
  -1   1 -10 2555.46 311.620   4
  -1  -1  10 3079.01 311.634   8
   1   1  10 2737.55 311.575   2
   1   1  10 2979.57 311.523   8
   1   1  10 2748.48 311.585   4
   1  -1 -10 2240.19 311.523   4
  -1  -1  10 2892.98 311.522   4
   1  -1 -11 1738.60 186.964   2
   1   1  11 1670.03 186.979   2
   1  -1 -11 1732.20 186.928   8
   1   1  11 1804.65 186.935   8
  -1  -1  11 1680.43 187.050   2
  -1   1 -11 1711.69 187.066   4
   1  -1 -11 1220.74 186.920   4
   1   1  11 1644.32 186.983   4
  -1  -1  11 1915.26 186.910   4
   1  -1 -12 272.673 28.1932   8
   1   1  12 287.775 28.2946   8
   1   1  12 249.901 28.4140   2
   1   1  12 249.954 28.2644   4
   1  -1 -12 177.157 28.3015   4
  -1  -1  12 273.297 28.5572   2
  -1   1 -12 235.109 28.6413   4
  -1   1 -13 1462.35 172.910   4
  -1  -1  13 1770.66 172.904   2
   1   1  13 1679.00 172.837   2
   1   1  13 1637.76 172.778   4
   1  -1 -13 1924.43 172.763   8
   1  -1 -14 29.8629 8.20320   4
   1   1  14 75.4154 8.50219   2
   1  -1 -14 70.5939 9.00815   3
  -1  -1  14 62.6964 8.83233   2
  -1   1 -14 57.2252 9.46604   4
   1  -1 -15 39.6428 7.94173   3
  -1   1 -15 26.1988 8.12337   4
  -1  -1  15 33.1796 7.43379   2
   1   1  15 35.6442 6.99984   2
  -1  -1  16 64.0529 9.70007   2
   1  -1 -16 73.8910 10.1055   3
  -1   1 -16 37.5457 9.97105   4
   1   1  16 64.7403 9.37649   2
   1  -1 -17 433.634 45.9659   3
   1   1  17 444.075 45.7963   2
  -1  -1  17 420.422 45.9313   2
  -1   1 -17 313.124 45.9485   4
  -1  -1  18 102.905 12.9547   2
   1   1  18 87.6443 12.3876   2
  -1   1 -18 69.6166 13.4480   4
   1  -1 -18 102.417 13.2302   3
  -1   1 -19 25.4300 9.86802   4
  -1  -1  19 48.7073 9.08501   2
   1  -1 -19 38.1029 8.90392   3
  -1   1 -19 31.1694 8.23747   3
   1   1  19 32.4437 8.14296   2
   1   1  20 12.8117 7.67347   2
   1  -1 -20 35.6899 9.11874   3
  -1   1 -20 35.1746 8.26152   3
  -1  -1  20 35.2451 9.21172   2
  -1   1 -21 137.339 16.4836   3
   1  -1 -21 132.253 17.0886   3
   1   1  21 111.013 16.3664   2
  -1  -1  21 130.124 16.8801   2
   1   1  22 30.5724 8.25401   2
  -1   1 -22 21.2114 8.65401   3
   1  -1 -22 20.7407 9.65264   3
  -1  -1  22 13.3113 9.23923   2
   1   1  23 18.4682 8.58948   2
   1  -1 -23-1.63593 9.84972   3
  -1  -1  23 2.97016 9.10221   2
  -1  -1  24 8.07333 9.34894   2
   1  -1 -24 3.64111 9.93481   3
   1   1  24 2.51860 8.74785   2
  -1  -1  25 11.1343 9.72393   2
   1   1  25 27.2475 9.69968   2
   1  -1 -25 26.7362 10.5437   3
   1  -1 -26 7.21373 10.4776   3
  -1  -1  26 0.41176 9.73645   2
   1  -1 -27 18.1486 10.8152   3
  -1  -1  27 9.87471 9.96884   2
   1  -1 -28-0.66020 11.2260   3
  -1  -1  28 6.86060 9.71210   2
  -1  -1  29 16.2919 9.88271   2
   1  -1 -29 1.85615 11.6686   3
   1  -1 -30 11.5050 11.0967   3
  -1  -1  30 36.3955 10.7773   2
  -1  -1  31 4.95480 10.3408   2
   1  -1 -31 0.22152 10.5939   3
   1  -2  30 9.97618 10.6913   2
   1  -2  29 8.87512 10.8317   2
   1  -2  28 25.0569 10.9542   2
   1   2 -27 26.0433 11.0682   3
   1  -2  27 10.2620 9.98272   2
   1  -2  26 81.0059 12.5576   2
  -1  -2 -26 51.4200 12.1928   3
   1  -2  25 22.4918 9.29525   2
  -1  -2 -25 0.17818 9.41829   3
   1  -2  24 38.9271 9.64999   2
  -1   2  24 23.4852 9.38259   2
  -1  -2 -24 22.4407 9.74764   3
  -1  -2 -23 22.8402 9.01058   3
   1  -2  23 9.64601 9.00087   2
  -1   2  23 18.4328 8.71346   2
   1  -2  22 39.7319 9.67537   2
  -1  -2 -22 29.6881 9.46166   3
  -1   2  22 36.7219 9.26019   2
  -1   2  21 13.6205 8.40448   2
  -1  -2 -21 25.4628 8.47041   3
   1  -2  21 37.7727 8.69798   8
   1  -2  21 26.1644 9.11292   2
  -1  -2 -20 15.2106 7.85383   3
   1  -2  20 22.5268 8.55487   2
   1  -2  20 24.1568 7.91295   8
  -1   2  20 11.6343 7.91001   2
   1  -2  19 173.622 20.3154   2
  -1   2  19 141.356 19.8640   2
   1  -2  19 180.132 19.9505   8
  -1  -2 -19 163.684 19.9705   3
  -1  -2 -18 149.273 17.5023   3
   1  -2  18 153.970 17.5505   8
  -1   2  18 125.352 17.3211   2
   1  -2  18 137.830 17.6258   2
  -1  -2 -17 682.529 73.0110   3
  -1  -2 -17 571.952 73.2324   4
   1  -2  17 659.015 73.0528   2
   1  -2  17 678.550 73.0153   8
  -1   2  17 641.778 72.9675   2
  -1   2  16 9.47920 6.51654   2
  -1  -2 -16 21.2136 8.30868   4
   1  -2  16 21.0281 7.06895   2
   1  -2  16 27.7822 7.48132   8
  -1  -2 -16 30.3872 6.86615   3
  -1  -2 -15 342.589 41.2448   4
   1  -2  15 377.808 41.0669   8
   1   2 -15 275.935 40.8171   4
   1  -2  15 400.201 41.0367   2
  -1  -2 -15 419.682 40.9608   3
  -1   2  15 371.970 40.8752   2
  -1   2  14 149.343 17.6047   2
  -1  -2 -14 140.249 18.3416   4
   1   2 -14 135.643 17.5802   4
   1  -2  14 153.876 17.8857   8
  -1  -2 -14 165.425 17.7838   3
   1   2 -13 1049.50 125.224   4
   1  -2  13 1112.10 125.259   8
  -1  -2 -13 1258.85 125.281   3
  -1   2  13 1090.41 125.234   2
  -1  -2 -13 1122.33 125.421   4
  -1  -2 -12 34.2828 8.39963   4
   1  -2  12 52.1529 7.72351   8
  -1  -2 -12 62.1817 7.69246   3
  -1   2  12 33.3610 7.37788   2
   1   2 -12 58.4860 7.29087   4
  -1   2  11 311.751 33.6034   2
  -1  -2 -11 254.883 33.8927   4
   1   2 -11 276.966 33.5283   4
  -1  -2 -11 315.277 33.6807   3
   1  -2  11 310.996 33.4263   4
   1   2 -10 112.543 13.2086   4
  -1   2  10 104.512 12.9340   4
   1  -2  10 131.044 12.9786   4
  -1  -2 -10 106.338 12.7078   5
  -1   2  10 114.201 13.2709   2
  -1  -2 -10 114.510 13.4658   3
  -1  -2 -10 108.219 13.9066   4
  -1  -2  -9 604.134 58.9220   4
  -1  -2  -9 547.123 58.7447   3
  -1   2   9 434.479 58.5908   4
   1  -2   9 558.797 58.6706   4
   1   2  -9 533.935 58.6996   4
  -1   2   9 531.277 58.7118   2
  -1  -2  -9 542.213 58.5459   5
  -1   2   8 929.018 108.203   2
  -1  -2  -8 984.228 108.259   3
   1  -2   8 1127.40 108.208   4
   1   2  -8 1029.89 108.207   4
  -1  -2  -8 991.392 108.347   4
  -1  -2  -8 899.072 108.094   5
   1   2  -8 1148.31 108.211   6
  -1   2   8 837.193 108.148   4
  -1   2   7 327.295 35.7806   4
  -1  -2  -7 406.852 36.2127   4
  -1   2   7 277.240 35.8071   4
  -1  -2  -7 362.077 35.9765   3
  -1  -2  -7 302.343 35.7334   5
  -1   2   7 320.644 35.9003   2
   1   2  -7 356.774 35.9028   4
  -1  -2  -6 1718.52 160.454   4
  -1   2   6 1395.63 160.334   2
  -1   2   6 1271.11 160.256   4
   1   2  -6 1542.40 160.335   4
   1  -2   6 1586.46 160.300   6
  -1  -2  -6 1535.84 160.360   3
  -1   2   6 1346.38 160.297   4
  -1   2   5 569.424 68.0877   4
  -1   2   5 574.170 68.1516   2
  -1  -2  -5 720.101 68.2482   3
   1  -2   5 584.487 68.1209   6
  -1  -2  -5 818.087 68.3491   4
   1   2  -5 638.266 68.1581   4
  -1   2   5 584.947 68.1206   4
  -1  -2  -4 405.834 40.7258   4
  -1  -2  -4 369.856 40.6222   3
  -1   2   4 335.194 40.4900   4
   1   2  -4 393.158 40.6241   9
   1   2  -4 378.325 40.5488   2
   1   2  -4 398.901 40.5881   4
  -1   2   4 316.118 40.5654   2
   1   2  -3 156.776 18.8028   2
   1  -2   3 168.915 18.8623   7
  -1   2   3 149.289 18.7816   4
   1  -2   3 175.163 18.8307   4
   1  -2   3 180.073 18.7833   9
  -1  -2  -3 151.375 18.9010   3
   1   2  -3 187.592 18.9013   4
  -1   2   3 163.587 18.8200   5
   1   2  -3 194.322 18.9745   9
  -1  -2  -3 162.361 19.0334   4
  -1   2   2 940.909 108.903   5
  -1   2   2 960.588 108.878   4
   1   2  -2 915.899 108.865   2
  -1   2   2 1021.02 108.896   7
   1   2  -2 1087.76 108.918   4
   1  -2   2 1035.47 108.922   1
  -1  -2  -2 863.412 108.906   3
   1  -2   2 998.731 108.896   4
   1  -2   2 913.589 108.905   7
  -1   2   2 951.158 108.881   3
   1   2  -2 1091.38 108.930   9
   1  -2   2 1013.52 108.862   9
   1  -2   1 3603.59 376.113   7
   1  -2   1 3469.28 376.108   1
   1   2  -1 3497.72 376.105   4
  -1  -2  -1 3223.26 376.058   8
   1  -2   1 3256.71 376.074   3
  -1  -2  -1 3212.15 376.115   3
  -1   2   1 3752.39 376.115   5
  -1   2   1 3390.30 376.092   4
   1  -2   1 3390.48 376.094   4
   1   2  -1 3235.36 376.061   2
  -1   2   1 3582.18 376.105   7
  -1   2   1 3361.05 376.080   3
   1  -2   0 1013.46 112.980   7
  -1  -2   0 1023.61 112.995   3
  -1   2   0 1144.31 112.978   7
  -1   2   0 1025.81 112.976   4
  -1  -2   0 997.964 112.951   8
   1   2   0 1102.57 112.991   4
   1  -2   0 1063.14 112.964   4
  -1   2   0 1022.63 112.945   3
  -1  -2   0 917.139 112.912   2
   1  -2   0 909.920 112.953   3
   1   2   0 987.545 112.914   2
  -1   2  -1 3428.45 369.313   7
  -1   2  -1 5276.69 369.475   1
  -1   2  -1 3278.18 369.276   9
  -1  -2   1 3299.79 369.276   2
   1   2   1 3343.87 369.316   3
  -1  -2   1 3135.73 369.299   8
   1   2   1 3365.35 369.322   4
  -1  -2   1 3266.71 369.313   6
   1  -2  -1 3381.26 369.316   7
  -1   2  -1 3302.75 369.320   4
   1  -2  -1 3346.55 369.299   4
   1  -2  -1 2899.22 369.296   3
  -1   2  -1 3298.67 369.281   3
  -1   2  -2 691.128 71.6211   4
  -1   2  -2 586.581 71.5777   1
   1   2   2 698.069 71.6216   4
   1  -2  -2 560.820 71.5445   4
   1  -2  -2 629.975 71.5975   5
  -1   2  -2 730.364 71.5991   7
   1   2   2 675.698 71.5863   3
   1  -2  -2 586.623 71.5811   3
  -1  -2   2 624.784 71.6058   8
   1  -2  -2 637.294 71.5890   7
  -1   2  -2 672.074 71.5466   3
  -1  -2   2 677.150 71.5685   2
  -1  -2   2 657.464 71.6031   6
  -1   2  -2 634.974 71.5452   9
  -1  -2   3 175.117 17.2668   9
   1  -2  -3 125.912 17.2628   3
  -1   2  -3 166.378 17.2153   1
   1   2   3 162.964 17.2575   3
  -1  -2   3 178.439 17.2139   4
   1  -2  -3 138.045 17.2542   5
   1  -2  -3 128.809 17.2129   2
  -1  -2   3 157.861 17.2347   2
  -1  -2   3 161.745 17.3561   6
   1  -2  -3 141.955 17.2166   7
  -1   2  -3 167.519 17.3453   4
   1  -2  -3 142.955 17.1480   4
  -1  -2   3 157.774 17.3451   8
  -1  -2   4 466.264 48.7932   9
  -1  -2   4 439.656 48.8124   2
   1  -2  -4 373.518 48.7554   2
  -1   2  -4 488.909 48.8876   4
   1  -2  -4 427.417 48.8213   5
  -1  -2   4 473.996 48.8699   6
   1   2   4 422.822 48.7152   5
  -1  -2   4 461.205 48.8708   8
   1  -2  -4 396.523 48.7292   4
   1   2   4 498.572 48.8208   3
  -1  -2   4 505.992 48.7898   4
   1  -2  -4 410.613 48.8224   3
   1   2   5 637.937 71.4629   5
   1  -2  -5 578.061 71.5383   5
  -1  -2   5 606.597 71.5568   2
  -1   2  -5 697.592 71.6203   4
   1  -2  -5 611.626 71.4973   2
  -1  -2   5 619.046 71.5836   8
  -1  -2   5 630.804 71.5194   9
  -1  -2   5 734.101 71.5410   4
   1  -2  -5 535.620 71.5446   3
   1   2   5 751.660 71.5515   3
   1   2   5 713.981 71.6238   4
   1   2   6 1840.13 181.200   3
   1   2   6 1535.32 181.139   2
  -1  -2   6 1828.38 181.177   4
  -1  -2   6 1566.34 181.168   9
  -1  -2   6 1610.59 181.219   8
   1  -2  -6 1543.87 181.165   2
   1  -2  -6 1443.42 181.212   3
  -1   2  -6 1744.85 181.245   4
  -1  -2   6 1595.69 181.218   2
   1   2   6 1647.85 181.255   4
   1   2   7 374.308 44.4728   2
   1   2   7 381.959 44.6525   4
  -1  -2   7 376.125 44.6104   2
  -1  -2   7 369.285 44.4911   9
   1  -2  -7 416.204 44.5019   2
   1  -2  -7 361.845 44.5969   3
  -1   2  -7 440.118 44.6949   4
  -1   2  -7 421.288 44.4773   6
  -1  -2   7 415.436 44.4843   4
   1   2   7 462.358 44.5684   3
  -1  -2   7 355.298 44.6306   8
  -1  -2   8 996.930 113.852   8
   1  -2  -8 937.117 113.748   4
  -1   2  -8 1170.02 113.924   4
  -1  -2   8 982.169 113.852   2
   1  -2  -8 868.717 113.832   3
  -1  -2   8 1072.42 113.758   4
   1   2   8 945.377 113.750   2
   1   2   8 970.759 113.867   4
   1   2   8 1199.32 113.835   3
   1  -2  -8 1057.72 113.764   2
  -1   2  -8 1075.63 113.736   6
   1  -2  -9 451.935 61.4822   3
  -1  -2   9 565.638 61.3409   4
  -1   2  -9 500.336 61.5238   4
   1   2   9 514.600 61.4547   4
   1   2   9 549.716 61.3811   2
  -1   2  -9 571.978 61.3278   6
   1  -2  -9 627.712 61.3846   2
  -1  -2   9 511.807 61.4995   2
   1   2   9 660.576 61.4561   3
  -1  -2   9 528.429 61.4994   8
   1  -2  -9 500.330 61.3699   4
  -1  -2  10 93.4129 14.1396   8
  -1   2 -10 137.293 13.5558   6
  -1  -2  10 121.849 13.4723   4
  -1   2 -10 106.050 14.1565   4
   1  -2 -10 116.642 14.2385   3
   1  -2 -10 132.866 13.5899   2
   1   2  10 108.070 13.8223   4
   1   2  10 118.030 13.7156   2
  -1  -2  10 98.2436 14.0438   2
   1  -2 -10 106.661 13.7131   4
   1  -2 -11 242.971 35.6321   4
   1  -2 -11 307.730 35.8388   3
   1   2  11 316.519 35.6374   2
   1  -2 -11 330.086 35.5332   8
  -1  -2  11 344.549 35.4947   4
  -1  -2  11 284.333 35.8358   8
  -1   2 -11 358.901 35.5152   6
   1  -2 -11 343.017 35.5602   2
  -1   2 -11 278.375 35.8376   4
   1   2  11 287.863 35.6775   4
  -1  -2  11 308.659 35.7937   2
   1   2  12 79.2366 8.42340   2
   1   2  12 50.9363 8.28163   4
  -1  -2  12 75.3687 9.04967   2
   1  -2 -12 88.9964 9.36058   3
  -1  -2  12 82.9755 9.14668   8
   1  -2 -12 32.7513 8.48114   4
  -1   2 -12 55.2207 9.27181   4
  -1  -2  13 1164.68 110.671   2
  -1  -2  13 1188.86 110.676   8
   1   2  13 1137.25 110.569   2
  -1   2 -13 978.893 110.624   4
   1  -2 -13 1200.01 110.698   3
  -1  -2  14 132.860 16.3503   2
   1   2  14 141.139 15.9427   2
  -1   2 -14 107.131 16.4179   4
  -1  -2  14 145.243 16.5803   8
   1  -2 -14 142.401 16.4596   3
  -1  -2  15 386.384 41.7020   2
   1   2  15 363.628 41.4717   2
   1  -2 -15 388.064 41.8204   3
  -1  -2  15 394.843 41.8101   8
  -1   2 -15 310.095 41.7476   4
  -1   2 -16 4.74160 7.64908   4
   1  -2 -16 12.6325 7.40921   3
   1   2  16 10.0144 5.95095   2
  -1  -2  16 25.4190 7.60081   8
  -1  -2  16 17.2357 7.02612   2
   1   2  17 667.992 73.7820   2
   1  -2 -17 712.072 73.9726   3
  -1   2 -17 565.426 74.0178   4
  -1  -2  17 679.676 73.9861   2
   1   2  18 125.783 15.9800   2
   1  -2 -18 132.451 16.4962   3
  -1   2 -18 128.106 17.1393   4
  -1  -2  18 131.758 16.6318   2
   1   2  19 174.161 21.3707   2
  -1  -2  19 199.290 21.9379   2
   1  -2 -19 191.919 21.8628   3
  -1   2 -19 149.596 22.2772   4
   1   2  20 18.5625 7.74550   2
  -1  -2  20 24.0056 8.99757   2
   1  -2 -20 36.2567 9.04237   3
  -1  -2  21 14.9611 9.36434   2
   1   2  21 34.7244 8.16698   2
   1  -2 -21 30.5644 9.50139   3
  -1  -2  22 58.3153 10.7293   2
   1  -2 -22 30.8727 10.6071   3
  -1  -2  23 18.0384 9.58447   2
   1  -2 -23 10.4748 9.95756   3
   1  -2 -24 9.97875 10.5958   3
  -1  -2  24 33.4657 9.99187   2
   1  -2 -25 10.8657 10.6713   3
  -1  -2  25 45.0481 10.5354   2
   1  -2 -26 63.1709 13.0251   3
  -1  -2  26 83.4405 13.2911   2
   1  -2 -27-3.96408 9.96885   3
  -1  -2  27 11.7522 10.1740   2
   1  -2 -28 36.8615 11.0184   3
  -1  -2  28 18.6064 10.8760   2
  -1  -2  29-1.36406 10.2092   2
   1  -2 -29-1.28376 10.4831   3
  -1  -2  30 0.69235 10.0792   2
   1  -2 -30 0.43899 10.6568   3
   1  -3  30 2.46237 10.9498   2
   1  -3  29-3.77324 10.2457   2
   1  -3  28 33.4171 10.9722   2
  -1  -3 -28 7.27416 10.3348   3
  -1  -3 -27 35.7129 10.7388   3
   1  -3  27 28.8852 10.9045   2
  -1  -3 -26 0.57479 9.64960   3
   1  -3  26-4.19443 9.64477   2
   1  -3  25 24.4003 10.3198   2
  -1  -3 -25 37.0704 10.2781   3
  -1  -3 -24 47.7936 10.9122   3
   1  -3  24 53.5075 11.3954   2
  -1  -3 -23 12.6500 9.06181   3
   1  -3  23-2.14744 9.22665   2
   1  -3  22 287.632 30.8341   2
  -1  -3 -22 244.979 30.5911   3
   1  -3  22 253.152 30.6293   8
  -1  -3 -21 7.03711 8.26107   3
   1  -3  21 5.42981 8.37230   8
   1  -3  21 5.77936 8.66036   2
   1  -3  20 167.936 19.8362   2
  -1  -3 -20 152.717 19.3727   3
  -1   3  20 150.214 19.2412   2
   1  -3  20 159.273 19.5974   8
  -1   3  19 32.2628 8.85465   2
  -1  -3 -19 39.6101 9.05981   3
   1  -3  19 47.3610 9.41438   8
   1  -3  19 50.6611 9.44029   2
  -1   3  18 594.500 74.1963   2
   1  -3  18 684.964 74.3701   8
  -1  -3 -18 685.778 74.2726   3
   1  -3  18 696.266 74.3764   2
  -1  -3 -17 282.884 31.5061   3
   1  -3  17 277.002 31.7776   8
  -1   3  17 248.076 31.3844   2
   1  -3  17 292.604 31.6722   2
   1  -3  16 71.4266 10.7603   2
  -1   3  16 66.8666 10.3157   2
  -1  -3 -16 76.3915 10.6354   3
  -1  -3 -16 72.9636 11.7245   4
   1  -3  16 75.2544 11.3784   8
   1   3 -16 65.8899 10.6440   4
   1  -3  15 8.24276 7.00194   8
  -1  -3 -15 17.8697 8.02748   4
  -1  -3 -15 25.6298 6.93945   3
  -1   3  15 13.1613 6.04093   2
   1  -3  14 325.001 38.0735   8
  -1  -3 -14 324.810 38.4110   4
  -1  -3 -14 397.383 38.1330   3
   1   3 -14 303.655 38.0013   4
  -1   3  14 330.738 37.9455   2
   1   3 -13 63.6624 9.06418   4
  -1  -3 -13 75.0833 10.4215   4
  -1  -3 -13 65.3478 9.57504   3
  -1   3  13 58.3305 8.94879   2
  -1  -3 -12 901.622 95.9593   4
  -1  -3 -12 912.031 95.7888   3
   1   3 -12 857.438 95.7332   4
  -1   3  12 793.470 95.6696   2
   1   3 -11 143.096 16.7720   4
  -1  -3 -11 180.891 17.0350   3
  -1   3  11 142.849 16.6548   2
  -1   3  11 131.302 16.3175   4
  -1  -3 -11 130.905 17.4459   4
  -1   3  10 492.515 53.9390   2
   1   3 -10 485.563 53.9783   4
  -1  -3 -10 548.447 54.0917   3
  -1   3  10 427.708 53.7736   4
  -1  -3 -10 551.318 54.2093   4
  -1   3   9 159.656 20.1002   4
   1   3  -9 224.375 20.3023   6
   1   3  -9 192.450 20.4386   4
  -1  -3  -9 182.055 20.6617   3
  -1  -3  -9 185.254 20.7756   4
  -1   3   9 144.248 20.1785   4
  -1   3   9 191.926 20.3937   2
  -1   3   8 1349.27 144.565   4
   1   3  -8 1501.57 144.689   4
  -1  -3  -8 1390.45 144.758   4
  -1   3   8 1390.67 144.638   2
   1  -3   8 1431.49 144.627   6
  -1  -3  -8 1571.27 144.760   3
   1   3  -8 1608.03 144.638   6
  -1   3   8 1124.55 144.592   4
  -1  -3  -8 1153.65 144.467   8
   1   3  -7 24.4644 4.82127   4
  -1  -3  -7 20.5345 5.77003   4
   1  -3   7 22.5493 4.86950   6
  -1   3   7 26.5569 4.47724   4
  -1   3   7 34.2797 4.08990   4
   1  -3   7 24.8133 4.06882   9
  -1   3   7 30.3060 4.71384   2
  -1  -3  -7 31.5909 5.72112   3
  -1   3   6 363.875 45.6569   2
   1  -3   6 391.677 45.6602   6
  -1  -3  -6 467.739 45.8868   4
   1  -3   6 415.818 45.6089   9
  -1  -3  -6 483.325 45.8342   3
  -1   3   6 360.675 45.6269   4
  -1   3   6 405.885 45.6021   4
   1   3  -6 466.786 45.7510   4
   1  -3   5 47.3153 6.64939   6
   1   3  -5 51.1214 6.70474   4
   1  -3   5 57.7474 6.21407   9
   1   3  -5 51.8557 6.98287   9
  -1   3   5 45.0073 6.21600   4
  -1  -3  -5 49.2760 6.93516   3
   1  -3   4 2701.20 291.093   9
  -1   3   4 2723.74 291.144   5
  -1  -3  -4 2417.73 291.159   3
   1   3  -4 2792.80 291.161   4
   1  -3   4 2717.91 291.129   4
  -1   3   4 2239.99 291.095   4
   1   3  -4 2877.60 291.168   9
   1  -3   3 1168.67 120.022   9
   1  -3   3 1061.01 120.080   7
  -1   3   3 1157.13 120.064   5
  -1  -3  -3 1046.74 120.094   3
  -1   3   3 993.439 120.023   7
   1   3  -3 1155.35 120.104   4
   1  -3   3 1027.84 120.044   4
   1   3  -3 1191.09 120.113   9
  -1   3   3 919.890 120.035   4
  -1   3   3 1124.48 120.043   3
  -1  -3  -2 1189.47 134.326   3
  -1   3   2 1312.26 134.295   5
  -1  -3  -2 1325.14 134.307   4
   1  -3   2 1036.85 134.258   3
   1   3  -2 1216.84 134.324   4
  -1   3   2 1230.86 134.267   3
   1  -3   2 1138.23 134.294   7
   1  -3   2 1186.24 134.279   4
  -1   3   2 1299.91 134.281   7
  -1   3   2 1174.24 134.283   4
  -1   3   1 86.8658 8.77362   5
   1  -3   1 68.2055 8.81339   1
   1  -3   1 76.2721 8.85793   4
  -1   3   1 82.9564 8.90078   3
   1  -3   1 60.5838 8.96534   3
   1  -3   1 77.9415 8.88916   7
  -1   3   1 62.9921 8.97021   4
   1   3  -1 83.2089 9.07581   4
  -1  -3  -1 74.7020 8.85173   4
  -1  -3  -1 81.0540 9.23300   3
  -1   3   1 77.2661 8.74528   7
  -1   3   0 16433.5 1785.21   4
   1  -3   0 15010.7 1785.19   4
   1  -3   0 15471.8 1785.19   3
  -1   3   0 15808.7 1785.18   7
  -1   3   0 16042.0 1785.17   3
  -1  -3   0 15807.3 1785.13   2
   1  -3   0 16351.3 1785.21   7
  -1  -3   0 15222.6 1785.22   3
  -1  -3   0 16400.1 1785.20   4
   1  -3   0 18758.8 1785.22   1
   1   3   0 16117.5 1785.21   4
   1  -3  -1 86.5435 12.3905   4
   1  -3  -1 102.312 12.4521   7
  -1  -3   1 93.9196 12.2882   2
   1   3   1 112.935 12.6395   4
   1  -3  -1 82.9190 12.5621   3
  -1   3  -1 101.971 12.6007   4
  -1   3  -1 112.016 12.3981   3
  -1   3  -1 109.178 12.3813   7
  -1  -3   1 98.5052 12.7073   3
   1   3   2 1266.40 129.738   4
   1   3   2 1311.98 129.716   3
   1  -3  -2 1114.34 129.670   4
  -1  -3   2 1051.15 129.655   2
   1  -3  -2 1183.83 129.693   7
  -1  -3   2 1091.49 129.720   6
  -1   3  -2 920.225 129.679   1
  -1   3  -2 1207.04 129.674   3
  -1   3  -2 1271.58 129.714   7
   1   3   2 1277.86 129.631   7
   1  -3  -2 1060.39 129.705   3
  -1   3  -2 1211.72 129.674   9
  -1   3  -2 1178.02 129.739   4
   1  -3  -3 1099.30 116.604   7
   1  -3  -3 1016.01 116.573   4
  -1   3  -3 1102.21 116.584   9
  -1   3  -3 1183.29 116.583   3
  -1  -3   3 972.443 116.581   2
   1  -3  -3 982.958 116.642   3
   1   3   3 1138.79 116.646   4
  -1   3  -3 926.500 116.588   1
   1   3   3 1028.82 116.513   7
  -1  -3   3 965.951 116.611   8
  -1   3  -3 1051.09 116.656   4
  -1  -3   3 1020.59 116.633   6
   1   3   3 1136.49 116.625   3
  -1   3  -3 1082.02 116.600   7
  -1  -3   4 2351.82 255.900   8
  -1   3  -4 2687.59 255.898   1
   1   3   4 3176.67 255.956   3
  -1   3  -4 2538.35 255.888   7
  -1  -3   4 2298.16 255.876   2
  -1  -3   4 2514.44 255.914   6
   1  -3  -4 2421.16 255.873   7
   1   3   4 2663.81 255.926   4
  -1   3  -4 2660.24 255.862   3
   1  -3  -4 2384.84 255.847   4
  -1   3  -4 2610.52 255.944   4
   1  -3  -4 2055.31 255.891   3
   1  -3  -4 2160.07 255.836   2
   1   3   4 1847.39 255.779   7
   1  -3  -4 2141.60 255.888   5
  -1   3  -5 44.8811 5.34342   7
   1   3   5 49.6235 5.11702   5
  -1   3  -5 46.2411 6.26742   4
   1  -3  -5 37.5348 5.29660   4
   1  -3  -5 37.4636 5.62958   5
   1   3   5 42.8165 5.00180   2
   1  -3  -5 40.8970 6.08469   3
   1   3   5 40.8343 5.96555   4
  -1  -3   5 43.7435 5.45019   4
   1   3   5 43.8374 6.14630   4
   1  -3  -5 43.5708 5.46573   7
   1   3   5 48.8689 5.60466   3
  -1  -3   5 47.6115 5.63372   9
  -1  -3   5 46.5290 6.32923   8
  -1  -3   5 43.3178 6.38709   6
   1  -3  -5 32.0157 5.23544   2
  -1  -3   5 43.9332 5.79971   2
  -1  -3   6 439.011 49.1494   9
  -1   3  -6 448.657 49.2942   4
   1   3   6 380.025 49.2636   4
   1  -3  -6 447.966 49.1886   5
   1  -3  -6 430.198 49.2667   3
  -1  -3   6 385.856 49.2059   2
  -1   3  -6 435.091 49.1472   7
  -1  -3   6 438.464 49.3008   6
  -1  -3   6 474.981 49.1766   4
   1  -3  -6 411.002 49.0883   2
   1   3   6 443.841 49.0549   2
   1   3   6 499.736 49.1857   3
   1   3   6 469.292 49.0846   5
   1  -3  -6 425.616 49.1402   7
  -1  -3   6 448.290 49.3063   8
  -1   3  -7 18.9134 5.25017   4
   1  -3  -7 21.0195 4.87645   3
  -1  -3   7 18.8813 3.72467   9
   1  -3  -7 23.6017 3.39737   2
  -1  -3   7 14.9615 4.56488   2
   1   3   7 25.6045 3.92347   3
  -1  -3   7 18.3738 5.45025   8
   1  -3  -7 16.1634 3.86626   5
   1   3   7 19.1955 4.69318   4
  -1  -3   7 24.9070 3.72013   4
   1   3   7 27.0986 3.36349   2
  -1  -3   8 1313.17 162.487   8
  -1  -3   8 1355.55 162.451   2
   1  -3  -8 1632.30 162.372   2
  -1   3  -8 1607.60 162.537   4
  -1  -3   8 1593.51 162.403   4
   1  -3  -8 1385.00 162.422   5
   1  -3  -8 1297.84 162.458   3
   1   3   8 1134.75 162.429   4
   1   3   8 1658.30 162.436   3
   1   3   8 1505.11 162.344   2
  -1  -3   8 1433.62 162.379   9
  -1   3  -9 162.304 18.8039   4
  -1  -3   9 168.290 18.8587   8
   1  -3  -9 140.570 18.7303   3
   1   3   9 147.419 18.5877   4
  -1  -3   9 164.207 18.2786   4
   1   3   9 172.540 18.2753   2
   1  -3  -9 171.752 18.2254   2
  -1  -3   9 124.188 18.6942   2
   1  -3  -9 164.183 18.4038   5
  -1   3 -10 374.293 54.3472   4
  -1  -3  10 502.547 54.1038   4
   1  -3 -10 551.451 54.1028   2
  -1  -3  10 480.054 54.3132   2
   1   3  10 518.199 54.1102   2
   1  -3 -10 528.700 54.3303   3
   1   3  10 392.760 54.2338   4
  -1  -3  10 485.314 54.3504   8
   1  -3 -10 449.379 54.1498   5
  -1  -3  11 160.252 17.4840   8
   1   3  11 155.373 16.8368   2
  -1  -3  11 155.974 16.6986   4
   1   3  11 112.810 17.0232   4
  -1  -3  11 163.258 17.3872   2
   1  -3 -11 159.527 16.7209   2
  -1   3 -11 137.277 17.6381   4
   1  -3 -11 127.340 17.3245   3
   1  -3 -11 131.566 16.8331   5
  -1  -3  12 862.638 87.5313   2
  -1   3 -12 736.262 87.5277   4
   1  -3 -12 630.618 87.2875   5
  -1  -3  12 876.362 87.5328   8
   1   3  12 885.229 87.3318   2
   1  -3 -12 790.652 87.4911   3
   1   3  13 69.6844 9.30762   2
   1  -3 -13 70.0539 10.3157   3
  -1   3 -13 68.1431 10.6585   4
  -1  -3  13 81.9171 10.2422   2
  -1  -3  13 73.3603 10.2782   8
   1   3  14 292.296 37.9582   2
   1  -3 -14 365.144 38.2491   3
  -1   3 -14 309.991 38.3400   4
  -1  -3  14 361.797 38.3323   8
  -1  -3  14 380.883 38.2921   2
   1  -3 -15 7.64754 6.60863   3
  -1  -3  15 3.64278 7.03490   8
  -1  -3  15 6.36449 6.46409   2
  -1   3 -15 4.42433 7.48605   4
   1   3  15 5.74424 5.36791   2
   1  -3 -16 61.4618 10.1137   3
  -1  -3  16 61.8254 9.99044   2
  -1  -3  16 58.8205 10.5223   8
   1   3  16 72.8441 9.33428   2
  -1   3 -16 56.2727 10.6026   4
   1  -3 -17 290.290 33.8465   3
  -1  -3  17 311.556 34.1116   8
  -1   3 -17 273.351 34.0595   4
   1   3  17 279.483 33.5927   2
  -1  -3  17 324.941 33.9365   2
   1  -3 -18 622.421 69.8925   3
  -1   3 -18 483.036 69.9474   4
  -1  -3  18 709.973 70.0358   8
  -1  -3  18 681.538 69.9819   2
   1  -3 -19 52.8194 9.25607   3
  -1   3 -19 37.9744 10.2875   4
  -1  -3  19 44.8459 10.0961   8
  -1  -3  19 31.2900 9.55114   2
   1  -3 -20 158.871 21.4419   3
  -1  -3  20 190.454 21.5420   2
  -1  -3  21-0.73268 9.12330   2
   1  -3 -21-5.77098 8.70302   3
   1  -3 -22 226.755 29.4855   3
  -1  -3  22 274.337 29.7342   2
  -1  -3  23 24.2439 10.1288   2
   1  -3 -23 17.8066 9.64498   3
  -1  -3  24 58.7763 11.5148   2
   1  -3 -24 39.6822 11.2903   3
   1  -3 -25 29.0984 10.7545   3
  -1  -3  25 23.3179 10.5418   2
  -1  -3  26 10.7161 10.0907   2
   1  -3 -26 8.24925 10.2593   3
  -1  -3  27 31.3979 10.7314   2
   1  -3 -27 16.1603 11.1306   3
   1  -3 -28 32.6108 11.3692   3
  -1  -3  28 29.1755 11.1802   2
  -1  -3  29 1.64985 10.6012   2
   1  -3 -29 1.10552 10.9486   3
   1  -3 -30 0.22065 10.5706   3
  -1  -3  30 8.33491 10.5516   2
  -1  -4 -29 0.21166 10.1451   3
   1  -4  29-1.20826 10.8130   2
  -1  -4 -28 0.20438 9.95553   3
   1  -4  28-0.93801 10.6888   2
   1  -4  27 8.28078 10.2602   2
  -1  -4 -27 24.5111 10.3263   3
  -1  -4 -26-5.45126 9.87367   3
   1  -4  26 4.30258 10.1613   2
   1  -4  25 4.74540 10.2618   2
  -1  -4 -25 5.10453 9.55412   3
   1  -4  24-5.06713 9.65956   2
  -1  -4 -24 4.58144 9.49774   3
   1  -4  24 13.6147 9.78118   8
   1  -4  23 67.9455 11.8928   8
   1  -4  23 68.9736 12.1516   2
  -1  -4 -23 52.3430 11.8998   3
  -1  -4 -22 1.86972 9.14449   3
   1  -4  22 15.2341 9.29348   8
   1  -4  22 5.31946 9.63157   2
  -1  -4 -21 34.7628 9.60966   3
   1  -4  21 41.8876 10.1256   2
   1  -4  21 26.7525 9.78390   8
  -1  -4 -20 20.8652 8.99151   3
   1  -4  20 21.4852 9.32081   8
   1  -4  20 37.2522 9.68103   2
   1  -4  19 0.44873 9.07561   8
   1  -4  19 27.1500 8.47318   2
  -1  -4 -19 18.4138 8.51112   3
   1  -4  18 7.76043 7.96243   2
   1  -4  18-0.72696 8.64441   8
  -1  -4 -18-0.59066 7.88091   3
  -1  -4 -17 13.8990 7.85916   3
   1  -4  17 17.3856 7.74924   2
   1  -4  17-7.83416 8.77565   8
   1   4 -16 20.0244 8.10513   4
   1  -4  16 28.6527 7.98989   2
  -1  -4 -16 21.4055 8.04963   3
   1  -4  16 17.6924 8.20809   8
  -1  -4 -16 36.6804 8.58488   4
  -1  -4 -15 147.458 18.4615   4
  -1  -4 -15 165.141 18.1968   3
  -1   4  15 140.564 17.7881   2
   1   4 -15 127.205 17.9018   4
   1  -4  15 163.433 18.2299   8
  -1  -4 -14 31.1695 8.11413   3
  -1  -4 -14 32.7503 8.42016   4
  -1   4  14 32.9233 7.11016   2
   1   4 -14 32.1099 7.69318   4
   1   4 -13 82.1623 10.6685   4
  -1  -4 -13 94.9768 11.1519   3
  -1  -4 -13 66.6760 11.0003   4
  -1   4  13 61.6935 10.2683   2
  -1  -4 -12 13.5280 7.00432   4
   1   4 -12 24.9540 6.38983   4
  -1   4  12 26.0764 5.93037   2
  -1  -4 -12 26.3937 7.48727   3
  -1  -4 -11 734.032 79.9952   4
  -1   4  11 705.924 79.7685   2
   1   4 -11 639.069 79.8400   4
  -1   4  11 662.403 79.6651   4
  -1   4  10 29.6178 5.19027   4
   1   4 -10 35.1485 6.44126   4
  -1  -4 -10 40.0185 7.45982   3
  -1  -4 -10 42.1805 7.18998   4
  -1   4  10 22.6422 5.70110   2
  -1  -4  -9 1960.40 177.678   3
   1  -4   9 1699.45 177.536   6
   1   4  -9 1452.13 177.571   4
  -1   4   9 1424.39 177.487   2
  -1   4   9 1591.29 177.471   4
   1   4  -8 32.0498 6.58331   4
   1  -4   8 39.2446 6.71007   6
  -1  -4  -8 58.4689 7.37935   3
   1  -4   8 49.1330 5.52721   9
  -1   4   8 39.9601 5.70096   4
  -1   4   8 25.4954 5.87025   4
  -1  -4  -7 50.5326 6.37562   3
  -1   4   7 25.2346 4.57663   4
   1  -4   7 27.7024 5.46516   6
   1   4  -7 23.3997 5.52259   4
  -1  -4  -7 24.6871 3.23259   7
   1  -4   7 34.8920 4.36155   9
  -1   4   7 35.3416 4.58924   4
   1   4  -6 830.718 85.2040   4
  -1   4   6 714.865 85.0761   4
   1  -4   6 666.075 85.1227   6
   1  -4   6 831.363 85.0674   9
   1   4  -6 834.940 85.2265   9
  -1   4   6 774.138 85.0881   5
  -1  -4  -6 661.711 85.2129   3
   1  -4   6 783.899 85.0900   4
  -1   4   5 3307.57 372.138   5
   1   4  -5 3671.78 372.188   9
   1  -4   5 3340.28 372.131   4
  -1  -4  -5 3175.03 372.191   3
  -1   4   5 3054.64 372.117   4
   1  -4   5 3468.82 372.101   9
   1   4  -5 3443.32 372.183   4
  -1   4   4 39.6427 5.81103   5
  -1   4   4 46.0009 6.36933   4
  -1   4   4 43.7847 5.74941   7
  -1   4   4 50.2269 5.98517   3
   1  -4   4 49.9142 5.99148   4
   1   4  -4 50.5037 6.83001   4
   1   4  -4 57.9284 6.94112   9
  -1  -4  -4 44.1713 7.01863   3
   1  -4   3 1436.66 153.122   4
  -1   4   3 1293.23 153.102   5
  -1   4   3 1443.73 153.158   4
   1   4  -3 1612.79 153.215   9
   1   4  -3 1511.30 153.209   4
  -1  -4  -3 1294.48 153.120   4
  -1   4   3 1201.71 153.077   7
  -1  -4  -3 1343.05 153.193   3
  -1   4   3 1433.30 153.104   3
   1  -4   2 182.845 21.2567   7
   1  -4   2 167.968 21.3358   3
   1   4  -2 204.844 21.5572   4
  -1   4   2 206.065 21.1880   3
   1  -4   2 187.220 21.1878   4
  -1  -4  -2 179.865 21.1948   4
  -1   4   2 185.439 21.3145   4
  -1  -4  -2 174.727 21.4876   3
  -1   4   2 192.624 21.1199   7
  -1   4   2 188.088 21.1522   5
   1  -4   1 582.190 66.3306   4
   1  -4   1 521.276 66.3319   3
  -1   4   1 654.057 66.3003   3
   1  -4   1 557.283 66.3354   7
  -1   4   1 587.182 66.2702   7
  -1  -4  -1 604.434 66.4226   3
   1   4  -1 610.860 66.4279   4
  -1   4   1 630.960 66.3753   4
  -1  -4  -1 604.042 66.3097   4
  -1  -4   0 3.55076 4.73499   3
  -1  -4   0 22.2299 3.29671   4
   1   4   0 13.4579 2.54883   7
   1  -4   0 15.8508 3.43956   7
  -1  -4   0 15.7607 2.31984   2
  -1   4   0 15.0091 2.64685   7
   1  -4   0 5.05592 4.07667   3
  -1   4   0 22.3082 4.16807   4
   1  -4   0 16.6005 3.19511   4
  -1   4   0 20.0255 3.00969   3
   1  -4   0 11.4270 2.99433   1
   1   4   0 15.3372 4.17604   4
  -1  -4   1 700.121 62.5167   4
  -1  -4   1 594.941 62.4051   2
  -1  -4   1 680.657 62.6398   3
   1  -4  -1 731.479 62.5353   7
   1  -4  -1 679.305 62.4980   4
   1   4   1 790.064 62.6367   4
   1  -4  -1 907.322 62.6176   1
   1   4   1 766.945 62.4376   7
   1  -4  -1 620.835 62.5660   3
  -1   4  -1 717.375 62.4893   7
  -1   4  -1 657.228 62.5957   4
  -1   4  -1 737.412 62.4965   3
  -1   4  -2 192.342 22.7016   4
   1  -4  -2 183.063 22.4035   4
   1   4   2 204.867 22.2920   7
   1  -4  -2 184.394 22.6548   3
  -1   4  -2 217.779 22.4214   7
   1  -4  -2 199.264 22.4759   7
   1   4   2 213.248 22.5131   3
  -1   4  -2 215.228 22.4280   3
  -1   4  -2 167.867 22.6615   1
  -1  -4   2 175.973 22.3687   2
   1   4   2 220.047 22.6915   4
  -1   4  -2 209.865 22.5480   9
  -1  -4   3 1217.52 157.573   2
   1  -4  -3 1345.35 157.601   7
  -1   4  -3 1503.44 157.606   1
   1  -4  -3 1447.17 157.597   4
  -1   4  -3 1422.44 157.606   7
   1   4   3 1555.03 157.642   3
   1  -4  -3 1163.73 157.629   3
  -1   4  -3 1444.71 157.682   4
  -1   4  -3 1494.55 157.608   9
  -1  -4   3 1350.71 157.659   6
   1   4   3 1525.38 157.685   4
   1   4   3 1415.83 157.527   7
  -1   4  -3 1584.71 157.606   3
  -1  -4   4 63.4843 8.10789   6
  -1   4  -4 68.3247 8.03773   4
  -1  -4   4 48.3310 7.41723   2
  -1   4  -4 62.1325 7.62907   9
   1  -4  -4 51.6362 7.10928   2
   1   4   4 60.9073 7.53111   3
  -1   4  -4 66.5420 7.19412   1
   1  -4  -4 57.3854 7.20584   7
   1   4   4 57.7441 6.87413   7
  -1   4  -4 62.3547 7.18361   7
   1   4   4 67.5761 7.91796   4
   1  -4  -4 67.7039 8.03892   3
  -1   4  -4 65.1433 7.31383   3
   1  -4  -4 58.7049 7.20686   4
  -1   4  -5 3055.08 316.576   1
   1  -4  -5 2695.94 316.530   4
   1   4   5 2958.79 316.608   4
   1   4   5 2544.85 316.462   7
   1  -4  -5 2739.39 316.508   2
   1  -4  -5 3020.31 316.625   3
   1   4   5 2412.88 316.600   4
  -1  -4   5 2983.99 316.611   6
  -1  -4   5 2601.46 316.586   8
   1  -4  -5 2896.26 316.547   7
  -1   4  -5 3398.55 316.674   4
  -1   4  -5 3323.29 316.561   3
   1   4   5 3471.10 316.613   3
  -1  -4   5 2567.13 316.559   2
  -1   4  -5 3043.99 316.576   7
  -1  -4   6 809.087 76.3863   6
   1  -4  -6 716.422 76.4493   3
  -1   4  -6 804.518 76.2738   7
   1  -4  -6 750.125 76.2322   7
  -1  -4   6 784.490 76.2744   4
   1  -4  -6 737.840 76.2212   4
   1   4   6 755.728 76.3388   4
  -1   4  -6 901.182 76.2642   3
  -1   4  -6 855.986 76.2868   1
  -1  -4   6 695.636 76.3039   2
   1   4   6 396.515 76.0797   2
   1   4   6 809.568 76.1988   5
   1   4   6 873.469 76.3007   3
  -1  -4   6 840.812 76.2806   9
   1  -4  -6 729.083 76.1648   2
   1   4   6 673.349 76.3706   4
  -1   4  -6 685.405 76.4205   4
  -1  -4   6 721.211 76.3688   8
   1   4   7 25.3809 4.67700   2
  -1  -4   7 26.8360 5.91834   2
   1   4   7 49.5249 6.23289   4
   1  -4  -7 50.6407 5.64244   5
   1  -4  -7 41.8491 4.91828   2
   1   4   7 40.3462 6.24513   4
   1  -4  -7 53.7689 5.30509   7
  -1  -4   7 29.1018 7.02835   6
   1  -4  -7 49.1500 6.79090   3
  -1  -4   7 34.1578 5.23298   4
  -1   4  -7 31.0662 6.83094   4
  -1  -4   7 37.8863 6.77368   8
   1   4   7 42.9679 4.93306   5
   1   4   8 51.5015 7.68451   4
   1  -4  -8 66.0099 7.03702   7
  -1  -4   8 39.6026 7.76589   2
  -1  -4   8 68.1768 7.15473   4
   1   4   8 59.8470 7.88144   4
  -1   4  -8 57.0608 8.35991   4
   1  -4  -8 51.5334 7.15441   5
   1  -4  -8 72.2370 8.29438   3
   1   4   8 42.0635 6.66080   2
   1   4   8 57.3276 6.72456   5
  -1  -4   8 71.8326 8.64374   8
   1  -4  -9 1508.89 172.507   5
   1  -4  -9 1666.80 172.477   7
   1   4   9 1202.91 172.537   4
   1  -4  -9 1863.88 172.638   3
  -1  -4   9 1615.79 172.602   2
   1   4   9 1482.04 172.404   2
  -1   4  -9 1500.22 172.643   4
   1   4   9 1482.47 172.583   4
  -1  -4   9 1850.70 172.666   8
   1   4  10 17.2591 5.49739   4
   1  -4 -10 14.0329 4.14170   5
   1  -4 -10 24.4997 6.45839   3
  -1   4 -10 24.3782 6.32053   4
  -1  -4  10 23.4742 5.75512   2
   1   4  10 13.8288 3.71640   2
  -1  -4  10 9.59272 6.59031   8
  -1  -4  11 753.457 73.3837   8
   1  -4 -11 493.771 73.0768   5
  -1   4 -11 611.113 73.3120   4
   1   4  11 707.306 73.0242   2
   1  -4 -11 725.816 73.3341   3
  -1  -4  11 715.911 73.3024   2
   1  -4 -12 11.0421 4.14966   5
  -1  -4  12 13.5956 6.75159   8
  -1   4 -12 2.94289 6.80859   4
  -1  -4  12 13.5201 6.04531   2
   1  -4 -12 10.5219 6.29760   3
  -1   4 -13 58.5286 10.1697   4
   1  -4 -13 60.3438 9.58596   3
  -1  -4  13 66.4176 9.41922   2
   1  -4 -13 54.0584 8.04638   5
  -1  -4  13 74.2509 9.80520   8
  -1  -4  14 44.6076 8.12289   8
  -1  -4  14 29.7861 7.50059   2
  -1   4 -14 14.9767 8.58211   4
   1  -4 -14 31.0410 7.76617   3
  -1  -4  15 177.180 21.3660   8
  -1  -4  15 178.872 21.2370   2
   1  -4 -15 191.316 21.2775   3
  -1   4 -15 158.562 21.5543   4
   1  -4 -16 15.8749 8.25980   3
  -1  -4  16 39.1505 8.05001   2
  -1   4 -16 24.2814 8.92990   4
  -1  -4  16 39.5215 8.33928   8
  -1   4 -17 12.8186 9.08207   4
  -1  -4  17 21.1921 8.44527   8
   1  -4 -17 15.6656 8.31607   3
  -1  -4  17 23.7148 7.85027   2
  -1   4 -18-12.0512 8.96239   4
  -1  -4  18-7.90680 7.87432   2
  -1  -4  18 8.79383 8.48053   8
   1  -4 -18-13.0539 8.38317   3
  -1   4 -19 22.4781 9.51696   4
  -1  -4  19 13.8559 8.66958   2
   1  -4 -19 14.5839 8.73174   3
  -1  -4  19 8.66877 9.24930   8
   1  -4 -20 7.60770 9.17805   3
  -1  -4  20 35.5145 9.07418   2
  -1  -4  20 14.1509 9.63611   8
  -1   4 -20 15.1274 9.94561   4
  -1  -4  21 41.0749 10.4624   8
   1  -4 -21 16.9061 9.38851   3
  -1  -4  21 21.3623 9.72751   2
  -1  -4  22-0.59345 9.27990   2
   1  -4 -22-4.18034 9.33661   3
   1  -4 -23 39.2746 11.6066   3
  -1  -4  23 80.3697 12.2412   2
  -1  -4  24-3.30524 10.4344   2
   1  -4 -24 2.24130 9.78331   3
   1  -4 -25 9.08869 9.81663   3
  -1  -4  25 15.9278 10.8060   2
  -1  -4  26-5.69175 10.6091   2
   1  -4 -26 5.09154 10.0407   3
  -1  -4  27 27.1204 11.4908   2
   1  -4 -27 38.0619 11.4014   3
   1  -4 -28-34.7236 10.8629   3
  -1  -4  28 18.0051 10.8617   2
  -1  -4  29 5.07631 10.6618   2
   1  -4 -29 11.8218 11.1575   3
  -1  -5 -29 0.50171 12.0249   3
  -1  -5 -28 0.23350 11.1715   3
   1  -5  28 10.7990 10.8311   2
   1  -5  27 6.01473 10.4369   2
  -1  -5 -27 7.08572 11.4934   3
  -1  -5 -26 1.33930 11.2197   3
   1  -5  26 8.80706 10.5372   2
   1  -5  25 23.2950 10.5646   2
   1  -5  25 16.1393 10.3571   8
  -1  -5 -25 3.99785 10.7292   3
   1  -5  24 23.8014 10.0364   8
  -1  -5 -24 6.14241 10.5915   3
   1  -5  24 17.5685 10.4086   2
   1  -5  23 30.5733 10.6175   2
   1  -5  23 21.4925 10.3316   8
  -1  -5 -23 19.7069 10.7683   3
  -1  -5 -22 11.2039 10.1660   3
   1  -5  22-9.84318 9.66677   8
   1  -5  22 6.99767 9.80385   2
   1  -5  21 53.7972 11.5001   2
  -1  -5 -21 51.8834 11.5774   3
   1  -5  21 53.8011 11.3878   8
   1  -5  20 75.4422 13.4666   2
   1  -5  20 88.0562 13.9405   8
  -1  -5 -20 92.3366 13.7591   3
  -1  -5 -19 0.36279 9.73609   3
   1  -5  19-5.42380 9.87868   8
   1  -5  19-1.05769 8.40487   2
   1  -5  18 80.1679 12.3994   2
  -1  -5 -18 76.7790 13.2053   3
   1  -5  18 78.5484 13.1516   8
  -1  -5 -17 91.4001 12.2136   3
   1   5 -17 45.3095 11.3136   4
   1  -5  17 69.9348 11.3070   2
   1  -5  17 66.0680 11.7789   8
   1  -5  16 48.8693 9.51569   2
   1   5 -16 49.6169 9.60455   4
  -1  -5 -16 44.5626 10.8538   3
   1  -5  16 44.9883 9.97565   8
  -1  -5 -15 212.660 23.2276   3
   1  -5  15 195.722 22.8942   8
   1   5 -15 165.053 22.8942   4
  -1  -5 -14 723.123 69.0425   3
   1   5 -14 530.342 68.8014   4
  -1  -5 -13 11.3466 7.85341   3
   1   5 -13 3.66375 6.88857   4
  -1  -5 -12 13.5315 7.51241   3
   1   5 -12-2.44057 6.68022   4
   1   5 -11 225.960 29.5802   4
  -1  -5 -11 297.568 29.8577   3
   1  -5  10 219.278 24.0976   6
   1   5 -10 214.788 24.1911   4
  -1   5  10 172.188 23.5987   4
  -1   5   9 14.1095 4.30566   4
   1  -5   9 7.09092 5.80790   6
  -1  -5  -9 4.30456 6.38621   3
   1   5  -9 6.17156 6.02442   4
   1  -5   8 0.76039 5.43629   6
  -1  -5  -8 12.7999 6.17160   3
   1   5  -8 6.36506 5.59801   4
  -1   5   8 8.69465 4.15532   4
  -1   5   7 8.25383 3.80839   4
   1   5  -7 13.0630 5.61773   4
  -1  -5  -7 5.82796 6.23007   3
  -1   5   7 11.0247 4.39014   4
   1  -5   7 15.4016 5.60079   6
   1   5  -7 7.46975 6.19441   9
  -1   5   6 565.455 68.2446   4
   1   5  -6 694.296 68.4451   9
   1   5  -6 539.440 68.3448   4
  -1  -5  -6 699.978 68.5102   3
   1   5  -5 571.563 60.0242   9
  -1  -5  -5 530.305 60.0289   3
  -1   5   5 549.886 59.8578   4
   1   5  -5 486.734 59.9657   4
  -1  -5  -4 773.006 83.2033   3
  -1   5   4 686.281 82.9232   7
   1   5  -4 719.243 83.1110   4
   1   5  -4 831.412 83.1694   9
  -1   5   4 785.855 83.0807   4
  -1   5   3 1215.51 149.457   5
  -1   5   3 1282.60 149.445   7
  -1  -5  -3 1503.35 149.656   3
   1   5  -3 1244.36 149.583   4
  -1   5   3 1411.33 149.469   3
  -1   5   3 1367.83 149.539   4
   1   5  -3 1506.28 149.601   9
  -1   5   2 202.892 22.3077   7
   1  -5   2 175.774 22.5702   7
  -1   5   2 240.592 22.4466   3
  -1  -5  -2 167.531 22.9163   3
  -1   5   2 198.894 22.6720   4
   1  -5   2 180.126 22.6386   3
   1   5  -2 194.158 22.3048   7
   1   5  -2 193.383 22.9265   4
  -1  -5  -1 186.289 21.2847   3
  -1   5   1 201.478 20.7387   3
   1  -5   1 229.955 21.1469   3
   1   5  -1 221.964 21.2128   4
   1   5  -1 239.181 20.6529   7
  -1   5   1 199.519 20.6421   7
  -1  -5  -1 141.895 20.4255   2
   1  -5   1 224.648 20.7810   4
   1  -5   1 254.273 20.9106   7
  -1   5   1 186.682 21.0431   4
   1   5   0 610.158 73.0276   4
  -1  -5   0 600.823 72.7120   2
  -1   5   0 645.773 72.8082   7
   1   5   0 612.989 72.7089   1
   1  -5   0 712.761 72.8977   7
  -1   5   0 734.190 72.8384   3
   1  -5   0 663.704 72.8478   4
  -1  -5   0 586.141 73.0318   3
   1  -5   0 729.884 72.9721   3
  -1   5   0 693.734 72.9891   4
   1   5   0 733.788 72.8041   7
   1  -5  -1 162.023 23.4489   4
  -1   5  -1 250.975 23.4346   7
   1  -5  -1 193.297 23.4040   1
  -1   5  -1 270.243 23.4958   3
  -1  -5   1 197.782 23.9886   3
  -1   5  -1 189.419 23.8037   4
   1  -5  -1 211.483 23.5681   7
  -1  -5   1 211.588 23.3478   2
   1   5   1 168.620 23.8324   4
   1  -5  -1 195.384 23.8266   3
   1   5   1 202.052 23.3373   7
   1  -5  -2 179.022 19.6214   4
  -1   5  -2 198.208 19.6727   3
   1  -5  -2 189.159 20.0546   3
   1   5   2 186.868 20.0527   4
  -1   5  -2 197.907 19.9284   9
   1   5   2 194.740 19.4849   7
   1  -5  -2 134.262 19.6037   1
  -1   5  -2 124.523 20.0447   4
  -1   5  -2 221.317 20.3782   1
   1  -5  -2 187.745 19.6994   7
  -1  -5   2 145.925 19.5532   2
  -1   5  -2 155.851 19.5733   7
   1   5   3 1287.65 139.989   7
  -1   5  -3 1308.19 140.131   1
  -1   5  -3 1413.72 140.102   9
  -1   5  -3 1275.87 140.074   7
   1   5   3 1198.26 140.157   4
  -1   5  -3 1485.73 140.085   3
   1  -5  -3 1218.19 140.180   3
  -1  -5   3 1035.75 140.022   2
  -1   5  -3 1147.09 140.178   4
   1  -5  -3 1218.25 140.059   4
   1  -5  -3 1272.04 140.079   7
  -1   5  -4 823.818 76.6325   9
   1  -5  -4 689.290 76.5290   4
  -1  -5   4 711.803 76.7185   6
   1   5   4 642.587 76.4310   7
  -1  -5   4 590.055 76.5254   2
  -1   5  -4 836.605 76.5847   3
  -1   5  -4 708.784 76.5403   1
   1  -5  -4 622.546 76.7018   3
  -1   5  -4 649.334 76.7265   4
   1   5   4 637.064 76.6778   4
   1  -5  -4 704.825 76.5612   7
   1   5   5 456.816 52.4700   4
  -1  -5   5 404.332 52.4678   6
   1  -5  -5 460.404 52.2438   4
   1  -5  -5 495.698 52.5065   3
  -1   5  -5 478.975 52.2624   1
  -1   5  -5 397.529 52.5084   4
  -1  -5   5 375.045 52.2913   2
  -1   5  -5 532.998 52.2972   3
  -1   5  -5 546.340 52.4012   9
   1  -5  -5 500.582 52.2795   7
  -1   5  -6 753.565 68.4588   3
   1   5   6 664.837 68.3678   5
   1  -5  -6 680.639 68.6710   3
  -1   5  -6 584.849 68.3999   1
   1  -5  -6 580.734 68.3879   4
  -1  -5   6 508.877 68.4481   2
  -1   5  -6 555.205 68.6326   4
  -1  -5   6 604.470 68.5902   8
  -1  -5   6 559.280 68.6192   6
   1   5   6 600.026 68.5619   4
   1  -5  -6 620.994 68.3904   7
   1   5   7 3.03114 2.50853   5
   1  -5  -7 8.78841 6.01806   3
  -1  -5   7 1.09735 5.69563   8
   1   5   7 6.44239 4.88619   4
  -1   5  -7 9.07405 3.46921   3
  -1  -5   7-0.08728 5.91959   6
   1  -5  -7 4.30193 3.11285   7
  -1  -5   7-1.45788 4.61428   2
  -1   5  -7 14.1133 5.86327   4
   1  -5  -8 28.7577 4.16202   7
   1   5   8 18.1833 5.65981   4
  -1  -5   8 18.7843 6.44787   8
  -1  -5   8 22.0956 6.76025   6
   1  -5  -8 15.9283 6.74967   3
  -1  -5   8 22.0609 5.43070   2
  -1   5  -8 24.7803 7.03191   4
   1   5   9 9.31012 5.13351   4
  -1  -5   9 4.55532 6.57936   8
  -1  -5   9 2.77501 6.37825   6
  -1  -5   9 2.93386 5.15111   2
  -1   5  -9 9.51737 6.10440   4
   1  -5  -9 8.61552 7.27283   3
  -1  -5  10 240.736 28.2145   2
   1   5  10 243.852 28.1186   4
  -1   5 -10 213.128 28.4787   4
   1  -5 -10 282.747 28.5164   3
  -1  -5  10 254.064 28.5335   8
   1  -5 -11 278.627 23.9685   3
  -1  -5  11 245.458 23.9276   8
   1   5  11 239.738 23.4589   4
  -1   5 -11 220.528 24.1475   4
  -1  -5  11 216.961 23.5961   2
   1  -5 -12 4.06083 4.44633   5
  -1  -5  12 7.02151 6.32351   2
   1   5  12-0.54857 5.74386   4
   1  -5 -12 5.74546 6.98314   3
  -1  -5  12 13.2079 7.64867   8
  -1   5 -12 8.02074 7.53640   4
   1   5  13-0.92413 5.96850   4
  -1  -5  13 2.25891 6.54763   2
   1  -5 -13 3.35652 7.25617   3
  -1  -5  13 1.44793 8.07278   8
  -1   5 -13 4.93302 7.76635   4
   1   5  14 508.821 64.9975   4
  -1  -5  14 640.072 65.2891   8
   1  -5 -14 623.846 65.2255   3
  -1   5 -14 516.031 65.3121   4
  -1  -5  14 636.086 65.2260   2
  -1  -5  15 192.880 22.0366   8
   1  -5 -15 178.780 22.0133   3
  -1   5 -15 160.565 22.4688   4
  -1  -5  15 192.708 21.9438   2
  -1   5 -16 18.2742 9.98036   4
  -1  -5  16 38.6356 9.15430   8
  -1  -5  16 43.8177 8.47994   2
   1  -5 -16 25.8184 8.81855   3
   1  -5 -17 72.3068 12.0597   3
  -1  -5  17 87.8487 11.8299   2
  -1   5 -17 73.4826 12.9540   4
  -1  -5  17 72.3869 12.3102   8
  -1  -5  18 76.3605 11.8339   2
  -1  -5  18 76.3897 12.1784   8
   1  -5 -18 60.3170 12.1290   3
  -1   5 -18 79.7560 12.9339   4
  -1  -5  19-9.74491 9.01664   8
  -1  -5  19 4.41178 8.61458   2
  -1   5 -19-4.05926 9.88451   4
   1  -5 -19 2.49415 8.82750   3
   1  -5 -20 78.1868 12.8213   3
  -1   5 -20 58.3179 13.8930   4
  -1  -5  20 91.2464 13.5194   8
  -1  -5  20 86.4273 12.9033   2
  -1  -5  21 62.4441 12.1194   8
   1  -5 -21 40.8223 11.1464   3
  -1  -5  21 52.8045 11.3286   2
  -1  -5  22 3.88141 9.70433   2
  -1  -5  22 5.64961 10.4063   8
   1  -5 -22 8.53290 9.76147   3
   1  -5 -23 16.6959 10.1698   3
  -1  -5  23 8.94396 10.0028   2
  -1  -5  24 22.4331 10.6283   2
   1  -5 -24 19.0329 10.5711   3
   1  -5 -25 4.64384 10.2625   3
  -1  -5  25 3.52999 10.7813   2
   1  -5 -26 1.66384 10.5232   3
  -1  -5  26 11.6898 10.8655   2
   1  -5 -27-1.49691 10.7636   3
  -1  -5  27 23.1456 10.9445   2
  -1  -5  28 7.58421 10.8006   2
   1  -5 -28-0.22130 10.6675   3
  -1  -6 -28 0.22939 10.9157   3
   1  -6  27 16.6086 11.6237   8
   1  -6  27 9.80059 10.5557   2
  -1  -6 -27 2.25372 10.9608   3
   1  -6  26 17.4995 11.0588   8
  -1  -6 -26 32.0201 11.0929   3
   1  -6  26 12.3963 10.9410   2
   1  -6  25 24.8609 10.7556   2
  -1  -6 -25 19.6882 11.6896   3
   1  -6  25 0.19183 10.6842   8
  -1  -6 -24 8.84648 11.8718   3
   1  -6  24 32.1975 11.1912   8
   1  -6  24 50.0084 11.3738   2
  -1  -6 -23 7.55452 11.2851   3
   1  -6  23 0.44266 10.3621   2
   1  -6  23 10.6613 10.4271   8
  -1  -6 -22 3.61384 10.4211   3
   1  -6  22 18.4631 10.5809   8
   1  -6  22 6.23316 10.1363   2
   1  -6  21 24.6324 10.8227   8
  -1  -6 -21 34.4046 10.7500   3
   1  -6  21 24.3008 10.2441   2
  -1  -6 -20 86.5125 14.0417   3
   1  -6  20 92.1135 13.8190   2
   1  -6  20 72.9568 14.1744   8
  -1  -6 -19 98.4741 15.1476   3
   1  -6  19 97.5312 15.5636   8
   1  -6  19 104.035 14.7302   2
   1  -6  18 14.3776 8.72700   2
   1  -6  18-2.81566 10.0907   8
  -1  -6 -18-2.53285 9.83143   3
   1  -6  17 14.7508 8.65757   2
   1   6 -17 3.77391 9.11063   4
  -1  -6 -17 15.0857 9.53485   3
   1  -6  17 11.9278 9.43237   8
   1   6 -16 122.822 17.8096   4
   1  -6  16 136.735 17.3060   2
   1  -6  16 125.008 17.7846   8
  -1  -6 -16 154.865 18.0548   3
   1   6 -15 27.1225 9.04875   4
  -1  -6 -15 27.7242 9.68800   3
   1   6 -14 306.535 39.4676   4
  -1  -6 -14 385.968 39.6283   3
   1   6 -13 61.7401 10.6559   4
  -1  -6 -13 61.2520 11.1386   3
  -1  -6 -12 421.738 44.1613   3
   1   6 -12 354.476 44.1287   4
   1   6 -11 150.184 20.0109   4
  -1  -6 -11 173.065 20.1535   3
   1  -6  11 172.473 19.9566   6
   1  -6  10 143.607 16.0218   6
  -1  -6 -10 117.679 16.4657   3
   1   6 -10 122.155 16.1235   4
  -1   6   9 7.04958 5.11550   4
  -1  -6  -9 23.0988 7.82856   3
   1   6  -9 5.93923 6.80007   4
   1  -6   9 9.52138 6.98442   6
   1   6  -8 533.432 51.3273   9
  -1   6   8 397.486 51.0272   4
   1   6  -8 430.431 51.2640   4
  -1  -6  -8 594.812 51.5645   3
   1  -6   8 405.328 51.1506   6
   1  -6   7 29.4356 7.43245   6
   1   6  -7 48.6367 7.73333   9
  -1   6   7 27.3898 6.32449   4
  -1  -6  -7 31.2571 8.15202   3
   1   6  -7 22.0331 7.43813   4
  -1   6   6 522.688 72.2029   4
   1   6  -6 815.007 72.4208   9
   1   6  -6 611.686 72.3594   4
  -1  -6  -6 719.421 72.5174   3
  -1   6   5 16.0250 5.90903   4
   1   6  -5 23.0509 6.47860   4
   1   6  -5 18.2322 6.85550   9
  -1  -6  -5 16.8736 7.34822   3
  -1   6   4 8.14249 5.31640   4
   1   6  -4 2.85419 5.89911   4
   1   6  -4 9.25678 6.25189   9
  -1  -6  -4 6.41453 6.91490   3
  -1   6   4 6.53112 3.01395   7
  -1  -6  -3 227.092 23.0411   3
   1   6  -3 249.734 22.7391   9
   1   6  -3 205.264 22.7321   4
  -1   6   3 188.905 22.4995   4
  -1   6   3 171.691 21.9561   7
   1  -6   2 699.913 75.3857   3
  -1   6   2 571.178 75.3692   4
  -1   6   2 636.264 75.1737   7
   1   6  -2 693.537 75.1883   7
  -1  -6  -2 788.652 75.5360   3
   1   6  -2 720.405 75.4973   4
   1  -6   1 334.332 31.4692   3
  -1  -6  -1 332.774 31.6334   3
   1   6  -1 277.008 30.8859   7
  -1   6   1 260.055 30.8874   7
   1   6  -1 301.733 31.5223   4
  -1   6   1 209.802 31.2662   4
   1   6   0 8.16860 2.61265   7
  -1   6   0 18.3239 5.67499   4
  -1  -6   0 5.56564 6.26929   3
   1  -6   0 13.3635 5.79480   3
   1   6   0 11.6261 5.76742   4
   1  -6   0 8.17248 4.35446   7
  -1  -6   1 306.620 30.6752   3
  -1   6  -1 244.699 30.4870   4
   1  -6  -1 216.910 30.2050   7
   1  -6  -1 324.235 30.6513   3
   1   6   1 261.754 30.6040   4
   1   6   1 278.151 29.9934   7
   1  -6  -2 799.497 78.9342   3
   1  -6  -2 672.983 78.7176   7
  -1   6  -2 779.680 78.8054   9
   1   6   2 706.144 78.8921   4
  -1   6  -2 588.058 78.8488   4
   1   6   3 223.799 25.3050   4
   1  -6  -3 214.212 24.8731   7
   1  -6  -3 255.745 25.4457   3
  -1   6  -3 185.133 25.3599   4
  -1   6  -3 225.494 25.1065   9
  -1   6  -4-0.33711 3.15116   1
  -1   6  -4 8.80482 5.99840   4
   1  -6  -4 7.25107 6.09143   3
   1   6   4 13.7656 5.42680   4
  -1  -6   4-0.26431 3.81319   2
   1  -6  -4 1.06767 3.55560   7
  -1   6  -4 3.61057 5.16254   9
  -1  -6   4 4.49359 6.36627   6
   1  -6  -5 18.4872 6.82224   3
   1  -6  -5 7.30027 3.51346   7
  -1  -6   5 10.6759 6.54772   6
   1   6   5 11.8392 5.38295   4
  -1  -6   5 0.52363 4.22607   2
  -1   6  -5 7.90671 6.18633   4
  -1   6  -5 2.92561 5.31521   9
  -1   6  -5 0.78950 2.88715   1
   1   6   6 650.147 72.8697   4
  -1  -6   6 544.827 72.7057   2
   1  -6  -6 717.872 72.6987   7
  -1   6  -6 608.031 72.9832   4
  -1  -6   6 689.527 72.9110   6
   1  -6  -6 721.408 72.9840   3
   1   6   7 31.9968 6.50923   4
  -1   6  -7 18.8788 7.35299   4
  -1  -6   7 14.5762 5.60099   2
   1  -6  -7 24.6472 7.02721   3
  -1  -6   7 35.0460 7.37119   6
  -1  -6   7 24.6317 6.96883   8
  -1  -6   8 470.854 50.7545   6
  -1  -6   8 424.084 50.5240   2
  -1   6  -8 410.221 50.8615   4
   1  -6  -8 493.835 50.8103   3
   1   6   8 495.064 50.6838   4
  -1  -6   8 410.595 50.7213   8
   1   6   9 4.22839 6.00581   4
   1  -6  -9 9.34911 7.12016   3
  -1   6  -9 9.45161 7.55197   4
  -1  -6   9 13.4052 7.41614   6
  -1  -6   9 3.45417 5.75985   2
  -1  -6   9 11.7480 7.05516   8
  -1   6 -10 117.575 16.1882   4
  -1  -6  10 122.874 15.5650   2
  -1  -6  10 150.179 16.3962   8
   1   6  10 104.629 15.5160   4
  -1  -6  10 148.835 16.3003   6
   1  -6 -10 131.307 16.3954   3
  -1  -6  11 143.835 16.5253   2
   1   6  11 127.390 16.4566   4
   1  -6 -11 138.254 17.2213   3
  -1   6 -11 122.522 17.1761   4
  -1  -6  11 141.650 17.3530   8
   1  -6 -12 469.328 51.1822   3
  -1   6 -12 423.285 51.2091   4
  -1  -6  12 443.612 50.8700   2
  -1  -6  12 487.799 51.1483   8
   1   6  12 437.207 50.7850   4
   1   6  13 41.2331 8.15390   4
  -1  -6  13 38.9476 9.78636   8
  -1   6 -13 43.1259 10.0731   4
   1  -6 -13 46.4498 9.92306   3
  -1  -6  13 40.0921 8.46293   2
   1  -6 -14 446.790 43.2426   3
  -1   6 -14 296.274 43.0083   4
  -1  -6  14 371.473 42.9844   8
  -1  -6  14 390.828 42.7377   2
  -1  -6  15 28.2250 8.08648   2
   1  -6 -15 15.6765 9.57467   3
  -1  -6  15 9.42151 8.85014   8
  -1   6 -15 15.3946 9.30764   4
   1  -6 -16 103.825 16.1015   3
  -1   6 -16 91.5628 16.5376   4
  -1  -6  16 132.531 15.3923   2
  -1  -6  16 127.554 15.9180   8
  -1   6 -17-4.44920 10.3682   4
   1  -6 -17 3.85357 9.38793   3
  -1  -6  17 8.99660 8.16429   2
  -1  -6  17-1.59048 9.40085   8
   1  -6 -18-3.51984 9.42230   3
  -1  -6  18 7.85526 8.58678   2
  -1   6 -18 25.0846 10.9278   4
  -1  -6  18 17.3239 9.31517   8
  -1  -6  19 98.3096 13.5180   2
  -1  -6  19 93.6952 13.8346   8
   1  -6 -19 79.1868 13.9878   3
  -1   6 -19 77.6044 15.0530   4
   1  -6 -20 93.1072 14.0379   3
  -1  -6  20 91.9601 13.6277   2
  -1   6 -20 65.8486 14.7016   4
  -1  -6  20 90.0109 14.0685   8
  -1  -6  21 23.9509 10.8711   8
   1  -6 -21 28.9269 10.5867   3
  -1  -6  21 30.2927 10.0976   2
  -1  -6  22 14.6927 10.9138   8
   1  -6 -22 14.8214 10.4563   3
  -1  -6  22 4.02737 9.87734   2
  -1  -6  23 1.54453 10.3936   2
   1  -6 -23 8.87446 10.6371   3
  -1  -6  23 7.33577 11.1056   8
  -1  -6  24 28.5515 11.3877   2
   1  -6 -24 28.0165 11.3193   3
  -1  -6  25 23.3171 11.2822   2
   1  -6 -25-1.09078 10.9382   3
  -1  -6  26 6.64057 11.2018   2
   1  -6 -26 4.92290 10.9780   3
   1  -6 -27 1.18021 11.3185   3
  -1  -6  27 7.68968 10.9857   2
   1  -7  27 9.16030 11.6269   8
  -1  -7 -26 0.46411 11.1478   3
   1  -7  26-4.76844 11.0515   8
   1  -7  26 15.0112 10.4383   2
  -1  -7 -25 25.5380 11.5786   3
   1  -7  25 17.5642 11.3770   2
   1  -7  25 19.9241 11.3001   8
   1  -7  24 18.4902 11.1059   2
   1  -7  24 18.7632 11.1096   8
  -1  -7 -24 8.05400 11.3419   3
   1  -7  23 7.17419 11.0851   8
   1  -7  23 12.7916 10.4892   2
  -1  -7 -23-1.97213 10.9823   3
   1  -7  22 16.5818 11.0338   8
  -1  -7 -22 11.3639 11.1733   3
   1  -7  22 13.4415 10.4993   2
   1  -7  21 58.2724 13.2296   8
  -1  -7 -21 84.4547 12.9373   3
   1  -7  21 41.6741 12.3283   2
   1  -7  20 12.3020 11.7238   8
   1  -7  20 13.1823 10.3533   2
  -1  -7 -20 30.2864 10.9982   3
   1  -7  19-3.11248 9.09395   2
  -1  -7 -19 11.1473 10.5669   3
   1  -7  19 1.17191 11.1783   8
   1  -7  18 22.0474 10.7784   8
   1  -7  18 20.4201 9.21757   2
  -1  -7 -18 19.0145 10.7205   3
   1   7 -17 42.0937 13.0120   4
   1  -7  17 65.6199 12.9170   8
  -1  -7 -17 69.3326 12.4134   3
   1  -7  17 80.8571 11.7923   2
   1  -7  16 62.7633 10.7751   2
   1   7 -16 58.1489 11.8901   4
   1  -7  16 42.2911 11.5408   8
  -1  -7 -16 56.5996 11.5436   3
   1   7 -15 33.7239 9.75790   4
  -1  -7 -15 31.7305 10.0627   3
   1   7 -14 50.6961 10.5151   4
  -1  -7 -14 46.7613 10.8588   3
   1   7 -13 71.9786 12.1123   4
  -1  -7 -13 68.9919 11.9552   3
   1  -7  12 298.234 31.3200   6
  -1  -7 -12 282.697 31.7543   3
   1   7 -12 227.305 31.3841   4
   1  -7  11 348.188 40.5389   6
  -1  -7 -11 404.733 40.9703   3
   1   7 -11 322.702 40.6942   4
  -1  -7 -10 43.8281 9.83531   3
   1  -7  10 24.4477 8.56229   6
   1   7 -10 34.8875 8.74161   4
   1  -7   9 115.930 15.0999   6
  -1   7   9 104.388 14.5007   4
   1   7  -9 102.782 15.3359   4
  -1  -7  -8 13.2481 8.48617   3
   1  -7   8 2.17797 7.29197   6
   1   7  -8 12.6287 7.95543   9
   1   7  -8 12.5309 7.42704   4
  -1   7   8 3.66293 6.20538   4
  -1  -7  -7 869.307 88.4254   3
   1   7  -7 1027.50 88.3742   9
   1   7  -7 745.671 88.2858   4
   1  -7   7 753.216 88.2311   6
  -1   7   7 640.133 88.1396   4
  -1   7   6 47.9398 9.43075   4
   1   7  -6 42.8789 9.98417   4
  -1  -7  -6 66.2946 10.5104   3
  -1  -7  -5 276.197 30.1051   3
   1   7  -5 345.485 29.8746   9
   1   7  -5 259.302 29.8292   4
   1   7  -4 77.4224 9.94336   9
  -1  -7  -4 72.3605 10.6113   3
  -1   7   4 43.9124 9.15833   4
   1   7  -4 49.7816 9.81004   4
   1   7  -3 234.765 30.1592   4
  -1  -7  -3 306.048 30.3802   3
   1   7  -3 325.844 30.2028   9
  -1   7   3 204.702 29.8804   4
  -1  -7  -2-0.13081 7.16999   3
  -1   7   2-8.22688 6.24132   4
   1  -7   2 3.54638 6.21666   3
   1   7  -2 5.08292 7.08692   4
  -1   7   1 58.0282 10.3311   4
   1  -7   1 91.9098 10.5845   3
  -1  -7  -1 58.6698 11.0657   3
   1   7  -1 82.2956 10.7900   4
   1   7   0-3.02911 7.08746   4
   1  -7   0-5.02245 6.79906   3
  -1  -7   0-5.89586 7.08357   3
  -1   7   0 0.97937 6.17766   4
   1   7   1 53.3091 10.5773   4
  -1  -7   1 77.1832 10.6365   3
  -1   7  -1 99.8863 9.92058   9
   1  -7  -1 78.8690 10.4483   3
   1  -7  -1 51.0211 9.24007   7
  -1   7  -1 73.3993 10.3164   4
   1   7   2-0.90412 6.54503   4
   1  -7  -2 1.56078 4.46738   7
  -1   7  -2 4.18232 6.55817   4
  -1   7  -2-4.79665 5.91461   9
   1  -7  -2 4.95260 7.29414   3
  -1   7  -3 224.495 29.5768   4
  -1   7  -3 279.509 29.3351   9
   1   7   3 255.408 29.5765   4
   1  -7  -3 219.834 29.0269   7
  -1   7  -4 47.3424 7.60480   9
   1  -7  -4 37.6693 6.41108   7
   1   7   4 30.8581 7.92800   4
   1  -7  -4 41.4357 8.65624   3
  -1  -7   4 49.5168 8.94125   6
  -1   7  -4 44.9714 8.40470   4
  -1   7  -5 296.356 28.1922   9
  -1   7  -5 230.428 28.4888   4
   1   7   5 217.149 28.2813   4
  -1  -7   5 240.027 28.5225   6
   1  -7  -5 229.879 28.4696   3
  -1   7  -6 70.7748 9.48925   9
  -1  -7   6 50.7859 10.0012   6
   1  -7  -6 79.2369 10.3711   3
   1   7   6 52.2934 9.53764   4
  -1   7  -6 52.1414 10.1932   4
   1   7   7 676.347 85.3650   4
  -1  -7   7 777.070 85.4448   8
  -1  -7   7 760.682 85.4573   6
   1  -7  -7 912.700 85.6216   3
  -1   7  -7 730.794 85.5384   4
  -1   7  -8 11.1679 8.31353   4
   1   7   8 12.7180 6.44081   4
  -1  -7   8 9.09796 7.56668   8
  -1  -7   8 10.0932 7.90202   6
   1  -7  -8 4.23541 7.87702   3
  -1  -7   9 134.073 17.1047   8
   1   7   9 132.758 16.6871   4
  -1  -7   9 143.903 17.3102   6
  -1  -7   9 132.494 16.4037   2
  -1   7  -9 126.868 17.3940   4
   1  -7  -9 141.007 17.2596   3
  -1  -7  10 39.9150 7.16239   2
  -1  -7  10 31.6591 8.90167   8
  -1  -7  10 34.1439 9.07692   6
  -1   7 -10 18.0074 9.26771   4
   1  -7 -10 21.8453 8.44234   3
   1   7  10 16.9047 7.48191   4
  -1  -7  11 360.584 39.0942   8
   1  -7 -11 326.228 38.9442   3
  -1   7 -11 282.869 38.9581   4
   1   7  11 316.347 38.6177   4
  -1  -7  11 389.413 38.9735   6
  -1  -7  11 360.059 38.5952   2
  -1   7 -12 246.580 31.1452   4
   1  -7 -12 266.874 31.0208   3
   1   7  12 239.996 30.5801   4
  -1  -7  12 304.226 31.2179   8
  -1  -7  12 272.476 30.5454   2
   1  -7 -13 59.4068 11.5000   3
   1   7  13 50.0350 9.89548   4
  -1  -7  13 67.6789 9.92884   2
  -1  -7  13 71.3887 11.8088   8
  -1   7 -13 53.8383 12.1734   4
  -1   7 -14 26.8618 11.4935   4
   1  -7 -14 64.9213 11.1139   3
  -1  -7  14 50.5046 9.71756   2
  -1  -7  14 51.7313 10.9221   8
   1  -7 -15 45.0550 10.4381   3
  -1  -7  15 42.7947 9.18233   2
  -1   7 -15 17.7893 10.5611   4
  -1  -7  15 34.9658 10.6424   8
  -1   7 -16 72.0945 13.6482   4
  -1  -7  16 90.8952 13.0374   8
  -1  -7  16 77.9594 12.1346   2
   1  -7 -16 63.9788 12.9229   3
  -1   7 -17 39.8425 13.3612   4
  -1  -7  17 86.3656 12.5822   8
   1  -7 -17 65.0697 12.4013   3
  -1  -7  17 64.1827 11.3655   2
   1  -7 -18 13.1353 10.8555   3
  -1   7 -18 9.60022 11.8163   4
  -1  -7  18 20.2037 8.97403   2
  -1  -7  18 26.0377 10.2885   8
   1  -7 -19 16.1831 10.8757   3
  -1  -7  19 5.42149 9.03060   2
  -1   7 -19 28.2692 11.9560   4
  -1  -7  19 11.7383 10.1458   8
  -1   7 -20 6.26706 11.8193   4
  -1  -7  20 5.68258 10.5987   8
  -1  -7  20-12.9034 9.50180   2
   1  -7 -20 9.48527 10.8281   3
  -1  -7  21 56.7539 12.8260   8
   1  -7 -21 65.9577 13.5340   3
  -1  -7  21 61.1622 12.2470   2
  -1   7 -21 52.5832 14.1057   4
  -1  -7  22-3.73302 10.2808   2
   1  -7 -22 7.25437 11.7188   3
  -1  -7  22 5.39232 11.1278   8
   1  -7 -23 4.88383 11.7472   3
  -1  -7  23-13.8636 11.7034   8
  -1  -7  23-1.36908 10.4917   2
  -1  -7  24 32.8283 11.6363   2
  -1  -7  24 44.3563 12.3668   8
   1  -7 -24 14.5368 12.3885   3
   1  -7 -25 30.2454 12.7158   3
  -1  -7  25 30.5286 11.7488   2
   1  -7 -26 5.87378 11.7515   3
  -1  -7  26 1.76983 11.1013   2
  -1  -7  27 4.07269 11.0514   2
  -1  -8 -25 0.22817 11.0192   3
   1  -8  25 5.57675 10.6801   2
   1  -8  25 10.3139 11.3020   8
   1  -8  24 3.62195 10.5509   2
   1  -8  24 5.13404 11.4406   8
  -1  -8 -24-1.98795 10.7947   3
  -1  -8 -23 13.6859 10.7494   3
   1  -8  23-1.90850 11.5485   8
   1  -8  23 14.6701 10.8905   2
   1  -8  22 4.09034 11.9762   8
  -1  -8 -22 3.41484 10.7727   3
   1  -8  22 9.94058 10.5468   2
   1  -8  21 4.27324 10.3984   2
  -1  -8 -21-5.23443 10.6115   3
   1  -8  21 16.3678 12.0893   8
   1  -8  20 5.22945 9.88391   2
  -1  -8 -20-0.20936 10.6372   3
   1  -8  20-11.9465 11.6463   8
   1  -8  19-3.35273 9.85548   2
  -1  -8 -19-6.15428 10.5844   3
   1  -8  19 1.26588 11.9062   8
   1  -8  18 9.96134 9.08400   2
  -1  -8 -18 35.4821 10.8930   3
   1  -8  18 19.4372 11.4726   8
   1   8 -18 4.83627 11.2858   4
   1   8 -17 23.5808 11.7392   4
   1  -8  17 20.8817 9.74399   2
   1  -8  17 38.8354 11.3937   8
  -1  -8 -17 32.9194 11.0953   3
   1  -8  16 123.049 16.4942   2
   1  -8  16 125.218 17.5943   8
  -1  -8 -16 128.011 17.5449   3
   1   8 -16 109.616 17.2898   4
   1  -8  15 14.9080 10.1404   8
   1  -8  15-0.17550 8.39334   2
  -1  -8 -15 5.17911 10.7059   3
   1   8 -15 0.20172 9.91328   4
  -1  -8 -14 16.9742 10.9412   3
   1   8 -14 22.0202 10.2321   4
  -1  -8 -13 6.09220 10.4599   3
   1   8 -13 25.6446 9.95695   4
  -1  -8 -12 63.3420 11.7310   3
   1  -8  12 47.4903 10.5625   6
   1   8 -12 40.4930 10.9748   4
  -1  -8 -11 16.1371 9.64248   3
   1   8 -11-1.26507 9.00990   4
   1  -8  11 17.0198 8.58081   6
   1   8 -10 23.3699 9.11307   4
   1  -8  10 35.9657 9.26256   6
  -1  -8 -10 23.7226 9.95082   3
  -1  -8  -9 127.894 15.3239   3
   1  -8   9 97.8016 14.3030   6
   1   8  -9 91.2275 14.4462   4
   1   8  -8 60.0464 9.80136   9
   1  -8   8 41.1068 9.31602   6
   1   8  -8 17.9028 9.29074   4
  -1   8   8 24.5124 8.48500   4
  -1  -8  -8 48.1289 10.7271   3
   1   8  -7 34.6775 9.98969   4
  -1   8   7 45.8526 9.19856   4
  -1  -8  -7 80.3141 11.1036   3
   1  -8   7 36.1377 10.2754   6
   1   8  -7 72.6591 10.5180   9
  -1   8   6 10.8258 7.50146   4
   1   8  -6 22.9207 8.60074   4
  -1  -8  -6 28.8829 9.71108   3
   1   8  -6 30.5410 8.61650   9
   1   8  -5 185.129 24.7048   4
  -1   8   5 159.206 24.3517   4
  -1  -8  -5 243.199 25.1994   3
   1   8  -5 268.957 24.8462   9
   1   8  -4 89.7133 12.7055   4
   1   8  -4 111.130 12.8897   9
  -1  -8  -4 96.9312 13.2912   3
  -1   8   4 64.0162 12.2312   4
  -1   8   3 4.26963 7.13139   4
   1   8  -3 8.80711 7.79020   4
  -1  -8  -3-3.56302 8.15175   3
   1   8  -3 8.86546 8.14000   9
   1   8  -2 477.000 45.8708   9
  -1  -8  -2 482.913 46.1322   3
  -1   8   2 318.234 45.6723   4
   1   8  -2 371.230 45.8516   4
   1   8  -1 264.971 31.6619   4
  -1   8   1 227.878 31.4320   4
  -1  -8  -1 321.747 31.8321   3
   1  -8   1 289.245 31.4940   3
  -1   8   0 12.8392 7.44250   4
   1   8   0 21.0609 7.81212   4
  -1  -8   0 12.5442 8.22868   3
   1  -8   0 10.8480 7.71469   3
   1  -8  -1 266.354 32.0986   3
  -1   8  -1 219.738 31.8930   4
  -1   8  -1 317.443 31.7270   9
   1   8   1 298.140 32.2369   4
   1   8   2 379.890 46.5895   4
  -1   8  -2 461.957 46.2318   9
  -1   8  -2 344.494 46.3728   4
   1  -8  -2 435.942 46.5007   3
  -1   8  -3 3.77017 7.32024   4
   1   8   3-4.91534 7.31312   4
  -1   8  -3-1.77558 6.67179   9
   1  -8  -3 4.38614 7.91905   3
  -1   8  -4 97.7105 12.4379   9
  -1  -8   4 102.216 13.4817   6
   1   8   4 88.7400 12.9144   4
  -1   8  -4 67.8803 13.0589   4
   1  -8  -4 103.934 13.4788   3
   1  -8  -5 212.495 25.2260   3
  -1   8  -5 180.656 25.0705   4
  -1   8  -5 255.464 24.6693   9
  -1  -8   5 199.723 25.1068   6
   1   8   5 189.612 24.9171   4
   1   8   6 13.5258 7.95424   4
  -1   8  -6 36.5756 7.57374   9
  -1   8  -6 21.8467 8.79524   4
  -1  -8   6 20.8896 8.83957   6
   1  -8  -6 21.7679 8.85335   3
  -1  -8   7 48.9204 10.1522   6
   1   8   7 44.9316 9.26514   4
  -1   8  -7 58.1925 10.4848   4
   1  -8  -7 53.5240 10.4446   3
  -1  -8   7 52.0644 9.67346   8
   1  -8  -8 43.4702 9.98619   3
  -1  -8   8 55.9533 9.36713   8
   1   8   8 20.8378 8.55195   4
  -1  -8   8 29.1643 9.66892   6
  -1   8  -8 48.1279 9.85416   4
  -1   8  -9 86.1366 14.1401   4
   1   8   9 88.6393 12.9657   4
  -1  -8   9 96.9446 13.8543   6
  -1  -8   9 100.119 13.6457   8
   1  -8  -9 98.3892 14.2149   3
  -1  -8  10 5.70531 8.88849   8
  -1  -8  10 14.5905 9.03083   6
   1  -8 -10 1.86754 9.59629   3
  -1   8 -10 30.9045 9.99826   4
   1   8  10 7.32647 7.43488   4
  -1  -8  11 14.4913 9.65053   8
   1  -8 -11 16.1258 9.24908   3
  -1  -8  11-6.15889 9.30759   6
  -1   8 -11 6.69726 9.48426   4
   1   8  11 10.0171 7.36996   4
   1   8  12 46.1454 9.42344   4
  -1   8 -12 52.1914 11.0134   4
   1  -8 -12 49.4453 10.9255   3
  -1  -8  12 55.6692 11.6361   8
  -1  -8  13 28.3419 10.6677   8
  -1   8 -13 46.0420 10.8785   4
   1  -8 -13 26.1399 10.0489   3
   1  -8 -14 17.5218 9.74773   3
  -1  -8  14 20.9339 10.5637   8
  -1   8 -14 28.7179 11.7150   4
  -1   8 -15 4.74268 11.2054   4
  -1  -8  15 12.9450 10.2335   8
   1  -8 -15 11.7866 9.72636   3
   1  -8 -16 139.502 17.8130   3
  -1   8 -16 102.760 18.2365   4
  -1  -8  16 141.433 18.0871   8
   1  -8 -17 22.2151 10.6080   3
  -1   8 -17 17.7025 11.4592   4
  -1  -8  17 16.9814 10.4712   8
  -1  -8  17 7.28953 8.78561   2
  -1   8 -18 13.1272 12.1923   4
   1  -8 -18 36.9915 11.2079   3
  -1  -8  18 26.0870 9.57700   2
  -1  -8  18 14.0780 11.2173   8
   1  -8 -19 5.86684 10.9649   3
  -1  -8  19 7.23327 10.4446   8
  -1  -8  19-4.81335 9.36490   2
  -1   8 -19 0.80443 12.6040   4
  -1   8 -20-11.0120 12.6152   4
   1  -8 -20 11.2297 11.2734   3
  -1  -8  20 5.25077 9.66630   2
  -1  -8  20 5.47400 10.9806   8
  -1  -8  21 12.2072 11.0438   8
   1  -8 -21 4.42347 11.1393   3
  -1  -8  21 3.72128 10.2409   2
  -1   8 -21 0.55514 12.9577   4
   1  -8 -22 11.5331 11.5513   3
  -1  -8  22 4.09651 10.6373   2
  -1  -8  22 6.35072 11.5607   8
  -1  -8  23 3.77296 11.8691   8
  -1  -8  23 3.10850 11.0163   2
   1  -8 -23-6.01041 11.4809   3
  -1  -8  24 3.16306 12.1661   8
  -1  -8  24 2.24918 10.9845   2
   1  -8 -24-2.35897 11.5789   3
  -1  -8  25 2.52885 12.1536   8
  -1  -8  25 0.50532 10.9481   2
   1  -8 -25 0.24047 11.5475   3
  -1  -8  26 2.54467 10.7562   2
   1  -9  24 4.36081 10.5069   2
   1  -9  23-2.47602 12.0074   8
   1  -9  23 13.4529 11.0175   2
  -1  -9 -23 8.85274 11.7817   3
   1  -9  22 17.2603 11.1203   2
   1  -9  22 35.0839 12.9409   8
  -1  -9 -22 18.6793 12.1084   3
  -1  -9 -21 10.5222 12.2744   3
   1  -9  21 3.69527 10.5057   2
   1  -9  21 10.8195 12.6170   8
  -1  -9 -20 8.59496 12.2064   3
   1  -9  20 10.9835 12.8303   8
  -1  -9 -19-0.23479 12.0017   3
   1  -9  19 21.1042 12.7005   8
  -1  -9 -18 26.2973 11.9194   3
   1  -9  18 17.4958 12.4162   8
   1   9 -18 5.39279 12.1706   4
   1   9 -17 15.7315 11.6335   4
   1  -9  17 26.7510 11.6683   8
  -1  -9 -17-0.69336 12.0552   3
   1   9 -16 2.26235 10.7236   4
   1  -9  16-1.57937 11.0965   8
  -1  -9 -16 9.28937 11.4793   3
   1  -9  15 10.7177 10.8721   8
  -1  -9 -15 5.42704 11.2499   3
   1   9 -15 13.5997 10.8324   4
  -1  -9 -14 33.2712 11.0962   3
   1   9 -14 13.9966 10.9950   4
  -1  -9 -13 98.3526 14.7401   3
   1   9 -13 70.0276 14.2458   4
  -1  -9 -12 6.45645 10.5257   3
   1   9 -12 10.9054 10.1837   4
   1   9 -11 54.9668 13.1861   4
   1  -9  11 72.8763 12.8704   6
  -1  -9 -10 170.224 18.6608   3
   1  -9  10 106.980 17.6208   6
   1   9 -10 128.778 17.9844   4
   1   9  -9 1.52942 9.37737   4
   1  -9   9 12.3078 9.19451   6
   1   9  -8 153.869 23.1448   4
   1  -9   8 145.606 22.8185   6
  -1  -9  -8 212.438 23.6016   3
   1   9  -8 241.375 23.1440   9
  -1   9   7 110.366 18.2824   4
   1   9  -7 128.537 18.8174   4
  -1  -9  -7 192.485 19.8049   3
   1  -9   7 133.748 19.1426   6
   1   9  -7 188.654 19.0981   9
   1   9  -6 36.3357 9.66915   9
   1   9  -6 27.0297 9.89364   4
  -1   9   6 27.4646 8.73656   4
  -1  -9  -6 44.2764 10.8298   3
  -1   9   5 18.3759 7.90155   4
   1   9  -5-2.57720 8.84851   9
  -1  -9  -5 12.0747 9.59669   3
   1   9  -5 3.69380 8.89829   4
  -1  -9  -4 290.782 32.2967   3
  -1   9   4 219.289 31.7441   4
   1   9  -4 247.507 32.0915   4
   1   9  -3 63.6317 11.3981   4
   1   9  -3 78.1330 11.4272   9
  -1  -9  -3 53.8155 12.0321   3
  -1   9   3 55.3203 10.7005   4
  -1  -9  -2 6.22934 9.27610   3
   1   9  -2 1.09995 8.72434   9
   1   9  -2 11.1354 8.53336   4
  -1   9   2 21.2871 8.07338   4
   1  -9   1-0.28770 7.86716   3
   1   9  -1 2.58127 8.54547   4
  -1  -9  -1-7.78703 8.80201   3
  -1   9   1 0.95716 8.07372   4
   1  -9   0 214.178 21.6784   3
  -1   9   0 131.307 21.5481   4
  -1  -9   0 191.702 21.8438   3
   1   9   0 173.891 21.9356   4
   1  -9  -1-3.93040 8.90942   3
   1   9   1-0.17315 8.66347   4
  -1   9  -1 3.95714 8.24731   4
   1   9   2 4.20670 8.62870   4
  -1   9  -2 12.4461 8.17549   4
   1  -9  -2 7.05100 8.75436   3
  -1   9  -3 62.3201 12.1435   4
   1   9   3 59.9772 12.5197   4
   1  -9  -3 97.6840 12.3821   3
   1  -9  -4 321.349 32.5711   3
  -1  -9   4 288.792 32.7077   6
   1   9   4 263.807 32.6125   4
  -1   9  -4 240.043 32.4873   4
   1   9   5 19.1617 8.47727   4
   1  -9  -5 9.79068 9.51624   3
  -1   9  -5-6.89058 8.87500   4
  -1  -9   5 16.0829 9.52107   6
   1  -9  -6 31.2370 9.98447   3
  -1   9  -6 27.0367 9.45642   4
  -1  -9   6 12.5386 9.63670   6
   1   9   6 32.7199 9.08762   4
  -1  -9   6 27.1499 8.70853   8
   1   9   7 136.476 18.3185   4
  -1   9  -7 138.548 18.7360   4
   1  -9  -7 170.296 19.0159   3
  -1  -9   7 129.987 18.4068   6
  -1  -9   7 138.766 18.2557   8
  -1  -9   8 163.910 20.4367   6
  -1  -9   8 164.315 20.2649   8
   1   9   8 141.077 20.0724   4
   1  -9  -8 173.942 20.7534   3
  -1   9  -8 161.557 20.8059   4
  -1  -9   9 4.63455 9.45859   6
   1  -9  -9 5.18248 9.81296   3
  -1  -9   9 22.5639 9.25727   8
  -1   9  -9 18.3663 10.3459   4
   1   9   9 5.61969 8.46208   4
  -1  -9  10 131.230 18.4764   6
  -1   9 -10 130.621 19.0567   4
  -1  -9  10 154.989 18.7208   8
   1   9  10 119.324 17.8438   4
   1  -9 -10 164.299 18.7919   3
   1   9  11 51.3563 11.8222   4
  -1  -9  11 74.9998 13.2220   6
  -1  -9  11 102.423 13.7677   8
   1  -9 -11 83.8136 13.2999   3
  -1   9 -11 61.6008 13.6231   4
  -1  -9  12 10.5425 9.95647   6
   1  -9 -12 10.3948 10.8614   3
  -1  -9  12 19.2718 10.6703   8
  -1   9 -12 4.33125 10.6706   4
  -1   9 -13 80.5250 15.8792   4
  -1  -9  13 101.549 15.8611   8
   1  -9 -13 117.168 15.9095   3
  -1   9 -14 26.2003 12.3038   4
  -1  -9  14 42.7537 11.6339   8
   1  -9 -14 22.2772 11.4406   3
  -1  -9  15 3.88995 10.5987   8
   1  -9 -15-5.85879 10.7574   3
  -1   9 -15-11.6062 12.0708   4
  -1   9 -16 9.02899 11.6738   4
   1  -9 -16-4.64280 10.8077   3
  -1  -9  16 8.24288 11.0594   8
   1  -9 -17 9.28424 10.7321   3
  -1   9 -17-5.55860 11.8335   4
   1  -9 -18 11.4819 10.6653   3
  -1  -9  18 9.79260 11.1460   8
  -1   9 -18-7.59952 12.3606   4
  -1   9 -19-14.5151 12.9258   4
  -1  -9  19-16.3140 11.5227   8
   1  -9 -19-3.34648 10.7846   3
   1  -9 -20-11.1006 10.8578   3
  -1   9 -20 15.9395 13.7069   4
  -1  -9  20 8.33007 11.2738   8
  -1  -9  21-11.2614 11.6233   8
  -1   9 -21 0.88310 13.1836   4
   1  -9 -21-0.65306 10.6067   3
   1  -9 -22 50.7578 12.3107   3
  -1  -9  22 37.9854 12.9199   8
  -1  -9  23 5.47955 12.0723   8
   1  -9 -23 21.8193 11.2373   3
   1 -10  21-1.71282 12.9087   8
  -1 -10 -21 0.25323 12.2909   3
  -1 -10 -20 7.25690 12.4117   3
   1 -10  20-16.0086 12.9549   8
   1 -10  19 42.0259 14.5434   8
  -1 -10 -19 48.4344 13.7660   3
  -1 -10 -18 16.0661 11.9386   3
   1 -10  18 15.8351 13.1018   8
   1  10 -18 0.28217 13.0184   4
   1 -10  17 26.5889 12.7960   8
  -1 -10 -17 8.78781 12.3998   3
   1  10 -17 14.5246 12.0639   4
   1 -10  16 37.2472 12.1769   8
  -1 -10 -16 21.9522 12.1737   3
   1  10 -16 29.3727 12.0569   4
   1 -10  15 37.1669 12.5440   8
   1  10 -15 34.8830 12.8549   4
  -1 -10 -15 56.7148 12.9917   3
   1  10 -14 20.4691 12.1113   4
   1 -10  14 41.5807 11.9974   8
  -1 -10 -14 22.5657 12.3826   3
   1  10 -13 56.3145 13.9250   4
  -1 -10 -13 92.5492 15.0479   3
  -1 -10 -12 28.0441 12.0429   3
   1  10 -12 18.1989 11.3020   4
   1  10 -11-12.3575 10.9070   4
  -1 -10 -11 9.82725 11.7559   3
  -1 -10 -10 23.4586 11.6090   3
   1 -10  10-4.35542 10.1249   6
   1  10 -10 8.58086 10.6757   4
   1 -10   9 54.8291 11.7209   6
   1  10  -9 42.1682 12.4026   4
  -1 -10  -9 67.5340 13.2602   3
   1 -10   8 26.9553 10.8479   6
   1  10  -8 39.7137 10.5114   9
  -1 -10  -8 24.2283 11.9838   3
   1  10  -8 36.0933 11.1802   4
   1  10  -7 30.3234 10.1352   9
  -1 -10  -7 8.70484 10.9794   3
   1  10  -7-3.05799 10.2992   4
   1 -10   7 2.09198 10.1215   6
   1 -10   6 67.7117 11.7597   6
   1  10  -6 45.2838 11.0973   9
  -1 -10  -6 68.8495 11.9958   3
   1  10  -6 25.2138 11.2026   4
  -1  10   6 27.4911 9.87510   4
   1  10  -5 87.0611 13.2041   9
  -1  10   5 60.5274 12.4959   4
   1  10  -5 70.1672 13.3724   4
   1  10  -4 21.0431 9.54499   9
  -1  10   4 18.1928 9.12655   4
   1  10  -4 35.5174 9.71208   4
  -1 -10  -4 9.54601 10.8017   3
   1  10  -3 21.7255 9.82741   9
  -1 -10  -3 36.8645 10.6883   3
  -1  10   3 16.7432 9.29430   4
   1  10  -3 40.0777 10.1411   4
   1  10  -2 8.22881 9.45451   9
  -1  10   2-5.33957 8.73149   4
  -1 -10  -2 17.1919 10.2496   3
   1  10  -2 1.35503 9.76885   4
  -1 -10  -1 80.9150 12.7566   3
  -1  10   1 53.0140 11.8484   4
   1  10  -1 58.5812 12.0223   4
   1  10  -1 79.3061 12.1649   9
   1  10   0 3.07162 9.37348   4
   1 -10   0-3.75567 9.04504   3
  -1  10   0-8.07250 8.79764   4
   1  10   1 82.2400 13.1322   4
   1 -10  -1 98.8815 12.5937   3
  -1  10  -2 3.22372 9.59336   4
   1  10   2-3.10438 9.46458   4
   1 -10  -2 17.8765 9.64279   3
  -1  10  -3 42.4090 10.2675   4
   1  10   3 33.5032 10.1673   4
  -1 -10   3 37.3083 11.2901   6
   1 -10  -3 16.2084 10.7388   3
  -1 -10   4 25.6170 11.0166   6
  -1  10  -4 22.5725 9.73837   4
   1  10   4-3.33721 9.60966   4
   1 -10  -4 8.99346 9.67509   3
  -1 -10   5 83.3144 14.3208   6
   1 -10  -5 102.889 14.2236   3
  -1  10  -5 63.8529 14.1663   4
   1  10   5 100.936 14.4923   4
   1  10   6 28.1230 10.5778   4
  -1  10  -6 34.9519 10.5274   4
  -1 -10   6 44.9445 10.8755   6
   1 -10  -6 28.8428 11.0227   3
  -1 -10   7 9.64397 9.98401   6
  -1 -10   7 21.7176 9.38211   8
   1  10   7 18.4655 9.57338   4
  -1  10  -7 6.18195 10.8750   4
   1 -10  -7 19.2361 10.8124   3
   1 -10  -8 56.7338 11.2793   3
   1  10   8 11.8281 9.69791   4
  -1  10  -8 25.2112 11.1364   4
  -1 -10   8 43.3965 11.0921   6
  -1 -10   8 23.7949 10.2389   8
  -1 -10   9 65.9658 12.3818   6
  -1 -10   9 68.1537 12.4018   8
   1  10   9 30.8508 11.3475   4
   1 -10  -9 78.0096 12.7592   3
  -1  10  -9 51.0280 12.9009   4
  -1  10 -10 5.09642 11.3541   4
  -1 -10  10 0.19203 10.8577   8
   1  10  10-0.57738 9.05840   4
   1 -10 -10 14.6456 10.8514   3
  -1 -10  10-0.16853 10.3397   6
  -1 -10  11 0.17150 10.8694   6
  -1  10 -11 30.4911 10.9568   4
   1 -10 -11 7.21500 10.6269   3
  -1 -10  11 15.3393 11.2201   8
  -1 -10  12 16.1901 11.2199   8
   1 -10 -12 21.8949 11.1963   3
  -1  10 -12 8.31986 11.1558   4
  -1 -10  12 19.5301 10.7003   6
   1 -10 -13 75.7663 14.2631   3
  -1 -10  13 84.5629 14.5000   8
  -1  10 -13 72.0478 14.7476   4
  -1  10 -14 32.2791 13.3766   4
  -1 -10  14 62.0660 12.9401   8
   1 -10 -14 30.5136 12.5961   3
   1 -10 -15 64.8441 13.3371   3
  -1 -10  15 49.4641 13.2180   8
  -1  10 -15 49.6902 14.5440   4
  -1  10 -16 2.44753 12.3832   4
  -1 -10  16 2.95187 11.5457   8
   1 -10 -16 30.1789 12.2600   3
   1 -10 -17 24.7379 12.2825   3
  -1  10 -17 16.7881 13.1316   4
  -1 -10  17 23.1687 11.9968   8
   1 -10 -18 18.5412 12.2364   3
  -1 -10  18-0.64474 11.7653   8
  -1  10 -18-7.99310 12.7902   4
  -1  10 -19 17.1188 14.0899   4
  -1 -10  19 33.3519 12.3977   8
   1 -10 -19 41.3690 13.0116   3
   1 -10 -20 10.6659 12.1919   3
  -1 -10  20 3.97837 11.9190   8
  -1  10 -20 6.18568 13.7430   4
   1 -10 -21 0.24620 12.0367   3
  -1  10 -21-3.82095 13.9725   4
  -1 -10  21-1.79853 11.5991   8
   1 -11  19 21.0738 13.3980   8
  -1 -11 -19 4.14572 12.7092   3
  -1 -11 -18 1.80643 12.5045   3
   1  11 -18 10.8907 13.4146   4
   1 -11  18 2.02354 13.4878   8
  -1 -11 -17-1.04857 12.7884   3
   1  11 -17 0.27913 12.3941   4
   1 -11  17 20.5292 13.2852   8
   1  11 -16 0.26645 12.0997   4
  -1 -11 -16 0.76804 12.6748   3
   1 -11  16 15.8462 12.3074   8
   1 -11  15 19.7083 12.3843   8
   1  11 -15-4.48669 12.0335   4
  -1 -11 -15-1.77171 12.4141   3
   1 -11  14 12.8301 12.0365   8
  -1 -11 -14 23.6119 12.8838   3
   1  11 -14 9.77580 12.3363   4
   1  11 -13-2.58328 11.9441   4
   1 -11  13 19.6763 11.8302   8
  -1 -11 -13 5.93519 12.3595   3
   1  11 -12 1.75650 11.6140   4
  -1 -11 -12 0.24869 12.6955   3
   1  11 -11 4.41200 11.4043   4
  -1 -11 -11 1.98342 12.9159   3
   1  11 -10 11.2730 11.7040   4
  -1 -11 -10 52.8946 12.4592   3
  -1 -11  -9-1.13775 11.9025   3
   1  11  -9 0.23323 11.1733   4
   1 -11   9 5.77555 10.4366   6
  -1 -11  -8 9.04792 11.5608   3
   1 -11   8 1.92062 10.7705   6
   1  11  -8 23.6994 10.5291   9
   1  11  -8-7.38431 10.8459   4
  -1 -11  -7 29.7343 11.8535   3
   1  11  -7 3.80285 10.2868   9
   1 -11   7 11.9444 11.2230   6
   1  11  -7 4.09800 10.9792   4
   1  11  -6 70.6275 11.9991   9
  -1 -11  -6 41.5475 13.0202   3
   1  11  -6 35.8879 12.2045   4
   1 -11   6 49.6129 12.8778   6
   1  11  -5-3.55443 10.0611   9
   1  11  -5 4.41905 10.4413   4
  -1 -11  -5 22.8159 11.2832   3
  -1  11   5-6.04685 9.31231   4
   1  11  -4 26.3508 10.3773   9
  -1 -11  -4 22.7343 11.2339   3
  -1  11   4 19.1035 9.73339   4
   1  11  -4 23.0399 10.6782   4
  -1  11   3 2.16983 9.42334   4
   1  11  -3 0.32571 9.83694   9
  -1 -11  -3-4.39041 10.3764   3
   1  11  -3 8.57358 10.4157   4
   1  11  -2 47.5501 11.9043   9
  -1 -11  -2 72.3388 12.5469   3
  -1  11   2 41.1541 11.5231   4
   1  11  -2 50.5022 11.9440   4
  -1  11   1 11.6543 9.86700   4
   1  11  -1 3.21653 10.2230   4
   1  11  -1 20.1744 10.3125   9
   1  11   0 52.9479 11.9698   4
  -1  11   0 53.1663 11.8394   4
   1  11   0 51.2295 11.7734   9
   1  11   1 7.56778 10.0651   4
   1 -11  -1 10.5878 10.0827   3
  -1  11  -1 8.53322 10.2538   4
   1  11   2 52.5081 11.9560   4
  -1  11  -2 60.9929 12.3224   4
   1 -11  -2 48.4721 11.7882   3
   1  11   3-3.19579 10.1668   4
   1 -11  -3-0.19305 10.4023   3
  -1 -11   3 21.4579 11.9868   6
  -1  11  -3 4.26457 10.4590   4
  -1  11  -4 20.7568 11.2046   4
   1 -11  -4 23.5256 11.2263   3
   1  11   4 25.2783 10.6027   4
  -1 -11   4 32.5911 11.6896   6
  -1 -11   5 21.6126 11.3994   6
   1  11   5 8.55380 10.1935   4
   1 -11  -5 13.3593 10.9456   3
  -1  11  -5 7.74434 10.7088   4
  -1 -11   6 42.9933 12.0730   6
  -1  11  -6 43.9909 12.1829   4
   1  11   6 47.5000 11.6288   4
   1 -11  -6 44.5943 11.8204   3
  -1 -11   7-5.53048 11.0945   6
   1  11   7 14.9813 10.4214   4
  -1  11  -7 9.83810 11.0197   4
   1 -11  -7 30.7697 11.1615   3
   1  11   8 11.1351 10.9409   4
   1 -11  -8-4.29982 11.3048   3
  -1  11  -8 12.0099 11.3713   4
  -1 -11   8 15.5332 11.2318   6
   1  11   9 12.9601 10.4693   4
  -1  11  -9 5.70485 11.6004   4
  -1 -11   9 3.99778 11.0824   6
   1 -11  -9 1.12223 11.6846   3
  -1 -11   9 23.7028 11.3759   8
   1 -11 -10 17.9006 12.0425   3
  -1  11 -10 21.6494 12.2502   4
  -1 -11  10 21.3836 11.6213   6
  -1 -11  10 42.5275 11.8865   8
   1 -11 -11 17.9567 12.0220   3
  -1 -11  11-2.61201 11.2805   6
  -1  11 -11-4.08831 11.7668   4
  -1 -11  11 21.7132 11.5273   8
  -1  11 -12 9.81936 12.0281   4
  -1 -11  12 4.63826 11.3056   6
   1 -11 -12 17.5501 12.0694   3
  -1 -11  12 15.3775 11.6710   8
  -1  11 -13-14.2958 12.3932   4
   1 -11 -13 2.77790 11.9407   3
  -1 -11  13 3.92180 11.8906   8
  -1 -11  14 18.3396 12.0489   8
   1 -11 -14 0.70129 11.9790   3
  -1  11 -14 25.2428 12.9760   4
   1 -11 -15-2.11387 11.8122   3
  -1 -11  15 5.04696 11.8252   8
  -1  11 -15 9.59337 14.1049   4
  -1  11 -16 0.88219 13.1382   4
   1 -11 -16-7.88186 11.9481   3
  -1 -11  16 15.0171 12.0727   8
  -1  11 -17-5.60419 13.2117   4
   1 -11 -17 7.99126 11.8610   3
  -1 -11  17 8.81712 12.1442   8
  -1  11 -18-3.23873 13.3033   4
  -1 -11  18 16.1842 12.0375   8
   1 -11 -18 2.93511 12.0811   3
  -1  11 -19 0.31394 13.6854   4
   1 -11 -19 0.25194 12.0979   3
  -1 -11  19-0.91615 11.8519   8
  -1  11 -20-7.53590 13.9491   4
   1  12 -17 0.29677 12.8212   4
   1  12 -16 0.28758 12.6119   4
  -1 -12 -16 1.35338 13.1566   3
   1 -12  16 20.7571 13.4631   8
   1  12 -15 12.7191 12.7181   4
  -1 -12 -15 6.83669 13.4777   3
   1 -12  15 13.5878 12.6466   8
  -1 -12 -14 12.3035 13.6425   3
   1 -12  14 35.5970 12.6287   8
   1  12 -14 3.37587 12.7191   4
  -1 -12 -13 4.44769 13.2506   3
   1  12 -13-3.35933 12.6490   4
   1 -12  13 7.91795 12.3507   8
  -1 -12 -12 7.82480 12.6908   3
   1  12 -12 17.1237 12.4699   4
   1 -12  12 18.0487 12.0428   8
   1  12 -11 18.2660 12.6649   4
  -1 -12 -11 43.6024 13.4482   3
   1  12 -10 12.1112 12.5921   4
  -1 -12 -10 25.0884 12.5349   3
   1  12  -9 32.6090 12.7091   4
  -1 -12  -9 49.6798 13.4105   3
   1 -12   8 11.7407 11.4310   6
   1  12  -8-7.08339 11.8456   4
   1 -12   7 5.04397 11.7053   6
  -1 -12  -7 22.6254 12.8584   3
   1  12  -7 10.7938 11.7112   4
  -1 -12  -6 32.2398 12.4021   3
   1  12  -6 38.1906 12.2121   4
   1 -12   6 35.4872 12.8358   6
   1  12  -5 5.07090 11.3430   4
  -1 -12  -5 19.1269 11.6503   3
   1 -12   5 20.1386 12.5483   6
   1  12  -4 18.4173 11.2843   4
  -1  12   4 6.68944 10.0921   4
  -1 -12  -4 14.5065 11.2967   3
  -1 -12  -3 29.1038 11.7107   3
   1  12  -3 20.0710 11.4969   4
  -1  12   3 6.75641 10.2650   4
  -1  12   2 18.2122 10.5946   4
   1  12  -2 14.5511 11.0915   4
   1  12  -1-2.54326 10.6119   4
  -1  12   1-4.71520 10.2608   4
  -1  12   0 19.0836 11.0411   4
   1  12   0-4.88405 10.6454   4
  -1  12  -1-9.01898 10.6488   4
   1  12   1 5.33101 10.7669   4
   1  12   2 14.0704 11.2528   4
  -1  12  -2 22.5298 11.3071   4
  -1 -12   2 36.0476 12.9097   6
   1  12   3 10.7639 10.8442   4
  -1  12  -3 0.23894 11.2762   4
  -1 -12   3 28.5807 12.3816   6
  -1 -12   4 6.77116 12.0771   6
  -1  12  -4 24.6220 11.2273   4
   1 -12  -4 10.1915 10.8790   3
   1  12   4 18.2116 10.5799   4
   1 -12  -5 34.9075 11.9169   3
  -1 -12   5 25.3250 12.0146   6
   1  12   5 23.6637 11.0529   4
  -1  12  -5-3.22874 11.3493   4
   1  12   6 33.0321 11.6329   4
  -1  12  -6 18.8971 12.0487   4
   1 -12  -6 50.8651 12.6001   3
  -1 -12   6 21.4075 12.0597   6
   1  12   7 8.39623 10.9256   4
  -1 -12   7 15.2937 11.6518   6
   1 -12  -7 2.63255 11.2154   3
  -1  12  -7 19.8793 11.8866   4
   1  12   8 8.83996 11.0378   4
  -1 -12   8 24.0870 11.9287   6
   1 -12  -8 26.5164 11.8608   3
  -1  12  -8 17.5489 12.2968   4
  -1 -12   9 31.0032 12.9002   6
   1 -12  -9 47.5608 13.0656   3
  -1  12  -9 59.5698 13.6923   4
  -1 -12  10 19.5924 12.0306   6
  -1  12 -10 0.27488 12.7093   4
   1 -12 -10 11.8989 12.0063   3
  -1 -12  11 6.25303 12.0450   6
   1 -12 -11 31.7984 13.0256   3
  -1  12 -11 27.2155 13.0755   4
  -1  12 -12 30.3006 12.8490   4
   1 -12 -12 18.3497 12.6263   3
  -1 -12  12-0.39921 11.8453   6
   1 -12 -13 1.74882 12.2600   3
  -1  12 -13 16.4560 12.6705   4
  -1 -12  13 6.77059 12.0578   8
  -1  12 -14 21.2325 13.8052   4
   1 -12 -14 2.27606 12.5767   3
  -1 -12  14 5.89723 11.9409   8
  -1  12 -15 4.10303 13.6999   4
   1 -12 -15 0.76725 12.4656   3
  -1 -12  15 13.6897 11.9840   8
  -1  12 -16 7.50901 13.8172   4
   1 -12 -16 0.51707 12.4242   3
  -1 -12  16 20.5288 12.2795   8
  -1 -12  17 7.28751 12.2460   8
  -1  12 -17 2.50143 13.6443   4
   1  13 -13 2.39472 13.1446   4
   1 -13  13 13.6640 12.6049   8
  -1 -13 -12 0.26147 12.6372   3
   1  13 -12-2.34971 12.7297   4
   1 -13  12 9.58456 12.2506   8
  -1 -13 -11 0.26764 12.9119   3
   1  13 -11 4.87120 12.7639   4
   1  13 -10 0.28141 12.5212   4
  -1 -13 -10-0.26689 12.8377   3
   1  13  -9 10.8586 12.4820   4
  -1 -13  -9-1.06865 12.9873   3
   1  13  -8-1.61693 11.9227   4
  -1 -13  -8 3.23447 12.0762   3
   1 -13   7 9.16810 11.9278   6
   1  13  -7 4.59234 12.1069   4
  -1 -13  -7 0.49574 12.1691   3
  -1 -13  -6 1.91370 11.8418   3
   1 -13   6-2.52212 12.1926   6
   1  13  -6-13.5972 12.0085   4
   1  13  -5 7.12489 12.1338   4
  -1 -13  -5 15.8142 12.0335   3
   1 -13   5 31.9166 12.8225   6
   1 -13   4 11.7536 12.9786   6
  -1 -13  -4 4.02778 11.9557   3
   1  13  -4 11.3322 12.0528   4
   1  13  -3 37.7222 12.2362   4
  -1  13   3 24.6469 11.6405   4
   1  13  -2 13.6177 11.9045   4
  -1  13   2 15.1923 11.3528   4
   1  13  -1 19.9288 11.6899   4
  -1  13   1 4.92812 11.3289   4
  -1  13   0-0.24613 11.3592   4
   1  13   0 15.0173 11.2578   4
  -1  13  -1 1.50906 11.6181   4
  -1 -13   1 19.0201 13.4924   6
   1  13   1 18.6336 11.7440   4
  -1 -13   2 25.4376 13.4341   6
   1  13   2 12.4922 11.6731   4
  -1  13  -2 6.13719 11.6983   4
   1  13   3 20.2951 11.6146   4
  -1  13  -3 13.3146 12.1290   4
  -1 -13   3 15.4200 12.9870   6
  -1 -13   4 2.56880 12.5767   6
  -1  13  -4 1.06200 12.2290   4
   1  13   4-1.74231 11.2795   4
  -1  13  -5 0.26896 12.0859   4
  -1 -13   5 17.5505 12.2962   6
   1  13   5-9.15357 11.0108   4
   1  13   6-12.7715 11.2038   4
  -1 -13   6 0.21160 12.2686   6
  -1  13  -6-14.0833 12.3840   4
   1  13   7 4.68859 10.8475   4
  -1 -13   7 3.01376 12.6695   6
  -1  13  -7-3.62234 12.4117   4
  -1 -13   8 7.00685 12.2474   6
  -1  13  -8-9.68697 12.5876   4
  -1  13  -9 15.1584 12.9328   4
   1 -13  -9-0.98705 12.2591   3
  -1 -13   9-0.42677 12.1586   6
  -1  13 -10-2.91339 12.5857   4
   1 -13 -10-11.9162 11.7844   3
  -1 -13  10 0.21507 12.3257   6
   1 -13 -11 0.24743 12.0055   3
  -1 -13  11 0.21591 12.1363   6
  -1  13 -11 7.33094 12.7169   4
  -1  13 -12-4.13444 12.6481   4
  -1 -13  12 32.2616 12.0119   6
   1 -13 -12-0.25226 12.2864   3
   1 -13 -13 0.25533 12.0974   3
  -1 -14  -7 0.25744 11.9522   3
  -1 -14  -6 3.54875 12.2118   3
   1 -14   6 0.21804 12.3088   6
   1 -14   5 0.22573 12.6294   6
   1  14  -5-8.18214 12.0801   4
   1 -14   4 0.23037 12.9390   6
   1  14  -4-0.83200 11.9009   4
   1  14  -3 3.63009 12.3755   4
   1 -14   3 0.95555 13.4708   6
   1 -14   2 0.23906 13.6412   6
   1  14  -2 22.7557 12.1825   4
  -1  14   2 17.8447 11.5769   4
  -1 -14  -1 3.45953 13.7612   6
  -1  14   1 2.90828 11.5212   4
   1  14  -1-3.53350 12.0222   4
   1  14   0 2.17783 11.7781   4
  -1 -14   0 1.73075 13.8584   6
  -1  14   0 7.26059 11.9107   4
   1  14   1 1.87895 11.7713   4
  -1  14  -1 5.37614 11.7897   4
  -1 -14   1 15.7454 13.4860   6
  -1  14  -2-2.97821 11.7716   4
  -1 -14   2 0.23721 13.2535   6
   1  14   2 1.60284 11.5733   4
  -1 -14   3 1.38160 13.0941   6
  -1  14  -3 11.7813 12.3282   4
   1  14   3-2.11731 11.4232   4
   1  14   4 0.26271 11.2103   4
  -1 -14   4-0.22421 12.5881   6
  -1  14  -4 0.28388 12.2542   4
  -1 -14   5 0.22288 12.3723   6
  -1  14  -5 22.6414 12.8324   4
   1  14   5 0.79157 11.5088   4
   1  14   6 1.84932 11.2847   4
  -2   0   0 77850.2 8617.12   4
   2   0   0 77043.5 8617.11   4
   2   0  -1 935.516 125.194   9
   2   0  -1 1238.41 125.235   4
  -2   0  -1 1286.81 125.287   4
   2   0   1 1365.32 125.280   4
   2   0   1 1117.36 125.237   7
  -2   0   1 1290.57 125.251   4
   2   0   1 1053.79 125.188   3
   2   0  -2 938.210 123.019   9
   2   0   2 1423.06 123.126   4
  -2   0  -2 912.797 123.002   3
  -2   0   2 1376.06 123.053   4
   2   0   2 1060.90 123.005   3
   2   0   2 1160.93 123.056   7
   2   0  -2 1225.16 123.087   2
   2   0  -2 1214.33 123.046   4
  -2   0  -2 1261.77 123.056   7
  -2   0   2 1017.92 123.017   9
  -2   0  -2 1361.91 123.135   4
   2   0   3 380.706 39.7320   3
  -2   0   3 394.853 39.7419   4
  -2   0  -3 420.714 39.7876   7
  -2   0   3 430.570 39.9135   2
  -2   0  -3 329.014 39.7401   3
  -2   0  -3 503.910 40.0049   4
   2   0  -3 426.000 39.8650   2
   2   0  -3 371.586 39.7571   4
   2   0   3 354.405 39.7707   7
   2   0   3 377.980 39.7354   5
  -2   0   3 320.199 39.7575   9
   2   0   3 499.619 39.9482   4
  -2   0  -4 11614.5 1112.67   4
  -2   0  -4 9963.32 1112.56   7
  -2   0   4 10589.7 1112.62   2
   2   0   4 9337.64 1112.56   7
   2   0  -4 9852.01 1112.59   2
   2   0   4 9945.03 1112.54   3
   2   0   4 10375.6 1112.61   1
   2   0   4 11601.8 1112.64   4
  -2   0  -4 9189.96 1112.54   3
  -2   0  -5 97.9152 10.6155   7
  -2   0  -5 84.2994 10.5019   5
   2   0   5 91.8982 10.6486   7
  -2   0  -5 109.724 11.3179   4
   2   0   5 107.946 10.6505   3
  -2   0   5 106.118 11.0771   2
  -2   0  -5 113.807 10.7566   1
  -2   0  -5 83.4230 10.6786   3
  -2   0  -6 2298.58 244.386   7
  -2   0   6 2182.01 244.457   2
  -2   0  -6 1971.82 244.372   3
  -2   0  -6 2765.14 244.567   4
   2   0   6 2066.27 244.379   7
  -2   0  -6 2348.64 244.426   1
  -2   0   7 98.0307 10.8601   4
  -2   0  -7 150.885 11.2159   1
  -2   0  -7 172.858 12.1115   4
   2   0  -7 58.1327 10.8736   4
  -2   0   7 131.978 11.5867   2
  -2   0  -7 133.591 11.0265   7
  -2   0  -7 109.063 11.2072   3
  -2   0  -8 6.54427 1.96007   7
  -2   0  -8 7.65030 4.99911   4
   2   0  -8 4.86056 1.73934   4
  -2   0  -8 6.10130 3.17291   3
  -2   0   8 7.11579 1.42064   4
  -2   0   8 7.34595 4.04829   2
  -2   0  -9 110.498 12.0880   7
   2   0   9 123.245 12.4626   4
  -2   0   9 121.057 12.7921   2
  -2   0   9 119.428 11.9542   4
   2   0  -9 70.0372 12.0488   4
  -2   0  -9 107.640 13.2450   4
  -2   0  -9 106.537 12.4085   3
   2   0 -10 875.887 127.179   4
   2   0 -10 1339.42 127.303   8
  -2   0 -10 1213.00 127.286   3
  -2   0 -10 1294.52 127.493   4
  -2   0  10 1131.45 127.406   2
  -2   0 -10 1200.76 127.229   7
   2   0  10 1381.17 127.364   4
  -2   0  11 2.74024 4.92950   2
   2   0  11 0.69988 3.67057   4
   2   0 -11 3.04604 3.03128   4
  -2   0 -11 4.51532 4.19874   3
  -2   0 -11 6.15420 5.94870   4
  -2   0 -11 1.22469 2.18698   7
   2   0 -12 758.415 112.301   4
  -2   0  12 1162.41 112.562   2
  -2   0 -12 1156.54 112.431   3
  -2   0 -12 1210.54 112.690   4
   2   0  12 1112.62 112.380   8
  -2   0 -13 2.55486 4.75312   3
  -2   0 -13-1.02805 6.68295   4
   2   0  13 4.36935 4.50573   8
  -2   0  13 5.38840 5.64137   2
  -2   0 -14 640.581 85.4373   4
  -2   0  14 763.130 85.3586   2
   2   0  14 756.202 85.2041   8
  -2   0 -14 852.220 85.2556   3
  -2   0 -15 285.903 26.2270   3
  -2   0 -15 209.395 26.7438   4
  -2   0  15 230.587 26.3750   2
   2   0  15 186.597 26.0802   8
  -2   0  16-1.30613 6.68662   2
  -2   0 -16 12.6511 8.04671   4
  -2   0 -16 8.27927 5.83834   3
   2   0  17 37.4448 8.13989   2
  -2   0 -17 27.0149 9.75285   4
  -2   0 -17 56.5057 7.60332   3
  -2   0  17 27.7850 8.41370   2
  -2   0 -18 728.909 95.9512   4
  -2   0 -18 899.657 95.5562   3
  -2   0  18 879.657 95.7170   2
   2   0  18 859.590 95.6340   2
   2   0  19 19.9211 7.59386   2
  -2   0 -19 22.8025 10.2435   4
  -2   0 -19 21.9361 7.38320   3
  -2   0  19 16.4739 7.95946   2
   2   0  20 262.193 27.5003   2
  -2   0 -20 170.375 28.5140   4
  -2   0  20 242.773 27.5441   2
  -2   0  21 23.0423 8.41399   2
   2   0  21 2.72691 8.16171   2
  -2   0  22-2.65158 8.36705   2
   2   0  22 9.18473 8.21535   2
   2   0 -23-0.57520 9.98927   3
  -2   0  23-21.4904 9.09238   2
   2   0  23 1.04873 8.67268   2
   2   0 -24 11.7601 10.8155   3
  -2   0  24 0.58239 9.44228   2
   2   0  24 17.1305 8.83283   2
   2   0 -25 0.83723 10.6715   3
  -2   0  25 3.38936 9.50639   2
   2   0  25 0.36298 8.61191   2
  -2   0  26-10.3768 9.77636   2
   2   0  26 8.38095 8.98509   2
   2   0 -26-4.77681 11.0585   3
  -2   0  27-4.49427 10.1535   2
   2   0  27-2.21357 9.33734   2
   2   0 -27 10.7291 11.4442   3
  -2   0  28-10.2317 10.1478   2
   2   0 -28 12.2176 12.1945   3
   2   0 -29-0.24208 12.0556   3
  -2   0  29-0.46060 10.3883   2
   2   0 -30 0.24299 11.7442   3
  -2   0  30 1.65160 10.7459   2
  -2   0  31-0.72190 10.3793   2
   2   1 -30 0.24739 12.0424   3
   2  -1  30 7.79441 10.2936   2
   2   1 -29 3.63739 12.0074   3
  -2   1  29-5.66955 10.4955   2
   2  -1  29 14.6442 10.2608   2
   2   1 -28 17.5735 12.1216   3
  -2   1  28 12.1475 10.2908   2
   2  -1  28 16.5913 10.0750   2
   2  -1  27 38.2855 10.3770   2
  -2   1  27 25.1266 10.9747   2
   2   1 -27 34.8701 12.6209   3
  -2   1  26 97.9220 14.0032   2
   2   1 -26 83.4403 14.8946   3
   2  -1  26 74.0034 13.4646   2
  -2   1  25 1.40784 9.44923   2
   2  -1  25 10.6856 9.26396   2
  -2   1  24 9.99337 9.50878   2
   2  -1  24 30.2839 9.51421   2
   2  -1  23 84.3678 12.8249   2
  -2   1  23 71.5643 12.8579   2
  -2   1  22 16.1690 8.87252   2
   2  -1  22 18.9031 8.76313   2
   2  -1  21 19.3191 8.30171   2
  -2   1  21 22.0481 8.44187   2
  -2  -1 -21 8.14262 7.65984   3
  -2   1  20 14.0491 8.23421   2
   2  -1  20 4.60418 7.72560   2
  -2  -1 -20 10.3761 7.38327   3
  -2   1  19 20.6817 8.60895   2
  -2  -1 -19 47.7255 7.87920   3
   2  -1  19 28.3521 8.45103   2
  -2  -1 -19 34.8368 10.4837   4
  -2   1  18 3.61064 7.59594   2
   2  -1  18 18.6146 7.34680   2
  -2  -1 -18 2.01898 9.61604   4
  -2  -1 -18 14.5529 6.79335   3
  -2   1  17 114.622 17.2452   2
  -2  -1 -17 135.525 18.3704   4
   2  -1  17 155.160 17.0190   8
  -2  -1 -17 143.560 16.8826   3
  -2  -1 -16 33.7821 9.49486   4
  -2  -1 -16 28.2039 6.62808   3
  -2   1  16 14.3301 7.41263   2
   2  -1  16 33.2478 7.22935   8
  -2   1  15 140.870 18.3470   2
  -2  -1 -15 133.575 19.1967   4
  -2  -1 -15 158.501 18.0411   3
   2  -1  15 163.874 18.1090   8
   2  -1  14 581.509 66.5862   8
  -2  -1 -14 564.114 66.9827   4
  -2  -1 -14 645.026 66.6278   3
  -2   1  14 571.592 66.7376   2
  -2  -1 -13 442.778 43.6655   4
   2   1 -13 317.526 42.9538   4
  -2   1  13 395.926 43.3160   2
  -2  -1 -13 462.951 43.1878   3
  -2   1  12 201.308 20.3341   2
  -2  -1 -12 189.924 20.8435   4
   2   1 -12 141.873 19.7568   4
  -2  -1 -12 202.488 20.0991   3
  -2  -1 -11 53.3460 6.78659   3
  -2  -1 -11 42.5471 8.47098   4
   2   1 -11 40.7471 5.94206   4
  -2   1  11 39.2668 7.08434   2
  -2  -1 -10 322.831 35.5731   4
   2  -1  10 388.808 35.1614   4
   2   1 -10 293.621 34.9679   4
  -2   1  10 300.071 35.2850   2
  -2  -1 -10 293.473 34.8887   7
  -2  -1 -10 327.776 35.1467   3
  -2  -1  -9 2010.95 213.043   7
   2   1  -9 2389.74 213.177   2
  -2  -1  -9 2584.03 213.370   4
  -2   1   9 2326.76 213.215   2
  -2   1   9 1652.53 212.988   4
  -2  -1  -9 2093.05 213.134   3
   2   1  -9 1867.45 213.073   4
  -2   1   8 27.5242 4.98476   2
   2   1  -8 27.7662 3.96842   2
  -2  -1  -8 34.4249 4.50246   3
   2   1  -8 16.3860 3.51215   4
  -2  -1  -8 37.7122 6.32240   4
  -2  -1  -8 21.3548 3.05481   7
  -2  -1  -7 307.947 33.7708   7
  -2  -1  -7 337.679 33.8737   1
  -2  -1  -7 315.809 34.2665   4
  -2   1   7 283.701 34.0840   2
  -2  -1  -7 309.780 33.9459   3
   2   1  -7 257.360 33.8058   4
   2   1  -7 328.344 33.9153   2
  -2  -1  -6 2198.52 232.759   1
  -2  -1  -6 2514.24 232.926   4
  -2   1   6 2265.68 232.835   2
   2   1  -6 2168.98 232.781   2
  -2  -1  -6 2007.72 232.761   3
  -2  -1  -6 1962.25 232.692   7
   2   1  -6 2114.98 232.710   4
   2  -1   6 1957.92 232.763   7
   2   1  -5 3767.15 430.188   4
   2  -1   5 3585.60 430.231   7
   2   1  -5 3874.94 430.246   8
  -2   1   5 3965.49 430.275   2
  -2  -1  -5 3502.28 430.172   7
   2  -1   5 4285.40 430.280   4
   2   1  -5 3932.82 430.243   2
  -2  -1  -5 5043.58 430.256   1
  -2  -1  -5 3964.26 430.334   4
  -2  -1  -5 3682.71 430.218   3
  -2   1   4 294.606 29.4782   2
   2  -1   4 272.850 29.3331   7
  -2  -1  -4 260.447 29.2277   7
  -2  -1  -4 365.729 29.6380   4
  -2  -1  -4 257.360 29.3279   3
   2  -1   4 321.874 29.4236   4
   2   1  -4 291.118 29.3432   2
   2  -1   4 333.492 29.4335   1
   2   1  -4 279.347 29.2674   4
   2   1  -3 58.2732 6.20977   2
   2  -1   3 64.2525 6.29966   7
   2   1  -3 59.0858 6.50071   9
  -2  -1  -3 40.9867 6.24068   3
  -2   1   3 34.5197 5.97828   4
   2  -1   3 70.5554 6.49578   1
   2   1  -3 62.2631 6.12233   4
  -2  -1  -3 62.3242 7.06379   4
   2  -1   3 65.9388 6.43703   4
   2   1  -2 764.945 85.3511   4
   2  -1   2 826.366 85.3651   5
   2   1  -2 897.672 85.4058   4
  -2  -1  -2 908.622 85.5452   4
   2   1  -2 787.249 85.3837   9
  -2  -1  -2 677.281 85.3522   3
  -2   1   2 594.526 85.3303   4
   2   1  -2 896.961 85.3844   2
   2  -1   2 957.302 85.4173   4
   2  -1   2 799.466 85.3810   7
  -2  -1  -2 697.375 85.3251   6
   2   1  -1 818.163 80.5053   4
  -2  -1  -1 626.190 80.4216   3
   2  -1   1 786.704 80.4817   7
   2  -1   1 723.245 80.4421   5
  -2   1   1 609.302 80.4280   4
  -2  -1  -1 686.320 80.4168   6
   2   1  -1 826.651 80.4468   2
  -2  -1  -1 831.778 80.5794   4
   2   1  -1 701.472 80.4344   6
   2  -1   1 797.888 80.4594   4
   2   1   0 1063.57 118.100   3
  -2  -1   0 1186.99 118.208   4
  -2   1   0 1012.99 118.109   4
   2  -1   0 1009.31 118.096   4
   2  -1   0 1126.79 118.146   7
   2   1   0 1066.42 118.090   6
   2  -1   0 980.498 118.116   5
   2   1   0 1171.27 118.186   4
  -2  -1   1 513.020 61.6044   4
   2   1   1 583.583 61.5382   6
   2   1   1 565.406 61.5540   3
   2   1   1 598.974 61.6474   4
  -2   1  -1 574.871 61.5972   4
   2  -1  -1 472.411 61.5275   4
  -2   1  -1 600.909 61.5606   5
  -2   1  -2 795.840 74.3587   5
   2   1   2 724.003 74.4806   4
  -2  -1   2 781.360 74.4035   2
   2   1   2 636.152 74.3413   3
  -2   1  -2 784.020 74.4210   4
   2  -1  -2 539.625 74.3030   4
  -2  -1   3 72.7032 6.91837   4
  -2   1  -3 85.0758 6.89445   5
   2  -1  -3 49.9366 6.72608   4
   2   1   3 86.9236 7.48567   4
  -2   1  -3 80.3081 7.42731   4
  -2  -1   3 90.0726 7.47194   2
   2   1   3 68.3874 6.95076   3
  -2  -1   3 70.9229 7.04581   9
   2   1   3 59.3880 6.81050   7
   2   1   4 396.034 40.5191   3
   2   1   4 416.194 40.5429   1
  -2   1  -4 406.936 40.6688   4
  -2   1  -4 339.107 40.4421   3
   2   1   4 345.977 40.4586   7
  -2  -1   4 378.161 40.6068   2
  -2  -1   4 348.184 40.4768   4
  -2   1  -4 376.141 40.5244   7
  -2  -1   5 3563.53 407.930   4
  -2   1  -5 3705.92 407.978   7
  -2   1  -5 4010.39 408.051   4
  -2  -1   5 3674.42 408.009   2
   2   1   5 3795.85 407.961   3
   2   1   5 3566.66 407.920   7
  -2  -1   6 2211.64 257.164   4
   2   1   6 2520.23 257.216   3
  -2   1  -6 2446.22 257.310   4
  -2  -1   6 2290.73 257.266   2
  -2   1  -6 2228.38 257.213   7
  -2   1  -7 260.547 33.1420   7
  -2   1  -7 336.871 33.4718   4
  -2  -1   7 282.273 33.3388   2
   2   1   7 325.583 33.2126   3
  -2  -1   7 304.157 33.1077   4
  -2   1  -8 55.9638 7.18982   6
  -2  -1   8 74.4038 7.30484   4
  -2   1  -8 42.0930 8.41169   4
   2   1   8 78.5895 7.60309   3
  -2   1  -8 56.1960 7.30930   7
  -2  -1   8 60.3494 8.15089   2
   2   1   9 2289.90 201.906   4
  -2   1  -9 2043.70 201.770   7
  -2   1  -9 2256.39 201.684   6
  -2  -1   9 2224.38 201.890   2
  -2  -1   9 2388.04 201.717   4
  -2   1  -9 2418.64 201.975   4
  -2   1 -10 234.535 25.7984   4
   2   1  10 246.363 25.5226   4
   2   1  10 239.164 25.2070   8
  -2   1 -10 250.401 25.2040   7
  -2  -1  10 270.175 25.6482   2
  -2  -1  10 307.335 25.1348   4
   2   1  11 41.5744 5.76391   4
   2  -1 -11 19.8514 4.68505   4
  -2   1 -11 34.9000 7.27031   4
  -2   1 -11 38.6469 4.69482   7
   2   1  11 46.3965 5.28771   8
  -2  -1  11 37.7224 6.54256   2
   2   1  12 203.245 20.5464   8
  -2  -1  12 201.533 21.0956   2
  -2   1 -12 163.050 21.3869   4
  -2   1 -12 163.557 20.3740   7
   2   1  13 438.872 48.5948   8
  -2   1 -13 404.348 48.6841   3
  -2  -1  13 459.467 48.9562   2
  -2   1 -13 454.358 49.0971   4
  -2   1 -14 420.172 56.1733   4
  -2  -1  14 498.702 56.0498   2
  -2   1 -14 540.118 55.8316   3
  -2   1 -15 153.160 15.6896   3
  -2   1 -15 103.680 16.5689   4
  -2  -1  15 114.825 16.1846   2
   2   1  15 131.871 15.6484   2
  -2  -1  16 4.38755 7.19685   2
  -2   1 -16 9.95766 8.45675   4
   2   1  16 14.2309 5.93719   2
  -2   1 -16 23.7267 6.06848   3
   2   1  17 95.9875 13.1326   2
  -2  -1  17 104.629 13.7624   2
  -2   1 -17 111.597 13.0959   3
  -2   1 -17 92.6135 14.8549   4
  -2   1 -18 6.18810 9.52523   4
  -2  -1  18 3.05519 7.60063   2
   2  -1 -18 27.0052 8.58656   3
   2   1  18 7.90736 6.70174   2
   2  -1 -19 22.7614 9.78824   3
  -2  -1  19 29.0554 8.69391   2
  -2   1 -19 34.0778 10.4134   4
   2   1  19 39.2213 8.17768   2
   2  -1 -20-0.33384 9.15318   3
  -2  -1  20 1.66198 8.02345   2
  -2   1 -20 15.1799 9.79377   4
   2   1  20 8.11622 7.26140   2
   2  -1 -21 13.4602 9.87555   3
  -2  -1  21 0.86875 8.53755   2
   2   1  21 9.58010 7.60797   2
   2  -1 -22 35.2855 10.5781   3
  -2  -1  22 15.6231 9.36657   2
   2   1  22 35.0950 8.62137   2
  -2  -1  23 58.0878 12.1282   2
   2  -1 -23 71.5246 12.9461   3
   2   1  23 73.0453 11.2106   2
   2   1  24 16.8306 8.98315   2
  -2  -1  24 30.0006 9.76792   2
  -2  -1  25 7.67880 9.62975   2
   2  -1 -25 3.34661 10.9199   3
   2  -1 -26 70.7050 14.3445   3
  -2  -1  26 80.5508 13.4098   2
   2  -1 -27 18.1040 11.3867   3
  -2  -1  27 17.0430 10.5098   2
  -2  -1  28 27.3944 10.5267   2
   2  -1 -28 21.3588 11.8205   3
   2  -1 -29 0.23261 11.5374   3
  -2  -1  29-2.98950 10.4048   2
   2  -1 -30 0.24667 12.0326   3
  -2  -1  30 1.90096 10.6027   2
   2   2 -30 14.4664 12.7024   3
   2  -2  30 29.1800 10.9452   2
   2   2 -29 0.24545 12.0726   3
   2  -2  29 11.5071 10.1447   2
   2  -2  28 21.0437 10.4177   2
   2  -2  27 13.3033 10.0198   2
   2  -2  26 0.20869 9.80143   2
  -2   2  25 17.8549 9.58993   2
   2  -2  25 2.02807 9.56765   2
  -2   2  24 60.8333 12.5297   2
   2  -2  24 83.0414 12.7344   2
  -2   2  23 9.17220 9.21513   2
   2  -2  23 21.8895 9.34193   2
  -2  -2 -23 10.6815 8.25127   3
   2  -2  22 184.333 21.5108   2
  -2  -2 -22 158.715 20.9620   3
  -2   2  22 174.283 21.4125   2
   2  -2  21 152.177 18.9918   2
  -2   2  21 145.089 19.1131   2
  -2  -2 -21 153.293 18.7447   3
   2  -2  20 23.4149 8.75194   2
  -2  -2 -20 26.0247 8.15475   3
  -2   2  20 28.4752 8.78207   2
  -2   2  19 51.6113 10.0354   2
   2  -2  19 52.4088 9.78953   2
  -2  -2 -19 38.6876 11.7174   4
  -2  -2 -19 47.4676 9.46819   3
   2  -2  19 64.5028 9.87769   8
  -2   2  18 127.424 17.0176   2
  -2  -2 -18 98.7884 17.9728   4
  -2  -2 -18 136.066 16.6353   3
   2  -2  18 157.078 16.8802   8
  -2  -2 -17 355.953 40.3544   3
  -2  -2 -17 352.294 41.0028   4
   2  -2  17 368.153 40.4168   8
  -2   2  17 341.299 40.4947   2
  -2   2  16 39.1534 8.28966   2
   2  -2  16 30.3083 7.71915   8
  -2  -2 -16 43.0525 7.78649   3
  -2  -2 -16 30.8485 9.71994   4
  -2  -2 -15 147.890 19.9200   4
  -2  -2 -15 169.776 18.9944   3
  -2   2  15 155.252 19.1984   2
  -2  -2 -14 165.145 20.6618   4
  -2  -2 -14 191.200 19.8551   3
  -2   2  14 144.749 19.9083   2
  -2  -2 -13 119.734 12.4136   3
  -2   2  13 102.266 12.2141   2
  -2  -2 -13 119.353 13.4695   4
   2   2 -13 70.1060 11.6367   4
  -2  -2 -12 151.738 17.4857   4
  -2   2  12 144.226 16.7638   2
   2   2 -12 122.396 16.3003   4
  -2  -2 -12 162.214 16.7730   3
  -2  -2 -11 325.051 37.7005   4
   2   2 -11 343.781 37.0894   4
  -2  -2 -11 361.273 37.2698   3
  -2   2  11 276.869 37.3137   2
  -2  -2 -10 443.318 52.1079   3
   2   2 -10 469.837 52.0075   4
  -2  -2 -10 466.641 52.4734   4
  -2   2  10 484.201 52.2450   2
  -2  -2  -9 148.163 16.6215   4
  -2   2   9 117.608 15.3124   4
   2   2  -9 145.311 15.7106   4
  -2   2   9 179.161 16.2906   2
  -2  -2  -9 170.472 16.0547   3
   2   2  -9 159.987 15.6785   2
   2   2  -8 224.871 18.8977   2
  -2  -2  -8 249.242 19.7174   4
  -2   2   8 138.101 18.6076   4
  -2   2   8 207.808 19.1771   2
  -2  -2  -8 147.124 18.5064   7
  -2  -2  -8 238.638 19.2148   3
   2   2  -8 257.912 19.0320   8
   2   2  -8 209.120 18.8651   4
  -2   2   8 153.674 18.5379   4
  -2   2   7 718.090 74.2693   2
  -2  -2  -7 736.038 74.1144   1
   2   2  -7 779.655 74.1655   4
  -2  -2  -7 782.972 74.2585   3
  -2   2   7 609.031 74.0320   4
   2   2  -7 837.809 74.2138   2
  -2  -2  -7 808.014 74.4562   4
   2   2  -7 876.367 74.2530   8
   2  -2   6 121.891 13.8337   7
   2   2  -6 134.930 13.7589   2
   2  -2   6 130.638 13.7973   4
  -2   2   6 80.1148 13.5101   4
  -2  -2  -6 135.823 14.6145   4
  -2   2   6 132.187 14.0910   2
  -2  -2  -6 127.453 13.9935   3
   2  -2   6 111.584 13.6167   6
   2   2  -6 124.005 13.8853   8
  -2  -2  -6 136.545 13.5841   1
   2   2  -6 128.013 13.7374   4
  -2   2   6 131.047 13.4840   4
   2   2  -5 699.943 64.4365   9
   2   2  -5 747.118 64.3621   4
   2   2  -5 777.888 64.3999   8
  -2  -2  -5 845.227 64.6510   4
  -2  -2  -5 694.106 64.3880   3
   2   2  -5 805.837 64.4061   6
   2  -2   5 783.295 64.4052   4
  -2   2   5 705.314 64.2438   4
   2   2  -5 748.445 64.3498   2
   2  -2   5 680.809 64.3889   7
   2  -2   4 749.182 74.0715   1
   2  -2   4 603.366 73.9992   7
  -2  -2  -4 755.476 74.1879   4
   2   2  -4 682.087 73.9704   2
  -2   2   4 612.981 73.9036   4
  -2  -2  -4 602.693 74.0090   3
   2   2  -4 673.234 74.0426   9
   2   2  -4 678.453 73.9939   8
   2   2  -4 670.890 73.9799   4
   2   2  -4 710.653 74.0155   6
   2  -2   4 699.249 74.0002   4
  -2  -2  -3 1212.65 114.771   4
  -2  -2  -3 942.824 114.621   3
   2   2  -3 1048.08 114.596   4
   2   2  -3 1153.03 114.627   6
   2  -2   3 987.685 114.620   7
   2  -2   3 1053.65 114.608   4
   2   2  -3 1105.04 114.590   2
   2   2  -3 1063.52 114.644   9
  -2   2   3 945.762 114.548   4
   2  -2   3 1079.82 114.660   1
   2   2  -3 922.699 114.587   8
   2  -2   2 707.087 71.6323   9
  -2   2   2 657.818 71.6897   4
  -2  -2  -2 836.338 71.8716   4
   2  -2   2 613.323 71.6278   3
  -2  -2  -2 667.533 71.7457   3
   2  -2   2 740.117 71.7655   7
   2  -2   2 752.653 71.7304   4
  -2   2   2 766.357 71.6981   3
   2   2  -2 745.626 71.7783   9
   2   2  -2 714.857 71.7115   8
   2   2  -2 774.096 71.7397   4
   2   2  -2 786.922 71.7390   6
   2   2  -2 695.585 71.6833   2
  -2   2   1 1860.16 193.851   3
  -2  -2  -1 2148.59 193.975   4
   2   2  -1 1933.51 193.919   4
   2   2  -1 1855.59 193.906   3
  -2  -2  -1 1611.98 193.891   3
  -2   2   1 2006.89 193.917   7
   2  -2   1 1567.67 193.820   3
   2   2  -1 1631.94 193.846   2
  -2  -2  -1 1670.84 193.872   6
   2   2  -1 2022.73 193.901   6
   2  -2   1 1774.35 193.879   4
   2  -2   1 1026.89 194.029   1
  -2   2   1 1665.19 193.868   4
   2   2  -1 1809.71 193.894   4
   2   2  -1 1723.72 193.859   8
   2  -2   1 1765.43 193.906   7
   2  -2   0 178.783 22.5030   5
  -2  -2   0 189.475 22.5177   6
   2   2   0 203.817 22.5428   4
   2   2   0 208.437 22.6187   4
   2   2   0 200.623 22.5640   3
   2   2   0 207.161 22.4342   2
   2  -2   0 180.845 22.4076   3
  -2   2   0 198.144 22.5370   4
   2  -2   0 177.948 22.4388   4
   2   2   0 210.216 22.4312   8
  -2   2   0 232.659 22.5139   7
   2  -2   0 203.028 22.5528   7
  -2   2   0 216.646 22.3997   3
  -2  -2   1 1785.90 205.255   6
   2   2   1 1854.95 205.207   8
   2   2   1 1905.41 205.325   4
   2  -2  -1 1752.14 205.273   5
   2  -2  -1 1983.90 205.290   7
   2   2   1 2020.40 205.274   3
  -2  -2   1 1900.27 205.236   2
  -2   2  -1 1846.60 205.185   3
   2  -2  -1 1566.07 205.208   3
  -2   2  -1 1940.62 205.282   4
   2  -2  -1 1783.23 205.221   4
  -2   2  -1 2125.48 205.282   7
  -2  -2   2 780.494 79.6672   4
   2  -2  -2 695.241 79.7208   7
   2   2   2 765.101 79.6833   3
   2   2   2 867.845 79.8035   4
  -2   2  -2 674.013 79.5835   3
  -2   2  -2 719.925 79.7160   4
  -2  -2   2 846.263 79.6996   2
   2  -2  -2 725.979 79.7218   5
   2  -2  -2 694.910 79.6223   4
   2  -2  -2 555.508 79.6316   3
  -2   2  -2 808.668 79.6713   5
  -2  -2   2 720.076 79.7181   6
   2  -2  -3 1087.01 73.2179   4
   2   2   3 1144.84 73.3104   3
  -2  -2   3 1133.98 73.2778   4
   2  -2  -3 1047.59 73.3623   7
  -2  -2   3 1162.54 73.3216   2
  -2   2  -3 1232.25 73.4336   4
  -2   2  -3 983.969 73.1706   3
   2  -2  -3 895.744 73.2884   3
   2   2   3 1232.10 73.5081   4
   2  -2  -3 1138.10 73.4016   5
  -2   2  -4 862.578 56.6351   4
   2   2   4 852.786 56.4841   3
   2  -2  -4 657.213 56.3357   4
   2  -2  -4 704.934 56.5272   5
   2  -2  -4 703.638 56.4783   2
  -2  -2   4 784.701 56.5013   2
  -2  -2   4 790.752 56.4254   4
   2  -2  -4 613.225 56.4660   3
   2  -2  -5 763.559 73.4777   2
  -2   2  -5 763.246 73.5815   4
  -2  -2   5 671.023 73.4729   2
   2   2   5 784.027 73.4565   3
   2  -2  -5 560.865 73.4689   3
  -2   2  -5 731.871 73.4945   1
  -2  -2   5 695.452 73.4053   4
   2  -2  -5 563.988 73.3374   4
  -2  -2   6 127.290 11.5023   4
   2   2   6 81.9590 11.2792   5
  -2   2  -6 129.191 11.6558   1
   2  -2  -6 100.313 11.6042   2
  -2  -2   6 115.141 11.8909   2
   2   2   6 144.225 11.6688   3
   2  -2  -6 97.7378 11.9255   3
  -2   2  -6 137.981 12.2145   4
  -2   2  -7 770.687 74.8364   7
  -2   2  -7 798.533 74.8845   1
  -2  -2   7 813.132 74.9433   2
   2   2   7 896.857 74.8662   3
   2   2   7 529.345 74.6814   8
   2  -2  -7 634.247 74.8960   3
  -2  -2   7 835.186 74.7987   4
  -2   2  -7 966.566 75.0757   4
   2  -2  -7 726.444 74.8486   2
   2   2   8 349.400 29.5993   3
  -2  -2   8 298.780 29.7418   2
   2   2   8 209.418 29.3128   8
  -2   2  -8 327.587 29.9273   4
   2   2   8 265.650 29.7170   4
  -2  -2   8 315.644 29.4579   4
   2  -2  -8 276.004 29.5103   2
   2  -2  -8 242.805 29.7126   3
  -2   2  -8 250.318 29.4696   7
  -2   2  -8 328.722 29.5972   1
  -2   2  -9 145.070 17.4595   7
   2   2   9 131.750 17.7479   4
  -2  -2   9 177.893 17.4491   4
   2   2   9 200.380 17.6551   3
  -2  -2   9 131.159 17.9430   2
  -2   2  -9 175.754 18.2172   4
   2  -2  -9 160.420 17.5430   2
   2  -2  -9 136.276 17.9978   3
   2   2   9 141.032 17.2893   8
  -2   2 -10 303.837 44.8889   4
   2  -2 -10 351.555 44.8518   3
  -2   2 -10 365.147 44.5908   7
   2   2  10 346.660 44.7724   4
  -2  -2  10 408.403 44.8740   2
   2  -2 -10 420.267 44.6335   2
   2   2  10 389.050 44.4953   8
  -2  -2  10 472.451 44.5916   4
   2   2  10 461.941 44.6849   3
   2  -2 -11 275.828 32.4100   3
  -2   2 -11 273.768 32.4908   4
  -2  -2  11 304.368 32.4092   2
  -2   2 -12 162.919 20.2571   4
  -2  -2  12 167.703 20.0800   2
   2  -2 -12 181.658 20.1705   3
   2  -2 -13 74.4042 10.7782   3
  -2  -2  13 92.9641 10.7361   2
  -2   2 -13 82.4165 11.0589   4
   2   2  13 66.4861 9.90739   2
  -2  -2  14 157.101 17.6555   2
  -2   2 -14 126.935 18.0146   4
   2  -2 -14 151.981 17.7263   3
   2   2  14 142.610 17.0585   2
  -2  -2  15 153.138 18.0357   2
  -2   2 -15 131.799 18.3441   4
   2  -2 -15 140.055 18.1421   3
   2   2  15 154.455 17.3624   2
  -2  -2  16 30.4025 8.20228   2
   2  -2 -16 43.1385 8.79816   3
  -2   2 -16 32.0221 9.10671   4
   2   2  16 41.7240 7.33430   2
   2   2  17 352.930 39.6506   2
  -2   2 -17 292.837 40.3264   4
  -2  -2  17 369.613 39.9662   2
   2  -2 -17 369.282 40.0922   3
   2  -2 -18 177.582 19.5876   3
  -2  -2  18 172.245 19.3815   2
  -2   2 -18 136.688 19.9663   4
   2   2  18 140.058 18.6877   2
   2  -2 -19 59.1428 10.4866   3
   2   2  19 42.8036 8.65028   2
  -2  -2  19 50.6944 9.84918   2
  -2   2 -19 32.0541 10.7952   4
   2  -2 -20 22.7308 9.36403   3
  -2  -2  20 13.1361 8.74589   2
  -2   2 -20 23.2158 10.1915   4
   2   2  20 20.2123 7.38069   2
   2  -2 -21 157.839 19.3119   3
  -2  -2  21 154.188 18.9981   2
  -2   2 -21 123.786 20.0463   4
   2  -2 -22 166.946 22.4529   3
  -2  -2  22 190.300 22.3193   2
  -2  -2  23 6.18257 9.43069   2
   2  -2 -23 15.0600 10.0653   3
   2  -2 -24 82.3750 13.7703   3
  -2  -2  24 77.5127 13.2422   2
   2  -2 -25-1.25288 10.6743   3
  -2  -2  25 4.10589 9.64063   2
  -2  -2  26-7.31160 9.75691   2
   2  -2 -26 6.74439 11.2001   3
  -2  -2  27 13.6337 10.0356   2
   2  -2 -27-2.07026 11.6342   3
  -2  -2  28-0.90338 10.2351   2
   2  -2 -28 12.2491 11.2326   3
   2  -2 -29 1.33962 10.7957   3
  -2  -2  29 5.87454 10.6382   2
  -2  -2  30 20.2293 10.8856   2
   2  -2 -30 14.3842 11.3515   3
   2  -3  30 12.1529 10.6286   2
   2  -3  29 9.20442 10.5032   2
   2  -3  28 30.3658 11.1858   2
   2  -3  27 7.80953 10.4111   2
   2  -3  26 14.8149 10.4181   2
   2  -3  25 2.33097 10.0054   2
  -2  -3 -24 12.1381 9.07162   3
   2  -3  24 14.2330 9.93691   2
  -2  -3 -23 24.9364 9.43581   3
   2  -3  23 38.5080 10.5631   2
   2  -3  22 33.3375 9.72383   2
  -2  -3 -22 33.5961 9.24777   3
   2  -3  21 136.255 17.3430   2
  -2  -3 -21 131.027 17.1071   3
   2  -3  21 127.663 17.2957   8
  -2   3  21 130.618 17.4897   2
  -2  -3 -20 58.5512 11.0507   3
   2  -3  20 78.4345 11.4943   2
   2  -3  20 62.2908 11.4079   8
  -2   3  20 63.6224 11.6060   2
   2  -3  19 26.4860 9.62955   8
  -2  -3 -19 43.0511 8.89592   3
  -2   3  19 32.2987 9.12139   2
   2  -3  19 44.0522 9.21457   2
  -2   3  18 20.8666 7.96430   2
  -2  -3 -18 17.7787 7.78045   3
  -2  -3 -18 12.5253 10.4715   4
   2  -3  18 14.7548 8.31225   8
  -2  -3 -17 9.55021 9.89221   4
  -2  -3 -17 9.09328 7.28125   3
  -2   3  17 9.22566 7.50097   2
   2  -3  17 4.89066 7.51814   8
  -2   3  16 502.007 59.9365   2
  -2  -3 -16 574.278 59.9193   3
  -2  -3 -16 510.176 60.3670   4
  -2  -3 -15 144.486 16.4867   3
  -2   3  15 125.480 16.5860   2
  -2  -3 -15 124.895 17.7350   4
  -2  -3 -14 75.0038 9.96089   3
  -2  -3 -14 81.8707 11.7995   4
  -2   3  14 63.2529 10.2231   2
   2   3 -14 57.3140 9.34382   4
  -2   3  13 109.613 15.5513   2
  -2  -3 -13 136.223 15.4784   3
  -2  -3 -13 126.358 16.4917   4
   2   3 -13 127.322 15.1868   4
  -2   3  12 718.124 76.3297   2
  -2  -3 -12 755.882 76.5728   4
  -2  -3 -12 861.331 76.3972   3
  -2  -3 -11 100.375 11.4219   4
   2   3 -11 66.4960 9.63338   4
  -2   3  11 56.7138 9.93021   2
  -2  -3 -11 93.8099 10.7286   3
  -2  -3 -10 245.334 24.1735   4
  -2   3  10 172.153 23.4614   2
  -2  -3 -10 248.769 23.6907   3
   2   3 -10 186.283 23.2984   4
  -2   3   9 75.2689 10.0036   4
  -2  -3  -9 95.2260 11.2385   3
   2   3  -9 94.0326 10.6387   4
  -2  -3  -9 117.420 12.2092   4
  -2   3   9 100.531 10.9998   2
  -2  -3  -8 601.642 51.6452   4
  -2  -3  -8 412.929 50.9869   1
  -2   3   8 449.948 51.2550   2
  -2  -3  -8 484.029 51.3236   3
  -2   3   8 471.686 50.9993   4
   2   3  -8 482.827 51.1715   4
   2  -3   8 441.940 51.0973   6
  -2   3   7 283.772 38.8956   4
  -2  -3  -7 476.900 39.5544   4
  -2   3   7 399.628 38.9156   4
  -2  -3  -7 381.861 39.1570   3
   2  -3   7 317.865 38.9674   6
  -2  -3  -7 326.390 38.8674   1
   2  -3   7 367.313 39.0121   4
   2   3  -7 375.904 39.0827   4
   2   3  -7 354.245 38.9955   2
   2   3  -6 418.806 33.8071   4
  -2  -3  -6 426.551 34.1775   4
   2   3  -6 482.249 34.0112   9
  -2  -3  -6 380.423 33.8826   3
   2  -3   6 439.240 33.7441   4
  -2   3   6 399.093 33.6055   4
   2  -3   6 417.669 33.8542   7
   2   3  -6 390.095 33.6998   2
   2   3  -5 13.9450 3.20048   2
   2   3  -5 15.3617 3.66692   8
   2   3  -5 16.7668 4.11674   4
  -2   3   5 12.6544 3.08820   4
  -2  -3  -5 10.5798 5.51993   4
  -2   3   5 22.9184 3.68541   3
   2  -3   5 18.4496 3.40321   4
   2  -3   5 15.3610 3.88268   7
   2   3  -5 15.1516 5.04433   9
   2  -3   5 23.1121 3.01025   9
  -2  -3  -5 11.7625 4.80337   3
   2   3  -5 20.1355 3.96926   6
   2   3  -4 199.721 22.5748   4
   2   3  -4 205.521 22.7249   9
   2   3  -4 190.667 22.4583   8
   2  -3   4 182.171 22.5632   7
  -2  -3  -4 253.396 22.9164   4
   2  -3   4 184.459 22.3382   9
  -2  -3  -4 182.677 22.6459   3
   2   3  -4 187.375 22.3991   2
   2  -3   4 194.955 22.4345   4
  -2   3   4 203.470 22.3907   4
   2   3  -4 204.242 22.5520   6
  -2   3   4 241.715 22.4759   3
  -2   3   3 495.434 54.2530   5
  -2   3   3 563.678 54.2396   3
  -2   3   3 487.834 54.2178   4
  -2  -3  -3 479.930 54.3373   3
   2   3  -3 467.134 54.2264   8
   2  -3   3 460.677 54.2857   7
   2   3  -3 519.386 54.3823   9
   2  -3   3 470.927 54.2253   4
   2  -3   3 517.178 54.1671   9
   2   3  -3 448.667 54.1854   2
   2  -3   3 421.231 54.2771   1
   2   3  -3 492.806 54.2931   4
  -2   3   2 1973.62 200.287   3
   2   3  -2 2036.83 200.352   3
  -2   3   2 2040.05 200.350   5
   2   3  -2 1713.01 200.279   8
  -2   3   2 1689.97 200.289   4
   2  -3   2 1700.89 200.262   3
  -2  -3  -2 1635.47 200.328   3
   2   3  -2 1794.40 200.322   4
  -2   3   2 1819.51 200.318   7
   2   3  -2 1677.01 200.251   2
   2  -3   2 2079.03 200.375   1
   2  -3   2 1729.70 200.337   7
   2  -3   2 1804.70 200.301   4
   2  -3   1 483.342 52.1628   7
  -2   3   1 513.599 52.1228   5
  -2   3   1 536.196 52.1303   7
  -2  -3  -1 458.355 52.2072   3
   2   3  -1 488.903 52.1654   3
   2  -3   1 451.077 52.0789   4
   2  -3   1 428.130 52.0554   3
   2   3  -1 481.263 52.1609   4
   2   3  -1 431.922 52.0104   2
  -2   3   1 461.857 52.1122   4
   2  -3   1 266.202 52.3814   1
  -2   3   1 532.024 52.0624   3
   2   3   0 165.818 16.9057   4
  -2  -3   0 149.811 16.8922   6
   2  -3   0 127.779 16.6845   3
  -2  -3   0 145.701 16.9674   3
   2   3   0 175.634 16.8465   3
   2   3   0 143.195 16.5316   2
  -2   3   0 159.791 16.6081   3
  -2   3   0 127.325 16.8453   4
   2  -3   0 147.398 16.6542   4
   2  -3   0 160.598 16.8001   7
   2   3   0 116.008 16.8266   4
  -2  -3   0 146.048 16.7158   8
  -2   3   0 156.487 16.7020   7
   2  -3  -1 518.374 54.5059   4
  -2   3  -1 482.003 54.4432   9
   2   3   1 625.188 54.6088   3
   2   3   1 442.046 54.6020   4
  -2  -3   1 591.738 54.5185   2
   2  -3  -1 447.713 54.5206   3
  -2   3  -1 579.229 54.4798   3
   2   3   1 365.858 54.4103   2
  -2   3  -1 515.754 54.6174   4
  -2  -3   1 472.363 54.5842   6
  -2  -3   1 492.444 54.5442   8
  -2   3  -1 526.908 54.5446   7
   2  -3  -1 552.271 54.5981   7
   2   3   1 541.779 54.6120   4
   2   3   2 1933.18 191.189   4
  -2  -3   2 1829.35 191.156   6
  -2   3  -2 1949.20 191.139   7
   2  -3  -2 1958.06 191.106   4
   2   3   2 2086.46 191.168   3
   2   3   2 1206.54 191.022   2
  -2   3  -2 1846.54 191.059   3
   2  -3  -2 1733.13 191.133   3
  -2   3  -2 2014.26 191.190   4
  -2  -3   2 1789.86 191.126   8
   2  -3  -2 1669.94 191.163   5
  -2  -3   2 2000.16 191.099   2
   2  -3  -2 1824.55 191.166   7
   2   3   2 1678.67 191.186   4
   2  -3  -3 500.052 58.5725   5
   2   3   3 567.601 58.6727   4
   2  -3  -3 560.528 58.5752   7
   2   3   3 595.038 58.6527   4
   2   3   3 604.422 58.5501   3
   2   3   3 437.957 58.3897   1
  -2  -3   3 566.678 58.5093   2
   2  -3  -3 474.509 58.5292   3
   2  -3  -3 547.202 58.4725   4
  -2  -3   3 561.198 58.6225   6
  -2   3  -3 566.383 58.6303   4
  -2   3  -3 529.715 58.5140   7
  -2   3  -3 554.545 58.4381   3
  -2  -3   3 585.161 58.5213   4
  -2  -3   3 521.636 58.5649   8
  -2  -3   4 121.908 14.7872   8
   2  -3  -4 130.890 14.6457   5
  -2  -3   4 135.710 14.9376   6
  -2  -3   4 133.934 14.5297   2
   2  -3  -4 149.532 14.6887   7
  -2   3  -4 137.029 14.3333   3
   2  -3  -4 124.819 14.5494   2
   2   3   4 156.718 14.5693   3
  -2   3  -4 153.291 14.9566   4
   2  -3  -4 107.663 14.6442   3
  -2   3  -4 131.852 14.4368   7
   2  -3  -4 121.753 14.3332   4
  -2  -3   4 151.115 14.4587   4
   2  -3  -5 10.1213 3.47053   7
  -2  -3   5 9.53945 2.63960   4
   2  -3  -5 5.37154 3.48385   5
   2   3   5 9.24880 3.40962   3
  -2   3  -5 20.1097 4.68210   4
  -2  -3   5 6.90128 3.63312   2
  -2   3  -5 11.1148 2.59582   7
  -2   3  -5 9.41327 2.37052   3
   2  -3  -5 6.82679 2.21214   4
  -2   3  -5 8.28721 2.69193   1
   2  -3  -5 11.3952 3.83879   3
   2  -3  -5 6.88245 2.94215   2
  -2  -3   5 13.0386 4.17139   8
   2  -3  -6 301.072 38.3532   4
  -2   3  -6 412.751 38.5330   1
   2   3   6 400.824 38.5020   3
  -2  -3   6 359.255 38.5728   2
  -2  -3   6 363.257 38.6521   8
  -2   3  -6 404.194 38.7284   4
  -2  -3   6 368.498 38.4336   4
   2  -3  -6 274.883 38.5614   3
   2  -3  -6 351.804 38.5984   5
   2  -3  -6 288.112 38.4505   2
  -2  -3   6 346.825 38.4716   9
   2   3   7 453.641 50.3020   5
  -2  -3   7 417.361 50.4215   9
   2  -3  -7 398.819 50.5298   5
  -2   3  -7 479.448 50.4592   1
  -2   3  -7 466.473 50.7126   4
   2  -3  -7 465.212 50.4158   2
  -2  -3   7 461.364 50.5382   2
   2   3   7 526.730 50.4684   3
   2  -3  -7 382.407 50.5309   3
  -2  -3   7 459.053 50.3951   4
  -2  -3   7 424.578 50.5810   8
   2  -3  -8 420.909 55.2293   5
  -2  -3   8 434.241 55.3453   8
   2  -3  -8 538.649 55.1255   2
  -2  -3   8 563.786 55.3155   2
   2   3   8 565.537 55.1964   3
   2  -3  -8 433.667 55.2886   3
   2   3   8 402.051 55.2890   4
  -2  -3   8 537.030 55.1266   4
  -2   3  -8 446.107 55.4238   4
   2  -3  -9 74.8068 12.0047   5
   2  -3  -9 108.349 11.6855   2
  -2  -3   9 112.988 12.4277   2
   2  -3  -9 96.3237 12.3876   3
  -2   3  -9 92.3959 12.8300   4
  -2  -3   9 97.7917 12.6260   8
  -2  -3   9 106.775 11.6290   4
   2   3  10 193.486 26.4229   2
   2  -3 -10 243.672 26.4599   2
  -2   3 -10 237.196 27.0409   4
  -2  -3  10 263.393 26.8874   2
  -2  -3  10 242.603 26.4053   4
   2  -3 -10 266.013 26.9678   3
  -2  -3  10 236.696 27.0337   8
   2  -3 -11 65.6168 8.74584   3
   2   3  11 49.9586 7.24657   2
  -2  -3  11 57.7619 8.97250   8
  -2   3 -11 48.9761 9.17938   4
  -2  -3  11 63.7107 8.54488   2
   2   3  12 733.565 80.9177   2
  -2  -3  12 740.651 81.1531   2
  -2   3 -12 614.983 81.1892   4
   2  -3 -12 783.253 81.1903   3
  -2  -3  12 741.674 81.2041   8
   2   3  13 116.917 13.4630   2
   2  -3 -13 108.055 14.3669   3
  -2  -3  13 111.457 14.7397   8
  -2  -3  13 104.935 14.3456   2
  -2   3 -13 117.246 14.7691   4
  -2  -3  14 80.6293 10.0759   2
  -2   3 -14 61.8022 10.6083   4
   2   3  14 53.3181 8.76668   2
   2  -3 -14 71.2612 10.1821   3
  -2  -3  15 117.977 13.4105   2
  -2   3 -15 83.8219 13.5371   4
   2   3  15 85.4694 12.1389   2
   2  -3 -15 115.001 13.3758   3
  -2   3 -16 494.300 60.6154   4
  -2  -3  16 561.866 60.5597   2
   2  -3 -16 550.537 60.5228   3
  -2   3 -17 24.5226 9.21431   4
  -2  -3  17 13.2931 8.14546   2
   2  -3 -17 16.4205 8.36894   3
  -2  -3  18 22.0271 8.17810   2
   2  -3 -18 11.3807 8.75781   3
  -2   3 -18 3.17788 9.30787   4
   2  -3 -19 15.5354 9.54809   3
  -2  -3  19 41.3384 9.54227   2
  -2   3 -19 31.5404 10.5972   4
   2  -3 -20 81.4232 12.4578   3
  -2  -3  20 65.2491 11.9055   2
  -2   3 -20 60.2697 13.3918   4
  -2   3 -21 123.824 20.9562   4
   2  -3 -21 166.785 19.8020   3
  -2  -3  21 163.461 19.7708   2
   2  -3 -22 28.5900 10.0695   3
  -2  -3  22 26.8026 9.93715   2
  -2  -3  23 44.0154 10.7001   2
   2  -3 -23 36.0932 10.8203   3
   2  -3 -24 13.6831 10.1221   3
  -2  -3  24 8.12121 9.89706   2
   2  -3 -25 8.62595 10.0208   3
  -2  -3  25 12.9694 9.83603   2
   2  -3 -26 18.8922 10.8377   3
  -2  -3  26 9.64454 10.4146   2
   2  -3 -27 17.1531 10.6785   3
  -2  -3  27-0.44694 10.3366   2
   2  -3 -28 5.25493 11.3311   3
  -2  -3  28 31.1948 10.2282   2
   2  -3 -29 5.98671 11.4410   3
  -2  -3  29 20.8005 10.5489   2
   2  -4  29 2.82204 10.1482   2
   2  -4  28 7.43475 10.3015   2
   2  -4  27 76.5540 13.9143   2
   2  -4  26 18.9720 10.4154   2
  -2  -4 -26-24.9480 10.4052   3
   2  -4  25 89.2928 13.2218   2
  -2  -4 -25 50.9490 12.9147   3
   2  -4  24 26.6248 10.2212   2
  -2  -4 -24 14.3137 10.3128   3
   2  -4  23 13.1711 9.52036   8
  -2  -4 -23 6.19517 9.51597   3
   2  -4  23 6.19632 9.69578   2
   2  -4  22 31.9669 9.62286   2
   2  -4  22 16.4281 9.76840   8
  -2  -4 -22 14.1237 9.51953   3
   2  -4  21 103.256 15.6068   8
   2  -4  21 112.296 15.4808   2
  -2  -4 -21 108.494 15.4466   3
   2  -4  20 3.99017 8.87432   2
  -2  -4 -20 13.5987 9.15376   3
   2  -4  20 1.11304 9.49640   8
   2  -4  19 45.8880 10.5625   8
  -2  -4 -19 49.3671 10.4797   3
   2  -4  18 23.2992 8.75458   8
  -2  -4 -18 26.2457 9.05969   3
  -2   4  17 42.4101 9.77619   2
  -2  -4 -17 57.9103 11.5990   4
   2  -4  17 45.2648 9.75317   8
  -2  -4 -17 62.1382 10.4918   3
  -2  -4 -16 38.5417 10.3507   4
  -2   4  16 34.9518 8.23080   2
  -2  -4 -16 32.5104 9.41426   3
  -2   4  15-7.01524 6.64958   2
  -2  -4 -15-8.71453 8.62573   3
  -2  -4 -15 5.70962 8.83909   4
   2   4 -14 78.6927 10.8280   4
  -2  -4 -14 92.2193 12.3983   4
  -2  -4 -14 103.973 11.9747   3
  -2  -4 -13 495.122 53.0797   4
  -2   4  13 423.524 52.6034   2
  -2  -4 -13 564.437 52.8294   3
   2   4 -13 430.382 52.5383   4
  -2   4  12 51.0580 9.14585   2
  -2  -4 -12 75.2502 10.7595   4
   2   4 -12 55.3488 9.02861   4
  -2  -4 -12 76.2715 10.0683   3
  -2  -4 -11 793.490 72.6931   4
  -2  -4 -11 805.619 72.5134   3
   2   4 -11 564.989 72.2718   4
  -2   4  11 547.246 72.3164   2
  -2  -4 -10 145.190 15.9716   4
   2  -4  10 120.956 14.9328   6
   2   4 -10 110.840 15.0686   4
  -2  -4 -10 140.192 15.5211   3
   2  -4   9 53.4139 8.17672   6
  -2   4   9 63.3308 7.33655   4
  -2  -4  -9 81.3510 8.93564   3
  -2  -4  -9 71.3996 9.35720   4
   2  -4   9 55.3783 7.27127   9
   2   4  -9 35.4640 8.21720   4
  -2  -4  -8 125.447 12.5620   4
   2  -4   8 84.4655 11.4091   6
  -2  -4  -8 111.764 11.9582   3
   2  -4   8 93.7842 10.9750   9
  -2   4   8 80.2136 11.0483   4
   2   4  -8 101.212 11.6401   4
   2   4  -7 2780.77 300.362   9
   2  -4   7 2192.02 300.221   6
  -2  -4  -7 3196.93 300.473   4
  -2   4   7 2741.16 300.238   4
   2   4  -7 2793.78 300.327   4
  -2  -4  -7 3115.29 300.403   3
   2  -4   7 2701.48 300.211   9
   2   4  -6 179.980 19.6646   9
  -2  -4  -6 154.319 19.5132   3
   2   4  -6 159.352 19.2928   4
  -2   4   6 186.360 19.0669   3
   2  -4   6 168.379 18.8940   9
  -2   4   6 154.183 18.9795   4
   2   4  -5 668.700 68.1627   9
   2  -4   5 515.446 68.0487   7
  -2  -4  -5 518.711 68.1313   3
   2   4  -5 621.408 68.0684   4
  -2   4   5 549.444 67.9237   4
   2  -4   5 667.816 67.9033   9
  -2   4   5 679.350 67.9692   3
  -2   4   4 24.8046 4.01872   3
  -2   4   4 14.1549 3.84994   5
   2   4  -4 27.2143 5.18052   4
   2  -4   4 22.7754 3.83402   4
   2   4  -4 26.2116 4.44333   3
   2   4  -4 13.8840 5.86022   9
  -2  -4  -4 24.5957 5.50014   3
   2  -4   4 19.0078 4.63000   7
  -2   4   4 25.4452 4.19331   4
  -2   4   3 103.385 10.8340   5
  -2  -4  -3 83.6021 10.5528   8
   2   4  -3 97.4124 11.3189   4
   2   4  -3 107.256 11.0648   3
   2  -4   3 88.1330 11.0869   7
   2  -4   3 91.4098 10.9928   1
  -2  -4  -3 97.6659 11.6076   3
  -2   4   3 104.120 10.7580   3
  -2   4   3 90.7255 10.9481   4
   2  -4   3 76.0964 10.7388   4
   2   4  -3 93.9218 11.6540   9
  -2   4   3 93.4014 10.7190   7
   2  -4   2 216.815 22.5274   7
  -2   4   2 175.821 22.3539   7
   2  -4   2 172.921 22.4771   1
   2   4  -2 242.814 22.5606   3
  -2  -4  -2 193.721 22.6761   3
  -2   4   2 227.257 22.3534   3
  -2   4   2 193.695 22.4937   4
   2  -4   2 196.485 22.3822   4
   2  -4   2 193.592 22.4376   3
  -2  -4  -2 183.209 22.2702   8
   2   4  -2 216.401 22.6281   4
  -2   4   2 194.031 22.3696   5
  -2  -4  -1 1101.67 122.562   4
  -2   4   1 1117.60 122.551   5
   2   4  -1 1323.18 122.624   3
   2  -4   1 1119.11 122.587   7
   2  -4   1 1147.23 122.582   1
  -2  -4  -1 1136.14 122.647   3
  -2   4   1 1119.68 122.497   3
  -2   4   1 1041.78 122.570   4
   2  -4   1 1106.82 122.529   4
   2   4  -1 1169.75 122.605   4
  -2   4   1 1038.78 122.529   7
   2  -4   1 1072.87 122.531   3
  -2  -4  -1 981.161 122.473   8
   2   4   0 647.647 59.7450   3
   2   4   0 593.853 59.7778   4
  -2   4   0 557.077 59.6525   7
  -2  -4   0 472.326 59.6095   8
  -2  -4   0 544.895 59.7807   3
  -2   4   0 552.268 59.6473   5
   2  -4   0 472.227 59.6528   3
  -2  -4   0 478.927 59.5326   2
   2  -4   0 559.795 59.9843   1
  -2   4   0 577.736 59.6081   3
   2  -4   0 562.338 59.7360   7
  -2   4   0 550.624 59.7464   4
   2  -4   0 540.155 59.6380   4
  -2  -4   1 997.921 115.006   6
   2   4   1 1196.78 115.004   3
   2  -4  -1 1065.30 114.946   4
  -2   4  -1 1115.02 114.956   5
   2   4   1 763.102 114.961   4
   2  -4  -1 898.882 114.947   3
   2   4   1 1127.88 115.031   4
  -2   4  -1 1089.44 114.893   3
  -2  -4   1 1014.57 114.860   2
  -2   4  -1 1098.18 114.886   9
  -2   4  -1 1175.42 115.025   4
  -2  -4   1 917.818 114.924   8
   2  -4  -1 1030.33 114.984   7
  -2   4  -1 1013.15 114.934   7
   2   4   2 234.937 21.8383   4
  -2   4  -2 159.363 21.4305   7
   2  -4  -2 187.949 21.4726   4
   2   4   2 228.635 21.6745   3
  -2   4  -2 190.393 21.3928   3
   2  -4  -2 158.597 21.5854   3
  -2  -4   2 205.283 21.4200   2
  -2   4  -2 204.503 21.4695   9
  -2   4  -2 231.160 21.8306   4
  -2  -4   2 195.405 21.8121   6
   2   4   2 153.610 21.6405   4
  -2  -4   2 175.397 21.6346   8
   2  -4  -2 192.446 21.5907   7
  -2   4  -3 82.6645 9.20507   4
   2   4   3 93.5167 9.03897   4
   2   4   3 51.4464 8.77909   4
  -2   4  -3 72.3113 8.16067   3
   2   4   3 82.6293 8.48560   3
  -2   4  -3 20.1079 9.09643   1
  -2  -4   3 69.2400 8.32237   2
  -2   4  -3 60.9313 8.21651   7
   2   4   3 72.9197 7.92395   7
  -2  -4   3 65.4278 9.08371   6
   2  -4  -3 77.8739 8.61304   7
  -2  -4   3 63.9856 8.81794   8
   2  -4  -3 69.3905 8.21073   4
   2  -4  -3 70.9854 8.84806   3
  -2  -4   4 8.27036 5.10126   6
   2   4   4 8.97650 4.62063   4
   2  -4  -4 11.8613 2.53949   4
  -2  -4   4 11.9230 2.84723   4
   2   4   4 6.01772 1.37527   7
  -2   4  -4 3.63485 2.57096   7
   2  -4  -4 11.9817 3.55121   7
  -2  -4   4 9.69619 3.46163   2
  -2  -4   4 9.18733 4.31760   8
  -2   4  -4 8.81510 2.57904   3
   2   4   4 10.6174 3.27729   3
   2  -4  -4 8.29655 4.69116   3
  -2   4  -4 12.0851 4.74546   4
  -2   4  -4 1.26358 4.67339   1
   2  -4  -5 454.599 50.1251   2
  -2  -4   5 456.781 50.3989   6
   2   4   5 522.006 50.3634   4
  -2   4  -5 609.713 50.0899   3
   2   4   5 629.650 50.2427   3
   2  -4  -5 459.435 50.2715   3
  -2  -4   5 551.119 50.1914   2
   2  -4  -5 492.137 50.0722   4
  -2   4  -5 465.020 50.3696   4
  -2  -4   5 525.505 50.3004   8
  -2  -4   5 563.281 50.1583   4
   2  -4  -5 524.512 50.2038   7
   2  -4  -5 393.835 50.2413   5
   2   4   6 193.192 19.3494   4
  -2  -4   6 155.329 19.2475   8
   2  -4  -6 198.363 18.8531   2
  -2  -4   6 147.571 19.4092   6
  -2   4  -6 182.122 19.5010   4
   2  -4  -6 149.258 19.1322   3
  -2  -4   6 205.379 19.0733   2
   2  -4  -6 153.740 18.6938   4
   2   4   6 142.392 18.5183   2
  -2   4  -6 222.656 18.8039   3
  -2  -4   6 184.012 18.7998   4
   2  -4  -6 131.272 18.9779   5
  -2   4  -6 180.638 18.8784   1
   2  -4  -6 183.616 18.9775   7
  -2  -4   7 2353.46 281.659   8
   2  -4  -7 2428.66 281.539   4
   2   4   7 2822.03 281.727   4
   2  -4  -7 2103.79 281.631   5
  -2  -4   7 2663.81 281.591   4
   2  -4  -7 2684.53 281.638   7
   2  -4  -7 2606.06 281.567   2
  -2   4  -7 2521.96 281.736   4
   2   4   7 2675.27 281.527   5
  -2  -4   7 2657.62 281.650   2
   2  -4  -7 2468.95 281.660   3
   2   4   7 2461.31 281.483   2
  -2  -4   8 78.7133 9.05165   4
   2  -4  -8 83.3816 9.39430   7
  -2   4  -8 73.8232 10.5479   4
   2  -4  -8 73.1357 9.51026   5
   2  -4  -8 65.9968 10.0387   3
   2  -4  -8 62.5936 9.00185   2
  -2  -4   8 83.8792 9.83023   2
   2   4   8 80.0872 8.81946   2
  -2  -4   8 81.2675 10.2323   8
   2  -4  -9 76.5399 8.99536   7
   2  -4  -9 86.3520 9.27293   5
   2  -4  -9 76.7321 9.81964   3
  -2  -4   9 60.6477 10.0188   8
  -2  -4   9 66.4841 9.57466   2
   2   4   9 69.7534 8.49236   2
  -2   4  -9 57.0156 10.0914   4
   2  -4 -10 99.1151 13.9715   3
  -2  -4  10 117.294 13.8942   2
   2  -4 -10 122.707 13.5186   5
  -2  -4  10 116.501 14.1190   8
  -2   4 -10 102.340 14.6318   4
   2  -4 -11 699.343 75.8350   5
  -2   4 -11 728.137 76.1421   4
  -2  -4  11 669.524 75.9430   2
  -2  -4  11 681.606 75.9891   8
   2  -4 -11 622.250 75.9308   3
   2  -4 -12 66.2808 9.24480   5
  -2  -4  12 73.5255 9.97102   2
  -2   4 -12 60.0753 10.8833   4
  -2  -4  12 78.7530 10.6072   8
   2  -4 -12 67.6104 10.3683   3
  -2   4 -13 405.956 55.2568   4
   2  -4 -13 494.681 55.0664   3
   2  -4 -13 515.643 54.8654   5
  -2  -4  13 499.773 55.1788   8
  -2  -4  13 499.688 55.0787   2
   2  -4 -14 63.4539 10.9994   3
   2  -4 -14 79.8932 9.68980   5
  -2  -4  14 75.5641 10.8250   2
  -2   4 -14 57.7776 11.8004   4
  -2  -4  14 78.4948 11.5539   8
   2  -4 -15-1.20716 7.53215   3
  -2  -4  15 8.63575 8.35271   8
   2  -4 -15 0.71619 5.05889   5
  -2  -4  15-2.09261 7.40441   2
  -2   4 -15 9.05485 8.57840   4
   2  -4 -16 24.8646 8.80721   3
  -2  -4  16 36.7365 9.05597   2
  -2   4 -16 46.0404 9.88595   4
  -2  -4  16 42.3994 9.64066   8
   2  -4 -17 46.2633 9.52948   3
  -2  -4  17 45.4185 9.81378   2
  -2   4 -17 39.2009 10.3914   4
   2  -4 -18 15.0492 8.87965   3
  -2   4 -18 27.4323 9.93518   4
  -2  -4  18 21.9930 8.90103   2
  -2  -4  19 30.8881 9.67448   2
  -2   4 -19 38.0480 10.9251   4
   2  -4 -19 37.6487 9.73451   3
  -2  -4  20 10.8969 9.20897   2
   2  -4 -20 2.54449 9.06063   3
  -2   4 -20 18.0284 10.5400   4
   2  -4 -21 109.931 15.9256   3
  -2  -4  21 131.908 15.8097   2
  -2   4 -21 83.9563 17.0941   4
  -2  -4  22 26.3851 9.93852   2
   2  -4 -22 3.69070 9.90466   3
  -2  -4  23 18.2879 9.89758   2
   2  -4 -23 14.8902 10.4840   3
   2  -4 -24 6.62907 10.4151   3
  -2  -4  24 17.3606 10.2402   2
   2  -4 -25 48.4520 12.4851   3
  -2  -4  25 64.8521 12.2235   2
  -2  -4  26 7.65383 10.4948   2
   2  -4 -26 12.8032 10.9819   3
   2  -4 -27 55.6176 12.9467   3
  -2  -4  27 65.4737 12.8428   2
   2  -4 -28 4.38604 10.8347   3
  -2  -4  28 9.86915 10.6021   2
   2  -4 -29 0.22553 10.8356   3
  -2  -4  29 7.10410 10.2883   2
   2  -5  28 15.4591 11.1678   2
  -2  -5 -27 0.44987 11.1659   3
   2  -5  27 10.6653 11.0963   2
   2  -5  26 4.48634 11.0245   2
  -2  -5 -26-5.06149 11.0536   3
  -2  -5 -25 1.07587 10.9826   3
   2  -5  25 6.91004 10.6994   2
  -2  -5 -24-0.20984 10.6346   3
   2  -5  24-9.69521 10.1575   8
   2  -5  24 8.87160 10.5760   2
   2  -5  23 5.77974 10.3992   8
  -2  -5 -23 16.3512 10.5975   3
   2  -5  23-3.23486 10.2418   2
   2  -5  22 26.1407 10.0389   2
   2  -5  22 19.6108 10.5487   8
  -2  -5 -22 11.9311 10.5634   3
  -2  -5 -21 33.0514 11.0878   3
   2  -5  21 42.6963 10.3870   2
   2  -5  21 24.9561 10.9077   8
  -2  -5 -20 8.81459 9.92382   3
   2  -5  20 3.24167 9.13212   2
   2  -5  20 26.4329 10.3263   8
  -2  -5 -19 146.155 18.2089   3
   2  -5  19 129.037 18.0586   8
   2  -5  18 99.2887 16.4122   8
  -2  -5 -18 144.877 16.5709   3
  -2  -5 -17 109.665 16.6307   4
  -2  -5 -17 131.813 16.4410   3
  -2  -5 -16 38.0847 10.2903   4
  -2  -5 -16 37.8272 9.87307   3
  -2  -5 -15 121.364 14.9128   3
  -2  -5 -15 118.796 15.0223   4
   2   5 -15 86.2845 13.9450   4
  -2  -5 -14 64.9790 10.7113   3
   2   5 -14 52.1876 9.77981   4
  -2  -5 -14 62.5469 11.0786   4
  -2  -5 -13 224.523 26.4698   4
  -2  -5 -13 254.608 26.3033   3
   2   5 -13 196.922 25.8906   4
  -2  -5 -12 175.724 18.8647   3
   2   5 -12 135.383 18.3837   4
   2  -5  11 9.64213 6.37976   6
   2   5 -11 19.4290 6.48527   4
  -2  -5 -11 23.7750 7.19515   3
   2  -5  10-3.20797 5.74490   6
   2   5 -10 10.6954 5.85519   4
  -2  -5 -10 1.34514 7.07398   3
   2  -5   9 21.2152 6.36191   6
   2   5  -9 35.9407 6.61701   4
  -2  -5  -9 30.9087 7.71449   3
  -2   5   8 146.041 17.3354   4
   2  -5   8 117.655 17.6077   6
   2   5  -8 174.959 18.2147   9
  -2  -5  -8 190.539 18.2521   3
   2   5  -8 145.652 17.7530   4
  -2   5   7 9.98969 4.28947   4
   2  -5   7 10.5170 3.59509   9
  -2  -5  -7 12.6649 6.77080   3
   2   5  -7 6.12762 5.37588   4
   2   5  -7 21.3909 6.77661   9
  -2   5   6 291.673 34.8475   4
   2   5  -6 332.772 35.2776   9
  -2  -5  -6 334.861 35.2968   3
   2   5  -6 300.864 35.0753   4
  -2   5   5 848.396 105.517   4
   2   5  -5 908.060 105.643   4
  -2  -5  -5 1047.89 105.739   3
   2   5  -5 1075.74 105.714   9
   2   5  -4 493.925 49.9504   4
  -2   5   4 458.879 49.6120   3
  -2   5   4 397.997 49.6892   4
   2   5  -4 516.682 49.9936   9
   2  -5   4 361.290 49.7536   7
  -2  -5  -4 500.786 50.0237   3
  -2  -5  -3 283.068 27.4565   3
   2  -5   3 236.152 27.1241   7
   2   5  -3 317.661 27.4928   9
  -2   5   3 253.674 26.8962   3
  -2   5   3 240.641 27.0868   4
   2   5  -3 227.728 27.3058   4
  -2   5   3 214.330 26.8800   7
  -2  -5  -3 218.452 26.8121   8
  -2   5   2 125.132 14.3053   7
   2  -5   2 105.550 14.6618   7
   2  -5   2 115.073 14.6112   3
  -2  -5  -2 121.850 15.2392   3
  -2   5   2 106.730 14.6823   4
  -2  -5  -2 108.169 14.3065   8
  -2   5   2 150.239 14.3153   3
   2  -5   2 138.322 14.5479   1
   2   5  -2 143.655 15.0885   4
   2  -5   1 1889.52 206.280   1
  -2  -5  -1 1678.41 206.207   8
  -2  -5  -1 2039.34 206.394   3
   2  -5   1 1817.90 206.267   3
   2  -5   1 1565.59 206.294   7
  -2   5   1 2066.09 206.228   3
  -2   5   1 2056.87 206.330   4
   2   5  -1 1939.21 206.356   4
  -2   5   1 1762.33 206.246   7
   2  -5   0 161.639 21.9591   7
   2  -5   0 198.160 21.8337   4
  -2   5   0 169.491 21.7214   7
  -2  -5   0 194.364 22.3202   3
  -2  -5   0 176.305 21.9039   8
  -2  -5   0 190.685 21.5858   2
  -2   5   0 237.936 21.8186   3
   2  -5   0 208.674 21.9099   1
  -2   5   0 181.615 22.0910   4
   2   5   0 210.581 22.2137   4
   2  -5   0 197.263 22.0532   3
  -2   5  -1 1828.46 195.030   9
   2  -5  -1 1566.38 195.081   3
   2  -5  -1 1786.28 195.059   4
   2  -5  -1 1720.39 195.121   7
  -2   5  -1 1976.15 195.036   3
  -2  -5   1 1696.59 194.964   2
  -2   5  -1 1356.85 195.105   4
  -2  -5   1 1537.43 195.056   8
   2   5   1 1982.82 195.172   4
   2   5   2 146.917 15.3534   4
   2  -5  -2 139.255 15.1961   3
   2  -5  -2 124.398 14.6637   4
  -2  -5   2 129.603 14.5625   2
  -2   5  -2 122.064 15.3091   4
  -2   5  -2 128.849 14.8006   9
  -2  -5   2 153.129 15.4979   6
  -2  -5   2 107.311 15.0776   8
  -2   5  -2 138.012 14.5861   3
   2   5   2 129.831 14.4605   7
   2  -5  -2 146.234 14.9730   7
  -2  -5   3 210.114 22.9135   6
   2  -5  -3 210.256 22.5935   7
  -2   5  -3 208.588 22.3776   3
   2  -5  -3 180.587 22.7700   3
   2   5   3 234.284 22.8851   4
  -2  -5   3 218.304 22.4132   2
  -2   5  -3 199.798 22.8825   4
   2  -5  -3 182.354 22.3819   4
  -2   5  -3 218.157 22.5446   9
  -2  -5   3 176.398 22.7637   8
   2   5   3 183.387 22.2275   7
   2   5   4 504.295 49.3510   4
   2  -5  -4 451.871 49.2463   3
   2  -5  -4 408.388 49.0326   4
  -2  -5   4 464.285 49.0820   2
  -2   5  -4 410.440 49.3328   4
  -2  -5   4 452.685 49.3093   6
  -2   5  -4 417.620 49.6177   1
  -2  -5   4 381.285 49.2744   8
   2  -5  -4 460.930 49.1325   7
  -2  -5   5 863.506 100.958   8
  -2  -5   5 958.330 101.000   6
   2  -5  -5 962.681 100.983   3
  -2   5  -5 893.152 101.024   4
  -2  -5   5 946.013 100.857   2
   2  -5  -5 872.470 100.856   7
   2   5   5 971.646 100.990   4
   2  -5  -5 842.365 100.783   4
  -2  -5   6 332.412 33.9624   6
   2  -5  -6 292.079 33.8687   3
   2   5   6 347.946 33.8674   4
   2  -5  -6 273.836 33.4252   4
  -2   5  -6 295.556 33.9327   4
  -2  -5   6 300.970 33.6252   2
   2  -5  -6 295.437 33.5676   7
  -2  -5   6 298.102 33.8491   8
   2   5   7 0.10512 5.39660   4
   2  -5  -7 5.66462 3.96721   7
  -2  -5   7 10.8157 4.61947   2
  -2  -5   7 5.85775 6.37979   6
  -2   5  -7 9.92413 6.32610   4
  -2  -5   7 4.98539 5.93622   8
   2  -5  -7 10.4362 6.50557   3
   2  -5  -8 183.890 18.7988   7
   2  -5  -8 119.028 18.8795   5
   2   5   8 200.644 19.2873   4
  -2  -5   8 155.783 18.9966   2
   2  -5  -8 170.661 19.5548   3
  -2   5  -8 154.774 19.7115   4
  -2  -5   8 170.719 19.3649   8
   2  -5  -9 10.3207 5.93678   3
   2   5   9 7.65691 6.02217   4
   2  -5  -9 6.07650 4.61533   5
  -2  -5   9 11.1333 5.25907   2
   2  -5  -9 3.08604 4.10378   7
  -2   5  -9 0.13781 6.82794   4
  -2  -5   9-2.55017 6.30737   8
   2   5  10 9.41769 6.42276   4
   2  -5 -10 2.00059 4.57101   5
  -2  -5  10 3.07300 5.41863   2
   2  -5 -10 2.39314 4.27064   7
  -2   5 -10 2.12443 7.52057   4
  -2  -5  10 4.98744 6.78933   8
   2  -5 -10 4.58497 6.34723   3
   2  -5 -11 27.9648 7.27323   3
  -2  -5  11 29.0906 7.92563   8
   2  -5 -11 29.3043 5.73603   5
  -2  -5  11 23.6577 6.67420   2
   2   5  11 28.7905 7.22724   4
  -2   5 -11 37.4185 8.06001   4
  -2  -5  12 134.680 16.3041   2
   2  -5 -12 128.148 15.6863   5
   2  -5 -12 134.289 16.5370   3
  -2   5 -12 119.136 17.0730   4
   2   5  12 139.038 16.5004   4
  -2  -5  12 136.287 16.6539   8
   2   5  13 256.140 28.8998   4
   2  -5 -13 241.712 28.4087   5
  -2   5 -13 213.902 29.3996   4
   2  -5 -13 265.679 29.0157   3
  -2  -5  13 264.366 29.0735   8
  -2  -5  13 251.809 28.8614   2
   2  -5 -14 82.1343 11.2917   3
   2  -5 -14 67.2734 9.55161   5
  -2  -5  14 81.3468 10.9773   2
  -2   5 -14 52.2479 12.1695   4
  -2  -5  14 72.9651 11.5836   8
   2  -5 -15 93.9347 13.8985   3
  -2  -5  15 109.668 13.6816   2
  -2   5 -15 100.451 14.8168   4
  -2  -5  15 90.3557 14.0738   8
   2  -5 -16 55.6777 10.3727   3
  -2  -5  16 50.6303 10.3421   2
  -2   5 -16 62.9770 11.4005   4
  -2  -5  16 50.4525 10.8746   8
   2  -5 -17 110.229 16.5681   3
  -2  -5  17 139.456 16.6686   2
  -2   5 -17 119.164 17.3099   4
  -2  -5  17 132.256 17.0325   8
   2  -5 -18 146.125 17.5012   3
  -2  -5  18 137.539 17.7846   2
  -2   5 -18 113.486 18.3631   4
  -2  -5  18 132.628 18.0148   8
  -2   5 -19 109.721 17.6428   4
   2  -5 -19 118.833 16.6755   3
  -2  -5  19 140.933 16.9799   2
  -2  -5  20-8.30850 9.74779   2
  -2   5 -20 25.9635 11.0065   4
   2  -5 -20 20.5141 9.37886   3
   2  -5 -21 22.9494 9.97925   3
  -2  -5  21 28.9569 10.2413   2
  -2   5 -21 24.2122 11.6686   4
  -2  -5  22 23.7260 9.82554   2
   2  -5 -22 23.2387 10.2258   3
  -2   5 -22 7.03934 11.9225   4
   2  -5 -23-10.6082 10.2034   3
  -2  -5  23 12.5017 9.99632   2
   2  -5 -24 2.48577 10.8245   3
  -2  -5  24 10.1964 10.2309   2
   2  -5 -25 19.4636 11.2092   3
  -2  -5  25 16.3947 10.6903   2
   2  -5 -26 9.63549 10.9526   3
  -2  -5  26 24.3595 10.9047   2
   2  -5 -27-11.0433 11.0509   3
  -2  -5  27 17.8092 10.7682   2
  -2  -5  28 15.4089 10.4399   2
   2  -5 -28 0.22829 10.9788   3
  -2  -6 -28 0.23076 10.9493   3
  -2  -6 -27-0.22716 10.9963   3
   2  -6  27 12.5308 11.1512   2
   2  -6  26 0.48910 11.0173   2
  -2  -6 -26-26.1229 11.1458   3
  -2  -6 -25-6.78841 11.0428   3
   2  -6  25 2.39312 10.8963   2
   2  -6  25 5.89611 10.8724   8
   2  -6  24 4.50188 11.4672   2
   2  -6  24 24.3378 11.3432   8
   2  -6  23 22.9553 11.4188   2
   2  -6  23 48.9533 11.9401   8
  -2  -6 -23 35.4455 11.6560   3
   2  -6  22 25.2952 10.4675   2
  -2  -6 -22 42.1954 11.0935   3
   2  -6  22 6.84439 11.4440   8
   2  -6  21 26.5255 10.2705   2
   2  -6  21 13.0953 11.1405   8
  -2  -6 -21 17.1913 10.6983   3
   2  -6  20 25.4485 9.81069   2
   2  -6  20 1.47259 10.4947   8
  -2  -6 -20 0.19376 10.0636   3
  -2  -6 -19 33.7562 10.4102   3
   2  -6  19 22.8349 10.4919   8
  -2  -6 -18 42.7872 11.1912   3
   2  -6  18 47.8843 10.9465   8
  -2  -6 -17 103.716 15.3005   3
  -2  -6 -16 13.2249 9.16407   3
   2   6 -15 136.508 17.9374   4
  -2  -6 -15 144.764 18.1293   3
   2   6 -14 78.9654 12.3650   4
  -2  -6 -14 84.4409 12.7069   3
   2   6 -13 40.3198 9.05727   4
  -2  -6 -13 34.8942 9.43438   3
   2   6 -12 131.110 17.5844   4
  -2  -6 -12 150.916 17.9727   3
   2   6 -11 10.1795 7.88191   4
  -2  -6 -11 58.7146 9.27057   3
   2  -6  10 844.483 99.3493   6
  -2  -6 -10 1055.39 99.6756   3
   2   6 -10 824.737 99.4634   4
   2  -6   9 119.920 16.9432   6
   2   6  -9 128.987 17.1433   4
   2   6  -8 682.408 79.3509   4
   2  -6   8 613.165 79.2093   6
  -2  -6  -8 754.056 79.4921   3
   2   6  -8 848.974 79.4812   9
   2   6  -7 16.6710 7.84831   9
  -2  -6  -7 1.19326 7.44097   3
  -2   6   7 3.11040 5.01572   4
   2   6  -7 6.36460 6.24655   4
   2   6  -6 328.877 29.9120   9
  -2  -6  -6 349.901 30.0471   3
  -2   6   6 196.058 29.2678   4
   2   6  -6 241.685 29.6669   4
  -2   6   5 60.7593 10.6925   4
   2   6  -5 104.594 11.4743   4
  -2  -6  -5 100.036 12.0425   3
   2   6  -5 88.6593 11.7803   9
   2   6  -4 1113.67 119.874   4
  -2  -6  -4 1333.36 119.988   3
   2   6  -4 1340.46 119.952   9
   2   6  -3 482.195 43.9116   9
   2   6  -3 453.824 43.8750   4
  -2  -6  -3 437.590 43.8522   3
   2  -6   3 368.048 43.5484   7
  -2  -6  -2 42.1354 9.23460   3
   2  -6   2 51.0209 7.67595   7
   2  -6   2 61.7663 7.90267   3
   2   6  -2 71.0134 8.61719   4
  -2   6   2 36.5181 7.89733   4
   2  -6   1 111.543 13.6554   7
   2  -6   1 130.475 13.9941   3
  -2  -6  -1 90.5528 13.5032   8
   2  -6   1 131.939 13.4864   1
  -2  -6  -1 118.406 14.3523   3
   2   6  -1 127.833 14.2942   4
   2   6  -1 118.347 13.0628   7
  -2   6   1 79.5777 13.8129   4
  -2  -6   0 1291.22 125.767   3
   2  -6   0 1242.97 125.642   3
   2  -6   0 1183.50 125.536   1
   2   6   0 1195.27 125.721   4
  -2  -6   0 1000.64 125.527   8
  -2   6   0 952.096 125.625   4
   2  -6   0 1117.60 125.602   7
  -2   6  -1 71.2165 12.1416   4
   2   6   1 105.560 12.3176   4
   2  -6  -1 91.4083 11.6186   7
  -2  -6   1 98.2980 11.8684   8
   2  -6  -1 90.9767 12.2240   3
  -2   6  -1 105.399 11.7159   9
   2  -6  -1 98.3405 11.4269   1
   2  -6  -2 94.2841 10.1674   3
  -2  -6   2 92.4421 10.7563   6
   2   6   2 89.9142 10.3722   4
   2  -6  -2 75.6173 9.41567   7
  -2   6  -2 76.3475 9.40244   9
  -2   6  -2 59.6200 10.2183   4
   2  -6  -2 55.1889 9.35785   1
  -2  -6   2 66.0956 9.95749   8
   2  -6  -3 444.896 44.4624   3
  -2   6  -3 340.572 44.5052   4
  -2  -6   3 396.520 44.3777   8
  -2  -6   3 447.732 44.5366   6
  -2   6  -3 452.405 44.2185   9
   2   6   3 433.382 44.4945   4
   2  -6  -3 392.241 44.2631   7
  -2   6  -4 1237.00 129.201   9
   2   6   4 1301.08 129.408   4
  -2  -6   4 1126.70 129.339   6
   2  -6  -4 1057.02 129.240   7
   2  -6  -4 1268.14 129.366   3
  -2   6  -4 1011.58 129.368   4
  -2  -6   4 1123.84 129.306   8
  -2  -6   5 116.089 14.1717   6
   2   6   5 117.296 14.0326   4
   2  -6  -5 129.264 13.9173   3
   2  -6  -5 102.385 13.2144   7
  -2  -6   5 100.774 13.9794   8
  -2   6  -5 105.435 14.3556   4
   2  -6  -6 231.726 23.8076   3
   2   6   6 222.496 23.8171   4
  -2   6  -6 173.738 24.0033   4
  -2  -6   6 206.492 23.3311   2
   2  -6  -6 191.784 23.2555   7
  -2  -6   6 201.130 23.8730   8
  -2  -6   6 208.122 23.9344   6
  -2  -6   7 13.4686 7.02329   6
   2   6   7 13.6365 6.38223   4
   2  -6  -7 5.99401 4.04957   7
  -2   6  -7 0.96160 7.01772   4
  -2  -6   7 8.00684 4.72856   2
  -2  -6   7 13.5199 6.84942   8
   2  -6  -7-2.63726 6.64171   3
  -2  -6   8 681.562 74.6417   2
   2  -6  -8 613.716 74.8266   3
   2   6   8 694.208 74.7818   4
  -2   6  -8 593.894 74.8922   4
  -2  -6   8 724.149 74.8726   6
  -2  -6   8 682.834 74.8297   8
  -2  -6   9 144.752 16.8177   8
  -2  -6   9 140.547 16.9413   6
   2   6   9 138.069 16.5458   4
  -2   6  -9 143.525 17.2924   4
  -2  -6   9 125.552 16.0771   2
   2  -6  -9 121.902 16.6909   3
  -2   6 -10 883.267 98.9921   4
   2  -6 -10 887.013 98.9059   3
  -2  -6  10 845.571 98.6860   2
  -2  -6  10 902.106 98.7933   8
   2   6  10 905.129 98.7573   4
   2   6  11 33.4343 7.46187   4
  -2   6 -11 29.7332 9.13198   4
  -2  -6  11 18.7029 7.17157   2
   2  -6 -11 18.8946 9.30140   3
  -2  -6  11 36.2539 8.29241   8
   2  -6 -12 143.274 17.9671   3
  -2   6 -12 155.810 18.2969   4
  -2  -6  12 143.604 17.2460   2
   2   6  12 123.342 17.3630   4
  -2  -6  12 142.745 17.7221   8
   2   6  13 36.0647 8.60385   4
  -2   6 -13 42.9781 10.5092   4
  -2  -6  13 36.3149 8.82825   2
  -2  -6  13 62.2776 9.48483   8
   2  -6 -13 45.9769 9.76479   3
   2  -6 -13 41.0687 7.12310   5
   2   6  14 77.8840 12.0678   4
  -2  -6  14 95.7129 12.2102   2
  -2   6 -14 77.1545 13.7030   4
  -2  -6  14 90.5283 12.7752   8
   2  -6 -14 77.9834 12.7904   3
   2  -6 -15 136.559 16.0345   3
   2   6  15 87.0146 15.3259   4
  -2  -6  15 137.568 16.1110   8
  -2  -6  15 136.930 15.7098   2
  -2   6 -15 102.721 17.1052   4
  -2  -6  16 16.5893 8.42812   2
  -2  -6  16 11.0901 9.27139   8
  -2   6 -16 17.8546 10.4807   4
   2  -6 -16 20.2202 9.11749   3
   2  -6 -17 106.702 15.0323   3
  -2  -6  17 99.8596 15.4484   8
  -2  -6  17 118.052 14.9316   2
  -2   6 -17 98.7534 16.3842   4
   2  -6 -18 35.6934 10.2532   3
  -2  -6  18 59.4384 10.5098   2
  -2   6 -18 49.2653 12.1944   4
  -2  -6  18 28.9785 11.1486   8
   2  -6 -19 7.61342 9.45465   3
  -2  -6  19 20.5648 9.59463   2
  -2  -6  19 4.89375 10.4984   8
  -2   6 -19 16.7341 11.3760   4
  -2  -6  20-18.0289 9.84024   2
   2  -6 -20-1.65653 9.81140   3
  -2   6 -20 0.24329 11.6908   4
  -2  -6  20-0.56086 10.8101   8
   2  -6 -21 2.66526 9.98725   3
  -2  -6  21 14.4547 9.79005   2
  -2   6 -21 15.2800 11.7624   4
   2  -6 -22 30.2863 11.0444   3
  -2   6 -22 0.25429 12.5079   4
   2  -6 -23 29.6441 11.6497   3
  -2  -6  23 50.0238 11.1860   2
   2  -6 -24 30.1966 11.3741   3
  -2  -6  24 48.1924 11.6740   2
   2  -6 -25 7.92817 10.9344   3
  -2  -6  25 6.08979 10.7477   2
   2  -6 -26 0.22015 10.9389   3
  -2  -6  26 22.3679 10.5002   2
   2  -6 -27 0.22842 11.1105   3
  -2  -6  27 16.5546 10.9130   2
  -2  -7 -26 0.22248 10.7344   3
   2  -7  26 5.77176 10.9154   2
   2  -7  26 7.14616 11.1242   8
  -2  -7 -25 0.21892 10.6279   3
   2  -7  25 4.46382 11.2501   2
   2  -7  25 6.04510 11.2328   8
   2  -7  24 16.4433 11.1739   2
  -2  -7 -24 8.18344 10.7960   3
   2  -7  24 9.10026 11.6948   8
  -2  -7 -23 11.2054 10.7448   3
   2  -7  23 17.3328 10.9808   2
   2  -7  23 1.90596 11.5163   8
   2  -7  22 19.5786 10.5072   2
  -2  -7 -22 23.0109 10.7009   3
   2  -7  21 31.0031 11.0714   2
  -2  -7 -21 30.6644 11.4226   3
   2  -7  21 43.3637 12.4630   8
   2  -7  20 1.46941 9.98082   2
   2  -7  20 20.2472 11.1986   8
  -2  -7 -20 12.7020 10.4794   3
  -2  -7 -19 20.4390 10.5131   3
   2  -7  19 32.5373 10.3605   2
   2  -7  19 22.9291 11.0509   8
  -2  -7 -18 12.5527 10.0851   3
   2  -7  18 24.2259 10.4481   8
  -2  -7 -17 24.7424 10.1935   3
  -2  -7 -16 41.9546 10.6622   3
   2   7 -16 28.2517 9.99148   4
   2   7 -15 55.3366 11.3604   4
  -2  -7 -15 62.1521 11.9765   3
   2   7 -14 62.9644 12.1519   4
  -2  -7 -14 85.9623 13.0801   3
  -2  -7 -13 75.6716 12.9256   3
   2   7 -13 70.6462 11.9966   4
   2   7 -12 45.7500 9.67526   4
  -2  -7 -12 39.1331 10.7891   3
   2   7 -11 66.5053 12.3877   4
  -2  -7 -11 102.857 13.2434   3
   2  -7  10 49.3352 9.45004   6
   2   7 -10 44.7572 9.90649   4
  -2  -7 -10 65.6025 10.8619   3
   2  -7   9 266.857 36.6884   6
  -2  -7  -9 366.746 37.2332   3
   2   7  -9 294.736 36.9316   4
   2   7  -9 396.611 37.1893   9
   2  -7   8 51.8702 9.56969   6
   2   7  -8 67.6864 10.4245   9
  -2  -7  -8 43.8483 10.7584   3
   2   7  -8 38.2646 9.40624   4
  -2   7   7 25.6123 7.07190   4
  -2  -7  -7 34.9763 9.43409   3
   2   7  -7 34.3279 8.61748   4
  -2   7   6 36.2270 8.62261   4
  -2  -7  -6 65.7485 10.8266   3
   2   7  -6 54.0075 9.77646   4
  -2  -7  -5 566.642 50.6615   3
   2   7  -5 559.634 50.4559   9
   2   7  -5 469.692 50.4039   4
  -2  -7  -4 309.719 33.1631   3
   2   7  -4 324.006 33.0649   4
   2   7  -4 365.195 33.2362   9
   2   7  -3 304.913 28.7635   9
  -2  -7  -3 253.400 28.7872   3
   2   7  -3 276.723 28.7033   4
   2   7  -2 29.9350 8.38734   4
  -2  -7  -2 40.8707 8.89801   3
   2  -7   2 28.1080 6.91256   3
   2  -7   2 31.8037 6.41200   7
  -2   7   2 20.8548 6.99235   4
   2  -7   1 320.796 31.6877   3
  -2  -7  -1 295.782 31.9101   3
  -2   7   1 204.876 31.6110   4
   2   7  -1 317.326 31.8546   4
   2  -7   1 263.993 31.4425   7
   2   7   0-3.53407 6.78949   4
   2  -7   0 0.81734 5.30962   7
  -2  -7   0-17.5821 7.51825   3
   2  -7   0 1.24356 6.14311   3
  -2   7   0 4.50370 6.25185   4
   2  -7  -1 291.026 30.6611   7
   2  -7  -1 327.091 30.8655   3
  -2   7  -1 218.175 30.7820   4
  -2  -7   1 215.079 30.5948   8
   2   7   1 319.153 31.0503   4
   2   7   2 32.6631 7.69076   4
  -2  -7   2 37.5656 8.16987   6
   2  -7  -2 18.4311 7.35941   3
  -2   7  -2 29.3005 7.40023   4
  -2  -7   2 25.6869 6.66623   8
   2  -7  -2 25.4041 5.79934   7
  -2  -7   3 277.874 30.0945   6
   2  -7  -3 333.548 30.0231   3
   2   7   3 281.865 29.9537   4
  -2   7  -3 217.595 29.8905   4
  -2  -7   3 267.610 29.8064   8
   2  -7  -3 218.476 29.4606   7
   2  -7  -4 271.097 26.8492   3
  -2  -7   4 240.060 26.8780   6
  -2   7  -4 220.713 26.9393   4
  -2  -7   4 236.030 26.7261   8
   2   7   4 254.579 26.7505   4
   2  -7  -4 192.778 26.2125   7
   2  -7  -5 569.279 50.2794   3
   2  -7  -5 387.808 49.7527   7
   2   7   5 454.021 50.0816   4
  -2  -7   5 456.473 50.1396   6
  -2   7  -5 388.091 50.2457   4
  -2  -7   5 468.618 50.1382   8
  -2   7  -6 48.4849 10.1178   4
  -2  -7   6 63.8265 9.97159   6
   2   7   6 58.4438 9.31301   4
  -2  -7   6 54.6584 9.77741   8
   2  -7  -6 48.1671 9.71793   3
   2   7   7 29.8478 7.79793   4
  -2  -7   7 35.6659 8.43560   6
   2  -7  -7 6.59985 8.06185   3
  -2   7  -7 25.9732 8.57564   4
  -2  -7   7 34.3883 8.04725   8
  -2  -7   8 67.4794 10.3514   6
   2   7   8 48.2831 9.60692   4
  -2   7  -8 54.1351 10.4332   4
   2  -7  -8 56.5605 9.75711   3
  -2  -7   8 52.8034 10.0202   8
   2   7   9 275.697 34.4882   4
   2  -7  -9 306.568 34.6517   3
  -2   7  -9 287.295 34.8322   4
  -2  -7   9 317.873 34.7646   6
  -2  -7   9 318.424 34.6651   8
   2   7  10 45.7391 8.84998   4
  -2   7 -10 38.3562 10.3051   4
  -2  -7  10 43.3382 9.31057   8
   2  -7 -10 34.4369 9.31053   3
  -2  -7  11 62.9204 11.0257   8
   2   7  11 64.7073 10.5179   4
  -2   7 -11 62.0668 12.4209   4
   2  -7 -11 70.0165 11.3271   3
   2   7  12 61.4332 9.61756   4
  -2  -7  12 44.9720 9.14882   2
   2  -7 -12 46.1873 10.7168   3
  -2   7 -12 42.1522 11.4417   4
  -2  -7  12 57.7227 10.3462   8
   2  -7 -13 50.6446 11.2953   3
   2   7  13 53.6836 10.5297   4
  -2  -7  13 69.7233 10.3098   2
  -2   7 -13 56.1214 12.3805   4
  -2  -7  13 80.4229 11.2426   8
   2   7  14 70.4511 10.2129   4
  -2  -7  14 61.2423 10.2286   2
   2  -7 -14 50.1786 11.0946   3
  -2   7 -14 40.0704 12.0389   4
  -2  -7  14 56.8487 10.9875   8
  -2   7 -15 52.5570 12.5542   4
   2  -7 -15 50.7786 11.5724   3
  -2  -7  15 57.5816 10.3803   2
  -2  -7  15 50.4595 10.8973   8
  -2  -7  16 35.8363 9.68192   2
  -2   7 -16 33.9054 12.1296   4
  -2  -7  16 31.3052 10.4213   8
   2  -7 -16 38.8045 10.8577   3
  -2  -7  17 23.6465 9.79534   2
  -2   7 -17 20.9571 12.2898   4
  -2  -7  17 38.2978 10.8732   8
   2  -7 -17 43.4492 11.1777   3
  -2  -7  18 12.8646 9.77773   2
   2  -7 -18 29.5503 11.3948   3
  -2  -7  18 14.4210 10.6879   8
  -2   7 -18 9.52875 11.7301   4
  -2  -7  19 28.9527 11.3499   8
  -2  -7  19 27.8524 10.2365   2
   2  -7 -19 36.1491 11.9754   3
  -2   7 -19 27.2045 12.6454   4
  -2  -7  20-0.79320 11.0277   8
   2  -7 -20 12.3547 11.2030   3
  -2  -7  20-13.1177 9.70267   2
  -2   7 -20-8.72487 12.1368   4
  -2   7 -21 31.1356 13.0181   4
  -2  -7  21 24.8630 10.7912   2
  -2  -7  21 41.1083 12.1020   8
   2  -7 -21 27.4311 11.6144   3
  -2  -7  22 15.9540 10.0644   2
   2  -7 -22-6.54867 11.5614   3
  -2   7 -22 8.94133 12.4813   4
  -2  -7  23 35.4854 11.2377   2
   2  -7 -23 29.4795 12.3210   3
  -2  -7  24 20.6476 10.4448   2
   2  -7 -24-0.23814 11.7936   3
  -2  -7  25 18.0334 11.1429   2
   2  -7 -25 20.2682 12.3656   3
  -2  -7  26 12.3243 10.7479   2
   2  -7 -26-0.26326 12.6135   3
  -2  -8 -25-0.23158 11.1678   3
   2  -8  25 0.44134 11.4803   8
   2  -8  25 3.30305 11.1811   2
   2  -8  24 11.2532 12.0270   8
   2  -8  24 0.74745 10.8310   2
  -2  -8 -24 0.70222 11.3545   3
  -2  -8 -23-5.53767 11.3411   3
   2  -8  23 7.87308 12.3833   8
   2  -8  23 17.0683 11.0369   2
   2  -8  22 3.06309 10.8026   2
  -2  -8 -22 11.5810 11.2005   3
   2  -8  22-0.44932 12.0979   8
   2  -8  21 11.6625 10.8489   2
  -2  -8 -21 21.6694 11.6942   3
   2  -8  21 13.9615 12.5868   8
   2  -8  20 46.6884 12.0604   2
  -2  -8 -20 52.2238 13.0512   3
   2  -8  20 51.4910 13.0979   8
   2  -8  19 21.1284 10.1656   2
  -2  -8 -19-9.28319 11.6172   3
   2  -8  19 13.8094 11.2134   8
  -2  -8 -18 58.2522 13.2591   3
   2  -8  18 57.2438 12.9801   8
  -2  -8 -17 21.0819 11.6669   3
  -2  -8 -16 22.6020 11.7003   3
   2   8 -16 23.1032 10.4224   4
  -2  -8 -15 56.4588 12.4062   3
   2   8 -15 41.1159 11.3661   4
   2   8 -14 96.7594 15.3924   4
  -2  -8 -14 112.445 16.2618   3
  -2  -8 -13 17.9595 10.3525   3
   2   8 -13 4.11625 9.44385   4
   2   8 -12 28.0470 9.53730   4
  -2  -8 -12 31.2301 10.6801   3
   2   8 -11 6.15506 9.15332   4
  -2  -8 -11 36.0751 10.1631   3
   2   8 -10 43.0736 10.9297   4
  -2  -8 -10 73.8600 12.1004   3
   2  -8   9 15.4745 8.41985   6
   2   8  -9 15.5824 8.80752   4
  -2  -8  -9 14.3730 9.84499   3
   2   8  -9 31.6253 9.69474   9
   2   8  -8 17.0550 8.47164   4
   2  -8   8 7.28007 8.52760   6
  -2  -8  -8 16.4001 9.77989   3
   2   8  -8 30.4954 9.55865   9
   2   8  -7 9.00682 8.11428   4
  -2  -8  -7 14.5199 9.87962   3
   2   8  -7 23.7889 9.22624   9
  -2  -8  -6 244.124 26.0025   3
   2   8  -6 223.306 25.4799   4
   2   8  -6 276.958 25.7197   9
   2   8  -5 26.7267 8.37882   4
   2   8  -5 22.6973 8.65499   9
  -2  -8  -5 18.8754 9.35870   3
  -2   8   5 15.2025 7.16475   4
   2   8  -4 46.7849 9.46279   4
  -2  -8  -4 56.4505 10.4488   3
  -2   8   4 25.8315 8.15765   4
   2   8  -4 53.7122 10.2352   9
   2   8  -3 13.7650 9.07263   9
  -2  -8  -3 11.3356 9.00734   3
   2   8  -3 12.3345 8.32841   4
  -2   8   3 7.39228 7.00632   4
  -2   8   2 123.699 21.1057   4
   2  -8   2 181.121 21.0495   3
   2   8  -2 211.407 21.8181   9
  -2  -8  -2 199.416 21.8146   3
   2   8  -2 192.450 21.6503   4
   2   8  -1 21.0489 8.95154   4
   2  -8   1 21.4496 6.55355   7
  -2  -8  -1 29.2558 8.95909   3
   2  -8   1 28.2758 7.62397   3
  -2   8   1 11.3196 7.60434   4
   2   8   0 288.010 28.0717   4
   2  -8   0 202.440 27.3105   7
  -2  -8   0 269.777 28.0989   3
   2  -8   0 280.453 27.8454   3
  -2   8   0 186.407 27.7855   4
   2   8   1 17.0019 8.09130   4
   2  -8  -1 13.5559 7.41722   3
   2  -8  -1 20.0518 5.88406   7
  -2   8  -1 8.61823 7.49348   4
   2  -8  -2 219.319 20.9539   3
  -2   8  -2 138.586 20.8851   4
  -2  -8   2 184.694 21.2728   6
   2   8   2 190.795 21.0832   4
   2  -8  -2 149.872 20.1311   7
  -2  -8   3-6.63578 8.45130   6
   2  -8  -3 6.40182 7.92163   3
   2  -8  -3 0.74399 5.54736   7
  -2  -8   3 4.88775 7.18020   8
  -2   8  -3 9.54602 7.73111   4
   2   8   3 6.81080 7.62000   4
  -2  -8   4 24.6458 8.75847   6
   2   8   4 15.7535 8.12548   4
   2  -8  -4 31.5321 8.62562   3
  -2  -8   4 23.1765 7.77995   8
  -2   8  -4 16.2830 8.71208   4
  -2   8  -5 6.77504 8.19473   4
   2   8   5 15.0826 7.99240   4
  -2  -8   5 21.6245 8.35248   6
   2  -8  -5 19.9868 8.09529   3
  -2  -8   5 9.91964 8.11347   8
  -2   8  -6 208.859 26.5277   4
   2  -8  -6 230.855 26.5715   3
  -2  -8   6 223.039 26.5407   6
  -2  -8   6 237.350 26.4660   8
   2   8   6 219.038 26.4137   4
  -2  -8   7 16.1016 8.80882   6
  -2   8  -7 9.69508 8.93628   4
   2   8   7 10.3236 7.78295   4
   2  -8  -7 10.0565 8.37097   3
  -2  -8   7 8.36269 8.27727   8
  -2  -8   8 28.6314 9.36775   6
   2   8   8 20.1204 8.49586   4
  -2  -8   8 35.8983 8.98300   8
  -2   8  -8 17.7462 9.55097   4
   2  -8  -8 33.5033 9.39956   3
  -2  -8   9 14.1780 9.04419   8
  -2   8  -9 21.6463 9.59096   4
  -2  -8   9 18.2269 9.37717   6
   2   8   9 19.0683 7.95756   4
   2  -8  -9 17.7784 8.99650   3
  -2  -8  10 24.5996 9.85379   6
   2  -8 -10 41.8051 9.57064   3
   2   8  10 34.1435 9.15648   4
  -2   8 -10 38.5967 10.6185   4
  -2  -8  10 29.4466 9.58034   8
   2   8  11 18.8467 8.68270   4
  -2   8 -11 21.9104 10.6488   4
   2  -8 -11 23.2833 9.39940   3
  -2  -8  11 39.8722 9.50228   8
   2   8  12 23.8277 9.03124   4
  -2  -8  12 25.5523 9.75008   8
   2  -8 -12 30.5261 9.70045   3
  -2   8 -12 35.6265 10.9884   4
   2   8  13 16.8484 8.61946   4
  -2   8 -13 21.2969 10.7528   4
   2  -8 -13 20.1982 9.53275   3
  -2  -8  13 8.78456 9.56309   8
   2   8  14 71.2761 13.8177   4
  -2   8 -14 87.1359 15.6219   4
  -2  -8  14 123.489 14.7029   8
   2  -8 -14 110.625 14.8431   3
  -2   8 -15 30.7668 12.2470   4
  -2  -8  15 48.1739 10.9449   8
   2  -8 -15 40.9795 10.9713   3
  -2   8 -16 19.7907 12.0111   4
  -2  -8  16 12.6531 10.2622   8
   2  -8 -16 21.8881 10.4073   3
  -2   8 -17-6.46103 12.3054   4
  -2  -8  17 21.0794 10.2800   8
   2  -8 -17 13.7569 10.5430   3
   2  -8 -18 66.4445 13.3848   3
  -2  -8  18 74.8318 13.1149   8
  -2   8 -18 49.9837 14.6611   4
  -2  -8  19 0.40066 11.2900   8
   2  -8 -19 0.21335 11.0824   3
  -2   8 -19 4.07053 12.4515   4
  -2  -8  20 67.1108 13.1764   8
  -2   8 -20 43.8550 14.4832   4
   2  -8 -20 37.9792 12.5782   3
  -2  -8  21 13.9800 10.3791   2
  -2   8 -21 11.2943 13.2787   4
  -2  -8  21 13.5587 11.7086   8
   2  -8 -21 1.98055 11.1996   3
   2  -8 -22 4.96082 11.6411   3
  -2  -8  22 26.5880 10.4206   2
  -2   8 -22 4.74367 13.6582   4
  -2  -8  23 22.1547 10.6202   2
   2  -8 -23 1.15405 11.4259   3
   2  -8 -24 2.83176 11.6866   3
  -2  -8  24 18.8969 10.7863   2
  -2  -8  25 21.1046 11.1995   2
   2  -9  24 4.06902 10.9224   2
  -2  -9 -23 0.25677 12.2590   3
   2  -9  23-0.50064 11.1227   2
   2  -9  23 10.0810 12.6153   8
   2  -9  22 8.42060 11.2348   2
  -2  -9 -22 8.88648 12.5319   3
   2  -9  22 22.2681 12.9902   8
  -2  -9 -21 27.8197 12.8905   3
   2  -9  21 3.77585 10.7425   2
   2  -9  21 26.7316 13.1459   8
   2  -9  20 5.61426 10.6554   2
  -2  -9 -20 27.4603 12.4519   3
   2  -9  20 36.1580 12.7677   8
   2  -9  19 8.08620 10.5528   2
   2  -9  19 6.68064 11.8577   8
  -2  -9 -19 19.7023 12.3647   3
  -2  -9 -18 17.2975 12.0126   3
   2  -9  18 6.77308 9.95823   2
   2  -9  18 2.08924 11.6367   8
  -2  -9 -17 30.9854 12.3951   3
  -2  -9 -16 27.4734 11.8118   3
   2   9 -16 24.7018 11.4009   4
  -2  -9 -15 1.09557 11.3855   3
   2   9 -15 20.4704 10.8035   4
  -2  -9 -14 15.4469 11.6521   3
   2   9 -14 13.5582 10.6266   4
  -2  -9 -13 12.4542 11.2479   3
   2   9 -13 7.71610 10.3463   4
  -2  -9 -12 95.4140 14.4102   3
   2   9 -12 56.6147 12.8219   4
   2   9 -11 19.4663 10.9494   4
  -2  -9 -11 77.8350 12.6249   3
  -2  -9 -10 24.4044 11.6820   3
   2   9 -10 30.2206 10.3131   4
   2  -9   9 21.7876 9.25849   6
   2   9  -9 5.11034 9.41211   4
   2   9  -9 26.2004 10.1498   9
  -2  -9  -9-0.82454 10.9043   3
   2  -9   8 73.2226 14.8008   6
  -2  -9  -8 127.711 15.9397   3
   2   9  -8 141.717 15.5247   9
   2   9  -8 78.1886 14.9007   4
   2   9  -7 22.3939 10.2638   9
   2   9  -7 23.2884 9.45126   4
  -2  -9  -7 24.0123 10.8074   3
  -2  -9  -6 218.798 28.9034   3
   2   9  -6 214.350 28.6771   4
   2   9  -6 287.084 28.7646   9
   2   9  -5 50.0910 10.0350   9
  -2  -9  -5 38.7048 10.7155   3
   2   9  -5 29.9313 9.66781   4
  -2   9   5 10.1102 8.17973   4
   2   9  -4 12.2305 9.51706   9
  -2  -9  -4 4.62828 10.0177   3
  -2   9   4 16.8956 7.82242   4
   2   9  -4 8.35376 8.99296   4
   2   9  -3 40.0859 9.86992   4
   2   9  -3 38.6626 10.2903   9
  -2  -9  -3 28.4636 10.0739   3
  -2   9   3 24.7089 8.58084   4
   2   9  -2 52.1970 10.5175   4
  -2  -9  -2 44.0554 10.4198   3
   2   9  -2 50.1112 10.7047   9
  -2   9   2 38.9532 9.56066   4
   2   9  -1 22.3105 9.13456   4
  -2  -9  -1 6.55834 9.18180   3
  -2   9   1 13.1715 8.06284   4
   2   9   0 6.29184 9.45864   4
  -2   9   0 6.28343 8.22218   4
   2  -9   0 5.39349 7.94536   3
   2  -9  -1 21.0968 8.95331   3
  -2   9  -1 20.4343 8.71461   4
   2   9   1 24.4008 9.78812   4
   2   9   2 53.9834 10.7591   4
  -2  -9   2 66.8299 11.4067   6
   2  -9  -2 61.4636 10.1426   3
  -2   9  -2 28.5181 10.5414   4
  -2  -9   3 43.1707 10.2768   6
   2   9   3 33.6654 9.76221   4
   2  -9  -3 41.1275 9.36640   3
  -2   9  -3 21.9657 9.38372   4
   2   9   4 18.1291 9.17684   4
  -2  -9   4 23.4051 9.45577   6
  -2   9  -4 9.83298 9.25271   4
   2  -9  -4 13.9931 9.34984   3
   2   9   5 29.7429 9.30103   4
  -2  -9   5 20.2606 9.51923   6
   2  -9  -5 11.3776 9.25849   3
  -2   9  -5 20.3004 9.43905   4
   2  -9  -6 285.594 26.8596   3
  -2   9  -6 188.996 26.8175   4
  -2  -9   6 179.650 26.6790   6
  -2  -9   6 232.521 26.4630   8
   2   9   6 224.057 26.5368   4
   2   9   7 46.8597 10.0434   4
  -2  -9   7 47.5609 10.7230   6
   2  -9  -7 33.1890 10.3137   3
  -2   9  -7 33.6115 10.8473   4
  -2  -9   7 39.1201 10.0651   8
  -2  -9   8 99.6628 14.4223   8
  -2  -9   8 100.724 14.5316   6
   2   9   8 84.0871 13.9099   4
   2  -9  -8 102.650 14.4714   3
  -2   9  -8 91.2248 15.0870   4
   2   9   9-5.07729 8.63745   4
   2  -9  -9 2.82101 9.35927   3
  -2   9  -9 17.6459 9.81551   4
  -2  -9   9-9.57479 9.50759   8
  -2  -9   9 9.79178 10.0211   6
  -2  -9  10 31.1732 10.6850   6
   2   9  10 21.1725 9.14470   4
   2  -9 -10 29.1492 10.5417   3
  -2   9 -10 20.3208 10.8429   4
  -2  -9  10 38.6576 10.1667   8
  -2  -9  11 51.6536 11.9061   6
   2  -9 -11 59.6380 12.1388   3
   2   9  11 39.7392 10.5226   4
  -2  -9  11 54.9667 11.4778   8
  -2   9 -11 59.8395 12.5433   4
   2   9  12 77.0240 12.6830   4
  -2   9 -12 81.6262 15.1307   4
  -2  -9  12 77.7549 13.6134   8
   2  -9 -12 90.0857 13.9555   3
   2   9  13 10.2255 8.52611   4
  -2   9 -13-0.24724 12.1276   4
   2  -9 -13 8.52727 10.0841   3
  -2  -9  13-16.3111 10.3331   8
  -2   9 -14 4.18210 11.3433   4
   2  -9 -14-7.78630 9.96742   3
  -2  -9  14 14.8030 10.4182   8
  -2   9 -15 0.74476 11.3959   4
  -2  -9  15 0.55709 10.4910   8
   2  -9 -15 1.15676 10.0084   3
  -2   9 -16-0.25786 12.1401   4
  -2  -9  16 2.29266 10.6397   8
   2  -9 -16-3.68404 10.1990   3
  -2  -9  17-6.66479 10.9171   8
  -2   9 -17 6.05432 12.7559   4
   2  -9 -17 0.79468 10.1009   3
   2  -9 -18 10.9717 10.7855   3
  -2   9 -18-5.53949 13.4980   4
  -2  -9  18 2.03662 11.2864   8
  -2  -9  19 6.60033 11.7447   8
  -2   9 -19 5.32596 13.7705   4
   2  -9 -19 15.5503 11.1779   3
   2  -9 -20 7.07068 11.3027   3
  -2   9 -20 14.5834 13.6726   4
  -2  -9  20 32.6292 12.3056   8
  -2   9 -21 20.5603 13.9193   4
  -2  -9  21 16.6285 12.1400   8
   2  -9 -21-0.90260 11.1884   3
   2  -9 -22 2.57765 11.6358   3
  -2   9 -22 7.05561 13.7626   4
  -2  -9  22 17.8708 12.4873   8
   2  -9 -23 0.47779 11.5407   3
  -2 -10 -21-0.25378 12.1586   3
   2 -10  21 2.28250 13.3832   8
  -2 -10 -20 11.5387 12.1377   3
   2 -10  20 1.72110 13.1515   8
  -2 -10 -19 4.21701 12.0145   3
   2 -10  19-2.77351 12.5577   8
  -2 -10 -18 9.91206 12.6943   3
   2 -10  18 4.04623 12.1562   8
   2 -10  17 16.4428 12.3740   8
  -2 -10 -17 37.1701 12.8642   3
   2  10 -16 9.32368 11.6636   4
  -2 -10 -16 19.4378 12.5325   3
  -2 -10 -15 21.8605 12.7860   3
   2  10 -15 19.9916 11.8560   4
   2  10 -14 3.30688 11.1990   4
  -2 -10 -14-5.02953 12.2879   3
  -2 -10 -13 4.02977 12.1310   3
   2  10 -13-8.25589 11.0258   4
  -2 -10 -12 38.2033 12.3951   3
   2  10 -12 8.78660 10.8940   4
  -2 -10 -11 57.9969 13.6494   3
   2  10 -11 40.1592 11.8735   4
  -2 -10 -10 50.8570 12.6637   3
   2  10 -10 11.0524 11.0139   4
   2  10  -9 13.0037 10.6580   4
  -2 -10  -9 31.4197 11.6271   3
   2  10  -9 23.3103 10.7323   9
   2 -10   8 17.0942 10.3078   6
  -2 -10  -8 37.4637 11.5340   3
   2  10  -8 27.8337 11.0382   9
   2  10  -8 14.9119 10.3471   4
   2  10  -7 118.999 15.6834   9
   2 -10   7 74.2279 15.3920   6
  -2 -10  -7 112.726 15.7403   3
   2  10  -7 96.5766 15.1299   4
   2  10  -6 18.1808 10.6342   9
  -2 -10  -6 30.2329 11.6683   3
   2  10  -6 4.02691 9.84255   4
  -2 -10  -5 14.0007 10.9795   3
   2  10  -5 6.06358 10.0969   9
   2  10  -5-5.42497 9.63126   4
   2  10  -4 12.6063 9.95902   4
   2  10  -4 25.8942 10.1981   9
  -2 -10  -4 29.1745 10.7382   3
  -2  10   4 24.2583 8.95388   4
   2  10  -3 113.390 16.4706   4
  -2 -10  -3 122.473 16.8715   3
  -2  10   3 99.5591 15.6767   4
   2  10  -3 131.251 16.5385   9
   2  10  -2 15.3204 10.2969   4
   2  10  -2 18.8227 10.2566   9
  -2  10   2 10.8956 9.22110   4
  -2 -10  -2 28.0887 10.4001   3
   2  10  -1 83.6934 13.0182   4
   2  10  -1 85.3727 13.2012   9
  -2  10   1 52.5235 12.4811   4
   2  10   0 8.43630 10.1785   4
  -2  10   0 0.18409 8.96272   4
  -2 -10   1 93.1901 13.9556   6
  -2  10  -1 50.1212 12.7159   4
   2  10   1 91.0599 13.2598   4
  -2 -10   2 19.3918 10.8677   6
   2  10   2 5.76143 10.4742   4
  -2  10  -2 12.3043 9.44395   4
   2  10   3 138.755 17.9055   4
  -2 -10   3 116.758 17.7264   6
  -2  10  -3 111.950 17.3149   4
   2 -10  -3 141.946 17.3284   3
   2  10   4 32.9037 10.3409   4
  -2 -10   4 20.4859 10.4704   6
   2 -10  -4 8.83784 9.92670   3
  -2  10  -4 31.8948 10.3620   4
  -2 -10   5 3.51856 10.1918   6
  -2  10  -5 22.3814 10.5639   4
   2 -10  -5 31.0175 10.1808   3
   2  10   5 6.55522 9.61206   4
   2  10   6 13.9899 10.3424   4
  -2 -10   6 19.3062 10.6232   6
   2 -10  -6 34.1582 10.5720   3
  -2  10  -6 18.6675 10.7910   4
   2  10   7 102.209 14.7521   4
  -2 -10   7 99.8447 15.0239   6
   2 -10  -7 96.9467 14.9058   3
  -2  10  -7 81.6187 15.2570   4
   2  10   8 12.0699 10.2840   4
  -2 -10   8 19.0662 10.7625   6
   2 -10  -8 15.7374 10.4987   3
  -2  10  -8 36.6463 11.3102   4
  -2 -10   8 14.6773 10.2140   8
  -2 -10   9 5.62920 10.4130   6
   2  10   9-8.60281 9.92690   4
   2 -10  -9 18.5755 10.6248   3
  -2  10  -9 22.4331 11.3216   4
  -2 -10   9 31.8194 10.0194   8
  -2 -10  10 47.2390 11.5664   6
   2  10  10 23.6869 10.2751   4
   2 -10 -10 29.9749 10.9052   3
  -2  10 -10 31.8945 11.5254   4
  -2 -10  10 29.3251 10.8001   8
  -2 -10  11 40.7451 12.3269   6
   2  10  11 37.6118 11.4846   4
   2 -10 -11 57.7749 12.2450   3
  -2  10 -11 71.0397 13.3735   4
  -2 -10  11 71.4042 11.9944   8
   2  10  12 27.3789 10.2075   4
   2 -10 -12 43.9338 11.6437   3
  -2  10 -12 35.2454 12.5766   4
  -2 -10  12 33.0800 11.1944   8
   2 -10 -13 21.5042 11.2136   3
  -2  10 -13 13.2080 12.8149   4
  -2 -10  13 13.8967 10.8680   8
   2 -10 -14-8.40062 11.3394   3
  -2  10 -14 11.7677 12.2670   4
  -2 -10  14 8.24186 10.7909   8
  -2  10 -15 16.5407 12.7102   4
   2 -10 -15 12.0558 11.6313   3
  -2 -10  15 30.4205 11.0575   8
  -2 -10  16 5.50997 10.9812   8
   2 -10 -16 10.6265 11.5282   3
  -2  10 -16 18.7684 12.6148   4
   2 -10 -17 30.6945 11.9898   3
  -2 -10  17 38.8440 11.6870   8
  -2  10 -18 8.88250 13.8501   4
   2 -10 -18 7.65418 11.6544   3
  -2 -10  18-4.54361 11.6386   8
  -2  10 -19-7.93763 14.3873   4
   2 -10 -19-0.69146 11.2892   3
  -2 -10  19 10.3828 12.1284   8
  -2  10 -20 1.26451 14.0536   4
   2 -10 -20-1.17393 11.3704   3
  -2 -10  20-18.4140 12.3150   8
  -2 -10  21 12.7166 12.4987   8
  -2  10 -21-8.11140 14.4380   4
   2 -10 -21-0.23310 11.1540   3
  -2  10 -22 5.24479 14.1886   4
   2 -11  19-1.27910 13.1445   8
   2 -11  18-2.64482 12.7002   8
  -2 -11 -18 5.87057 12.8284   3
   2 -11  17 6.33713 12.6707   8
  -2 -11 -17 3.44252 13.0628   3
  -2 -11 -16 0.78989 12.7980   3
   2  11 -16 5.03279 11.9944   4
   2 -11  16 15.9873 12.5973   8
  -2 -11 -15 0.77958 12.8836   3
   2  11 -15 8.70502 12.1712   4
  -2 -11 -14 11.5243 13.1285   3
   2  11 -14 17.1662 12.0002   4
  -2 -11 -13 7.83752 13.1094   3
   2  11 -13 0.49912 11.6112   4
  -2 -11 -12 27.3057 12.6394   3
   2  11 -12 16.5118 11.7643   4
   2  11 -11 2.85552 11.1865   4
  -2 -11 -11 16.8197 12.6856   3
  -2 -11 -10 11.0628 12.3168   3
   2  11 -10-4.71811 10.9550   4
   2  11  -9 31.3768 11.3847   9
  -2 -11  -9 24.3339 12.3281   3
   2  11  -9 21.4510 11.4885   4
   2  11  -8 16.6833 11.1784   4
  -2 -11  -8 13.8223 12.5578   3
   2  11  -8 21.5928 11.1976   9
   2 -11   7 17.5646 11.4221   6
   2  11  -7 12.2440 11.1398   4
  -2 -11  -7 32.1249 12.3976   3
   2  11  -7 23.6945 11.5582   9
   2  11  -6-4.46866 10.7200   4
   2  11  -6 6.43747 10.8230   9
  -2 -11  -6 3.35016 11.7744   3
   2  11  -5 22.9592 10.8873   9
  -2 -11  -5 18.1840 11.6339   3
   2  11  -5 1.10266 10.3484   4
   2  11  -4 28.4296 11.4171   4
   2  11  -4 29.5815 11.4287   9
  -2 -11  -4 48.4470 11.9581   3
   2  11  -3 18.2410 10.5100   4
  -2 -11  -3 29.3196 11.4072   3
   2  11  -3 7.30072 10.7273   9
  -2  11   3 8.42797 9.56225   4
   2  11  -2 97.5810 14.2502   4
  -2  11   2 58.2089 13.3670   4
   2  11  -2 85.7284 14.0621   9
  -2  11   1-4.84385 9.72403   4
   2  11  -1-0.87751 10.5080   9
   2  11  -1 18.8169 10.7415   4
   2  11   0 20.2783 10.8519   4
  -2  11   0 4.96863 9.97603   4
   2  11   0 20.7541 10.8216   9
   2  11   1 27.6459 10.9981   4
  -2 -11   1 24.4150 12.2369   6
  -2  11  -1 5.07259 10.3654   4
  -2  11  -2 45.2637 13.0140   4
   2  11   2 86.2462 13.6048   4
  -2 -11   2 85.7962 14.1097   6
  -2 -11   3 23.9870 11.4105   6
   2  11   3 11.3227 10.8308   4
  -2  11  -3 3.31907 10.5686   4
   2  11   4 29.7971 10.9395   4
  -2 -11   4 12.8167 11.3438   6
  -2  11  -4 20.0618 10.9941   4
   2  11   5 12.3158 11.2177   4
  -2 -11   5 7.21849 10.9935   6
  -2  11  -5 16.1943 10.8927   4
  -2 -11   6 11.7672 11.3946   6
   2  11   6 2.09849 10.9788   4
   2 -11  -6 21.1589 10.6265   3
  -2  11  -6 9.09675 11.1826   4
   2  11   7 20.1858 10.7807   4
  -2 -11   7 13.5449 11.1938   6
   2 -11  -7 7.75934 10.9561   3
  -2  11  -7 5.37229 11.3447   4
   2  11   8 14.0981 10.7469   4
   2 -11  -8 12.5967 11.6486   3
  -2 -11   8 39.8785 11.7615   6
  -2  11  -8 34.3634 12.1077   4
  -2  11  -9 29.9642 11.6471   4
   2  11   9-3.98542 10.3741   4
   2 -11  -9-11.7781 11.1852   3
  -2 -11   9 20.8907 11.2680   6
  -2 -11  10 13.5970 11.3194   6
   2 -11 -10 2.60411 11.0671   3
  -2  11 -10 1.01369 11.5101   4
   2  11  10-7.11827 10.3560   4
  -2 -11  11-6.38419 11.3625   6
   2  11  11-4.27315 10.2869   4
   2 -11 -11 5.81769 11.4498   3
  -2  11 -11 28.8383 12.3044   4
  -2 -11  11 5.62748 10.7267   8
   2 -11 -12 8.87709 11.4580   3
  -2  11 -12 23.1395 13.0805   4
  -2 -11  12 10.0103 11.0386   8
  -2  11 -13 7.57068 13.0987   4
   2 -11 -13-0.89899 11.4765   3
  -2 -11  13 11.8009 11.2411   8
  -2  11 -14 11.6024 13.2081   4
   2 -11 -14 1.81143 11.6216   3
  -2 -11  14 21.2233 11.2572   8
  -2  11 -15-4.95142 13.2749   4
   2 -11 -15 14.2987 11.5705   3
  -2 -11  15 6.76568 11.4029   8
  -2  11 -16 24.1668 13.2695   4
   2 -11 -16 24.5225 11.8561   3
  -2 -11  16 11.8901 11.6829   8
  -2  11 -17-9.66583 13.3364   4
   2 -11 -17 3.86296 11.7346   3
  -2 -11  17-8.40258 11.5832   8
  -2  11 -18 1.59987 14.1776   4
   2 -11 -18 1.96220 12.0471   3
  -2 -11  18 9.37129 12.0732   8
  -2  11 -19 1.00978 14.6527   4
  -2 -11  19-4.75313 12.4040   8
   2 -11 -19 0.25550 12.3608   3
   2  12 -16 7.33407 12.5858   4
   2 -12  16 0.73007 12.7168   8
  -2 -12 -15 1.33378 12.8525   3
   2  12 -15-4.54483 12.5344   4
   2 -12  15-5.71305 12.2779   8
  -2 -12 -14 0.26383 12.7197   3
   2  12 -14 9.76360 12.5771   4
  -2 -12 -13 16.6048 12.8989   3
   2  12 -13-3.53623 12.1218   4
  -2 -12 -12-1.27648 12.6448   3
   2  12 -12 9.88134 12.3827   4
  -2 -12 -11 15.8819 12.6243   3
   2  12 -11 0.51357 11.9559   4
  -2 -12 -10 11.0286 13.1248   3
   2  12 -10 9.52658 12.2047   4
  -2 -12  -9 17.1850 13.2575   3
   2  12  -9 22.6247 11.9429   4
   2  12  -8 22.9880 11.5652   9
  -2 -12  -8 10.3439 12.9085   3
   2  12  -8 27.9170 12.2657   4
  -2 -12  -7 50.6132 13.0009   3
   2  12  -7 55.4888 12.4567   9
   2  12  -7 16.5429 12.2493   4
   2 -12   6 9.18285 12.1219   6
  -2 -12  -6 14.5730 12.1162   3
   2  12  -6 1.97090 11.4799   9
   2  12  -6 7.11558 11.5272   4
  -2 -12  -5 39.0996 12.4397   3
   2  12  -5 11.8201 11.5349   9
   2  12  -5 23.7273 11.7184   4
  -2 -12  -4 17.9406 12.1313   3
   2  12  -4 19.3627 11.0856   9
   2  12  -4 11.2462 11.1376   4
   2  12  -3 4.04361 11.1082   4
   2  12  -3 15.7781 10.7049   9
   2  12  -2 14.9815 11.1278   9
   2  12  -2 6.97088 11.1922   4
  -2  12   2 6.77198 10.1960   4
   2  12  -1 12.4262 11.0073   4
   2  12  -1 4.43651 11.2305   9
  -2  12   1 6.94589 10.5058   4
  -2 -12   0 11.2605 12.6942   6
   2  12   0 19.3861 10.8988   4
   2  12   0 11.6289 11.1375   9
  -2  12   0 4.77466 10.6585   4
   2  12   1 6.67767 11.1352   4
  -2 -12   1 16.8410 12.6968   6
   2  12   1 9.87008 11.0097   9
  -2  12  -1 0.45936 10.6019   4
   2  12   2-0.96143 11.3174   4
  -2 -12   2 6.95604 12.3878   6
  -2  12  -2 0.23885 10.9723   4
   2  12   3 2.67485 11.1401   4
  -2 -12   3 29.0529 11.9103   6
  -2  12  -3 1.45661 11.4042   4
   2  12   4 17.2235 11.7580   4
  -2 -12   4 50.1693 12.2846   6
  -2  12  -4 13.2092 11.9285   4
  -2 -12   5 3.75101 11.9981   6
   2  12   5 12.6070 11.5478   4
  -2  12  -5 38.2147 12.1362   4
   2  12   6 3.15693 11.2004   4
  -2 -12   6 20.8144 12.1291   6
  -2  12  -6 15.3216 11.8867   4
   2  12   7 18.2529 11.8177   4
  -2  12  -7 14.9289 12.5071   4
  -2 -12   7 39.3057 12.3205   6
   2  12   8 30.2363 12.1903   4
  -2 -12   8 4.40962 12.0863   6
  -2  12  -8 24.8644 12.5371   4
   2  12   9 16.0103 11.7428   4
  -2 -12   9 0.20260 11.9401   6
  -2  12  -9 0.27002 12.1720   4
   2  12  10 36.4230 12.0984   4
  -2  12 -10 2.18475 12.4080   4
  -2 -12  10 23.9026 12.3561   6
  -2 -12  11 4.04085 11.6891   6
   2 -12 -11 12.0423 12.3137   3
  -2  12 -11 18.9426 12.9279   4
   2 -12 -12 9.87738 12.0066   3
  -2  12 -12 4.78130 13.3598   4
   2 -12 -13 2.92038 12.2644   3
  -2  12 -13 19.6229 13.7502   4
  -2  12 -14 18.2528 13.6566   4
   2 -12 -14 3.70214 12.2266   3
  -2  12 -15 3.71638 13.6809   4
   2 -12 -15 0.25326 12.2364   3
  -2 -12  15 4.90041 11.4504   8
  -2  12 -16-2.17378 13.6683   4
   2 -12 -16 0.24999 11.9324   3
  -2 -12  16 2.27277 11.7126   8
   2  13 -12 7.66839 12.5891   4
  -2 -13 -11 0.27712 13.4346   3
   2  13 -11-1.70126 12.4045   4
  -2 -13 -10 2.39933 12.8909   3
   2  13 -10 3.27685 11.9503   4
  -2 -13  -9-0.25880 12.4889   3
   2  13  -9-5.48575 12.2835   4
  -2 -13  -8 6.62606 12.2430   3
   2  13  -8-2.71209 11.8431   4
  -2 -13  -7-23.9062 12.3874   3
   2  13  -7 5.91603 12.0945   4
   2  13  -6 9.41010 12.1518   4
  -2 -13  -6 11.2308 12.5050   3
  -2 -13  -5 12.3300 12.3433   3
   2  13  -5-6.03176 11.8755   4
   2 -13   5 8.91122 12.8158   6
   2  13  -4 3.11580 11.9996   4
   2  13  -3 13.4559 11.9567   4
  -2 -13  -2 14.6339 13.8017   6
   2  13  -2 5.91207 11.6558   4
  -2 -13  -1 27.8853 13.8170   6
  -2  13   1 14.5664 11.2781   4
   2  13  -1 18.5311 12.0234   4
  -2 -13   0 23.7680 13.1733   6
  -2  13   0-5.88633 11.1934   4
   2  13   0 27.9255 12.3801   4
  -2 -13   1 13.1586 13.2480   6
   2  13   1 1.28563 11.7175   4
  -2  13  -1 21.9260 11.9339   4
   2  13   2 10.9403 11.9037   4
  -2 -13   2 27.7240 12.7707   6
  -2  13  -2 5.17939 11.9021   4
   2  13   3 6.15506 11.7094   4
  -2 -13   3 15.8066 12.3422   6
  -2  13  -3 6.63732 12.0764   4
   2  13   4 26.9823 11.8282   4
  -2 -13   4 9.45831 12.1806   6
  -2  13  -4 14.5496 12.2651   4
   2  13   5 20.9599 11.8476   4
  -2 -13   5 8.07418 12.9745   6
  -2  13  -5 37.8518 12.9146   4
   2  13   6 2.87929 11.6954   4
  -2  13  -6-3.09034 12.4709   4
  -2 -13   6-19.4584 12.3954   6
  -2 -13   7 5.39209 12.4676   6
   2  13   7 17.4705 11.8223   4
  -2  13  -7 18.9785 12.5653   4
   2  13   8-1.56087 11.5698   4
  -2 -13   8 7.36806 12.4272   6
  -2  13  -8 9.98473 12.6677   4
   2  13   9 7.80507 11.5125   4
  -2 -13   9 3.67932 12.2619   6
  -2  13  -9 6.62661 12.8695   4
  -2 -13  10-0.21912 12.3085   6
  -2  13 -10 10.2996 13.0494   4
  -2 -13  11 0.21532 12.1043   6
  -2  13 -11 4.27049 13.0436   4
   2 -14   4 35.0455 13.6387   6
  -2 -14  -2 9.87892 14.1571   6
   2  14  -2-4.12906 11.7831   4
  -2 -14  -1 0.24162 13.3282   6
   2  14  -1 7.95883 12.2471   4
  -2 -14   0-0.24047 13.4798   6
  -2  14   0-15.9583 11.6764   4
   2  14   0 6.81770 11.7914   4
  -2 -14   1-1.63249 12.8748   6
   2  14   1-0.54262 11.5871   4
  -2  14  -1 0.81935 11.7168   4
  -2 -14   2 0.22977 12.7324   6
  -2  14  -2 8.39244 12.1675   4
   2  14   2 4.93653 12.0026   4
  -2  14  -3 13.6157 12.3372   4
   2  14   3 6.54395 11.9206   4
   2  14   4 3.52747 11.7388   4
  -2  14  -4-1.45259 12.3125   4
   2  14   5-3.50356 11.6277   4
  -3   0   0 2.06543 3.29774   4
   3   0   0 1.58735 2.75610   4
   3   0  -1 411.358 57.7374   9
  -3   0  -1 622.120 57.9602   4
  -3   0   1 625.035 57.8711   4
   3   0  -1 591.006 57.8252   4
   3   0   1 499.161 57.7198   3
   3   0   1 604.974 57.8574   4
   3   0   1 473.277 57.8040   7
  -3   0  -2 914.352 88.4009   4
  -3   0   2 876.569 88.3001   4
   3   0  -2 813.386 88.2704   4
   3   0   2 886.384 88.3531   4
   3   0   2 797.182 88.2000   3
   3   0   2 774.565 88.2855   7
   3   0  -2 662.651 88.2181   9
   3   0  -3 10.8777 3.18570   2
   3   0   3 11.0506 2.02972   6
   3   0   3 7.89192 2.18026   5
  -3   0   3 14.9047 2.95564   4
  -3   0  -3 13.6086 2.20905   3
  -3   0  -3 10.2853 4.20577   4
   3   0  -3 10.8213 2.59499   4
   3   0   3 17.5894 2.83182   7
   3   0   3 16.6131 3.55861   4
  -3   0   3 8.70224 2.46141   9
   3   0   3 16.3258 2.06172   3
   3   0   4 1909.70 163.508   5
  -3   0   4 2146.56 163.511   4
   3   0  -4 1833.25 163.514   4
  -3   0  -4 2364.56 163.766   4
  -3   0  -4 1669.43 163.489   3
   3   0  -4 2374.01 163.701   2
   3   0   4 1973.46 163.487   3
   3   0   4 2584.36 163.758   4
   3   0   4 1715.79 163.544   7
  -3   0   4 1661.93 163.506   9
  -3   0  -4 2039.29 163.575   7
  -3   0   5 298.237 35.2081   9
  -3   0  -5 363.242 35.2399   7
   3   0  -5 232.586 35.1518   4
  -3   0  -5 396.596 35.6211   4
  -3   0   5 411.269 35.5385   2
   3   0   5 451.987 35.5010   4
  -3   0  -5 298.392 35.1840   3
   3   0   5 404.144 35.4139   1
   3   0  -5 265.738 35.1179   4
   3   0   5 378.815 35.1724   3
   3   0  -5 359.626 35.3348   2
   3   0   5 350.998 35.2609   7
  -3   0   6 189.590 20.8007   9
   3   0   6 264.034 20.7928   3
  -3   0  -6 252.917 21.4952   4
   3   0   6 280.999 21.1780   4
   3   0  -6 172.646 20.6438   4
  -3   0   6 256.154 21.3060   2
  -3   0  -6 214.044 20.8084   3
   3   0  -6 238.380 20.9576   2
   3   0   6 253.283 21.0816   1
   3   0   6 223.390 20.8321   7
  -3   0  -6 234.789 20.8199   7
  -3   0  -7 719.801 57.5352   7
  -3   0  -7 852.346 58.0004   4
   3   0   7 884.258 57.7870   4
  -3   0   7 880.677 57.8978   2
  -3   0  -7 703.407 57.5482   3
   3   0  -7 726.820 57.6294   2
   3   0   7 652.111 57.5565   7
  -3   0  -8 873.326 113.451   5
   3   0   8 1043.58 113.558   7
  -3   0   8 1271.39 113.815   2
  -3   0  -8 1070.05 113.545   3
   3   0  -8 1165.33 113.630   2
  -3   0  -8 1264.15 113.645   1
  -3   0  -8 1118.81 113.856   4
  -3   0  -8 1011.80 113.526   7
  -3   0  -9 9.85475 3.57246   3
  -3   0  -9 10.5459 2.41445   7
  -3   0  -9 7.34733 3.03069   1
  -3   0   9 16.9679 5.55920   2
  -3   0  -9 8.15477 6.22570   4
  -3   0 -10 205.253 14.3742   4
  -3   0  10 240.912 14.0200   2
  -3   0 -10 213.092 13.1440   3
  -3   0 -10 211.740 12.8611   7
  -3   0 -11 287.615 34.8031   4
  -3   0  11 342.272 34.6746   2
  -3   0 -11 293.757 34.3043   3
  -3   0 -12 245.594 32.9970   4
  -3   0  12 311.435 32.8484   2
  -3   0 -12 293.608 32.4416   3
  -3   0  13 93.4861 11.8765   2
  -3   0 -13 84.6511 10.7573   3
  -3   0 -13 80.9917 12.5553   4
  -3   0 -14 332.488 43.0983   4
  -3   0  14 384.077 42.8669   2
  -3   0 -14 393.368 42.4860   3
  -3   0 -15 313.162 43.8928   4
  -3   0  15 382.392 43.6517   2
  -3   0 -15 418.526 43.2899   3
  -3   0 -16 1618.18 197.335   4
  -3   0  16 1898.28 197.258   2
  -3   0 -17 64.6972 12.9146   4
  -3   0  17 80.3030 11.6269   2
  -3   0 -18 221.346 26.7526   4
  -3   0  18 214.195 25.8045   2
  -3   0  19 9.45637 8.39759   2
  -3   0 -19-0.66347 11.1238   4
  -3   0  20 54.3738 10.5645   2
   3   0  20 51.8048 9.64644   2
  -3   0 -20 40.7469 12.5631   4
  -3   0  21 12.8891 9.06433   2
   3   0  21 3.84281 7.81813   2
  -3   0 -21 6.96333 11.4329   4
  -3   0  22 84.3988 12.5848   2
   3   0  22 62.7975 11.5150   2
  -3   0  23 11.1554 9.44881   2
   3   0  23-10.3393 8.83102   2
  -3   0  24 22.9003 10.1016   2
   3   0 -24 11.9523 11.4864   3
   3   0  24 6.68430 9.06908   2
   3   0 -25-17.1908 11.6833   3
   3   0  25 5.96319 9.23769   2
  -3   0  25 2.98524 10.1451   2
   3   0  26 5.18895 9.62403   2
   3   0 -26-0.23373 12.0106   3
  -3   0  26 4.14260 10.2127   2
  -3   0  27 4.48326 10.1791   2
   3   0 -27 1.92929 12.1109   3
  -3   0  28 14.2466 10.7171   2
   3   0 -28 6.13695 12.2240   3
  -3   0  29-2.15156 10.8580   2
   3   0 -29 0.26215 12.7185   3
  -3   0  30 8.93493 11.0390   2
   3   0 -30 0.26382 12.8193   3
   3   1 -30 0.26526 12.6167   3
   3   1 -29 3.91636 12.9801   3
  -3   1  29 10.6041 11.6186   2
   3  -1  29 5.84972 9.88103   2
   3   1 -28 9.03425 12.7784   3
  -3   1  28 5.56382 10.7788   2
   3  -1  28 13.9489 10.1560   2
  -3   1  27 26.8842 11.3292   2
   3   1 -27 15.4987 12.5649   3
   3  -1  27 20.9654 10.0540   2
  -3   1  26 4.87830 10.3983   2
   3  -1  26 7.03951 9.78676   2
  -3   1  25 23.6474 10.7516   2
   3  -1  25 34.4206 10.2856   2
  -3   1  24 55.0319 11.6126   2
   3  -1  24 48.9839 11.1300   2
  -3   1  23 16.9768 10.0837   2
   3  -1  23 16.3484 9.07762   2
  -3   1  22 88.1526 13.2795   2
   3  -1  22 76.3821 12.9017   2
  -3   1  21 99.6385 12.8904   2
   3  -1  21 59.1421 12.0102   2
  -3  -1 -21 77.1439 14.6149   4
  -3   1  20 9.65173 8.76264   2
  -3  -1 -20 10.0063 11.0624   4
  -3  -1 -19 10.5059 10.6577   4
  -3   1  19 14.6577 8.47609   2
  -3   1  18 92.8305 13.8812   2
  -3  -1 -18 107.441 15.4825   4
  -3   1  17 127.153 17.4669   2
  -3  -1 -17 135.819 18.6925   4
  -3  -1 -17 147.897 16.8839   3
  -3  -1 -16 98.8654 12.1606   3
  -3   1  16 97.1370 12.9834   2
  -3  -1 -16 70.1651 14.3407   4
  -3   1  15 58.0267 9.02052   2
  -3  -1 -15 42.8951 7.88186   3
  -3  -1 -15 34.8963 10.7142   4
  -3   1  14 43.1058 7.98811   2
  -3  -1 -14 43.7702 7.01282   3
  -3  -1 -13 621.392 70.7512   4
  -3   1  13 589.045 70.4804   2
  -3  -1 -13 655.415 70.2589   3
  -3  -1 -12 359.753 34.8858   4
  -3   1  12 321.373 34.4316   2
  -3  -1 -12 268.806 34.0527   3
  -3  -1 -11 567.729 53.6690   4
  -3   1  11 571.032 53.4440   2
   3   1 -11 424.530 52.8662   4
  -3  -1 -11 508.558 53.0763   3
  -3  -1 -10 912.792 69.2929   4
  -3   1  10 776.764 69.0850   2
  -3  -1 -10 633.808 68.7000   1
   3   1 -10 518.783 68.5814   4
  -3  -1 -10 640.655 68.7389   3
  -3  -1  -9 694.252 71.8677   4
  -3   1   9 653.238 71.6822   2
  -3  -1  -9 660.154 71.4896   3
  -3  -1  -9 663.576 71.4386   1
   3   1  -9 605.125 71.3287   4
  -3  -1  -8 1054.95 83.8800   4
  -3   1   8 1041.73 83.6916   2
  -3  -1  -8 993.196 83.4822   3
   3  -1   8 1180.84 83.6177   4
   3   1  -8 1102.10 83.5373   2
   3   1  -8 877.733 83.3508   4
   3   1  -8 1056.27 83.5373   8
   3  -1   8 938.866 83.4795   7
  -3  -1  -8 880.001 83.3497   7
  -3  -1  -7 1657.37 109.267   4
  -3   1   7 1488.66 109.060   2
  -3  -1  -7 1262.96 108.843   3
   3  -1   7 1566.05 108.991   4
   3   1  -7 1371.11 108.892   2
   3   1  -7 1274.12 108.757   4
  -3  -1  -7 1216.31 108.760   7
   3  -1   7 1175.31 108.859   7
  -3  -1  -6 508.520 52.3386   7
   3   1  -6 482.780 52.3594   4
  -3  -1  -6 670.070 52.8820   4
   3  -1   6 649.047 52.6208   1
  -3  -1  -6 457.954 52.4001   3
  -3   1   6 611.453 52.6744   2
   3  -1   6 615.651 52.5642   4
   3  -1   6 474.047 52.4297   7
   3   1  -6 563.905 52.4588   2
   3   1  -6 536.031 52.3458   4
  -3  -1  -5 205.669 26.5486   6
   3   1  -5 251.123 26.5941   4
   3   1  -5 243.781 26.6593   4
  -3  -1  -5 322.945 27.3073   4
  -3  -1  -5 199.552 26.6754   3
   3  -1   5 273.675 26.8867   1
   3  -1   5 291.314 26.8315   4
   3   1  -5 241.053 26.7030   2
   3  -1   5 245.898 26.7437   7
  -3  -1  -4 436.542 49.0687   6
   3   1  -4 447.660 49.0980   4
   3   1  -4 540.943 49.1846   4
  -3  -1  -4 604.434 49.5055   4
  -3  -1  -4 419.191 49.1449   3
   3  -1   4 516.777 49.2441   4
   3   1  -4 469.531 49.1833   2
   3  -1   4 559.466 49.3205   1
  -3   1   4 329.284 49.0533   4
   3   1  -4 424.801 49.1995   9
   3  -1   4 453.831 49.1939   7
   3   1  -3 968.539 111.776   9
   3   1  -3 973.099 111.735   4
   3  -1   3 1193.23 111.830   4
   3  -1   3 1006.03 111.743   5
  -3  -1  -3 1253.50 111.938   4
  -3   1   3 951.980 111.723   4
  -3  -1  -3 847.112 111.730   3
   3   1  -3 1179.02 111.813   2
   3   1  -3 1301.54 111.812   4
  -3   1   3 922.108 111.680   9
   3  -1   3 971.977 111.782   7
  -3   1   2 1651.56 195.001   4
   3  -1   2 1747.97 195.023   5
   3   1  -2 2151.25 195.084   4
  -3  -1  -2 2233.63 195.181   4
  -3  -1  -2 1514.98 194.989   3
   3   1  -2 1975.63 195.052   2
   3  -1   2 1981.04 195.063   4
  -3   1   2 1632.73 194.942   9
   3   1  -2 1653.11 195.025   9
   3  -1   2 1876.35 195.071   7
   3  -1   1 2247.76 286.329   5
  -3  -1  -1 2961.45 286.440   4
   3   1  -1 2883.84 286.366   4
  -3   1   1 2436.64 286.332   4
   3   1  -1 2688.37 286.350   2
   3  -1   1 2588.67 286.341   4
   3  -1   1 2451.30 286.366   7
   3   1   0 1869.63 231.600   6
  -3  -1   0 2180.07 231.733   4
   3   1   0 2626.11 231.725   4
   3  -1   0 2076.36 231.628   4
  -3   1   0 2130.27 231.669   4
   3  -1   0 1946.80 231.672   7
  -3  -1   1 2327.59 259.818   4
   3   1   1 2924.28 259.863   4
   3   1   1 2359.66 259.740   3
  -3   1  -1 2449.48 259.805   4
   3  -1  -1 2262.87 259.731   4
   3   1   1 2117.34 259.714   6
   3   1   2 1956.64 220.591   6
  -3   1  -2 2009.26 220.694   4
  -3  -1   2 1960.23 220.665   4
   3   1   2 1938.93 220.617   3
   3  -1  -2 1873.40 220.599   4
   3   1   2 2496.75 220.764   4
   3   1   3 1627.22 146.759   4
  -3   1  -3 1387.88 146.706   4
   3   1   3 1293.49 146.595   3
   3  -1  -3 1214.15 146.554   4
  -3   1  -3 1374.86 146.645   7
   3   1   3 1312.76 146.603   7
  -3   1  -4 444.704 39.5037   5
   3   1   4 494.703 39.7895   4
  -3   1  -4 455.796 39.7696   4
  -3  -1   4 473.541 39.7350   2
   3   1   4 464.768 39.5163   3
   3  -1  -4 320.095 39.4185   4
  -3  -1   4 364.446 39.5151   9
   3   1   4 450.487 39.5066   7
  -3   1  -4 435.506 39.5564   7
  -3   1  -5 299.794 26.1157   4
  -3   1  -5 275.750 25.6078   5
   3   1   5 277.081 25.9513   4
  -3  -1   5 287.193 25.9753   2
  -3   1  -5 186.627 25.4966   3
   3   1   5 252.499 25.6310   3
  -3  -1   5 209.124 25.6436   9
  -3   1  -5 256.634 25.6749   7
   3   1   5 257.326 25.7411   1
   3   1   5 220.570 25.5785   7
   3   1   6 837.484 77.1161   4
  -3   1  -6 738.988 76.8614   5
  -3  -1   6 597.514 76.8816   9
  -3   1  -6 833.825 77.1811   4
  -3  -1   6 872.042 77.1550   2
  -3   1  -6 627.938 76.8165   3
   3   1   6 744.167 76.8877   3
   3   1   6 670.952 76.8513   7
  -3   1  -6 664.926 76.9061   7
  -3  -1   7 1113.07 128.809   4
  -3   1  -7 1222.85 128.826   5
  -3  -1   7 1032.50 128.856   9
   3   1   7 1151.18 128.823   7
  -3   1  -7 1344.75 129.124   4
  -3  -1   7 1385.36 129.050   2
  -3   1  -7 1080.25 128.808   3
   3   1   7 1312.54 128.869   3
  -3   1  -7 1099.63 128.869   7
  -3   1  -8 1410.05 118.769   4
  -3  -1   8 1157.80 118.607   2
  -3   1  -8 1035.51 118.382   3
  -3  -1   8 949.211 118.417   9
   3   1   8 1277.08 118.454   3
  -3   1  -8 985.965 118.426   7
  -3  -1   8 1018.05 118.357   4
  -3   1  -9 720.141 76.5941   4
  -3   1  -9 621.722 76.2048   7
  -3  -1   9 667.568 76.4352   2
  -3   1  -9 690.587 76.1967   3
  -3  -1   9 602.966 76.1969   9
   3   1   9 853.746 76.2514   3
  -3   1 -10 698.425 64.2538   4
  -3  -1  10 619.297 64.0858   2
  -3   1 -10 538.013 63.7964   7
  -3   1 -10 548.893 63.7890   3
  -3   1 -11 650.508 63.5854   4
  -3   1 -11 580.779 63.1207   3
  -3   1 -11 491.185 63.0785   7
  -3  -1  11 672.450 63.4346   2
  -3  -1  12 285.132 31.0559   2
  -3   1 -12 274.297 31.3906   4
  -3   1 -12 263.762 30.5918   3
  -3   1 -13 587.531 68.7072   4
  -3  -1  13 651.303 68.5603   2
  -3   1 -13 599.977 68.2570   3
  -3  -1  14 23.1503 6.87896   2
  -3   1 -14 10.1174 8.40659   4
  -3  -1  15 51.3103 9.36178   2
  -3   1 -15 53.5696 10.7914   4
  -3   1 -16 71.0081 12.4038   4
  -3  -1  16 66.7397 10.8731   2
  -3  -1  17 197.620 22.3054   2
  -3   1 -17 166.002 23.0555   4
  -3  -1  18 90.3433 12.4637   2
  -3   1 -18 70.6733 13.7615   4
  -3  -1  19 29.2370 8.71531   2
   3   1  19 5.24717 7.26581   2
  -3   1 -19 7.62860 10.2095   4
   3   1  20 11.9964 7.72241   2
  -3  -1  20 37.7941 9.04216   2
   3  -1 -20 14.6453 9.78063   3
  -3   1 -20 17.0544 10.5767   4
   3   1  21 56.4891 10.6203   2
  -3   1 -21 61.7983 13.1144   4
  -3  -1  21 74.2122 11.7957   2
   3  -1 -21 61.2814 12.7278   3
  -3  -1  22 76.4209 13.5373   2
   3  -1 -22 80.4319 14.2975   3
   3   1  22 100.619 12.7424   2
  -3   1 -22 70.6699 15.1626   4
  -3  -1  23 14.6497 9.87075   2
   3  -1 -23 23.6917 11.1171   3
   3  -1 -24 30.1611 11.7381   3
  -3  -1  24 34.0897 10.8093   2
  -3  -1  25 32.4952 10.7767   2
   3  -1 -25 17.9893 11.8326   3
   3  -1 -26 5.42361 11.9198   3
  -3  -1  26 8.71070 10.5129   2
  -3  -1  27 12.4188 10.8257   2
   3  -1 -27 10.5214 12.2056   3
  -3  -1  28 2.82874 10.3728   2
   3  -1 -28 3.24452 12.4296   3
   3  -1 -29 0.24733 12.0097   3
  -3  -1  29-3.37726 10.9043   2
  -3  -1  30 1.46451 10.5707   2
   3  -1 -30 0.25233 12.0971   3
   3   2 -30 0.26913 12.8579   3
   3  -2  30 1.60413 10.1364   2
   3  -2  29 6.71401 10.4339   2
   3  -2  28 13.2371 10.5632   2
   3  -2  27 21.9516 10.5233   2
   3  -2  26 36.8902 11.4003   2
  -3   2  26 58.6521 12.4353   2
  -3   2  25 0.67961 10.6644   2
   3  -2  25 2.76342 10.1471   2
   3  -2  24 0.97417 9.04949   2
  -3   2  24 14.4682 10.6828   2
   3  -2  23-9.92647 9.38143   2
  -3   2  23-0.20836 9.96263   2
   3  -2  22 33.4166 9.72862   2
  -3   2  22 44.7122 10.8719   2
  -3   2  21 24.4596 10.2637   2
  -3   2  20 4.42738 9.22964   2
  -3  -2 -20 0.22549 11.3045   4
  -3  -2 -19 134.154 15.7594   3
  -3  -2 -19 102.887 17.7543   4
  -3   2  19 118.445 16.6418   2
  -3  -2 -18 60.9352 9.88456   3
  -3  -2 -18 65.5158 12.5212   4
  -3   2  18 44.3632 11.0966   2
   3  -2  18 63.2052 9.87882   8
  -3  -2 -17 206.853 27.7718   4
  -3   2  17 222.300 27.1414   2
  -3  -2 -17 244.516 26.6397   3
  -3   2  16 184.366 21.9602   2
  -3  -2 -16 165.094 22.5843   4
  -3  -2 -16 185.284 21.3590   3
  -3  -2 -15 84.1023 10.9804   3
  -3  -2 -15 60.0482 12.6815   4
  -3   2  15 89.5732 12.3143   2
  -3  -2 -14 160.392 22.9261   4
  -3  -2 -14 203.892 22.0496   3
  -3   2  14 188.890 22.8534   2
  -3  -2 -13 344.842 44.8863   4
  -3   2  13 391.091 44.7114   2
  -3  -2 -13 425.030 44.4637   3
  -3   2  12 322.055 42.1687   2
  -3  -2 -12 427.040 42.0534   3
  -3  -2 -12 350.298 42.5052   4
  -3   2  11 7.18962 6.06656   2
  -3  -2 -11-1.34639 7.79995   4
   3   2 -11 5.94675 3.59126   4
  -3  -2 -11 0.47006 5.50672   3
  -3   2  10 92.0649 12.8083   2
  -3  -2 -10 123.006 12.4359   3
   3   2 -10 81.3432 11.7611   4
  -3  -2  -9 45.1163 9.70267   4
  -3  -2  -9 71.6320 7.29552   1
   3   2  -9 52.4876 7.41566   4
  -3   2   9 42.8715 8.85019   2
  -3  -2  -9 59.6456 8.18634   3
  -3  -2  -8 51.4664 8.34684   4
  -3   2   8 57.2047 7.29635   2
   3  -2   8 46.0194 5.92206   7
  -3  -2  -8 52.9632 6.25697   3
   3   2  -8 47.0789 5.58356   4
   3  -2   7 103.774 13.7555   6
   3  -2   7 124.405 14.1531   7
  -3  -2  -7 106.667 14.2364   3
  -3  -2  -7 119.412 15.3214   4
   3  -2   7 130.785 14.1353   4
   3   2  -7 140.150 14.0356   2
   3   2  -7 134.569 14.0087   4
   3   2  -7 136.843 14.1046   8
   3   2  -6 754.357 72.4435   8
  -3  -2  -6 815.997 72.7773   4
  -3  -2  -6 645.001 72.4460   3
  -3   2   6 510.694 72.2565   4
   3  -2   6 801.008 72.4757   4
   3   2  -6 814.865 72.4551   2
   3   2  -6 745.450 72.3893   4
   3  -2   6 717.790 72.4762   7
   3   2  -5 2214.89 223.374   6
   3  -2   5 2367.66 223.459   1
  -3  -2  -5 1940.19 223.362   3
   3  -2   5 2369.13 223.408   4
   3   2  -5 2272.24 223.368   2
  -3  -2  -5 2729.85 223.623   4
   3   2  -5 2206.27 223.413   9
   3   2  -5 2226.90 223.380   8
   3   2  -5 2176.91 223.336   4
   3  -2   5 2017.05 223.388   7
   3   2  -4 78.8059 11.3457   9
   3   2  -4 97.1218 10.9652   6
   3   2  -4 87.1194 10.8463   4
  -3  -2  -4 121.960 12.1234   4
   3   2  -4 96.2498 10.8158   4
  -3   2   4 85.6330 10.6995   4
   3  -2   4 103.901 10.9598   4
   3  -2   4 119.257 11.2686   1
   3   2  -4 93.9992 10.7802   2
  -3  -2  -4 61.9019 11.0640   3
   3   2  -4 103.098 10.9769   8
   3  -2   4 96.2554 11.0642   7
   3  -2   3 39.2637 4.95297   4
   3   2  -3 46.1914 5.10736   6
  -3  -2  -3 29.6484 4.87024   6
   3   2  -3 40.5562 4.87364   4
   3  -2   3 1.00480 6.21989   1
   3   2  -3 41.3876 4.97060   4
  -3  -2  -3 46.3617 6.86961   4
  -3  -2  -3 33.1267 5.22498   3
   3   2  -3 35.3605 4.67953   2
  -3   2   3 28.2090 4.76069   4
   3   2  -3 41.6502 5.81396   9
   3  -2   3 34.3463 5.13042   7
   3   2  -2 754.772 73.5527   6
  -3   2   2 523.441 73.5173   4
  -3  -2  -2 876.070 73.7929   4
  -3  -2  -2 586.087 73.5341   3
  -3  -2  -2 630.653 73.4997   6
   3   2  -2 681.593 73.5014   2
   3  -2   2 744.586 73.5621   4
   3   2  -2 663.594 73.5780   4
   3  -2   2 627.677 73.5559   7
   3   2  -2 664.714 73.5270   4
   3   2  -1 2320.02 258.271   4
  -3  -2  -1 2227.99 258.234   6
  -3  -2  -1 2864.25 258.391   4
   3   2  -1 2401.79 258.320   4
   3   2  -1 2524.11 258.283   3
   3   2  -1 2650.76 258.265   2
  -3   2   1 2396.03 258.267   4
   3  -2   1 2003.89 258.164   3
   3  -2   1 2390.50 258.255   4
   3  -2   1 2248.52 258.276   5
   3  -2   1 2445.47 258.314   7
   3   2  -1 2513.21 258.255   6
  -3  -2   0 694.310 84.4111   6
   3   2   0 828.967 84.4060   6
   3  -2   0 736.804 84.4466   5
  -3  -2   0 928.506 84.5462   4
   3   2   0 889.631 84.4555   3
   3   2   0 805.010 84.3937   2
  -3   2   0 825.584 84.4481   4
   3  -2   0 733.403 84.3733   4
   3  -2   0 608.674 84.3090   3
   3   2   0 911.461 84.5318   4
   3  -2   0 782.928 84.4794   7
  -3   2   0 784.936 84.4422   7
  -3   2  -1 2646.75 262.648   5
   3   2   1 2724.42 262.722   4
   3   2   1 2700.74 262.642   3
   3  -2  -1 2315.48 262.672   5
  -3   2  -1 2540.04 262.668   4
   3  -2  -1 2264.86 262.590   4
   3  -2  -1 1935.06 262.557   3
   3  -2  -1 2508.28 262.696   7
   3  -2  -2 553.399 63.4194   5
   3   2   2 634.398 63.5046   4
   3   2   2 700.711 63.3840   3
  -3   2  -2 638.325 63.4502   4
  -3   2  -2 688.137 63.3711   5
   3  -2  -2 445.072 63.2836   4
   3  -2  -2 475.809 63.2987   3
   3  -2  -2 630.383 63.4580   7
  -3   2  -3 86.6703 7.10964   5
   3  -2  -3 45.8531 7.28840   3
  -3  -2   3 74.8152 7.63776   2
   3   2   3 62.3151 7.28654   3
   3  -2  -3 42.6669 7.47551   5
   3   2   3 80.9550 7.77862   4
   3  -2  -3 40.5803 6.90119   4
  -3   2  -3 74.9372 7.87535   4
  -3   2  -4 64.2811 5.62230   5
   3  -2  -4 41.6599 6.17432   3
  -3  -2   4 68.2109 6.42207   2
   3   2   4 56.5988 6.61913   4
  -3   2  -4 70.4452 6.82014   4
   3  -2  -4 45.5206 5.39936   4
   3   2   4 47.8986 5.80550   3
   3   2   4 50.2977 5.46073   7
  -3  -2   5 2191.69 233.688   4
   3   2   5 2276.13 233.854   4
   3   2   5 2388.83 233.711   1
  -3   2  -5 2429.76 233.845   4
  -3  -2   5 2496.59 233.815   2
   3   2   5 2476.23 233.738   3
  -3  -2   5 2028.75 233.703   9
  -3   2  -5 2239.32 233.701   5
   3  -2  -5 1856.60 233.621   4
   3  -2  -5 1553.34 233.701   3
   3   2   5 2097.81 233.633   7
   3   2   6 703.027 63.9782   4
  -3   2  -6 784.051 63.6887   5
  -3  -2   6 684.979 63.7105   9
  -3   2  -6 647.083 63.6977   7
  -3   2  -6 831.215 63.9922   4
   3  -2  -6 828.159 63.8376   2
  -3  -2   6 801.029 63.8690   2
   3   2   6 801.855 63.7278   3
   3  -2  -6 403.687 63.5378   4
  -3  -2   6 737.659 63.6621   4
   3   2   6 688.067 63.5785   7
   3  -2  -6 535.282 63.7515   3
   3  -2  -7 89.3894 11.5986   2
   3   2   7 103.671 11.2125   7
   3  -2  -7 85.3142 11.9832   3
  -3   2  -7 146.076 12.5039   4
  -3  -2   7 138.661 12.1215   2
   3   2   7 133.076 11.6151   3
  -3   2  -7 115.955 11.5062   7
  -3  -2   7 122.086 11.4130   4
  -3  -2   8 105.944 11.7239   4
   3  -2  -8 74.3404 12.4846   3
  -3  -2   8 107.157 12.5348   2
   3  -2  -8 108.650 11.9937   2
  -3   2  -8 93.3649 12.9071   4
   3   2   8 123.838 11.9469   3
  -3   2  -8 89.3251 11.8081   7
   3  -2  -9 112.735 17.1393   3
  -3   2  -9 135.478 16.5640   7
  -3   2  -9 134.025 17.4834   4
  -3  -2   9 154.606 17.1942   2
   3   2   9 178.794 16.7351   3
  -3  -2  10 97.7780 11.9994   2
   3  -2 -10 74.0700 11.9257   3
   3   2  10 102.927 11.2184   3
  -3   2 -10 94.8830 12.4185   4
  -3  -2  11 15.1384 5.89095   2
   3  -2 -11 12.8359 6.14636   3
  -3   2 -11 8.54937 7.25190   4
  -3   2 -12 333.850 37.4795   4
  -3  -2  12 343.380 37.1490   2
   3  -2 -12 305.456 37.1442   3
  -3   2 -13 322.799 38.5501   4
  -3  -2  13 343.453 38.2571   2
   3  -2 -13 339.162 38.3243   3
  -3   2 -14 189.950 23.4357   4
  -3  -2  14 188.669 22.8504   2
   3  -2 -14 202.320 23.0165   3
  -3  -2  15 38.2825 8.81082   2
   3  -2 -15 57.9660 9.56976   3
  -3   2 -15 42.7578 10.5136   4
  -3  -2  16 172.226 20.0757   2
  -3   2 -16 167.339 20.9954   4
   3  -2 -16 153.581 20.3423   3
  -3   2 -17 217.717 27.7007   4
  -3  -2  17 243.609 27.2155   2
   3  -2 -17 236.336 27.3334   3
   3   2  17 226.104 26.6677   2
   3   2  18 50.2267 8.99565   2
  -3  -2  18 57.2521 10.2801   2
   3  -2 -18 71.6023 10.9400   3
  -3   2 -18 45.7246 11.6999   4
  -3  -2  19 109.102 15.3902   2
  -3   2 -19 88.2034 16.6559   4
   3  -2 -19 131.315 15.5683   3
  -3  -2  20 6.69798 8.76226   2
   3  -2 -20 0.70372 9.55221   3
  -3   2 -20 14.8098 11.1367   4
  -3  -2  21 26.4119 9.47686   2
  -3   2 -21 4.93663 11.5543   4
   3  -2 -21 17.0014 10.3572   3
  -3  -2  22 27.0464 10.6113   2
   3  -2 -22 64.5240 11.6945   3
  -3   2 -22 39.2240 12.7588   4
  -3  -2  23 17.5269 9.67385   2
   3  -2 -23 6.39040 11.1102   3
  -3  -2  24 30.4479 10.2531   2
   3  -2 -24 13.1225 11.0591   3
  -3  -2  25 9.53537 10.0852   2
   3  -2 -25 0.64607 10.9138   3
   3  -2 -26 62.9445 13.1959   3
  -3  -2  26 52.3322 12.4534   2
  -3  -2  27 4.63467 10.7254   2
   3  -2 -27 1.89269 11.7689   3
  -3  -2  28 7.43372 11.1025   2
   3  -2 -28 2.74547 12.3835   3
  -3  -2  29-0.73613 10.9274   2
   3  -2 -29 6.18950 12.6081   3
   3  -3  29 3.87529 10.8381   2
   3  -3  28 11.7354 10.7953   2
   3  -3  27-4.85152 10.3179   2
   3  -3  26 3.59472 10.4276   2
   3  -3  25-7.15289 10.2286   2
   3  -3  24 3.70058 9.44930   2
   3  -3  23-0.20000 9.60159   2
   3  -3  22 9.41937 9.34311   2
  -3   3  22 29.3053 11.0037   2
  -3  -3 -21 43.0908 10.1612   3
  -3   3  21 42.6891 11.3155   2
  -3  -3 -20 165.215 17.5743   3
   3  -3  20 106.414 17.2821   8
  -3   3  20 151.543 18.1284   2
  -3  -3 -20 107.115 19.2865   4
  -3  -3 -19 49.1868 13.0901   4
  -3   3  19 45.7387 11.3686   2
   3  -3  19 47.8808 10.1397   8
  -3  -3 -19 64.8220 10.4290   3
  -3   3  18 542.108 67.9342   2
  -3  -3 -18 663.211 67.9416   3
  -3  -3 -18 601.603 68.4324   4
  -3   3  17 205.041 27.6145   2
  -3  -3 -17 189.233 28.4180   4
  -3  -3 -16 48.0926 9.22700   3
  -3  -3 -16 23.5963 11.1363   4
  -3   3  16 21.8779 8.86290   2
  -3  -3 -15 267.578 34.4905   4
  -3   3  15 261.355 33.7948   2
  -3  -3 -15 343.693 33.8773   3
  -3   3  14 488.080 65.8593   2
  -3  -3 -14 650.548 65.9362   3
  -3  -3 -14 663.717 66.4500   4
  -3   3  13 148.028 20.4056   2
  -3  -3 -13 189.989 20.3492   3
  -3  -3 -13 172.118 21.4144   4
  -3  -3 -12 484.025 49.4145   4
  -3   3  12 378.904 48.8298   2
  -3  -3 -12 543.869 48.8981   3
   3   3 -12 386.774 48.5650   4
   3   3 -11 14.7543 5.21592   4
  -3  -3 -11 41.2234 9.40323   4
  -3   3  11 25.6728 6.99649   2
  -3  -3 -11 37.2892 6.97746   3
  -3  -3 -10 679.665 64.8019   4
  -3   3  10 531.541 64.3713   2
  -3  -3 -10 655.097 64.3635   3
   3   3 -10 514.112 64.1664   4
   3  -3   9 308.047 37.3901   6
  -3  -3  -9 349.693 37.7265   3
   3   3  -9 314.005 37.5159   4
   3  -3   8 427.294 48.9841   6
  -3  -3  -8 429.250 49.3078   3
  -3  -3  -8 511.996 49.6923   4
   3   3  -8 461.023 49.1157   4
   3  -3   8 405.758 49.2080   7
   3   3  -7 23.0145 3.70461   2
   3  -3   7 20.1133 3.84213   6
   3   3  -7 24.1543 4.42367   4
   3   3  -7 18.2622 5.94292   9
  -3  -3  -7 15.1556 5.23416   3
  -3  -3  -7 22.1952 7.53124   4
  -3   3   7 10.0745 2.95042   4
   3  -3   7 17.1943 4.58050   7
  -3  -3  -6 1413.08 147.712   3
  -3  -3  -6 1674.24 147.968   4
  -3   3   6 1192.47 147.563   4
   3   3  -6 1322.45 147.629   2
   3   3  -6 1279.62 147.779   9
   3   3  -6 1453.87 147.699   4
   3   3  -6 1503.39 147.686   8
   3  -3   6 1085.11 147.710   7
   3   3  -5 343.692 36.1916   8
   3   3  -5 349.625 36.1993   6
  -3  -3  -5 393.921 36.7836   4
   3  -3   5 359.582 36.3962   1
  -3  -3  -5 322.871 36.3044   3
   3  -3   5 339.507 36.1645   4
  -3   3   5 289.179 36.0504   4
   3   3  -5 313.529 36.0889   2
   3   3  -5 312.918 36.4163   9
   3   3  -5 331.581 36.2154   4
   3  -3   5 268.549 36.2237   7
   3  -3   4 1509.01 158.008   1
   3   3  -4 1457.69 157.907   6
   3   3  -4 1374.84 157.966   9
  -3  -3  -4 1610.47 158.098   4
  -3   3   4 1379.16 157.845   4
   3  -3   4 1434.69 157.902   4
   3   3  -4 1425.40 157.868   2
  -3  -3  -4 1487.11 157.959   3
   3  -3   4 1365.13 157.797   9
   3   3  -4 1480.63 157.899   8
   3   3  -4 1330.38 157.896   4
   3  -3   4 1371.05 157.947   7
   3  -3   3 184.493 20.7757   9
   3   3  -3 191.763 20.9708   8
   3   3  -3 199.148 21.0815   6
  -3  -3  -3 179.214 21.4881   4
  -3  -3  -3 150.332 21.1154   3
   3   3  -3 194.625 21.0885   4
  -3   3   3 172.794 20.9192   4
   3   3  -3 173.780 20.8695   2
   3  -3   3 235.506 21.2807   1
   3  -3   3 184.842 20.9423   4
   3   3  -3 177.877 21.3476   9
   3  -3   3 209.647 21.1880   7
  -3  -3  -2 9.35870 3.83128   6
   3   3  -2 10.3505 3.79408   6
   3   3  -2 11.5233 2.54892   2
  -3  -3  -2 4.59955 5.05393   4
   3   3  -2 3.86210 3.34226   4
   3   3  -2 10.3388 3.52334   3
  -3  -3  -2 10.9253 4.17809   3
   3  -3   2 9.63806 2.37275   3
  -3   3   2 11.2389 3.34917   4
   3   3  -2 12.1035 3.11221   8
   3  -3   2 11.1054 2.91724   4
   3   3  -2 11.6123 3.78059   4
   3  -3   2 8.87154 7.14318   1
   3  -3   2 16.0350 3.89209   7
   3   3  -1 58.1611 7.22803   4
  -3  -3  -1 53.7521 7.27754   6
  -3   3   1 57.3361 7.25721   4
   3   3  -1 48.7185 7.22020   4
   3  -3   1 52.8459 6.65175   3
  -3  -3  -1 44.6846 7.45185   3
   3   3  -1 49.9503 6.61755   2
   3   3  -1 55.4382 7.21845   3
   3  -3   1 57.5546 6.74775   4
   3  -3   1 63.8626 7.27310   7
   3   3  -1 61.4934 6.85093   8
   3  -3   1 17.8328 9.50116   1
  -3   3   1 65.5470 6.71191   3
  -3   3   1 56.8546 6.84853   7
   3   3   0 1087.96 121.298   4
  -3  -3   0 1060.25 121.269   6
   3  -3   0 1044.77 121.303   5
   3   3   0 873.226 121.309   4
   3   3   0 1271.18 121.311   3
   3  -3   0 954.871 121.182   3
   3   3   0 1033.32 121.185   2
  -3   3   0 1140.98 121.309   4
   3  -3   0 1041.10 121.224   4
  -3   3   0 1286.65 121.199   3
   3   3   0 1107.06 121.209   8
   3  -3   0 1133.06 121.326   7
  -3   3   0 1179.05 121.292   7
   3   3   1 38.5513 4.79469   2
  -3   3  -1 38.7141 5.15491   7
   3  -3  -1 35.1406 5.55278   5
   3   3   1 35.1225 5.90451   4
   3  -3  -1 35.0227 5.65109   7
   3   3   1 35.2209 5.85453   4
  -3   3  -1 31.9106 5.85075   4
   3   3   1 39.9142 5.43333   3
  -3   3  -1 48.3758 4.73097   3
   3   3   1 40.1347 4.91747   8
  -3  -3   1 37.4425 5.96553   6
   3  -3  -1 28.7708 4.88004   4
   3  -3  -1 34.4843 5.16529   3
  -3   3  -2 22.0916 3.59299   7
   3  -3  -2 19.8459 4.48846   7
  -3   3  -2 24.2721 3.02232   3
  -3  -3   2 25.6625 4.99568   6
   3  -3  -2 23.8172 4.32167   5
  -3   3  -2 27.3426 3.54845   5
   3   3   2 21.3068 5.03584   4
   3   3   2 18.5709 4.89798   4
  -3  -3   2 33.2606 4.26709   2
   3   3   2 17.8688 3.99588   3
   3  -3  -2 17.9506 3.80972   3
   3   3   2 20.8397 3.30875   8
  -3   3  -2 17.2867 4.88574   4
   3  -3  -2 15.5165 3.32601   4
  -3  -3   3 198.989 19.8681   4
  -3   3  -3 201.114 19.8378   5
   3   3   3 136.826 20.1381   4
  -3  -3   3 207.161 20.0035   2
   3   3   3 183.979 19.9385   3
  -3   3  -3 217.153 20.2346   4
  -3   3  -3 178.654 19.6349   3
   3  -3  -3 153.138 20.0557   5
   3  -3  -3 130.706 19.8613   3
   3  -3  -3 149.068 19.7386   4
   3   3   3 173.475 19.6969   8
  -3   3  -3 180.432 19.8723   7
   3  -3  -3 200.191 20.1221   7
  -3  -3   4 1414.55 146.446   4
  -3   3  -4 1441.22 146.457   5
   3  -3  -4 1213.45 146.538   5
   3   3   4 1088.85 146.546   4
  -3   3  -4 1165.99 146.326   3
   3  -3  -4 1347.68 146.531   7
   3   3   4 1525.62 146.471   3
  -3  -3   4 1560.49 146.520   2
  -3   3  -4 1651.49 146.622   4
   3   3   4 1718.28 146.432   1
   3  -3  -4 1023.28 146.426   3
   3  -3  -4 1370.12 146.397   4
   3   3   4 1260.46 146.338   8
  -3   3  -5 321.758 30.3110   5
  -3  -3   5 322.700 30.3076   4
   3  -3  -5 277.244 30.5951   5
   3   3   5 272.812 30.5896   4
   3   3   5 338.671 30.2477   1
  -3   3  -5 281.349 30.1480   3
   3  -3  -5 358.756 30.4614   2
   3   3   5 245.112 30.1198   8
   3   3   5 374.877 30.4481   3
  -3  -3   5 343.337 30.5047   2
  -3   3  -5 347.243 30.7938   4
   3  -3  -5 240.555 30.4197   3
   3  -3  -5 292.383 30.2115   4
   3  -3  -5 321.412 30.5375   7
   3   3   5 215.346 30.1203   7
   3  -3  -6 1381.83 143.276   2
  -3   3  -6 1389.29 143.411   4
  -3  -3   6 1432.98 143.292   2
   3   3   6 1593.61 143.284   3
   3  -3  -6 1056.32 143.251   3
   3  -3  -6 1429.65 143.354   5
   3  -3  -6 1155.91 143.122   4
  -3  -3   6 1248.22 143.189   4
   3   3   7 18.7697 3.59738   3
  -3  -3   7 20.0303 4.76811   2
   3  -3  -7 13.7695 5.08065   3
  -3  -3   7 14.4301 3.10950   4
   3  -3  -7 18.1121 4.67757   5
   3  -3  -7 12.7520 2.51758   4
  -3   3  -7 20.7221 6.08186   4
   3  -3  -7 10.6374 3.77876   2
   3  -3  -8 388.405 53.2447   3
   3  -3  -8 412.157 53.2566   5
  -3   3  -8 538.638 53.4805   4
   3  -3  -8 483.484 53.1317   2
  -3  -3   8 439.403 53.2666   2
   3   3   8 529.447 53.1332   3
  -3  -3   8 500.837 53.0551   4
   3  -3  -9 275.904 30.9254   3
  -3   3  -9 258.950 31.1826   4
  -3  -3   9 276.697 30.8834   2
   3  -3 -10 558.276 65.9624   3
  -3   3 -10 596.108 66.1611   4
  -3  -3  10 613.606 65.9637   2
   3  -3 -11 43.3954 7.79167   3
  -3  -3  11 38.9170 7.37262   2
  -3   3 -11 43.6150 8.48519   4
  -3   3 -12 408.387 49.4229   4
  -3  -3  12 458.280 49.1836   2
   3  -3 -12 434.161 49.2159   3
   3  -3 -13 107.434 15.0572   3
  -3  -3  13 140.301 15.1042   2
  -3   3 -13 107.422 15.5783   4
   3  -3 -14 560.972 61.6286   3
  -3   3 -14 544.153 61.8475   4
  -3  -3  14 536.669 61.5812   2
   3  -3 -15 223.448 27.1902   3
  -3   3 -15 229.077 27.4788   4
  -3  -3  15 240.673 27.0314   2
   3  -3 -16 29.8408 8.51709   3
  -3  -3  16 24.7442 7.92125   2
  -3   3 -16 8.86557 9.57565   4
   3  -3 -17 211.394 26.4865   3
  -3   3 -17 231.871 27.2108   4
  -3  -3  17 229.837 26.4471   2
  -3   3 -18 442.137 53.2362   4
  -3  -3  18 508.407 52.8920   2
   3  -3 -18 440.203 52.9239   3
   3  -3 -19 46.2834 10.5779   3
  -3  -3  19 40.5082 9.69017   2
  -3   3 -19 47.2503 12.3929   4
   3  -3 -20 146.563 20.4519   3
  -3  -3  20 174.675 20.1468   2
  -3   3 -20 153.407 21.4586   4
   3  -3 -21 33.0641 10.6686   3
  -3  -3  21 28.5332 9.57312   2
  -3   3 -21 29.8080 12.0033   4
   3  -3 -22-1.17997 10.1880   3
  -3  -3  22 6.92931 9.62622   2
  -3   3 -22 7.28921 11.8492   4
   3  -3 -23-4.18525 11.1779   3
  -3  -3  23 7.99673 9.87486   2
  -3  -3  24 17.8632 10.2152   2
   3  -3 -24 12.8409 10.6711   3
   3  -3 -25-7.21395 10.8413   3
  -3  -3  25 5.94138 9.99623   2
   3  -3 -26 5.34714 10.7892   3
  -3  -3  26 19.2498 10.6334   2
   3  -3 -27 16.4753 11.1513   3
  -3  -3  27 2.57574 10.7469   2
   3  -3 -28 24.0511 11.6743   3
  -3  -3  28 22.5203 11.1399   2
  -3  -3  29-5.19506 10.9174   2
   3  -3 -29 0.23497 11.1981   3
   3  -4  28 0.73344 10.6410   2
   3  -4  27-6.69985 10.8427   2
   3  -4  26-4.97883 10.9060   2
   3  -4  25 20.3385 10.3772   2
   3  -4  24 26.1276 10.4044   2
   3  -4  23 131.375 18.1166   2
   3  -4  22 35.7455 10.4154   2
  -3  -4 -22 33.1347 10.5794   3
   3  -4  21 53.2021 12.4169   8
  -3  -4 -21 84.0747 12.7216   3
   3  -4  20 18.5508 9.04957   8
  -3  -4 -20 6.85309 9.41241   3
  -3  -4 -19-3.75256 11.6119   4
  -3  -4 -19-0.64877 8.79636   3
  -3   4  18 4.82501 8.59244   2
  -3  -4 -18-0.22733 11.4319   4
  -3  -4 -18 8.45420 8.48560   3
  -3  -4 -17 28.3850 11.7800   4
  -3   4  17 29.4198 9.14065   2
  -3  -4 -17 30.4096 9.07888   3
  -3  -4 -16 9.57535 10.7649   4
  -3  -4 -16 11.3472 8.28032   3
  -3   4  16 4.28181 7.99883   2
  -3  -4 -15 52.8186 9.38176   3
  -3  -4 -15 31.6971 11.3553   4
  -3   4  15 35.2865 9.37673   2
  -3  -4 -14 83.5546 13.0242   4
  -3   4  14 53.6596 10.9957   2
  -3  -4 -14 84.9240 11.3078   3
  -3  -4 -13 33.2060 10.5286   4
  -3  -4 -13 40.6071 8.41326   3
  -3  -4 -12 6.33720 8.74745   4
  -3  -4 -12 2.84206 6.57358   3
   3   4 -12 11.3343 5.54312   4
  -3  -4 -11 436.534 42.8306   3
   3   4 -11 327.796 42.5571   4
  -3  -4 -11 408.875 43.3657   4
  -3  -4 -10 118.839 16.7479   4
   3   4 -10 110.099 15.4703   4
   3  -4   9 925.190 117.338   6
  -3  -4  -9 1316.93 117.648   3
  -3  -4  -9 1445.30 117.926   4
   3   4  -9 945.552 117.426   4
   3  -4   8 328.196 42.0424   6
  -3  -4  -8 528.930 42.7936   4
  -3  -4  -8 461.338 42.4029   3
   3   4  -8 313.953 42.1750   4
   3   4  -7 31.3503 6.11175   4
   3   4  -7 37.2606 7.47592   9
   3  -4   7 32.2361 4.67129   9
  -3  -4  -7 41.5775 7.82606   4
  -3  -4  -7 39.3401 6.84360   3
   3   4  -7 26.2069 4.82483   2
   3  -4   7 29.6646 5.96781   7
   3   4  -6 29.8262 6.03294   4
   3  -4   6 36.0204 4.46800   9
   3   4  -6 26.4556 4.69649   2
  -3  -4  -6 35.2536 7.78600   4
  -3  -4  -6 46.5690 6.79392   3
  -3   4   6 23.4595 4.69174   4
   3  -4   6 27.1368 5.89831   7
   3   4  -6 35.5635 7.17644   9
   3  -4   5 652.661 79.4864   7
   3  -4   5 757.424 79.2563   9
  -3  -4  -5 760.541 79.6811   4
  -3  -4  -5 788.826 79.5474   3
  -3   4   5 613.644 79.3167   4
   3   4  -5 724.521 79.4479   4
   3   4  -5 669.049 79.3010   2
   3   4  -5 811.279 79.5591   9
   3   4  -4 120.332 14.2724   2
  -3  -4  -4 128.582 14.9922   3
   3  -4   4 103.494 14.7704   1
  -3   4   4 108.463 14.4980   4
   3   4  -4 152.110 15.3246   9
   3   4  -4 130.193 14.4504   8
   3   4  -4 128.823 14.7861   4
   3  -4   4 83.6476 14.7518   7
  -3   4   4 168.115 14.4642   3
   3   4  -3 163.627 15.4032   9
  -3  -4  -3 114.553 15.1650   3
   3  -4   3 139.827 14.9890   1
  -3   4   3 91.9980 14.6659   4
   3  -4   3 119.651 14.5209   4
   3   4  -3 125.414 14.4009   2
   3   4  -3 137.203 14.5769   8
  -3   4   3 147.039 14.5366   3
   3   4  -3 136.523 14.8662   4
   3  -4   3 98.3937 14.8946   7
  -3   4   2 195.881 17.5949   3
  -3  -4  -2 148.309 18.1026   3
   3  -4   2 147.953 17.5817   3
  -3   4   2 140.791 17.6132   7
  -3   4   2 149.836 17.8308   4
   3  -4   2 185.783 18.0189   1
   3   4  -2 155.141 17.4717   2
   3  -4   2 143.956 17.5858   4
   3  -4   2 112.434 18.0134   7
   3   4  -2 155.495 17.9332   4
  -3  -4  -1 530.080 56.3770   6
   3   4  -1 324.543 56.2821   4
  -3  -4  -1 521.315 56.4551   3
  -3   4   1 470.668 56.2831   7
   3  -4   1 529.586 56.2367   3
  -3   4   1 547.332 56.3764   4
   3   4  -1 507.214 56.1621   2
   3  -4   1 283.459 56.7269   1
   3  -4   1 509.873 56.2431   4
  -3   4   1 651.859 56.2433   3
   3  -4   1 492.321 56.4198   7
   3   4  -1 528.224 56.4200   4
  -3   4   0 9.92689 2.26080   9
  -3   4   0 9.16702 3.04164   7
  -3  -4   0 8.02541 4.56619   6
   3   4   0 9.30254 4.67126   4
   3  -4   0 3.37385 3.48002   3
   3   4   0 3.21691 3.90103   4
  -3   4   0 8.83951 2.58143   3
   3   4   0 8.40777 3.99313   3
  -3   4   0 16.6777 4.42450   4
   3   4   0 11.9959 2.34997   2
   3  -4   0-5.98201 7.78614   1
   3  -4   0 5.08598 2.80785   4
   3  -4   0 2.95675 4.09987   7
  -3  -4   1 490.304 56.9334   6
   3   4   1 621.923 56.9269   3
   3  -4  -1 464.442 56.7835   3
   3   4   1 436.672 56.6715   2
  -3   4  -1 590.584 56.9704   4
  -3   4  -1 598.973 56.7256   3
   3  -4  -1 499.173 56.7747   4
   3  -4  -1 464.368 56.8937   7
   3   4   1 549.591 56.9980   4
   3   4   2 154.054 15.8921   4
  -3  -4   2 151.706 15.4676   4
  -3  -4   2 155.979 15.4838   2
   3   4   2 162.446 15.6222   3
   3  -4  -2 135.449 15.6077   3
   3   4   2 102.967 15.1311   2
  -3   4  -2 169.747 16.0385   4
  -3   4  -2 155.117 15.2176   3
   3  -4  -2 122.779 15.3334   4
   3  -4  -2 128.891 15.7064   7
  -3  -4   2 126.133 15.9343   6
   3   4   3 146.641 13.3156   4
  -3  -4   3 164.199 12.7184   4
   3  -4  -3 101.292 13.0513   5
   3  -4  -3 128.539 12.6157   4
   3   4   3 90.3860 12.3624   2
  -3  -4   3 198.414 13.0311   2
   3  -4  -3 132.744 13.1205   3
  -3   4  -3 118.362 13.4910   4
  -3  -4   3 150.440 13.4463   6
   3  -4  -3 131.297 13.0742   7
  -3  -4   4 166.583 18.6466   4
  -3  -4   4 165.805 19.2516   6
   3  -4  -4 166.857 18.9766   5
   3   4   4 159.982 18.3928   1
  -3  -4   4 187.819 18.8151   2
  -3   4  -4 162.223 19.2330   4
   3  -4  -4 137.843 18.8658   3
   3   4   4 204.334 19.2773   4
   3  -4  -4 162.258 18.5726   4
   3  -4  -4 160.744 18.9561   7
   3  -4  -5 662.757 72.4905   5
   3  -4  -5 755.699 72.4214   2
   3   4   5 811.504 72.6234   4
  -3  -4   5 715.970 72.4096   2
  -3   4  -5 665.196 72.5724   4
   3  -4  -5 541.029 72.3904   3
   3  -4  -5 583.772 72.2559   4
   3  -4  -5 671.404 72.5189   7
  -3  -4   5 613.469 72.3163   4
   3  -4  -6 40.7761 6.83465   3
   3  -4  -6 41.3468 5.36371   4
   3  -4  -6 43.2817 6.64930   5
  -3  -4   6 38.9995 5.54553   4
  -3  -4   6 49.1426 6.38960   2
   3  -4  -6 45.7074 5.95188   2
   3  -4  -6 38.1401 6.58174   7
  -3   4  -6 40.2724 7.59788   4
   3  -4  -7 25.1882 5.49048   7
   3  -4  -7 34.4267 5.93924   3
  -3   4  -7 30.0051 7.22898   4
   3  -4  -7 33.1202 5.64872   5
  -3  -4   7 26.0412 4.29331   4
  -3  -4   7 19.9324 5.62690   2
   3  -4  -7 28.4732 4.88513   2
  -3  -4   8 425.217 48.6217   4
  -3   4  -8 453.623 49.1932   4
  -3  -4   8 428.787 48.8381   2
   3  -4  -8 409.575 48.8585   3
   3  -4  -8 409.369 48.8550   5
   3  -4  -8 500.698 48.8625   7
   3  -4  -9 874.206 102.389   5
  -3   4  -9 1017.38 102.592   4
  -3  -4   9 935.381 102.357   2
   3  -4  -9 873.773 102.390   3
   3  -4 -10 156.165 16.6283   5
  -3   4 -10 128.938 17.5509   4
  -3  -4  10 143.525 16.6537   2
   3  -4 -10 121.256 16.7049   3
   3  -4 -11 397.653 42.6685   5
  -3   4 -11 350.839 43.0266   4
  -3  -4  11 370.242 42.6585   2
   3  -4 -11 382.280 42.7073   3
   3  -4 -12 3.90001 6.56887   3
   3  -4 -12 8.56856 5.56273   5
  -3  -4  12-4.59204 6.27964   2
  -3   4 -12-5.01384 7.74266   4
   3  -4 -13 34.5698 7.09468   5
  -3  -4  13 41.3146 7.96763   2
   3  -4 -13 33.8282 8.17325   3
  -3   4 -13 38.5509 9.47546   4
   3  -4 -14 36.7423 8.70988   3
   3  -4 -14 40.6605 7.66695   5
  -3  -4  14 45.4483 8.53026   2
  -3   4 -14 44.0930 10.0496   4
   3  -4 -15 54.8341 10.1812   3
   3  -4 -15 57.6081 9.11385   5
  -3  -4  15 63.8834 10.0098   2
  -3   4 -15 62.1863 11.2329   4
   3  -4 -16 9.73754 7.88910   3
   3  -4 -16 0.99060 5.97368   5
  -3  -4  16-3.29844 7.73408   2
  -3   4 -16 10.8881 9.34810   4
   3  -4 -17 16.6150 8.44983   3
   3  -4 -17 13.3825 6.36420   5
  -3  -4  17 19.9816 8.39254   2
  -3   4 -17 21.7077 9.81805   4
   3  -4 -18 6.07396 8.60488   3
  -3  -4  18-6.92411 8.21955   2
  -3   4 -18-7.28313 10.3474   4
  -3  -4  19 4.84377 8.54350   2
   3  -4 -19-2.93820 8.80126   3
  -3   4 -19 2.01199 10.9177   4
   3  -4 -20 11.5332 9.00257   3
  -3  -4  20 2.99215 8.98343   2
  -3   4 -20 18.0007 11.2691   4
  -3  -4  21 89.3035 12.5093   2
  -3   4 -21 69.6321 14.1993   4
   3  -4 -21 52.8804 12.7606   3
   3  -4 -22 22.3230 10.4281   3
  -3  -4  22 37.2096 10.1118   2
  -3   4 -22 27.5986 13.1486   4
   3  -4 -23 123.518 17.3191   3
  -3  -4  23 141.287 17.0923   2
  -3   4 -23 89.8534 19.0002   4
  -3  -4  24 33.7043 10.7403   2
   3  -4 -24 19.0000 10.9316   3
  -3  -4  25 28.4253 10.6520   2
   3  -4 -25 12.8410 11.2794   3
  -3  -4  26 11.6949 10.9114   2
   3  -4 -26 20.7480 11.3450   3
   3  -4 -27 2.53744 11.3734   3
  -3  -4  27 7.13233 10.4710   2
   3  -4 -28 0.23524 11.6423   3
  -3  -4  28-2.20455 10.8650   2
   3  -5  28 13.1241 11.2975   2
   3  -5  27 11.1927 11.2319   2
   3  -5  26-11.5675 10.9587   2
   3  -5  25-3.18612 10.6011   2
   3  -5  24 30.1272 11.1833   2
   3  -5  23 28.1420 10.6330   2
   3  -5  23 21.2659 11.1658   8
  -3  -5 -23 8.94543 10.6467   3
   3  -5  22-3.47726 10.4415   8
  -3  -5 -22 2.13146 10.0093   3
   3  -5  21 25.2362 10.3521   8
  -3  -5 -21 30.7494 10.5932   3
   3  -5  20 45.4875 11.3525   8
  -3  -5 -20 61.4543 11.5465   3
  -3  -5 -19 23.2014 9.89032   3
  -3  -5 -18 12.6065 10.7173   4
  -3  -5 -18 16.7743 9.34967   3
  -3  -5 -17 210.509 22.9748   4
  -3  -5 -17 157.896 22.0908   3
  -3  -5 -16 115.299 16.8637   4
  -3  -5 -16 120.258 16.0371   3
  -3  -5 -15 422.054 48.5196   4
  -3  -5 -15 422.545 48.0541   3
  -3  -5 -14 380.790 45.8213   4
  -3  -5 -14 411.856 45.4407   3
  -3  -5 -13 78.6512 12.4329   4
  -3  -5 -13 80.4377 11.4927   3
   3   5 -13 63.0987 10.6278   4
  -3  -5 -12 25.5817 9.13728   4
  -3  -5 -12 24.2656 8.29047   3
   3   5 -12 3.99874 6.58544   4
  -3  -5 -11 133.154 15.2616   4
  -3  -5 -11 131.562 14.5940   3
  -3  -5 -10 244.149 28.0668   4
  -3  -5 -10 291.125 27.8572   3
   3   5 -10 200.713 27.3500   4
  -3  -5  -9 31.3315 7.74988   3
   3   5  -9 24.8674 6.69500   4
   3   5  -8 71.6625 10.2611   4
   3  -5   8 65.1422 10.1428   6
  -3  -5  -8 89.5426 11.0853   3
   3   5  -8 86.8183 11.5151   9
   3   5  -7 26.9913 6.60522   4
   3  -5   7 17.1631 6.22767   7
   3   5  -7 31.7161 7.95677   9
  -3  -5  -7 33.1711 7.52333   3
   3   5  -6 1.72285 5.80319   4
   3   5  -6 12.1052 7.01897   9
  -3   5   6 6.59230 3.96043   4
  -3  -5  -6 11.8517 6.91787   3
   3  -5   6 0.47544 5.24825   7
   3   5  -5 124.797 14.9277   4
   3   5  -5 144.108 15.4423   9
  -3  -5  -5 140.285 15.1983   3
  -3   5   5 107.943 14.3584   4
   3  -5   5 115.844 14.7075   7
   3   5  -4 320.660 31.5302   9
   3  -5   4 242.059 31.0458   1
  -3  -5  -4 265.553 31.2343   3
  -3   5   4 301.258 30.8455   3
  -3   5   4 243.568 30.9493   4
   3   5  -4 277.518 31.1862   4
   3  -5   4 276.976 31.1126   7
   3  -5   3 98.4967 14.2947   1
  -3  -5  -3 126.662 15.0168   3
  -3   5   3 95.5801 14.2447   4
  -3   5   3 142.127 13.9241   3
   3   5  -3 130.147 15.1672   9
   3   5  -3 126.106 14.5975   4
   3  -5   3 116.899 14.4306   7
  -3  -5  -2 242.152 25.5808   3
   3  -5   2 221.291 25.1636   3
   3  -5   2 196.804 25.3522   1
  -3   5   2 216.056 25.3447   4
   3   5  -2 238.791 25.4262   4
   3  -5   2 223.247 25.3362   7
   3   5  -1 131.384 14.8076   4
   3  -5   1 112.076 14.3503   3
  -3  -5  -1 107.777 14.9902   3
   3  -5   1 123.569 14.6463   1
  -3   5   1 109.420 14.6265   4
  -3  -5  -1 123.452 14.9483   6
   3  -5   1 155.123 14.6978   7
  -3  -5   0 1198.18 129.035   6
   3  -5   0 1159.52 128.952   3
  -3   5   0 924.706 129.012   4
   3  -5   0 1154.71 129.346   1
   3  -5   0 1282.31 129.077   7
   3   5   0 1268.41 129.085   4
  -3  -5   1 111.725 12.2281   6
   3  -5  -1 95.2040 11.7622   3
   3  -5  -1 110.885 11.9133   7
  -3   5  -1 96.4766 12.2272   4
   3  -5  -1 90.1653 11.3094   4
   3   5   1 116.993 12.2727   4
  -3  -5   2 219.692 26.4366   6
  -3  -5   2 252.310 26.0529   2
   3  -5  -2 219.731 26.2490   3
  -3   5  -2 178.354 26.4152   4
   3  -5  -2 218.179 26.0675   4
  -3  -5   2 228.917 26.3154   8
   3  -5  -2 247.854 26.3287   7
   3   5   2 283.264 26.5380   4
  -3  -5   3 122.773 13.7995   6
   3  -5  -3 115.377 13.1687   7
  -3  -5   3 128.770 13.0069   2
  -3   5  -3 92.5563 13.6356   4
  -3  -5   3 114.112 13.4489   8
   3  -5  -3 103.116 12.8447   4
   3  -5  -3 87.8908 13.2646   3
   3   5   3 126.350 13.7464   4
  -3  -5   4 239.901 28.1605   8
  -3  -5   4 273.913 28.3173   6
   3  -5  -4 219.398 28.0826   3
  -3  -5   4 252.855 27.8566   2
  -3   5  -4 225.977 28.2822   4
   3  -5  -4 230.751 27.7190   4
   3  -5  -4 289.179 28.0511   7
   3   5   4 261.627 28.2673   4
   3   5   5 105.630 12.4295   4
  -3  -5   5 99.3796 11.5851   2
   3  -5  -5 88.4413 12.1928   3
  -3  -5   5 97.2917 12.6303   6
  -3  -5   5 94.9118 12.2410   8
   3  -5  -5 94.7883 11.7043   7
  -3   5  -5 86.4630 12.6844   4
   3  -5  -6 16.6713 4.73362   7
  -3  -5   6 5.37086 6.58155   6
  -3  -5   6 5.60272 4.60509   2
   3  -5  -6 7.44193 5.06700   5
   3   5   6 13.4168 6.00331   4
  -3   5  -6 19.4239 6.63007   4
  -3  -5   6 11.0256 6.14584   8
   3  -5  -6 18.2972 6.05882   3
   3  -5  -7 41.9300 6.19510   7
   3  -5  -7 31.7219 6.34327   5
  -3   5  -7 31.8642 7.92131   4
   3   5   7 41.6393 7.68069   4
  -3  -5   7 32.3000 6.31572   2
  -3  -5   7 37.6441 7.59127   8
   3  -5  -7 35.5763 7.20316   3
   3  -5  -8 80.1402 10.7601   3
   3  -5  -8 82.7303 10.3159   7
   3  -5  -8 67.0229 10.4396   5
  -3  -5   8 74.9761 10.3070   2
   3   5   8 94.9981 11.2500   4
  -3   5  -8 88.4776 11.6557   4
  -3  -5   8 83.6525 11.5130   8
   3  -5  -9 34.5904 7.03334   3
   3  -5  -9 28.8742 6.06168   7
   3  -5  -9 38.1258 6.33362   5
  -3   5  -9 15.1425 8.34494   4
  -3  -5   9 23.0977 6.51196   2
   3   5   9 29.5771 7.77693   4
  -3  -5   9 30.0194 7.61909   8
   3   5  10 246.146 25.4637   4
   3  -5 -10 179.795 24.9521   5
  -3   5 -10 217.351 25.8214   4
  -3  -5  10 219.322 25.0453   2
   3  -5 -10 222.465 25.3267   3
  -3  -5  10 214.438 25.4592   8
   3  -5 -10 232.024 24.9702   7
   3  -5 -11 63.2796 10.0393   3
   3  -5 -11 60.5142 9.08475   5
  -3  -5  11 60.6642 9.48282   2
   3  -5 -11 58.8297 8.97378   7
  -3   5 -11 68.1855 11.3514   4
  -3  -5  11 77.8712 10.6178   8
  -3  -5  12 3.64010 6.44992   2
   3  -5 -12 13.7779 7.25166   3
  -3   5 -12 11.3137 9.05758   4
   3  -5 -12 12.3306 5.65963   5
   3  -5 -13 76.5469 11.7267   3
   3  -5 -13 72.8371 10.7792   5
  -3  -5  13 86.2566 11.6846   2
  -3   5 -13 91.8141 13.0591   4
   3  -5 -14 280.891 34.1924   5
  -3   5 -14 324.549 35.0362   4
  -3  -5  14 317.507 34.5080   2
   3  -5 -14 289.697 34.4948   3
   3  -5 -15 347.467 38.9931   5
  -3   5 -15 344.776 39.9084   4
  -3  -5  15 377.512 39.3970   2
   3  -5 -15 304.120 39.3416   3
   3  -5 -16 105.739 15.1173   3
   3  -5 -16 104.978 14.1678   5
  -3  -5  16 123.992 15.1607   2
  -3   5 -16 121.581 16.3931   4
   3  -5 -17 124.271 17.0375   3
  -3  -5  17 139.260 16.9089   2
  -3   5 -17 122.626 18.1622   4
   3  -5 -18 15.9792 9.33358   3
  -3  -5  18 32.1763 9.28400   2
  -3   5 -18 11.3816 10.8189   4
   3  -5 -19 24.8273 9.58987   3
  -3  -5  19 25.5621 9.26700   2
  -3   5 -19 8.85787 11.5235   4
  -3  -5  20 64.5409 11.9010   2
  -3   5 -20 69.8492 13.8616   4
   3  -5 -20 64.6430 12.2442   3
  -3  -5  21 43.2547 10.3170   2
  -3   5 -21 26.9951 13.1292   4
   3  -5 -21 41.2748 10.7521   3
  -3   5 -22 1.63480 12.8061   4
   3  -5 -22 5.16826 10.0732   3
  -3  -5  22 17.4429 9.48597   2
   3  -5 -23 15.0029 10.4933   3
  -3  -5  23 30.2781 10.2926   2
  -3   5 -23 26.2317 12.9448   4
   3  -5 -24 14.5141 10.7760   3
  -3  -5  24 31.2418 10.5667   2
  -3  -5  25 17.4544 10.5367   2
   3  -5 -25 2.58416 10.7526   3
   3  -5 -26-2.88921 11.0956   3
  -3  -5  26 16.5244 10.5359   2
   3  -5 -27 0.70211 11.2785   3
  -3  -5  27-3.92679 10.7760   2
  -3  -5  28 4.47066 10.4626   2
   3  -6  27-4.37113 11.2384   2
   3  -6  26 5.86615 11.3211   2
   3  -6  25 7.79672 10.5586   2
   3  -6  24 18.5891 10.6926   2
   3  -6  24-10.7717 11.3480   8
  -3  -6 -24 11.4961 10.4527   3
   3  -6  23 5.46366 10.4713   2
   3  -6  23 17.4510 11.5501   8
  -3  -6 -23 3.62333 10.2376   3
   3  -6  22 23.2208 10.6056   2
   3  -6  22 9.06751 11.1363   8
  -3  -6 -22 11.4282 10.2676   3
  -3  -6 -21 39.6967 11.0576   3
   3  -6  21 29.6787 11.0164   8
  -3  -6 -20 18.8616 10.0842   3
   3  -6  20 25.5770 10.2550   8
  -3  -6 -19 54.1119 11.6130   3
  -3  -6 -18 13.6093 9.70203   3
  -3  -6 -17 10.3873 9.62767   3
  -3  -6 -16 53.9794 11.2746   3
  -3  -6 -15 39.2833 10.6302   3
  -3  -6 -14 122.626 16.8207   3
   3   6 -13 35.4272 8.80250   4
  -3  -6 -13 43.6458 10.5061   3
  -3  -6 -12 385.789 37.6028   3
   3   6 -12 286.175 36.9818   4
  -3  -6 -11 120.479 14.4679   3
   3   6 -11 89.4176 13.7395   4
  -3  -6 -10 18.5020 8.00229   3
   3   6 -10 3.50070 7.01341   4
   3   6  -9 116.359 14.4077   9
  -3  -6  -9 113.184 14.1185   3
   3   6  -9 82.2270 13.3104   4
  -3  -6  -8 768.574 78.5984   3
   3   6  -8 603.682 78.3780   4
   3   6  -8 767.679 78.6241   9
  -3  -6  -7 465.944 49.4483   3
   3   6  -7 393.225 49.2262   4
   3   6  -7 461.960 49.4815   9
   3   6  -6 672.945 78.8509   4
  -3  -6  -6 788.345 79.0512   3
   3   6  -6 814.504 79.0024   9
   3  -6   6 595.086 78.7950   7
  -3   6   5 128.875 20.4572   4
  -3  -6  -5 168.525 21.2071   3
   3   6  -5 219.289 21.4264   9
   3   6  -5 238.910 21.2338   4
   3  -6   5 180.381 20.7501   7
   3   6  -4 77.1335 11.9199   9
  -3   6   4 63.9767 10.3739   4
   3   6  -4 79.8292 11.2886   4
  -3  -6  -4 107.749 11.5406   3
   3  -6   4 82.8535 10.7034   7
   3   6  -3 29.5133 7.07393   4
   3   6  -3 22.1619 7.81591   9
  -3  -6  -3 9.27090 7.54645   3
  -3   6   3 10.9167 5.54958   4
   3  -6   3 15.9636 5.82006   7
  -3  -6  -2 184.972 21.2742   3
   3  -6   2 195.624 20.6352   3
   3  -6   2 179.161 20.6650   1
  -3   6   2 133.379 20.7400   4
   3  -6   2 182.912 20.7631   7
   3   6  -2 203.386 21.1669   4
  -3  -6  -1 604.612 56.9830   3
   3  -6   1 526.718 56.6449   3
   3  -6   1 457.556 56.6812   1
  -3   6   1 426.041 56.7542   4
   3   6  -1 551.508 56.8986   4
   3  -6   1 509.719 56.7396   7
  -3  -6   0 64.9464 9.78723   6
   3   6   0 80.1719 9.51335   4
   3  -6   0 59.4565 8.81266   1
   3  -6   0 81.5976 9.09314   3
  -3   6   0 47.4230 9.30285   4
   3  -6   0 53.9654 9.01690   7
  -3  -6   1 506.727 54.8667   6
   3  -6  -1 495.916 54.7321   3
   3   6   1 546.927 54.9192   4
  -3   6  -1 380.621 54.7831   4
   3  -6  -1 468.288 54.9786   1
  -3  -6   1 461.353 54.6122   8
   3  -6  -1 575.292 54.7966   7
  -3  -6   2 205.812 22.9626   6
   3  -6  -2 215.106 22.7316   3
  -3   6  -2 168.508 22.9609   4
   3  -6  -2 146.288 24.6234   1
  -3  -6   2 166.362 22.6140   8
   3  -6  -2 225.282 22.7228   7
   3   6   2 220.825 23.0953   4
   3   6   3 38.5190 7.28567   4
  -3  -6   3 35.9203 7.54384   6
   3  -6  -3 33.3235 6.83581   3
  -3   6  -3 19.1217 7.58397   4
  -3  -6   3 31.5577 6.51746   8
   3  -6  -3 29.7169 6.27053   7
  -3  -6   4 83.4712 10.8671   6
   3   6   4 86.1649 10.8488   4
   3  -6  -4 84.4003 10.1645   3
  -3   6  -4 52.4649 10.8068   4
  -3  -6   4 60.2434 10.1891   8
   3  -6  -4 77.3378 9.69620   7
   3   6   5 202.704 22.3238   4
  -3  -6   5 223.611 22.3986   6
   3  -6  -5 177.938 22.0286   3
  -3   6  -5 185.385 22.4411   4
  -3  -6   5 200.008 22.1244   8
   3  -6  -5 165.766 21.7611   7
   3  -6  -6 614.132 69.7680   3
  -3   6  -6 594.769 69.9692   4
  -3  -6   6 645.267 69.8951   6
  -3  -6   6 609.118 69.7443   8
   3  -6  -6 607.066 69.6180   7
   3   6   6 675.300 69.8797   4
  -3  -6   7 430.283 47.8975   6
   3  -6  -7 421.677 47.7815   3
  -3   6  -7 409.546 48.0260   4
   3   6   7 456.467 47.8337   4
  -3  -6   7 382.416 47.7489   8
   3  -6  -7 433.094 47.5347   7
   3   6   8 692.267 68.9808   4
   3  -6  -8 670.697 69.0101   3
  -3   6  -8 553.704 69.1189   4
  -3  -6   8 579.918 68.7170   2
  -3  -6   8 563.154 68.9215   8
   3  -6  -8 633.396 68.7535   7
  -3   6  -9 94.1703 14.3943   4
   3   6   9 100.639 13.5622   4
  -3  -6   9 97.5761 12.8328   2
   3  -6  -9 101.672 12.5808   7
  -3  -6   9 104.612 13.8831   8
   3  -6  -9 111.868 14.1717   3
   3   6  10 4.15752 7.38424   4
  -3  -6  10-1.72339 6.03253   2
   3  -6 -10 18.4681 7.96675   3
  -3  -6  10 9.78254 7.90078   8
   3  -6 -10 16.6660 5.72304   5
  -3   6 -10 6.97287 8.46210   4
   3  -6 -11 57.6231 9.61269   5
   3   6  11 68.6451 10.8074   4
  -3  -6  11 70.5487 10.0698   2
  -3   6 -11 57.3492 11.8593   4
  -3  -6  11 89.3927 11.4976   8
   3  -6 -11 66.7063 10.8655   3
   3   6  12 400.895 42.1444   4
   3  -6 -12 353.959 41.7425   5
   3  -6 -12 365.307 42.0580   3
  -3  -6  12 358.929 41.9055   2
  -3   6 -12 345.154 42.6346   4
  -3  -6  12 395.211 42.2441   8
   3  -6 -13 39.3629 9.50812   3
   3  -6 -13 35.7301 7.83580   5
   3   6  13 56.3024 9.73397   4
  -3  -6  13 42.2445 8.96139   2
  -3   6 -13 69.9461 11.5315   4
  -3  -6  13 59.2453 10.6525   8
   3  -6 -14 83.3693 12.9054   3
   3  -6 -14 92.5621 11.5726   5
   3   6  14 82.7618 12.8367   4
  -3  -6  14 81.9649 12.5500   2
  -3   6 -14 92.8204 14.3868   4
  -3  -6  14 88.6520 13.5007   8
   3  -6 -15 10.9755 8.31246   3
   3  -6 -15 15.9036 6.04143   5
   3   6  15 13.1022 8.35372   4
  -3  -6  15-2.73374 8.04709   2
  -3   6 -15 23.7238 10.8126   4
   3  -6 -16 42.9293 10.0634   3
  -3  -6  16 45.4176 9.80352   2
  -3   6 -16 41.5324 11.8344   4
   3   6  16 55.1291 10.1621   4
   3  -6 -17 8.96335 9.16645   3
   3   6  17 14.2911 8.84793   4
  -3  -6  17 9.07578 8.69022   2
  -3   6 -17 17.6059 11.2423   4
  -3  -6  18 14.1634 8.76486   2
  -3   6 -18 4.55008 11.3752   4
   3  -6 -18 6.55238 9.09182   3
   3  -6 -19 48.5965 11.5289   3
  -3  -6  19 69.4015 11.3337   2
  -3   6 -19 46.0375 13.2358   4
   3  -6 -20 11.8541 10.2835   3
  -3  -6  20 31.0184 10.0302   2
  -3   6 -20 24.6012 11.9236   4
   3  -6 -21 32.1473 10.8375   3
  -3   6 -21 11.9247 12.7775   4
  -3  -6  21 40.9475 10.4767   2
  -3   6 -22-0.27152 12.4716   4
   3  -6 -22 22.9832 10.6722   3
  -3  -6  22 2.56100 9.92443   2
   3  -6 -23 12.7430 10.4227   3
  -3  -6  23 22.0564 10.2714   2
  -3   6 -23 2.30633 13.2468   4
   3  -6 -24-1.06040 10.6886   3
  -3  -6  24 11.4261 10.0231   2
  -3   6 -24 4.88925 14.0232   4
   3  -6 -25-0.87412 10.7793   3
  -3  -6  25-5.17785 10.2832   2
   3  -6 -26 0.22466 11.0128   3
  -3  -6  26-2.65541 10.7661   2
   3  -6 -27 0.23260 11.3417   3
  -3  -6  27 0.25060 10.4205   2
  -3  -7 -26 0.22523 10.8935   3
   3  -7  26 2.89904 11.3182   2
   3  -7  25 4.03540 11.1443   2
  -3  -7 -25 13.3377 11.0339   3
   3  -7  25 14.4808 12.1603   8
   3  -7  24 21.7180 11.0312   2
  -3  -7 -24 7.66592 10.8786   3
   3  -7  24 11.9660 12.0540   8
   3  -7  23 2.12327 10.8099   2
  -3  -7 -23 5.17238 10.7245   3
   3  -7  23-0.22228 12.1318   8
   3  -7  22-11.2669 10.8459   2
  -3  -7 -22 0.43406 10.9476   3
   3  -7  22 10.9824 11.3958   8
  -3  -7 -21 44.7414 11.6923   3
   3  -7  21 21.8542 11.8986   8
  -3  -7 -20 19.9277 11.4042   3
   3  -7  20 16.2452 10.9189   8
  -3  -7 -19 13.4228 10.9401   3
  -3  -7 -18 8.53474 10.8296   3
  -3  -7 -17 4.31105 10.9593   3
  -3  -7 -16-5.26966 10.5180   3
  -3  -7 -15 2.31297 10.3318   3
  -3  -7 -14 10.5259 10.3480   3
   3   7 -14 7.89139 8.58214   4
  -3  -7 -13 114.885 14.4535   3
   3   7 -13 75.2058 13.3101   4
  -3  -7 -12 107.944 13.8574   3
   3   7 -12 68.2917 12.6694   4
  -3  -7 -11 305.754 32.5251   3
   3   7 -11 253.279 31.9442   4
   3   7 -10 41.6512 10.2429   4
  -3  -7 -10 82.2772 11.7372   3
   3   7  -9 64.1324 11.4513   9
  -3  -7  -9 74.8256 11.2421   3
   3   7  -9 36.0455 9.97296   4
   3   7  -8 86.8540 13.1891   4
  -3  -7  -8 93.3703 14.1050   3
   3   7  -8 103.385 14.2931   9
  -3  -7  -7 435.580 47.1996   3
   3   7  -7 482.309 47.2638   9
   3   7  -7 345.855 46.9289   4
  -3  -7  -6 200.364 22.6790   3
   3   7  -6 196.112 22.8364   9
   3   7  -6 166.980 22.4123   4
   3   7  -5 16.0326 7.49183   4
  -3  -7  -5 5.65689 8.01933   3
   3  -7   5-7.05360 6.75758   7
   3   7  -5 9.07263 8.56063   9
  -3   7   5 6.24052 5.91670   4
   3   7  -4 134.904 14.6317   4
  -3   7   4 73.2888 13.2670   4
  -3  -7  -4 142.937 14.9759   3
   3  -7   4 90.7666 13.6185   7
   3   7  -4 132.353 14.9159   9
   3   7  -3 147.388 16.4914   4
   3  -7   3 118.468 15.8156   7
  -3   7   3 92.4293 15.8054   4
  -3  -7  -3 170.699 16.7639   3
   3   7  -3 145.546 16.8879   9
   3   7  -2 118.657 13.2421   4
  -3  -7  -2 106.367 13.4429   3
  -3   7   2 69.1938 12.6147   4
   3  -7   2 99.9605 12.5576   7
  -3  -7  -1 206.664 22.7861   3
   3  -7   1 168.230 21.8998   1
   3  -7   1 229.054 22.1908   3
   3   7  -1 238.658 22.8035   4
   3  -7   1 214.121 22.2177   7
  -3  -7   0 327.955 34.1223   6
   3  -7   0 313.480 33.7427   3
  -3   7   0 249.616 33.9133   4
   3   7   0 332.413 34.0794   4
   3  -7   0 272.350 33.7214   7
  -3  -7   1 239.147 24.0532   6
   3  -7  -1 232.247 23.7600   3
   3  -7  -1 171.604 23.5634   7
  -3   7  -1 170.092 23.9285   4
   3   7   1 212.805 23.9236   4
   3   7   2 83.1836 12.2510   4
  -3  -7   2 83.1642 12.3610   6
   3  -7  -2 105.167 11.9262   3
  -3   7  -2 88.5295 12.4317   4
   3  -7  -2 79.5719 11.4081   7
  -3  -7   3 185.648 21.7239   6
   3  -7  -3 214.947 21.5736   3
  -3   7  -3 137.100 21.8111   4
  -3  -7   3 154.508 21.3024   8
   3   7   3 209.960 21.8111   4
   3  -7  -3 192.451 21.2601   7
   3   7   4 130.382 15.6952   4
  -3  -7   4 113.798 15.5510   6
   3  -7  -4 131.654 15.3860   3
  -3  -7   4 112.911 14.9811   8
  -3   7  -4 94.3820 15.6369   4
   3  -7  -4 133.470 14.7222   7
  -3  -7   5 12.9144 7.82001   6
   3   7   5 10.6135 7.50516   4
  -3   7  -5 3.53244 7.78675   4
   3  -7  -5 10.1700 5.56723   7
  -3  -7   5 9.35418 6.57256   8
   3  -7  -5 6.81445 7.23880   3
   3   7   6 180.746 19.0453   4
   3  -7  -6 158.211 18.7170   3
  -3  -7   6 153.221 18.6392   8
  -3   7  -6 127.774 19.2936   4
   3  -7  -6 137.650 18.0605   7
  -3  -7   6 178.502 19.1845   6
  -3  -7   7 428.237 45.8486   6
   3  -7  -7 394.336 45.5798   3
  -3   7  -7 359.902 45.8996   4
  -3  -7   7 393.130 45.5676   8
   3  -7  -7 385.228 45.2962   7
   3   7   7 469.202 45.7565   4
  -3   7  -8 49.8029 11.9184   4
  -3  -7   8 83.5470 11.3194   6
   3   7   8 67.6716 10.6817   4
  -3  -7   8 59.2274 10.6197   8
   3  -7  -8 64.9867 10.6282   3
   3   7   9 85.5348 10.6693   4
  -3   7  -9 43.3244 11.6474   4
  -3  -7   9 50.8642 10.4490   8
   3  -7  -9 60.0888 10.5996   3
  -3   7 -10 67.8260 12.3193   4
  -3  -7  10 66.7158 11.5615   8
   3  -7 -10 73.7227 11.6904   3
   3   7  10 74.3738 11.1242   4
   3   7  11 302.551 32.3097   4
   3  -7 -11 267.353 32.3683   3
  -3   7 -11 239.052 32.7784   4
  -3  -7  11 293.918 32.4406   8
   3   7  12 109.452 14.4802   4
  -3   7 -12 84.6403 15.5489   4
  -3  -7  12 111.499 15.0065   8
   3  -7 -12 112.383 14.8606   3
  -3  -7  13 129.093 16.4237   8
   3   7  13 106.512 15.4602   4
  -3   7 -13 108.834 17.0739   4
   3  -7 -13 123.474 16.3593   3
   3   7  14 8.21709 8.30815   4
  -3  -7  14-1.87612 7.85009   2
  -3   7 -14 9.24688 11.2399   4
   3  -7 -14 12.2013 10.2768   3
  -3  -7  14 15.9318 9.76249   8
   3   7  15 18.5994 8.50284   4
  -3  -7  15-8.92558 7.84724   2
  -3   7 -15 3.26404 11.2510   4
  -3  -7  15-9.82477 9.91695   8
   3  -7 -15 0.19173 10.1638   3
   3   7  16 10.6156 8.76860   4
  -3  -7  16 4.18141 8.47018   2
  -3   7 -16 22.1123 11.7813   4
  -3  -7  16 9.61669 10.5339   8
   3  -7 -16 17.5342 10.2633   3
  -3  -7  17 5.48666 8.60910   2
  -3   7 -17 0.25035 11.9180   4
   3  -7 -17 3.02198 10.0330   3
  -3  -7  18-3.06289 9.09318   2
  -3   7 -18 0.75827 12.0581   4
   3  -7 -18 14.4651 10.3175   3
  -3  -7  19 15.3939 9.18522   2
   3  -7 -19 12.1172 10.4521   3
  -3   7 -19 1.06746 12.4094   4
   3  -7 -20 38.1636 11.1744   3
  -3  -7  20 27.9368 9.98342   2
  -3  -7  21 40.9792 10.4863   2
   3  -7 -21 48.2790 11.7584   3
  -3  -7  22 7.87068 9.81915   2
  -3   7 -22 0.28302 13.0088   4
   3  -7 -22-1.93782 11.0049   3
  -3  -7  23 8.22720 9.93488   2
  -3   7 -23 0.29245 13.0878   4
   3  -7 -23 18.3878 11.4934   3
  -3  -7  24 6.64400 10.0853   2
  -3   7 -24 0.30794 13.8905   4
   3  -7 -24 15.2526 11.4103   3
  -3  -7  25 20.4307 10.9364   2
   3  -7 -25 15.6410 12.0194   3
  -3  -7  26 10.3358 10.9216   2
  -3  -8 -25 0.75007 11.8832   3
   3  -8  25 2.83182 12.2415   8
   3  -8  24-4.18496 10.9275   2
  -3  -8 -24 9.65178 12.0134   3
   3  -8  24-8.01438 12.5025   8
   3  -8  23 8.80409 11.0738   2
  -3  -8 -23 7.33483 12.0358   3
   3  -8  23 0.71181 12.4648   8
   3  -8  22 10.4929 11.0623   2
  -3  -8 -22 22.9096 12.2380   3
   3  -8  22 18.3018 12.0400   8
  -3  -8 -21 7.21276 12.2863   3
   3  -8  21-6.97163 10.7669   2
   3  -8  21-0.63770 11.6679   8
  -3  -8 -20 18.9267 12.2342   3
   3  -8  20 2.47447 11.4667   8
  -3  -8 -19 10.6554 11.5238   3
  -3  -8 -18 59.8906 13.3840   3
  -3  -8 -17 48.5920 12.5602   3
  -3  -8 -16 115.596 17.3830   3
  -3  -8 -15 20.9277 11.2652   3
  -3  -8 -14 35.2699 11.0949   3
   3   8 -14 15.6281 9.71401   4
  -3  -8 -13 17.5632 10.6502   3
   3   8 -13 2.35729 8.94631   4
   3   8 -12 53.1514 11.1949   4
  -3  -8 -12 62.6779 13.0982   3
   3   8 -11 10.6134 8.80230   4
  -3  -8 -11 19.7992 10.8388   3
   3   8 -10 47.5535 10.9900   4
  -3  -8 -10 73.3505 12.2689   3
   3   8  -9 23.6111 9.25068   4
  -3  -8  -9 33.3840 11.1578   3
   3   8  -9 40.8061 10.6585   9
   3   8  -8 34.9695 10.6665   9
  -3  -8  -8 15.1684 10.4667   3
   3   8  -8 36.0359 9.07122   4
   3   8  -7 35.0520 10.2220   4
  -3  -8  -7 51.8799 11.2953   3
   3   8  -6 28.2239 8.84030   4
   3   8  -6 26.2306 9.99931   9
  -3  -8  -6 21.3267 9.53384   3
   3   8  -5 143.391 18.9724   4
  -3  -8  -5 148.399 19.4173   3
   3   8  -5 155.522 19.2321   9
   3   8  -4 22.5664 8.49862   4
  -3  -8  -4 12.9605 8.98023   3
  -3   8   4 1.86445 6.88850   4
   3   8  -4 18.0203 9.39415   9
   3  -8   3 29.6792 8.01241   7
   3   8  -3 32.1225 10.1506   9
  -3  -8  -3 42.8438 9.58486   3
  -3   8   3 27.7594 8.33272   4
  -3  -8  -2 247.356 26.3913   3
   3   8  -2 255.444 26.4348   4
   3   8  -2 246.955 26.4553   9
   3  -8   2 234.512 25.7233   7
   3   8  -1 18.5378 8.29581   4
  -3  -8  -1 14.3676 8.69598   3
  -3   8   1 5.13564 7.46679   4
   3  -8   1 23.8330 6.59741   7
  -3  -8   0 5.39570 8.53107   6
   3   8   0 3.45705 8.45506   4
  -3   8   0 7.18511 7.66894   4
   3  -8   0 13.1864 6.57561   7
   3   8   1 36.3350 8.94057   4
  -3  -8   1 30.3979 9.06517   6
  -3   8  -1 18.2906 8.31335   4
   3  -8  -1 30.8987 7.10311   7
  -3  -8   2 226.061 23.6836   6
   3  -8  -2 219.617 23.4921   3
  -3   8  -2 172.374 23.6320   4
   3  -8  -2 172.562 22.8736   7
   3   8   2 208.923 23.6316   4
   3   8   3 48.9971 9.75752   4
   3  -8  -3 39.2778 9.19657   3
  -3   8  -3 34.1851 10.0340   4
  -3  -8   3 58.2688 9.84640   6
   3  -8  -3 49.6708 7.88315   7
  -3  -8   4 14.6523 8.42068   6
   3   8   4 1.89125 7.52111   4
   3  -8  -4 11.3411 7.73889   3
  -3   8  -4 13.9380 8.45510   4
   3  -8  -4 3.47881 5.45834   7
  -3  -8   5 137.871 16.9751   6
   3   8   5 136.949 16.7669   4
   3  -8  -5 149.828 16.6103   3
  -3   8  -5 118.752 17.1396   4
  -3  -8   5 109.203 16.1018   8
  -3  -8   6 26.4783 9.18301   6
   3   8   6 26.7247 8.58980   4
   3  -8  -6 30.8502 8.53466   3
  -3   8  -6 14.0657 9.14283   4
  -3  -8   6 17.3088 7.89931   8
   3  -8  -7 54.6803 10.1102   3
  -3  -8   7 48.0787 10.4522   6
   3   8   7 51.3154 9.94968   4
  -3   8  -7 39.2520 10.4423   4
  -3  -8   7 41.0406 9.36825   8
  -3  -8   8 1.29158 9.11397   6
   3   8   8 28.5289 8.53125   4
  -3   8  -8 15.4894 9.84889   4
   3  -8  -8 14.8629 8.59169   3
  -3  -8   8 10.8914 8.07950   8
  -3  -8   9 45.3355 10.2303   6
   3   8   9 40.4178 9.94172   4
   3  -8  -9 30.3564 9.34980   3
  -3  -8   9 26.2794 9.35135   8
  -3   8  -9 53.9377 11.0981   4
   3   8  10 66.5082 10.9972   4
  -3   8 -10 44.2354 12.6747   4
  -3  -8  10 68.3273 10.9637   8
   3  -8 -10 53.0382 10.8039   3
  -3   8 -11-17.1681 10.2456   4
   3   8  11 10.5927 8.48297   4
  -3  -8  11 13.4192 8.85022   8
   3  -8 -11-9.41647 8.57644   3
   3   8  12 37.6675 9.71078   4
  -3   8 -12 37.4952 11.5128   4
  -3  -8  12 29.8409 10.4569   8
   3  -8 -12 38.4107 10.2689   3
   3   8  13 21.9414 9.06265   4
  -3   8 -13 3.41042 11.1366   4
  -3  -8  13 12.0090 9.88925   8
   3  -8 -13 16.4335 9.54286   3
   3   8  14 17.7637 9.22305   4
  -3  -8  14 38.9572 10.9026   8
   3  -8 -14 42.5139 10.3660   3
   3   8  15 23.8728 9.44528   4
  -3   8 -15 15.8161 12.8503   4
  -3  -8  15 39.7991 11.0588   8
   3  -8 -15 21.0841 10.6340   3
   3  -8 -16 105.200 16.9527   3
  -3   8 -16 111.868 18.6088   4
  -3  -8  16 138.250 17.3500   8
   3  -8 -17 43.1562 11.2439   3
  -3   8 -17 24.3365 13.2442   4
  -3  -8  17 28.8912 12.0507   8
  -3   8 -18 26.3552 14.7809   4
   3  -8 -18 82.7136 12.7436   3
  -3   8 -19 0.84704 13.2567   4
   3  -8 -19 24.9932 11.1654   3
  -3   8 -20 0.28782 13.0359   4
   3  -8 -20 22.4839 11.1638   3
  -3   8 -21-8.96268 13.7620   4
   3  -8 -21 26.0467 11.8132   3
   3  -8 -22 21.7545 11.8680   3
  -3   8 -22 3.59968 13.6161   4
   3  -8 -23 0.24248 11.8510   3
  -3   8 -23 0.92092 13.7272   4
  -3   8 -24-4.07558 13.7251   4
   3  -8 -24 0.24817 11.8039   3
   3  -9  23-1.23295 10.8128   2
  -3  -9 -23 0.49749 11.8728   3
   3  -9  23 6.80538 13.2106   8
  -3  -9 -22 6.65543 11.8171   3
   3  -9  22 0.98037 10.9293   2
   3  -9  22 30.5157 13.1913   8
   3  -9  21 1.43431 10.4890   2
  -3  -9 -21 0.24487 11.7989   3
   3  -9  21 19.1068 12.4494   8
  -3  -9 -20 15.0058 11.9348   3
   3  -9  20-7.96920 11.9086   8
  -3  -9 -19 0.71565 11.9254   3
  -3  -9 -18 4.00135 12.0911   3
  -3  -9 -17 6.56264 11.9144   3
  -3  -9 -16 9.27672 11.8180   3
  -3  -9 -15-9.13397 12.0271   3
  -3  -9 -14 14.8012 11.9848   3
   3   9 -14 12.1489 10.1818   4
  -3  -9 -13 22.0032 11.9651   3
   3   9 -13 9.70337 10.2494   4
  -3  -9 -12 26.8602 11.9571   3
   3   9 -12-15.9625 9.89209   4
  -3  -9 -11-8.59476 11.8234   3
   3   9 -11 14.2357 9.98747   4
   3   9 -10 138.095 17.2539   9
  -3  -9 -10 130.618 17.6885   3
   3   9 -10 90.9457 16.4510   4
   3   9  -9 66.9636 11.8427   9
  -3  -9  -9 54.2954 11.8426   3
   3   9  -8 126.578 18.8090   4
  -3  -9  -8 121.117 19.6432   3
  -3  -9  -7 169.111 21.7021   3
   3   9  -7 200.777 21.8888   9
   3   9  -7 140.950 21.1890   4
   3   9  -6 26.4709 10.1688   4
   3   9  -6 38.0895 11.1736   9
   3   9  -5 9.99331 9.39701   4
   3   9  -5 0.16217 9.66275   9
  -3  -9  -5 20.9448 10.5362   3
   3   9  -4 100.046 14.1777   4
  -3  -9  -4 88.4013 14.6003   3
   3   9  -4 90.9557 14.7263   9
   3   9  -3 130.237 16.8184   9
   3   9  -3 133.361 16.3946   4
  -3  -9  -3 126.190 16.2765   3
  -3   9   3 88.7473 15.4138   4
   3   9  -2 14.6389 9.95603   4
   3   9  -2 7.76227 9.76570   9
  -3  -9  -2-10.6258 9.34199   3
  -3   9   2-1.44599 7.98491   4
   3   9  -1 2.53094 9.65479   4
  -3   9   1-0.16253 7.96765   4
   3  -9   1 11.3860 7.03589   7
   3   9   0 25.7525 9.57834   4
  -3  -9   0 16.6800 9.82789   6
  -3   9   0 6.12645 8.44233   4
   3  -9   0 16.7883 6.79742   7
  -3   9  -1 3.48691 8.45957   4
   3   9   1-3.13036 8.75139   4
  -3  -9   1 12.6131 9.49728   6
   3  -9  -1 0.46599 6.54668   7
  -3  -9   2 30.2809 9.58255   6
   3   9   2 16.7926 9.89593   4
  -3   9  -2 22.8655 9.09654   4
   3  -9  -2 18.0298 6.81189   7
  -3  -9   3 149.759 19.1402   6
   3   9   3 179.651 19.0735   4
  -3   9  -3 115.386 19.0586   4
  -3  -9   4 82.2744 12.9183   6
   3   9   4 78.2461 12.7473   4
  -3   9  -4 74.1921 12.9996   4
  -3  -9   5 4.38671 9.43871   6
   3   9   5 18.7572 8.95884   4
   3  -9  -5 0.77763 8.61459   3
  -3   9  -5 6.26074 9.32164   4
   3   9   6 32.8723 9.67781   4
  -3  -9   6 26.0139 10.2031   6
   3  -9  -6 40.0697 9.84355   3
  -3   9  -6 29.0244 10.3188   4
  -3  -9   7 152.625 19.4218   6
   3   9   7 132.405 18.8909   4
   3  -9  -7 162.793 18.9898   3
  -3   9  -7 140.344 19.6307   4
   3   9   8 114.383 14.7499   4
  -3  -9   8 99.5483 15.0577   6
   3  -9  -8 102.652 14.7464   3
  -3   9  -8 82.6871 15.4712   4
  -3  -9   8 98.5013 14.3054   8
   3  -9  -9 55.2314 10.9946   3
  -3  -9   9 43.5339 10.9829   6
  -3   9  -9 47.4634 11.8658   4
  -3  -9   9 27.6112 9.98712   8
   3   9   9 40.0035 10.2687   4
   3   9  10 105.190 15.8801   4
   3  -9 -10 118.267 16.4011   3
  -3   9 -10 119.545 17.4448   4
  -3  -9  10 118.062 16.0190   8
   3   9  11 15.0800 9.54175   4
  -3   9 -11 18.8315 11.8593   4
   3  -9 -11 9.22652 9.88541   3
  -3  -9  11 13.3064 9.65117   8
   3   9  12 6.83574 9.41595   4
  -3   9 -12 0.96407 11.5914   4
   3  -9 -12 10.3519 9.66270   3
  -3  -9  12 18.3097 9.95428   8
  -3   9 -13 4.36860 11.3002   4
   3   9  13 7.63786 9.49673   4
  -3  -9  13-3.31198 10.4316   8
   3  -9 -13 4.20055 9.79894   3
   3   9  14 11.1889 9.48036   4
  -3  -9  14-16.7540 10.8178   8
  -3   9 -14 13.1864 11.8376   4
   3  -9 -14-3.09957 9.65540   3
  -3   9 -15-16.7919 12.8282   4
  -3  -9  15-15.4665 11.2221   8
   3  -9 -15-0.76273 10.1017   3
  -3   9 -16 7.18234 13.0654   4
  -3  -9  16-12.7818 11.3573   8
   3  -9 -16 12.9393 10.2380   3
  -3   9 -17 14.3050 13.7026   4
  -3  -9  17 6.98330 11.6166   8
   3  -9 -17 1.43681 10.6085   3
  -3   9 -18 12.0580 13.2540   4
   3  -9 -18 15.6414 11.0043   3
  -3   9 -19-13.0584 13.8394   4
   3  -9 -19 6.37020 10.9576   3
  -3   9 -20 12.6221 14.1264   4
   3  -9 -20 7.22746 11.5734   3
   3  -9 -21 6.69893 11.2814   3
  -3   9 -21 1.56287 13.7337   4
  -3   9 -22 14.2039 14.4894   4
   3  -9 -22 5.90463 11.6084   3
  -3   9 -23 5.80468 14.0217   4
   3  -9 -23 0.24101 11.4805   3
  -3   9 -24 1.64100 14.0408   4
  -3 -10 -21 0.26160 12.5128   3
  -3 -10 -20-0.26627 12.8137   3
   3 -10  20-0.70910 12.4595   8
  -3 -10 -19 7.65193 12.7874   3
   3 -10  19 6.54922 12.7433   8
  -3 -10 -18 9.03272 12.9172   3
  -3 -10 -17 9.95097 12.6176   3
  -3 -10 -16-5.06571 12.6919   3
  -3 -10 -15 53.1173 14.1993   3
  -3 -10 -14 31.5908 13.1146   3
   3  10 -14 8.56665 11.2632   4
   3  10 -13 26.4724 11.3148   4
  -3 -10 -13 48.6798 13.8425   3
  -3 -10 -12 68.6542 13.4835   3
   3  10 -12 25.1123 11.5758   4
   3  10 -11 10.0209 10.7914   4
  -3 -10 -11 25.5823 12.2104   3
  -3 -10 -10-6.02652 11.6186   3
   3  10 -10-0.21366 10.1994   4
  -3 -10  -9 65.1599 13.7800   3
   3  10  -9 93.8096 13.9696   9
   3  10  -9 53.0532 13.0111   4
  -3 -10  -8 87.1486 13.9505   3
   3  10  -8 55.1539 13.4683   9
   3  10  -8 51.6999 12.6571   4
   3  10  -7 4.54785 10.0975   4
  -3 -10  -7-4.82906 11.3601   3
   3  10  -6 19.1615 10.5359   4
   3  10  -6 34.7989 11.2834   9
  -3 -10  -6 37.6643 11.9380   3
   3  10  -5 12.8247 10.3208   4
  -3 -10  -5 47.2327 11.4718   3
   3  10  -5 34.0155 11.0913   9
   3  10  -4 6.15531 9.75514   4
  -3 -10  -4 27.1015 10.4602   3
   3  10  -4 13.7079 10.7694   9
   3  10  -3 15.4455 10.3620   4
  -3 -10  -3 10.0488 10.4190   3
   3  10  -3-0.71585 10.8097   9
   3  10  -2 27.3916 10.5210   4
   3  10  -2-0.17420 10.3689   9
  -3  10   2 2.69182 8.66139   4
  -3 -10  -1 88.0322 14.6031   6
   3  10  -1 83.1113 14.1905   4
   3  10  -1 100.616 14.4730   9
  -3  10   1 75.6469 13.3359   4
   3  10   0 14.7843 11.0352   4
  -3 -10   0 37.7876 11.4296   6
  -3  10   0 13.4351 9.77156   4
  -3 -10   1 83.6941 14.8940   6
  -3  10  -1 75.4490 14.3774   4
   3  10   2 30.0615 10.7548   4
  -3 -10   2 27.4012 10.4961   6
  -3  10  -2 23.3056 10.1738   4
   3  10   3 13.1813 10.2218   4
  -3 -10   3 7.89037 9.94704   6
  -3  10  -3 9.80312 10.0834   4
   3  10   4 24.8882 10.2297   4
  -3 -10   4 3.77909 10.3954   6
  -3  10  -4 25.4179 10.3566   4
   3  10   5 44.9302 10.8250   4
  -3 -10   5 36.8540 11.2249   6
  -3  10  -5 21.0397 10.9752   4
   3  10   6 27.4697 10.7178   4
  -3 -10   6 45.0625 11.1278   6
  -3  10  -6 24.8629 11.2862   4
   3  10   7 15.4238 9.85622   4
  -3 -10   7 4.59344 10.4823   6
  -3  10  -7 21.5094 10.8920   4
  -3 -10   8 60.1427 12.6311   6
   3  10   8 65.4873 12.2318   4
  -3  10  -8 51.8627 13.1569   4
   3  10   9 50.9443 11.3898   4
  -3 -10   9 37.3021 12.0777   6
   3 -10  -9 47.5312 11.0982   3
  -3  10  -9 44.1805 12.9273   4
  -3 -10  10 2.45260 10.8346   6
   3  10  10 8.67120 9.87752   4
  -3  10 -10 27.9509 12.4209   4
   3 -10 -10-3.41840 10.0469   3
  -3 -10  10-4.64949 9.53256   8
   3  10  11 21.7525 9.95914   4
   3 -10 -11 28.3918 10.7997   3
  -3  10 -11 8.58632 12.0984   4
  -3 -10  11 7.76165 10.2701   8
   3  10  12 19.4510 10.3142   4
   3 -10 -12 35.5480 11.1300   3
  -3  10 -12 26.2998 12.7641   4
  -3 -10  12 27.0764 10.8148   8
  -3  10 -13 50.3101 13.5240   4
   3  10  13 26.1363 10.7700   4
   3 -10 -13 50.1529 12.3415   3
  -3 -10  13 38.3512 11.9004   8
  -3  10 -14 8.03649 12.4973   4
   3  10  14 15.2631 10.0471   4
   3 -10 -14 40.7562 11.4833   3
  -3 -10  14 20.9803 11.6846   8
   3 -10 -15 15.7275 11.4211   3
  -3  10 -15 25.0211 13.5304   4
  -3 -10  15 22.2200 11.9048   8
  -3  10 -16 0.30253 13.6160   4
   3 -10 -16 11.4552 11.1932   3
  -3 -10  16-7.66135 11.8158   8
  -3  10 -17 21.0399 14.3510   4
   3 -10 -17-3.73382 11.0266   3
  -3 -10  17 5.82340 12.1197   8
  -3  10 -18-12.5262 14.4798   4
   3 -10 -18-11.8406 11.0077   3
  -3  10 -19 17.3841 14.4969   4
   3 -10 -19 11.8643 11.2070   3
  -3  10 -20-8.53391 14.2395   4
   3 -10 -20-0.22613 10.8901   3
  -3  10 -21-0.32720 14.2615   4
   3 -10 -21 0.23029 11.0582   3
  -3 -11 -18 0.27322 13.2466   3
  -3 -11 -17-0.27603 13.1537   3
  -3 -11 -16 10.4914 13.4268   3
  -3 -11 -15 16.8989 13.1699   3
  -3 -11 -14 19.9848 12.8463   3
   3  11 -14 3.01386 11.6327   4
  -3 -11 -13 25.5298 12.7459   3
   3  11 -13 2.65671 11.3928   4
  -3 -11 -12-6.44197 12.7456   3
   3  11 -12 0.24230 11.3559   4
   3  11 -11 6.83114 10.9266   4
  -3 -11 -11 10.6433 12.2467   3
  -3 -11 -10 9.86579 12.3902   3
   3  11 -10 5.68815 11.0988   4
   3  11  -9 4.07426 11.9593   9
  -3 -11  -9 18.6251 12.4972   3
   3  11  -9-6.00632 10.6870   4
  -3 -11  -8-4.89435 12.4886   3
   3  11  -8 4.01416 11.7618   9
   3  11  -8 10.0549 10.6890   4
   3  11  -7 18.0347 12.0152   9
  -3 -11  -7 20.9254 12.0667   3
   3  11  -7 3.61497 10.4823   4
  -3 -11  -6 42.0101 12.0974   3
   3  11  -6 22.7271 12.1554   9
   3  11  -6 33.8996 11.6224   4
  -3 -11  -5 19.6253 11.8144   3
   3  11  -5 31.1406 11.8861   9
   3  11  -5 25.8778 11.2187   4
   3  11  -4 33.4783 11.0061   4
  -3 -11  -4 34.7276 11.9357   3
   3  11  -4 10.2773 11.3809   9
   3  11  -3-5.40047 10.9461   4
   3  11  -3 11.0354 11.2087   9
   3  11  -2 19.7341 10.9728   4
  -3 -11  -2 32.1644 11.9556   6
   3  11  -2 1.35152 11.4456   9
  -3 -11  -1 39.0569 12.0484   6
   3  11  -1 20.9646 11.0712   9
  -3  11   1 15.5817 10.1198   4
   3  11   0 77.7261 13.8440   4
  -3 -11   0 94.1311 14.3901   6
   3  11   0 70.7434 13.8578   9
  -3  11   0 47.4841 13.0680   4
  -3 -11   1 4.26308 11.1772   6
   3  11   1 20.8585 11.2759   4
  -3  11  -1 5.46287 10.2809   4
   3  11   2 19.4835 11.6492   4
  -3 -11   2-0.53933 11.1205   6
  -3  11  -2 22.2832 10.7734   4
  -3 -11   3 34.4194 11.0553   6
   3  11   3-2.88348 11.1791   4
  -3  11  -3 7.57212 10.6998   4
   3  11   4 33.4226 11.8290   4
  -3 -11   4 25.1603 11.8299   6
  -3  11  -4 42.0649 12.0160   4
   3  11   5 29.1008 11.1697   4
  -3 -11   5 28.2973 11.9700   6
  -3  11  -5 31.8659 11.8294   4
   3  11   6 15.0966 11.3489   4
  -3 -11   6 29.7164 11.7273   6
  -3  11  -6 38.5214 11.9351   4
   3  11   7 11.0548 10.7151   4
  -3 -11   7 6.34610 11.1874   6
  -3  11  -7 0.24471 11.3075   4
  -3 -11   8 9.76040 11.3147   6
  -3  11  -8 22.0919 11.8761   4
   3  11   8 18.9016 10.9246   4
  -3 -11   9 6.50545 11.4304   6
   3  11   9-8.95382 10.6606   4
  -3  11  -9 19.0994 12.1628   4
  -3 -11  10-1.13692 11.1059   6
  -3  11 -10 0.28593 13.3513   4
   3  11  10 7.14069 10.7137   4
   3  11  11 8.47227 10.4898   4
  -3  11 -11 8.87558 13.3853   4
   3  11  12-11.6655 10.4196   4
  -3  11 -12 0.28362 13.1015   4
   3  11  13-2.53052 10.5656   4
   3 -11 -13 5.01273 11.0558   3
  -3  11 -13 3.15769 13.2517   4
  -3 -11  13-12.1030 11.5162   8
   3 -11 -14 5.53424 11.2159   3
  -3  11 -14 12.0729 13.3284   4
  -3 -11  14 8.58311 11.9153   8
   3 -11 -15 1.37678 11.6957   3
  -3 -11  15 0.45061 12.2566   8
  -3  11 -16 4.43504 14.2303   4
   3 -11 -16 0.46769 11.4549   3
  -3 -11  16-7.38441 12.2096   8
  -3  11 -17 3.67158 14.6884   4
  -3 -11  17-9.90213 12.3719   8
   3 -11 -17 0.24434 11.8513   3
   3 -11 -18 46.0399 12.5277   3
  -3  11 -18 4.37916 15.0264   4
   3 -11 -19 0.25022 11.8882   3
  -3 -12 -15 0.54008 13.0119   3
  -3 -12 -14 0.26626 12.7686   3
   3  12 -14 5.46264 12.2290   4
  -3 -12 -13-0.26336 12.8505   3
   3  12 -13 6.17743 12.1690   4
  -3 -12 -12 4.94088 13.4912   3
   3  12 -12 15.7999 11.9317   4
  -3 -12 -11 18.5201 13.3271   3
   3  12 -11 17.4378 12.2760   4
  -3 -12 -10 26.5835 13.3923   3
   3  12 -10 0.76017 11.5965   4
  -3 -12  -9 24.6407 13.1391   3
   3  12  -9 7.69148 12.0692   9
   3  12  -9 12.7748 12.0998   4
   3  12  -8 29.6774 12.0743   9
  -3 -12  -8 13.1762 12.7699   3
   3  12  -8 9.22691 11.5275   4
   3  12  -7 23.8762 12.4199   9
  -3 -12  -7 12.2271 12.2111   3
   3  12  -7 12.3446 11.6499   4
  -3 -12  -6 15.1834 12.3973   3
   3  12  -6 5.79933 11.8662   9
   3  12  -6 17.7263 11.4878   4
  -3 -12  -5 7.58450 12.2267   3
   3  12  -5 14.6745 11.6448   9
   3  12  -5 4.37674 11.4653   4
   3  12  -4-4.18373 11.4494   4
   3  12  -4 23.2417 11.7939   9
   3  12  -3 26.7090 11.5670   4
  -3 -12  -3 7.54578 12.9119   6
   3  12  -3 14.1276 11.6214   9
   3  12  -2 16.4962 11.5326   4
  -3 -12  -2 16.1795 12.9013   6
   3  12  -2 13.0480 11.7343   9
  -3 -12  -1 3.74770 12.2921   6
   3  12  -1-5.14271 11.4186   4
   3  12  -1 7.80714 11.8740   9
   3  12   0 13.3393 11.3455   4
  -3 -12   0 6.83727 12.2186   6
   3  12   0 12.5687 11.5863   9
  -3  12   0-0.23498 10.6790   4
   3  12   1 16.5203 11.3613   4
  -3 -12   1 3.42280 12.0592   6
   3  12   1 10.8420 11.6353   9
  -3  12  -1 9.34089 11.1352   4
   3  12   2 8.47738 11.7922   4
  -3 -12   2 19.6382 11.8564   6
  -3  12  -2 18.9662 11.4704   4
   3  12   3 16.7384 11.5576   4
  -3 -12   3 21.1445 12.0000   6
  -3  12  -3 33.9629 11.8962   4
   3  12   4 12.2064 12.0058   4
  -3 -12   4 1.42479 12.1575   6
  -3  12  -4 20.7806 11.7905   4
   3  12   5 18.3997 12.3838   4
  -3 -12   5 20.5563 11.8274   6
  -3  12  -5 11.5996 12.0920   4
  -3 -12   6 11.2641 12.3374   6
   3  12   6 22.3505 12.3603   4
  -3  12  -6 29.9999 12.1731   4
   3  12   7 14.7886 12.1097   4
  -3 -12   7 16.8820 12.0475   6
  -3  12  -7 7.66495 12.1745   4
   3  12   8 13.8708 11.9188   4
  -3 -12   8 17.5238 12.2723   6
  -3  12  -8 20.2988 12.5556   4
   3  12   9 10.9769 11.2638   4
  -3 -12   9 5.99952 12.1294   6
  -3  12  -9 15.0950 13.1858   4
  -3  12 -10 8.28646 13.6764   4
  -3 -12  10 0.40805 11.8104   6
   3  12  10 3.00463 11.2633   4
   3  12  11 11.3111 11.2056   4
  -3  12 -11 26.3752 14.3047   4
   3  12  12 12.3656 11.4381   4
  -3  12 -12 9.69472 13.6426   4
  -3  12 -13-0.30598 13.5075   4
  -3  12 -14 3.66573 13.1698   4
  -3  12 -15 0.94844 13.4206   4
   3  13 -11 15.1027 12.2409   4
  -3 -13 -10-0.26817 12.6876   3
   3  13 -10 15.8872 12.3560   4
  -3 -13  -9 3.70251 12.9312   3
   3  13  -9 17.0099 12.1243   4
  -3 -13  -8 0.78175 12.5969   3
   3  13  -8 0.44277 12.2046   9
   3  13  -8 8.72283 12.0178   4
  -3 -13  -7-1.29476 12.5027   3
   3  13  -7 16.7712 11.9404   4
   3  13  -7 0.21901 12.0006   9
   3  13  -6 4.43957 12.2954   9
   3  13  -6 18.7230 12.2494   4
   3  13  -5 5.00379 11.5302   4
   3  13  -5 0.64894 12.0252   9
  -3 -13  -4 0.70386 13.4255   6
   3  13  -4-0.21320 11.7943   9
   3  13  -4 22.0120 11.8322   4
  -3 -13  -3 5.10407 13.3499   6
   3  13  -3 15.1648 12.0227   9
   3  13  -3 7.35867 11.9635   4
  -3 -13  -2 28.8468 13.4596   6
   3  13  -2 16.6483 12.2129   4
   3  13  -2 6.05398 11.7904   9
   3  13  -1 2.09726 12.1140   4
  -3 -13  -1 4.22737 12.7468   6
   3  13  -1 5.35644 11.8160   9
   3  13   0-1.30468 11.5208   4
  -3 -13   0 23.0263 12.6645   6
   3  13   0 0.21605 11.9292   9
   3  13   1 13.6995 11.7160   4
  -3 -13   1 1.29697 12.4756   6
   3  13   1-8.61755 11.5829   9
  -3  13  -1 19.6225 11.8103   4
   3  13   2 29.3373 11.9338   4
  -3 -13   2 10.1952 12.2725   6
   3  13   2-0.21300 11.8642   9
  -3  13  -2 15.4952 12.1344   4
   3  13   3 1.34628 12.0865   4
  -3 -13   3 14.1258 12.8563   6
  -3  13  -3 22.0368 12.3656   4
   3  13   4-6.44952 11.8904   4
  -3  13  -4 1.36546 12.2104   4
  -3 -13   4-6.39619 12.7905   6
   3  13   5 16.9366 12.0175   4
  -3 -13   5 2.17206 12.5340   6
  -3  13  -5 0.27565 12.2361   4
   3  13   6-6.73238 11.8636   4
  -3 -13   6 12.2088 12.4468   6
  -3  13  -6 2.78973 12.4187   4
   3  13   7 4.64975 12.0504   4
  -3 -13   7 6.14491 12.5601   6
  -3  13  -7-2.28391 12.2996   4
   3  13   8 8.59148 12.6340   4
  -3 -13   8-4.18344 12.4236   6
  -3  13  -8-9.48773 13.0445   4
  -3 -13   9-1.51721 12.3017   6
  -3  13  -9 2.16062 13.1493   4
   3  13   9 4.87987 12.3844   4
   3  13  10 6.77386 12.4798   4
  -3  13 -10 1.28642 13.6110   4
  -3  14  -2 2.56495 12.0121   4
  -3  14  -3 1.14421 12.1619   4
  -4   0   0 4850.75 545.023   4
   4   0   0 4932.34 544.984   4
  -4   0   1 168.969 19.5454   4
  -4   0  -1 191.690 19.7710   4
   4   0   1 177.447 19.1855   3
   4   0  -1 182.042 19.3755   4
   4   0   1 188.429 19.4975   4
   4   0  -1 140.650 19.2765   9
   4   0   1 161.135 19.4322   7
  -4   0   2 5.70756 3.90330   4
  -4   0  -2 2.70480 4.84453   4
   4   0  -2 0.38831 2.98881   4
   4   0   2 5.85452 2.17907   3
   4   0   2 5.95160 3.73886   4
   4   0  -2 5.67328 2.98306   9
   4   0   2 4.80983 3.42480   7
  -4   0   3 278.473 29.9911   4
  -4   0  -3 313.355 30.3858   4
   4   0   3 318.284 30.1037   4
   4   0  -3 300.067 30.0053   2
   4   0   3 259.908 29.7598   3
   4   0  -3 280.232 29.9095   4
   4   0  -3 213.034 29.8527   9
   4   0   3 247.948 29.9424   7
   4   0   4 3118.42 365.135   6
  -4   0   4 3366.27 365.214   4
  -4   0  -4 3899.82 365.417   4
   4   0  -4 2941.90 365.197   4
   4   0   4 3785.85 365.339   4
   4   0  -4 3645.32 365.293   2
   4   0   4 3411.91 365.155   3
   4   0   4 3219.70 365.195   5
   4   0   4 3092.54 365.241   7
   4   0   5 403.986 41.8891   5
  -4   0  -5 497.571 42.4838   4
  -4   0  -5 378.389 41.8730   3
   4   0   5 502.919 42.2362   4
   4   0  -5 481.159 42.1364   2
   4   0   5 430.589 41.8637   3
   4   0  -5 332.560 41.9148   4
   4   0   5 378.349 41.9820   7
  -4   0  -5 385.375 41.9571   7
  -4   0   5 374.642 41.9128   9
  -4   0   6 957.960 102.736   9
  -4   0  -6 1282.25 103.189   4
   4   0  -6 597.525 102.681   4
   4   0   6 1334.07 103.006   4
   4   0   6 1232.36 102.976   1
  -4   0  -6 949.836 102.715   3
   4   0   6 1146.82 102.711   3
   4   0   6 1070.53 102.819   7
  -4   0  -6 1035.95 102.793   7
   4   0  -6 793.123 102.667   4
  -4   0  -7 35.1538 4.30605   7
   4   0   7 47.3708 4.21250   3
  -4   0   7 41.5009 4.34212   9
  -4   0  -7 45.9094 7.20325   4
   4   0  -7 13.7424 3.82314   4
  -4   0   7 47.7433 6.88743   2
   4   0  -7 23.2546 3.65030   4
  -4   0  -7 34.4222 4.32340   3
   4   0   7 53.9145 5.46609   1
   4   0   7 38.5287 4.54763   7
  -4   0  -8 7.23525 2.52114   7
  -4   0  -8-2.55587 6.83168   4
  -4   0   8 13.0680 5.91765   2
  -4   0   8 6.85996 2.81090   9
  -4   0  -8 8.33650 2.85753   3
   4   0   8 8.42957 2.93315   7
   4   0  -8 5.23511 1.16700   4
  -4   0  -9 18.5905 3.92119   3
  -4   0  -9 23.5443 7.63410   4
  -4   0   9 18.9653 3.62429   9
   4   0   9 20.8216 3.90362   7
  -4   0   9 23.5625 6.60235   2
  -4   0 -10 414.329 46.9497   4
  -4   0  10 421.212 46.7035   2
  -4   0 -10 409.395 46.2447   3
  -4   0 -11-0.60425 7.69633   4
  -4   0  11 23.0421 7.14531   2
  -4   0 -12 796.445 96.9960   4
  -4   0  12 928.634 96.9406   2
  -4   0  13 171.159 19.5411   2
  -4   0 -13 137.726 19.7477   4
  -4   0 -14 1152.93 132.174   4
  -4   0  14 1205.13 132.070   2
  -4   0 -15 297.780 37.2329   4
  -4   0  15 337.204 36.9316   2
  -4   0 -16 52.4910 12.0956   4
  -4   0  16 51.6640 10.4354   2
  -4   0 -17 92.1528 14.9821   4
  -4   0  17 85.2220 13.3902   2
  -4   0 -18 361.601 43.7039   4
  -4   0  18 380.955 42.9412   2
  -4   0  19 130.311 16.5881   2
  -4   0 -19 103.334 17.8742   4
  -4   0 -20 332.399 44.2075   4
  -4   0  20 413.483 43.7160   2
  -4   0 -21 47.4379 14.2339   4
  -4   0  21 71.5520 12.4366   2
   4   0  22 22.7006 9.09297   2
  -4   0 -22 29.4220 13.3264   4
  -4   0  22 35.3007 10.9514   2
  -4   0  23 5.53551 10.7584   2
  -4   0 -23 17.1332 13.3187   4
   4   0  23 11.4129 8.76833   2
   4   0  24 16.8128 9.29879   2
  -4   0  24 25.4082 11.0866   2
   4   0 -25-6.15940 12.4257   3
  -4   0  25 4.80706 11.4498   2
   4   0 -26-5.83025 12.8377   3
  -4   0  26-0.98831 11.4392   2
   4   0 -27 15.7011 13.3448   3
  -4   0  27 18.5206 12.0302   2
   4   0 -28 0.26447 12.9779   3
  -4   0  28 15.2700 11.7216   2
   4   0 -29 4.88713 13.2410   3
  -4   0  29-1.93711 12.3073   2
  -4   1  30 3.58953 11.9386   2
   4   1 -29-0.28257 13.5302   3
  -4   1  29 5.02832 12.3747   2
   4   1 -28 23.1618 13.3253   3
   4  -1  28 6.31028 10.4156   2
  -4   1  28 10.9425 12.2648   2
   4  -1  27 21.3987 10.6865   2
  -4   1  27 27.0564 13.0503   2
   4  -1  26 65.8448 13.5622   2
  -4   1  26 101.180 16.0137   2
   4  -1  25 8.08542 9.91374   2
  -4   1  25 35.7402 12.2367   2
   4  -1  24-0.58738 9.23182   2
  -4   1  24-3.12925 11.4278   2
   4  -1  23 57.2663 10.9597   2
  -4   1  23 47.7575 12.7796   2
  -4  -1 -22 31.1848 12.9208   4
  -4   1  22 25.1904 11.3589   2
  -4  -1 -21 24.6702 12.5560   4
  -4   1  21 25.7984 11.1847   2
  -4  -1 -20 51.0173 13.4407   4
  -4   1  20 59.8375 12.2901   2
  -4  -1 -19 11.6203 11.6622   4
  -4   1  19 22.9995 10.1042   2
  -4  -1 -18 25.3156 11.2172   4
  -4   1  18 27.3370 10.6077   2
  -4  -1 -17 80.1421 14.8229   4
  -4   1  17 102.308 14.6223   2
  -4  -1 -16 79.7866 13.7474   4
  -4   1  16 78.8354 12.8106   2
  -4  -1 -15 47.7177 12.2133   4
  -4   1  15 70.2459 11.2396   2
  -4  -1 -14 888.277 96.8861   4
  -4   1  14 843.323 96.6187   2
  -4  -1 -13 43.3744 10.6260   4
  -4   1  13 46.6364 9.28772   2
  -4  -1 -12 171.463 19.9249   4
  -4   1  12 162.604 19.0679   2
  -4  -1 -12 148.142 18.2219   3
  -4  -1 -11 208.186 23.2159   4
  -4   1  11 194.789 22.5252   2
  -4  -1 -11 182.349 21.8044   3
  -4  -1 -10 299.821 32.1396   4
  -4   1  10 314.801 31.6880   2
  -4  -1 -10 271.702 31.1247   3
   4  -1  10 256.353 31.1168   7
  -4  -1  -9 1223.30 104.997   4
   4  -1   9 914.032 104.511   7
  -4   1   9 1067.14 104.799   2
  -4  -1  -9 832.100 104.465   3
   4   1  -8 222.540 25.6505   4
  -4  -1  -8 215.608 25.8548   3
   4  -1   8 227.796 25.8525   7
   4   1  -7 11.9573 2.73552   4
   4   1  -7-0.04943 3.13614   4
   4  -1   7 12.7811 3.44174   7
  -4  -1  -7 15.7880 6.94225   4
  -4  -1  -7 11.0192 3.51712   3
   4  -1   7 4.91817 4.89345   1
  -4   1   6 267.505 26.3800   9
  -4   1   6 185.078 26.2795   4
   4   1  -6 166.634 26.4587   4
  -4  -1  -6 335.436 27.4493   4
  -4  -1  -6 261.513 26.5156   3
   4  -1   6 298.424 26.8902   1
   4   1  -6 293.067 26.5940   2
   4   1  -6 278.664 26.4046   4
   4  -1   6 272.265 26.6158   7
  -4   1   5 1318.07 162.613   4
   4   1  -5 1264.51 162.667   4
  -4  -1  -5 1919.59 163.022   4
  -4  -1  -5 1306.51 162.637   3
   4  -1   5 1899.59 162.811   4
   4   1  -5 1669.36 162.732   2
   4  -1   5 1854.86 162.888   1
  -4   1   5 1402.54 162.604   9
   4  -1   5 1578.40 162.740   7
   4   1  -5 1449.39 162.628   4
   4   1  -4 348.527 41.8952   4
   4  -1   4 393.434 41.9023   5
   4   1  -4 365.139 41.9425   4
  -4  -1  -4 499.041 42.4028   4
  -4   1   4 345.509 41.9336   4
  -4  -1  -4 365.650 41.8920   3
   4  -1   4 475.699 42.0915   4
   4   1  -4 439.311 42.0287   2
   4   1  -4 353.233 42.0311   9
  -4   1   4 391.547 41.8223   9
   4  -1   4 380.131 41.9856   7
   4  -1   3 73.9040 9.17029   5
   4   1  -3 90.4771 9.41505   4
  -4   1   3 69.0907 9.34732   4
   4   1  -3 86.6605 9.33634   2
   4  -1   3 92.0622 9.46740   4
  -4  -1  -3 89.0104 10.3136   4
   4   1  -3 67.7783 9.52152   9
   4  -1   3 76.8454 9.51103   7
   4  -1   2 235.712 31.3231   3
   4  -1   2 286.117 31.5570   5
  -4  -1  -2 380.584 32.0051   4
   4   1  -2 376.682 31.6582   4
  -4   1   2 295.657 31.5627   4
   4   1  -2 323.768 31.5984   2
   4  -1   2 339.470 31.6236   4
   4   1  -2 261.626 31.6152   9
   4  -1   2 310.646 31.6600   7
   4  -1   1 899.569 129.426   5
  -4  -1  -1 1379.16 129.626   4
   4   1  -1 1318.13 129.521   4
  -4   1   1 1260.53 129.491   4
   4  -1   1 1216.36 129.468   4
   4  -1   1 1098.16 129.503   7
   4   1   0 208.491 28.1411   6
  -4  -1   0 266.707 28.6047   4
   4   1   0 302.869 28.4276   4
  -4   1   0 264.358 28.4364   4
   4   1   0 260.058 28.1715   3
   4  -1   0 258.102 28.2201   4
   4  -1   0 243.647 28.3513   7
   4   1   1 963.605 107.199   6
  -4  -1   1 1046.53 107.371   4
   4   1   1 1185.31 107.386   4
  -4   1  -1 1059.98 107.372   4
   4   1   1 1128.12 107.238   3
   4  -1  -1 1015.90 107.238   4
   4  -1  -1 811.871 107.128   9
  -4  -1   2 278.558 28.7648   4
   4   1   2 267.346 28.7826   4
  -4   1  -2 284.749 28.9239   4
   4   1   2 278.736 28.5417   3
   4  -1  -2 230.223 28.5069   4
   4   1   2 233.653 28.4846   6
   4   1   3 56.8132 5.92017   6
   4   1   3 46.2928 6.10291   7
  -4   1  -3 40.6782 5.97041   7
  -4  -1   3 43.9347 6.39177   4
   4   1   3 48.0775 6.74196   4
  -4   1  -3 54.4822 7.34442   4
   4  -1  -3 45.0656 5.79829   4
   4   1   3 46.0057 5.90679   3
   4   1   4 666.891 60.1689   4
  -4   1  -4 609.089 60.2290   4
   4  -1  -4 617.377 60.0868   2
   4   1   4 554.356 59.8966   3
   4  -1  -4 562.376 59.8749   4
   4   1   4 581.458 59.9610   7
  -4   1  -4 467.824 59.9523   7
   4   1   5 1651.64 112.367   4
  -4   1  -5 1643.91 112.416   4
   4  -1  -5 1582.53 112.231   2
   4   1   5 1676.58 112.071   3
   4  -1  -5 1232.69 111.957   4
   4   1   5 1412.73 112.071   7
  -4   1  -5 1358.14 112.124   7
   4   1   6 289.703 27.5629   5
  -4   1  -6 223.536 27.5164   3
  -4  -1   6 336.049 28.3554   2
   4   1   6 362.302 27.9953   1
   4  -1  -6 156.591 27.5136   4
   4   1   6 370.225 27.7044   3
  -4   1  -6 338.369 28.4299   4
  -4  -1   6 295.967 27.7421   9
   4   1   6 335.339 27.7198   7
  -4   1  -6 279.128 27.7624   7
  -4  -1   7 20.0902 3.67368   9
  -4   1  -7 21.0834 3.60912   7
  -4   1  -7 14.6159 2.85657   3
  -4   1  -7 26.1006 6.50849   4
  -4  -1   7 27.4471 6.07864   2
   4   1   7 26.5772 4.63607   1
   4   1   7 26.8547 3.61878   7
   4   1   7 24.2705 3.57705   3
  -4   1  -8 375.539 34.2828   4
  -4  -1   8 359.021 34.1150   2
   4   1   8 345.443 33.5772   3
   4   1   8 281.865 33.5289   7
  -4   1  -8 264.981 33.5907   7
  -4  -1   8 272.812 33.5687   9
  -4   1  -9 1023.41 94.1391   4
  -4  -1   9 1059.07 94.0093   2
   4   1   9 982.183 93.6476   3
   4   1   9 791.881 93.5985   7
  -4   1  -9 661.886 93.6233   7
  -4   1 -10 372.955 32.6463   4
  -4  -1  10 423.972 32.6146   2
  -4   1 -11 133.498 20.5197   4
  -4  -1  11 195.410 20.2357   2
  -4  -1  12 155.423 17.9945   2
  -4   1 -12 130.240 18.6901   4
  -4  -1  13 93.0214 11.7101   2
  -4   1 -13 60.3333 12.5970   4
  -4   1 -14 659.212 76.4273   4
  -4  -1  14 691.502 76.1544   2
  -4  -1  15 89.8760 12.7301   2
  -4   1 -15 81.5643 13.7828   4
  -4  -1  16 76.2265 11.5347   2
  -4   1 -16 60.3390 12.8566   4
  -4  -1  17 77.4987 12.1310   2
  -4   1 -17 73.3937 13.3396   4
  -4  -1  18 0.35199 8.61115   2
  -4   1 -18 14.7001 10.3772   4
  -4  -1  19 0.18385 8.86465   2
  -4   1 -19 7.64893 10.7966   4
  -4  -1  20 73.9345 12.1125   2
  -4   1 -20 54.7255 13.8354   4
  -4  -1  21 13.5435 9.67951   2
   4  -1 -21 6.51508 10.6154   3
  -4   1 -21 3.91006 11.8835   4
  -4  -1  22 51.2375 10.9050   2
   4  -1 -22 20.1487 11.7573   3
  -4   1 -22 16.9476 12.8843   4
  -4  -1  23 66.9233 12.2521   2
   4  -1 -23 56.7480 13.4103   3
  -4   1 -23 49.4880 14.8765   4
   4  -1 -24 16.5192 11.8312   3
  -4  -1  24 19.2173 10.8368   2
  -4  -1  25 6.01494 10.9904   2
   4  -1 -25 37.5296 12.1003   3
  -4  -1  26 71.6148 14.0229   2
   4  -1 -26 80.3542 15.3305   3
  -4  -1  27 23.1974 11.8302   2
   4  -1 -27 26.8931 13.4657   3
   4  -1 -28 7.05258 12.7853   3
  -4  -1  28-3.86995 11.5664   2
   4  -1 -29 0.54319 12.9585   3
  -4  -1  29 11.2666 12.0237   2
   4  -2  29 2.63421 10.3332   2
   4  -2  28 2.11876 10.6917   2
  -4   2  27 3.53658 11.6241   2
   4  -2  27 10.6942 10.4811   2
   4  -2  26-4.29107 10.2208   2
  -4   2  26-11.5715 11.4289   2
   4  -2  25 12.9013 9.88432   2
  -4   2  25 9.00843 11.6609   2
   4  -2  24 36.4889 10.7582   2
  -4   2  24 38.0223 12.2531   2
  -4   2  23 40.9209 12.0371   2
  -4  -2 -22 109.389 20.9164   4
  -4   2  22 164.680 19.4947   2
  -4  -2 -21 17.8169 13.2307   4
  -4   2  21 62.9981 12.0400   2
  -4  -2 -20 13.9622 12.3008   4
  -4   2  20 33.6075 10.6704   2
  -4  -2 -19 12.9843 12.1598   4
  -4   2  19 41.1331 10.6389   2
  -4  -2 -18 7.88356 11.4653   4
  -4   2  18 35.3065 9.74929   2
  -4   2  17 161.257 20.9180   2
  -4  -2 -17 170.424 21.7412   4
  -4   2  16 207.625 24.0811   2
  -4  -2 -16 183.256 24.7195   4
  -4  -2 -15 132.275 17.7551   4
  -4   2  15 124.293 16.8355   2
  -4  -2 -14 54.2232 8.46630   3
  -4  -2 -14 41.8559 10.8371   4
  -4   2  14 43.5182 9.94684   2
  -4  -2 -13 4.97300 9.01211   4
  -4   2  13 20.0879 7.74411   2
  -4  -2 -13 7.57531 6.21886   3
  -4  -2 -12 209.734 26.2715   4
  -4   2  12 198.611 25.6853   2
  -4  -2 -12 233.128 25.1244   3
  -4   2  11 132.802 17.0095   2
  -4  -2 -11 129.142 16.0924   3
  -4  -2 -11 159.087 17.8206   4
  -4  -2 -10 150.082 17.9639   3
   4  -2  10 140.928 17.8765   7
  -4  -2  -9 584.002 56.9254   4
  -4  -2  -9 502.376 56.3053   3
   4   2  -9 506.838 56.1511   4
   4  -2   9 465.642 56.2967   7
   4   2  -8 650.564 71.9485   4
  -4  -2  -8 607.164 72.0258   3
   4  -2   8 586.241 72.0750   7
   4  -2   7 106.794 13.9676   6
  -4  -2  -7 144.098 14.2311   6
   4   2  -7 77.8335 14.2918   4
  -4  -2  -7 206.044 16.1681   4
   4  -2   7 191.541 15.1860   1
  -4  -2  -7 155.427 14.6595   3
   4   2  -7 170.983 14.3850   4
   4  -2   7 123.719 14.6249   7
  -4  -2  -6 155.842 18.3405   6
  -4  -2  -6 235.414 19.7605   4
  -4  -2  -6 168.474 18.6502   3
   4  -2   6 166.961 18.9696   1
   4   2  -6 179.670 18.4687   2
   4   2  -6 177.982 18.9680   9
   4   2  -6 186.385 18.4287   4
   4  -2   6 171.026 18.6862   7
  -4  -2  -5 301.698 32.3556   6
   4   2  -5 188.433 32.4333   4
  -4   2   5 288.000 32.3283   4
  -4  -2  -5 282.584 32.4781   3
   4  -2   5 338.231 32.5064   4
   4   2  -5 312.503 32.4273   2
   4  -2   5 284.403 32.8574   1
  -4  -2  -5 382.652 33.1978   4
   4   2  -5 297.814 32.6944   9
   4  -2   5 275.755 32.5621   7
   4   2  -5 293.201 32.4100   4
   4   2  -4 534.587 52.9309   6
  -4  -2  -4 502.252 52.8568   6
   4   2  -4 384.880 52.9297   4
  -4  -2  -4 719.547 53.5132   4
  -4  -2  -4 484.205 52.9482   3
  -4   2   4 528.326 52.8675   4
   4  -2   4 576.793 52.9868   4
   4   2  -4 551.099 52.9225   2
  -4   2   4 469.200 52.7421   9
   4   2  -4 478.555 53.0454   9
   4  -2   4 507.304 53.0073   7
   4   2  -4 527.020 52.9076   4
   4   2  -3 1735.56 168.665   6
   4  -2   3 1615.42 168.667   5
   4  -2   3 1551.28 168.697   7
   4   2  -3 1625.20 168.647   4
   4   2  -3 1451.04 168.689   9
  -4  -2  -3 2038.49 168.954   4
   4   2  -3 1243.61 168.670   4
  -4  -2  -3 1402.36 168.627   3
  -4   2   3 1553.28 168.639   4
   4   2  -3 1759.55 168.666   2
  -4  -2  -3 1543.49 168.606   6
   4  -2   3 1828.74 168.694   4
  -4   2   3 1345.72 168.510   9
   4   2  -2 930.718 116.150   4
   4   2  -2 1073.37 116.144   6
   4  -2   2 1002.40 116.165   5
  -4  -2  -2 1366.95 116.449   4
   4   2  -2 822.096 116.166   4
  -4   2   2 1011.54 116.148   4
   4   2  -2 1275.01 116.203   2
   4  -2   2 1058.94 116.155   4
   4  -2   2 1076.75 116.227   7
   4   2  -1 689.937 66.2043   6
   4  -2   1 624.216 66.2565   5
  -4  -2  -1 780.071 66.4905   4
   4   2  -1 490.739 66.2588   4
   4   2  -1 670.883 66.2190   3
   4   2  -1 692.028 66.2113   2
  -4   2   1 652.612 66.2446   4
   4  -2   1 667.039 66.2021   4
   4  -2   1 490.652 66.0304   3
   4  -2   1 669.529 66.3334   7
   4  -2   0 544.792 67.6721   5
  -4  -2   0 750.856 67.8572   4
   4   2   0 597.839 67.7160   4
   4   2   0 696.710 67.6535   3
   4   2   0 700.015 67.6441   2
  -4   2   0 634.699 67.6880   4
   4   2   0 644.340 67.6050   6
   4  -2   0 630.450 67.6094   4
   4  -2   0 495.752 67.4954   3
   4  -2   0 627.878 67.7464   7
   4   2   1 714.381 72.2016   6
   4  -2  -1 566.713 72.2801   5
  -4  -2   1 741.492 72.3572   4
   4   2   1 688.204 72.3264   4
   4   2   1 738.804 72.2268   3
  -4   2  -1 703.440 72.3125   4
   4  -2  -1 684.173 72.1901   4
   4  -2  -1 690.587 72.3684   7
   4  -2  -1 503.628 72.1086   3
   4  -2  -2 843.744 105.816   5
   4   2   2 996.759 105.880   4
   4   2   2 1212.68 105.779   3
  -4   2  -2 1111.03 105.874   4
   4  -2  -2 977.514 105.690   4
   4  -2  -2 744.112 105.678   3
   4  -2  -2 958.676 105.860   7
   4  -2  -3 1541.86 194.644   7
   4   2   3 1723.83 194.689   4
  -4   2  -3 2007.99 194.694   4
   4   2   3 1960.94 194.565   3
   4  -2  -3 1623.05 194.496   4
  -4   2  -4 723.994 75.6436   5
   4   2   4 642.780 75.8196   4
  -4   2  -4 836.763 75.8954   4
   4   2   4 781.287 75.6495   3
   4  -2  -4 526.672 75.5508   4
   4   2   4 762.060 75.6202   7
  -4   2  -5 271.426 24.5481   5
  -4  -2   5 310.400 25.0719   2
  -4   2  -5 245.034 25.1845   4
   4   2   5 290.574 24.5966   3
   4  -2  -5 203.462 24.3767   4
   4   2   5 284.258 24.4905   7
  -4   2  -5 219.791 24.5590   7
  -4   2  -6 129.964 11.4557   5
  -4   2  -6 130.620 12.8030   4
  -4  -2   6 104.253 12.4687   2
   4   2   6 115.887 11.6547   1
   4   2   6 129.967 11.6634   3
   4   2   6 103.028 11.2698   7
   4  -2  -6 75.8828 11.1185   4
  -4   2  -6 105.124 11.5050   7
  -4   2  -7 235.430 27.0493   5
   4   2   7 259.829 27.2248   1
  -4   2  -7 276.494 27.8425   4
  -4  -2   7 227.766 27.5850   2
   4   2   7 242.067 27.1002   3
   4   2   7 233.786 26.9869   7
  -4   2  -8 799.855 78.0857   4
  -4  -2   8 837.905 78.0094   2
   4   2   8 726.656 77.6728   3
   4   2   8 638.452 77.5714   7
  -4   2  -9 517.033 59.4214   4
  -4  -2   9 595.628 59.3057   2
   4   2   9 506.336 58.9106   3
  -4   2 -10 141.103 20.3354   4
  -4  -2  10 195.537 20.0576   2
   4   2  10 166.054 19.1713   3
  -4  -2  11 113.322 13.5190   2
  -4   2 -11 89.5232 14.2708   4
  -4   2 -12 276.304 32.5048   4
  -4  -2  12 278.851 31.9283   2
  -4  -2  13 3.74241 6.94348   2
  -4   2 -13 3.71585 8.69038   4
  -4  -2  14 47.2959 8.15518   2
   4  -2 -14 26.5651 8.24632   3
  -4   2 -14 17.1381 9.61446   4
  -4  -2  15 110.105 14.6636   2
   4  -2 -15 113.431 15.0395   3
  -4   2 -15 106.336 15.5937   4
  -4   2 -16 196.493 26.2456   4
  -4  -2  16 229.706 25.5491   2
   4  -2 -16 212.430 25.7063   3
  -4  -2  17 119.317 16.6834   2
   4  -2 -17 143.677 17.2374   3
  -4   2 -17 118.347 18.0177   4
  -4  -2  18 30.6505 9.43108   2
   4  -2 -18 33.2946 10.1890   3
  -4   2 -18 34.5877 12.1501   4
  -4  -2  19 22.3252 9.68775   2
   4  -2 -19 40.7776 10.7674   3
  -4   2 -19 46.8849 12.2390   4
  -4  -2  20 24.6147 9.50718   2
   4  -2 -20 12.4097 10.1254   3
  -4   2 -20 14.1328 12.1574   4
  -4  -2  21 22.3682 10.2617   2
   4  -2 -21 43.5544 10.9300   3
  -4   2 -21 22.1339 12.7287   4
  -4  -2  22 144.839 17.4379   2
   4  -2 -22 118.452 17.8922   3
  -4   2 -22 100.254 18.6645   4
   4  -2 -23 40.0423 12.3320   3
  -4  -2  23 29.6073 10.8316   2
  -4   2 -23 15.2283 12.5993   4
  -4  -2  24 35.1917 11.0823   2
   4  -2 -24 34.7163 12.5466   3
  -4   2 -24 25.9644 13.3689   4
  -4  -2  25 11.8528 10.4669   2
   4  -2 -25-19.6138 11.9784   3
  -4  -2  26 16.4014 11.2067   2
   4  -2 -26 8.07882 11.9678   3
  -4  -2  27-4.63073 11.2056   2
   4  -2 -27 17.3432 12.1837   3
  -4  -2  28 12.9187 11.3213   2
   4  -2 -28 3.99967 12.1025   3
  -4  -2  29 3.10096 11.0377   2
   4  -2 -29-0.26534 12.7535   3
   4  -3  29-15.1814 10.7623   2
   4  -3  28-5.94705 11.1735   2
   4  -3  27 7.57299 10.7497   2
   4  -3  26-1.12820 10.3569   2
   4  -3  25 32.4804 10.9523   2
   4  -3  24-12.6551 10.4009   2
  -4   3  23 8.08220 10.9542   2
  -4   3  22 22.5534 10.9531   2
  -4  -3 -21 48.3625 14.4963   4
  -4   3  21 58.9570 12.2588   2
  -4  -3 -20 17.3990 12.5411   4
  -4   3  20 15.6820 10.2812   2
  -4  -3 -19 60.0781 14.1768   4
  -4   3  19 59.4284 12.0486   2
  -4  -3 -18 26.5386 11.8995   4
  -4   3  18 10.5016 9.82884   2
  -4  -3 -17 48.2726 13.3423   4
  -4   3  17 59.3699 11.0798   2
  -4  -3 -16 638.592 70.7065   4
  -4   3  16 560.068 70.1956   2
  -4  -3 -16 659.994 69.9476   3
  -4  -3 -15 328.517 36.9925   4
  -4   3  15 291.504 36.2616   2
  -4  -3 -15 320.223 35.8555   3
  -4   3  14 140.189 18.0478   2
  -4  -3 -14 126.224 19.0628   4
  -4  -3 -14 147.119 17.2946   3
  -4  -3 -13 161.761 19.8185   4
  -4  -3 -13 143.833 17.9465   3
  -4  -3 -12 407.610 43.0824   4
  -4  -3 -12 357.635 42.0418   3
  -4  -3 -11 168.381 21.4472   4
  -4  -3 -11 168.932 19.9823   3
   4   3 -10 48.9067 7.44022   4
  -4  -3 -10 44.4516 10.9825   4
  -4  -3 -10 66.5459 8.64429   3
  -4  -3  -9 130.133 17.0828   4
  -4  -3  -9 159.643 15.6855   3
   4   3  -9 129.867 15.2307   4
   4  -3   9 107.503 15.4247   7
  -4  -3  -8 576.114 65.1545   4
  -4  -3  -8 631.959 64.6297   3
   4   3  -8 575.911 64.5145   4
   4  -3   8 528.535 64.5915   7
  -4  -3  -7 399.564 38.0371   4
  -4  -3  -7 351.708 37.3640   3
   4   3  -7 323.800 37.5373   9
   4   3  -7 319.667 37.1640   4
   4  -3   7 303.788 37.2916   7
  -4  -3  -6 614.074 50.0203   4
   4  -3   6 563.568 49.5327   1
  -4  -3  -6 480.967 49.3996   3
   4   3  -6 540.746 49.5899   9
   4   3  -6 500.445 49.2673   4
   4  -3   6 441.229 49.3901   7
   4   3  -5 49.7803 7.98759   9
  -4  -3  -5 41.9614 6.55674   6
   4   3  -5 55.3966 6.61136   4
   4  -3   5 62.2685 7.69967   1
   4   3  -5 20.4032 6.40682   4
  -4  -3  -5 55.8800 9.04091   4
   4   3  -5 49.4603 6.22344   2
  -4  -3  -5 43.6173 7.08727   3
  -4   3   5 58.6421 6.20764   4
   4  -3   5 52.7556 7.09578   7
  -4  -3  -4 92.6712 10.2127   6
   4   3  -4 51.5670 10.1779   4
  -4  -3  -4 101.484 11.9822   4
  -4   3   4 77.1213 10.1086   4
  -4  -3  -4 94.7192 10.6267   3
   4   3  -4 97.0463 9.94675   2
   4  -3   4 90.6304 11.0212   1
   4   3  -4 93.1013 10.3429   4
   4   3  -4 86.6984 11.1215   9
   4   3  -4 84.7245 10.1110   8
   4  -3   4 71.0378 10.6199   7
  -4  -3  -3 158.667 14.9854   6
  -4  -3  -3 141.877 15.9597   4
   4   3  -3 81.3829 14.9647   4
  -4  -3  -3 145.331 15.1498   3
   4   3  -3 163.687 15.0726   4
  -4   3   3 138.702 14.9689   4
   4   3  -3 139.649 14.7238   2
   4  -3   3 137.629 14.8310   4
   4   3  -3 122.785 15.5080   9
   4   3  -3 148.102 14.8564   8
   4  -3   3 114.109 15.2220   7
   4  -3   3 121.051 14.4558   9
  -4  -3  -2 101.346 11.4678   6
   4   3  -2 127.059 11.3867   6
   4   3  -2 119.951 11.3496   3
  -4  -3  -2 85.5507 12.2361   4
   4  -3   2 75.8193 10.7227   3
   4   3  -2 54.2628 11.4641   4
  -4   3   2 118.295 11.4078   4
   4   3  -2 101.279 11.0208   2
   4  -3   2 99.1474 11.1175   4
   4   3  -2 116.025 11.2028   8
   4  -3   2 77.8320 11.5643   7
   4   3  -2 119.675 11.4781   4
   4  -3   1 16.9267 5.10645   7
   4   3  -1 27.8785 4.64491   6
   4  -3   1 31.3009 4.92931   5
   4   3  -1 20.8380 5.04946   4
  -4  -3  -1 27.1394 6.21117   4
   4   3  -1 11.6221 4.92219   4
   4   3  -1 30.1671 4.61217   3
  -4  -3  -1 27.6233 5.14273   6
  -4   3   1 28.5852 4.92824   4
   4  -3   1 19.3986 3.36365   3
   4   3  -1 32.3337 4.18042   8
   4  -3   1 22.4054 3.99003   4
   4   3  -1 24.9334 3.92956   2
   4  -3   0 59.1455 8.45428   7
  -4  -3   0 65.1191 8.29285   6
   4  -3   0 51.7183 8.11160   5
   4   3   0 67.6092 8.38968   4
   4   3   0 38.0043 8.32564   4
   4   3   0 59.8525 7.61144   2
   4  -3   0 67.6625 7.54678   3
   4   3   0 77.0972 7.94134   3
   4  -3   0 61.5172 7.57360   4
  -4   3   0 67.3239 8.35582   4
   4  -3  -1 38.8266 5.22589   3
   4  -3  -1 40.2074 6.53089   7
   4  -3  -1 32.0605 6.12243   5
   4   3   1 40.2568 6.58402   4
   4   3   1 27.5976 6.29864   4
   4   3   1 52.6434 5.92516   3
   4   3   1 43.2400 5.26653   2
  -4   3  -1 40.8479 6.56365   4
   4  -3  -1 37.4704 5.23748   4
  -4   3  -2 190.219 18.5907   5
   4   3   2 214.061 18.7559   3
  -4   3  -2 184.877 19.0703   4
   4  -3  -2 144.530 18.5215   3
   4  -3  -2 153.138 18.4737   4
   4  -3  -2 124.036 18.9115   5
   4  -3  -2 134.887 19.0130   7
  -4   3  -3 200.543 20.2572   5
   4  -3  -3 186.197 20.6250   5
   4   3   3 232.463 20.3653   3
  -4   3  -3 179.286 20.7277   4
   4  -3  -3 154.541 20.1006   4
   4  -3  -3 140.366 20.2169   3
   4  -3  -3 209.022 20.7370   7
   4  -3  -4 80.0498 9.36963   7
  -4   3  -4 75.8565 8.42926   5
   4  -3  -4 56.7759 8.82108   3
   4  -3  -4 91.7961 9.34734   5
   4   3   4 91.9887 8.64566   3
  -4  -3   4 85.4303 9.30381   2
  -4   3  -4 63.0278 9.66356   4
   4  -3  -4 61.2664 8.19572   4
   4  -3  -5 36.0698 5.58584   4
  -4  -3   5 63.1756 7.16462   2
   4  -3  -5 36.1201 6.53170   3
  -4   3  -5 51.7895 5.84827   5
   4  -3  -5 36.4314 7.11747   5
   4   3   5 49.9432 5.98966   1
   4  -3  -5 51.6842 7.06628   7
  -4   3  -5 49.8044 7.79011   4
   4   3   5 42.6843 6.14545   3
   4   3   5 48.9165 5.61224   7
  -4   3  -6 529.568 55.3223   5
   4  -3  -6 453.292 55.5373   5
   4   3   6 545.312 55.3129   1
  -4  -3   6 499.057 55.5611   2
  -4   3  -6 499.745 55.6785   4
   4   3   6 564.783 55.3699   3
   4  -3  -6 351.654 55.3758   3
   4   3   6 489.938 55.1881   7
  -4   3  -7 368.091 42.7795   5
   4  -3  -7 405.675 43.1158   5
  -4   3  -7 369.505 43.2806   4
  -4  -3   7 429.147 43.2572   2
   4  -3  -7 295.726 42.9890   3
   4   3   7 437.809 42.8813   3
  -4   3  -8 551.196 61.6876   4
  -4  -3   8 606.973 61.5687   2
   4  -3  -8 500.240 61.4509   3
  -4   3  -9 159.493 19.4648   4
  -4  -3   9 181.186 19.1470   2
   4  -3  -9 143.903 18.9820   3
  -4  -3  10 92.7572 10.8554   2
   4  -3 -10 69.1717 10.6281   3
  -4   3 -10 65.9368 11.4325   4
   4  -3 -11 108.515 15.3823   3
  -4  -3  11 138.954 15.3114   2
  -4   3 -11 118.915 15.9550   4
  -4   3 -12 343.207 43.6210   4
  -4  -3  12 393.724 43.2844   2
   4  -3 -12 397.111 43.3296   3
  -4  -3  13 146.302 15.5140   2
   4  -3 -13 106.729 15.7127   3
  -4   3 -13 101.643 16.3504   4
   4  -3 -14 113.218 17.5871   3
  -4  -3  14 169.830 17.7263   2
  -4   3 -14 141.534 18.5210   4
  -4   3 -15 239.725 30.3639   4
  -4  -3  15 278.901 29.6736   2
   4  -3 -15 236.715 29.7158   3
   4  -3 -16 557.028 67.0948   3
  -4   3 -16 627.159 67.5594   4
  -4  -3  16 611.946 67.1013   2
  -4  -3  17 48.5025 10.4366   2
   4  -3 -17 45.2080 10.5206   3
  -4   3 -17 55.7458 12.2880   4
  -4  -3  18 16.1912 9.15656   2
   4  -3 -18 21.7683 9.76857   3
  -4   3 -18 12.2661 11.5058   4
  -4  -3  19 76.9180 12.0881   2
   4  -3 -19 64.4652 12.1359   3
  -4   3 -19 55.0706 13.6956   4
   4  -3 -20 13.9569 9.93744   3
  -4  -3  20-15.6290 9.43808   2
  -4   3 -20 2.38065 11.2130   4
  -4  -3  21 87.5581 13.0543   2
   4  -3 -21 76.6081 13.6830   3
  -4   3 -21 48.9663 15.2633   4
  -4  -3  22 24.9458 10.1931   2
   4  -3 -22 0.20020 10.4886   3
  -4   3 -22-0.27428 13.0706   4
   4  -3 -23 7.32025 10.9148   3
  -4  -3  23 9.26355 10.4348   2
  -4   3 -23 15.3287 13.5533   4
  -4  -3  24 9.10444 10.5865   2
   4  -3 -24 11.6583 11.6263   3
  -4   3 -24 5.74020 13.3589   4
  -4  -3  25 9.83112 10.5841   2
   4  -3 -25 11.3958 12.3019   3
  -4  -3  26 6.97332 10.8258   2
   4  -3 -26-22.0906 11.6384   3
  -4  -3  27 10.5001 10.8207   2
   4  -3 -27 2.62197 11.7957   3
  -4  -3  28 4.49221 11.0184   2
   4  -3 -28-0.23908 11.4665   3
   4  -4  28 6.66233 11.4897   2
   4  -4  27 50.1808 12.2170   2
   4  -4  26 0.94337 10.8468   2
   4  -4  25 26.1859 10.9739   2
  -4  -4 -21 57.4497 14.7948   4
  -4  -4 -20 30.9522 13.3674   4
  -4  -4 -19 86.6508 17.9725   4
  -4   4  19 125.167 16.2578   2
  -4  -4 -18 31.9007 12.7944   4
  -4   4  18 27.0332 9.94563   2
  -4  -4 -18 17.2808 8.86709   3
  -4  -4 -17 16.0650 11.8510   4
  -4  -4 -17 3.38446 8.09608   3
  -4  -4 -16 42.9840 12.4937   4
  -4  -4 -16 31.5994 8.64014   3
  -4  -4 -15 20.4780 11.1121   4
  -4  -4 -15 9.12948 7.67432   3
  -4  -4 -14 6.53292 11.1061   4
  -4  -4 -14 5.67502 7.39309   3
  -4  -4 -13 84.1082 15.3909   4
  -4  -4 -13 99.2148 13.1946   3
  -4  -4 -12 161.329 21.6350   4
  -4  -4 -12 175.630 20.6752   3
  -4  -4 -11 731.066 77.0512   4
  -4  -4 -11 656.608 76.5299   3
  -4  -4 -10 43.4124 10.0553   4
  -4  -4 -10 52.3208 7.76936   3
   4   4  -9 35.7683 7.23037   4
  -4  -4  -9 60.7557 10.3423   4
   4  -4   9 28.8099 7.57356   7
  -4  -4  -9 60.9606 8.13385   3
   4  -4   8 72.7588 10.7125   7
   4   4  -8 85.8613 11.7764   9
  -4  -4  -8 86.5857 12.5458   4
   4   4  -8 70.7436 10.5873   4
  -4  -4  -8 102.709 11.2537   3
  -4  -4  -7 364.063 41.2114   4
  -4  -4  -7 399.049 40.8043   3
   4   4  -7 352.699 40.9762   9
   4   4  -7 348.830 40.6629   4
   4  -4   7 341.588 40.7338   7
  -4  -4  -6 363.463 37.4141   4
   4  -4   6 358.330 37.0212   1
  -4  -4  -6 352.509 36.9530   3
   4   4  -6 350.959 37.1722   9
   4   4  -6 288.769 36.7902   4
   4  -4   6 285.225 36.8295   7
  -4  -4  -5 543.089 55.5597   4
  -4  -4  -5 512.883 55.2379   3
   4  -4   5 513.941 55.2975   1
  -4   4   5 510.927 55.0523   4
   4   4  -5 438.007 54.9719   2
   4   4  -5 526.365 55.3716   9
   4   4  -5 476.784 55.1382   4
   4  -4   5 501.980 55.2253   7
  -4  -4  -4 124.115 16.3354   6
  -4  -4  -4 175.944 17.3447   4
  -4  -4  -4 146.264 16.6998   3
   4  -4   4 155.572 16.6810   1
  -4   4   4 145.779 16.1747   4
   4   4  -4 126.597 15.8973   2
   4   4  -4 145.457 16.9943   9
   4   4  -4 141.656 16.3694   4
   4  -4   4 134.467 16.4904   7
  -4  -4  -3 255.319 30.8527   6
  -4  -4  -3 295.931 31.0622   3
  -4   4   3 244.782 30.8631   4
   4   4  -3 255.379 30.6362   2
   4  -4   3 352.743 31.2375   1
   4   4  -3 300.250 31.2724   9
   4   4  -3 286.300 30.7783   8
   4  -4   3 266.144 31.0432   7
   4   4  -3 265.500 30.9509   4
  -4  -4  -2 229.502 27.5147   6
  -4  -4  -2 281.534 27.6993   3
   4  -4   2 249.549 27.1984   3
  -4   4   2 218.640 27.5456   4
   4   4  -2 233.272 27.2301   2
   4   4  -2 265.747 27.3818   8
   4  -4   2 278.142 27.6998   7
   4   4  -2 259.342 27.6597   4
  -4  -4  -1 50.5998 8.14129   6
  -4   4   1 46.9812 7.87522   4
   4   4  -1 68.5700 8.24518   4
   4   4  -1 53.0750 6.96681   2
   4  -4   1 58.5322 7.19435   3
   4  -4   1 49.7776 7.16955   4
   4   4  -1 72.0469 7.40008   8
   4  -4   1 75.4294 8.13311   7
   4  -4   0 6.36621 4.46324   7
  -4  -4   0 4.65474 5.03560   6
   4   4   0 6.66291 2.55634   2
   4   4   0 0.75589 4.97936   4
   4  -4   0 0.87925 3.14405   3
   4   4   0 3.37627 3.32207   8
   4  -4   0 5.52248 2.90017   4
  -4   4   0 5.78356 4.75194   4
   4  -4  -1 71.9232 7.98991   7
  -4  -4   1 61.6914 8.21834   6
   4  -4  -1 50.3287 7.80049   5
   4   4   1 55.2750 8.11846   4
   4  -4  -1 53.7579 6.92323   4
  -4   4  -1 68.8070 8.30853   4
   4   4   1 60.6473 7.06057   8
   4  -4  -1 39.7970 7.17494   3
   4   4   2 253.689 24.6108   4
  -4  -4   2 226.584 24.5658   6
   4  -4  -2 182.366 24.4236   5
  -4   4  -2 193.552 24.5900   4
   4  -4  -2 218.265 24.2414   3
   4  -4  -2 198.317 24.0388   4
   4  -4  -2 254.461 24.5392   7
   4   4   3 321.648 32.3268   4
   4  -4  -3 321.208 32.1688   5
   4  -4  -3 355.748 32.2547   7
  -4  -4   3 341.393 32.0506   2
  -4   4  -3 262.240 32.3125   4
   4  -4  -3 247.891 31.8936   3
   4  -4  -3 240.005 31.7636   4
   4  -4  -4 85.8716 10.6146   3
   4  -4  -4 88.8570 11.0231   5
   4   4   4 111.089 11.4759   4
  -4  -4   4 137.291 10.9066   2
  -4   4  -4 99.4399 11.6397   4
   4  -4  -4 126.395 11.1996   7
   4  -4  -5 464.832 49.6494   5
  -4  -4   5 541.510 49.5657   2
  -4   4  -5 461.326 49.8056   4
   4  -4  -5 326.916 49.4170   3
   4  -4  -5 482.837 49.6787   7
   4  -4  -6 382.948 41.0993   5
  -4  -4   6 371.994 41.0890   2
  -4   4  -6 348.504 41.3649   4
   4  -4  -6 315.746 40.9217   3
   4  -4  -6 419.988 41.1588   7
   4  -4  -7 307.152 38.1616   5
  -4  -4   7 357.231 38.1709   2
  -4   4  -7 347.383 38.5211   4
   4  -4  -7 321.601 38.0330   3
   4  -4  -7 359.117 38.1809   7
  -4  -4   8 95.6734 11.4987   2
   4  -4  -8 96.2735 11.3716   7
   4  -4  -8 82.5784 11.3083   3
   4  -4  -8 78.6285 11.5167   5
  -4   4  -8 82.0782 12.4104   4
  -4  -4   9 62.2171 9.35371   2
   4  -4  -9 76.5534 9.28557   7
   4  -4  -9 58.6384 9.24708   3
   4  -4  -9 62.6183 9.33250   5
  -4   4  -9 58.0378 10.6219   4
  -4  -4  10 38.6361 7.04473   2
   4  -4 -10 24.5456 7.12076   3
   4  -4 -10 36.6019 7.16023   5
  -4   4 -10 33.1036 8.72174   4
   4  -4 -11 575.511 65.2748   5
  -4   4 -11 595.005 65.5047   4
  -4  -4  11 649.233 65.3040   2
   4  -4 -11 519.746 65.1985   3
   4  -4 -12 142.112 17.1673   3
   4  -4 -12 118.420 16.9579   5
  -4  -4  12 160.633 17.1050   2
  -4   4 -12 133.873 17.9369   4
  -4  -4  13 87.8748 11.4358   2
   4  -4 -13 72.3357 11.2157   3
   4  -4 -13 71.4106 10.7569   5
  -4   4 -13 69.3819 12.4984   4
   4  -4 -14 11.0486 7.79266   3
   4  -4 -14 6.47957 6.56300   5
  -4   4 -14-3.91474 9.28405   4
  -4  -4  14-1.20843 7.57838   2
  -4  -4  15 14.3637 8.02733   2
   4  -4 -15 1.87198 8.09451   3
   4  -4 -15 17.9212 6.71291   5
  -4   4 -15 2.93392 9.83822   4
  -4  -4  16 33.0937 8.98827   2
   4  -4 -16 22.9179 9.19665   3
   4  -4 -16 37.1538 7.71455   5
  -4   4 -16 20.7381 10.8632   4
  -4  -4  17 4.05645 8.33830   2
   4  -4 -17 19.8067 8.79918   3
   4  -4 -17-5.47964 6.81365   5
  -4   4 -17 17.9139 10.8794   4
  -4  -4  18 36.1694 9.18534   2
   4  -4 -18 24.4959 9.23822   3
  -4   4 -18 43.3325 11.5987   4
  -4  -4  19 119.835 14.9230   2
   4  -4 -19 92.9015 14.9729   3
  -4   4 -19 88.7796 16.3135   4
   4  -4 -20 15.3762 9.89347   3
  -4   4 -20 22.0395 12.5798   4
  -4  -4  20 19.8560 10.0023   2
  -4  -4  21 89.1595 14.4391   2
   4  -4 -21 96.5901 14.5017   3
  -4   4 -21 91.8319 17.1223   4
  -4  -4  22 65.4009 12.6968   2
   4  -4 -22 69.9810 12.6546   3
  -4   4 -22 59.1963 14.8998   4
  -4  -4  23 22.0653 10.6651   2
   4  -4 -23-6.84719 10.4722   3
  -4   4 -23 8.28966 12.9801   4
  -4  -4  24 24.1417 10.7557   2
   4  -4 -24 15.1962 11.1029   3
  -4   4 -24 4.52978 14.1504   4
  -4  -4  25 50.6687 11.8521   2
   4  -4 -25 29.1285 12.1025   3
  -4  -4  26 36.2976 11.2300   2
   4  -4 -26 14.6735 11.6238   3
  -4  -4  27 51.2051 12.2926   2
   4  -4 -27 28.7786 12.6285   3
  -4  -4  28 5.89324 11.2133   2
   4  -4 -28 0.98059 11.8469   3
   4  -5  27-3.19998 11.0008   2
   4  -5  26 10.2762 11.1546   2
   4  -5  25-8.36137 10.9430   2
  -4  -5 -20 17.9986 12.4503   4
  -4  -5 -19 152.253 19.4668   4
  -4  -5 -19 120.543 17.7148   3
  -4  -5 -18 143.583 19.3810   4
  -4  -5 -18 125.548 17.5089   3
  -4  -5 -17 44.4403 14.7202   4
  -4  -5 -17 107.763 13.2142   3
  -4  -5 -16 28.7543 11.4207   4
  -4  -5 -16 20.6011 9.49993   3
  -4  -5 -15 102.368 15.8667   4
  -4  -5 -15 99.0231 14.6696   3
  -4  -5 -14 236.946 30.8506   4
  -4  -5 -14 272.053 30.3387   3
  -4  -5 -13 105.151 16.6952   4
  -4  -5 -13 122.151 15.7068   3
  -4  -5 -12 147.330 17.3939   4
  -4  -5 -12 109.107 16.1324   3
  -4  -5 -11 49.4327 10.5930   4
  -4  -5 -11 53.3190 9.30050   3
   4   5 -11 35.8410 7.93651   4
  -4  -5 -10 68.7620 13.5800   4
  -4  -5 -10 99.9176 12.6227   3
   4   5 -10 90.1596 11.8473   4
   4   5  -9 50.9656 9.20946   4
  -4  -5  -9 89.6313 11.2219   4
  -4  -5  -9 70.1589 10.2186   3
   4   5  -9 67.8007 10.9067   9
   4  -5   9 41.4909 9.23183   7
  -4  -5  -8 28.8775 8.97233   4
   4   5  -8 22.7034 6.63481   4
   4  -5   8 11.4489 6.48085   7
   4   5  -8 39.2751 8.60719   9
  -4  -5  -8 23.5930 7.51235   3
   4   5  -7 19.9350 6.91706   4
  -4  -5  -7 26.1830 7.70387   3
   4  -5   7 17.0796 6.25493   7
   4   5  -7 18.4549 8.29587   9
   4   5  -6 71.1051 11.4438   4
  -4  -5  -6 87.0358 12.0162   3
   4   5  -6 94.5471 12.5223   9
   4  -5   6 98.8535 11.6361   7
   4  -5   5 294.983 36.5328   1
  -4  -5  -5 335.961 36.6346   3
   4   5  -5 354.298 36.7976   9
   4   5  -5 328.980 36.4883   4
   4  -5   5 304.263 36.4449   7
   4  -5   4 51.8032 8.41534   1
   4   5  -4 54.8468 8.44014   4
  -4  -5  -4 58.1179 8.40206   6
  -4  -5  -4 58.6133 9.21826   3
   4   5  -4 64.7312 9.75502   9
  -4   5   4 49.1233 7.81102   4
   4  -5   4 55.0376 8.39032   7
  -4  -5  -3 168.065 19.7154   6
  -4  -5  -3 169.539 19.9666   3
   4  -5   3 190.928 19.9698   1
  -4   5   3 141.834 19.5198   4
   4   5  -3 188.668 20.3081   9
   4   5  -3 186.049 19.7842   4
   4  -5   3 154.424 19.7393   7
  -4  -5  -2 301.392 31.9058   6
  -4  -5  -2 268.053 32.0542   3
   4  -5   2 359.887 32.0903   1
   4  -5   2 314.430 32.0558   7
   4   5  -2 311.586 32.0355   4
  -4  -5  -1 311.690 35.4965   6
  -4   5   1 289.039 35.5592   4
   4  -5   1 356.431 35.6408   7
   4   5  -1 360.096 35.6521   4
  -4  -5   0 139.770 16.9531   6
   4  -5   0 135.855 16.3811   3
  -4   5   0 122.624 17.0246   4
   4  -5   0 197.164 20.3315   1
   4  -5   0 154.117 16.9046   7
   4   5   0 145.449 16.9425   4
  -4  -5   1 314.504 35.7834   6
   4  -5  -1 312.752 35.5090   3
  -4   5  -1 296.831 35.8373   4
   4  -5  -1 315.794 35.7189   7
   4   5   1 340.162 35.8675   4
   4   5   2 299.062 28.3095   4
  -4  -5   2 289.317 28.2899   6
   4  -5  -2 217.028 27.8310   3
  -4   5  -2 235.012 28.2605   4
   4  -5  -2 219.936 27.7219   4
   4  -5  -2 281.501 28.0634   7
  -4  -5   3 167.093 19.0368   6
   4  -5  -3 136.721 18.5511   3
  -4   5  -3 142.408 19.0559   4
   4   5   3 169.993 19.0588   4
   4  -5  -3 192.147 18.8271   7
   4  -5  -4 72.3677 9.06213   7
   4  -5  -4 51.1786 8.81553   5
  -4   5  -4 57.1670 9.63989   4
   4   5   4 65.4206 9.61193   4
  -4  -5   4 70.1361 8.59793   2
  -4  -5   4 65.1741 9.65559   6
   4  -5  -4 58.6626 8.97043   3
   4   5   5 319.697 37.2266   4
   4  -5  -5 300.377 37.0112   5
  -4  -5   5 377.632 36.9673   2
  -4   5  -5 303.644 37.2897   4
   4  -5  -5 303.785 36.9976   3
   4  -5  -5 344.544 37.0416   7
   4  -5  -6 83.0238 11.1739   3
   4  -5  -6 79.6620 11.3375   7
   4  -5  -6 75.4799 11.2850   5
   4   5   6 98.3128 11.9373   4
  -4  -5   6 104.057 11.3353   2
  -4   5  -6 83.6113 12.4707   4
   4  -5  -7 7.49357 5.73287   7
   4  -5  -7 4.76579 5.78821   3
   4  -5  -7 13.2894 5.75702   5
   4   5   7 7.57273 7.00480   4
  -4   5  -7 4.36643 8.26511   4
  -4  -5   7 20.2305 5.67517   2
  -4  -5   8 59.1699 8.31137   2
   4  -5  -8 41.0377 8.52104   3
   4  -5  -8 58.7687 8.28701   7
   4  -5  -8 57.4352 8.29730   5
   4   5   8 57.4940 9.42401   4
  -4   5  -8 33.6062 10.4126   4
   4  -5  -9 59.0750 8.89160   7
   4  -5  -9 38.3181 9.10861   3
  -4  -5   9 72.2701 8.95198   2
   4  -5  -9 56.1345 8.94719   5
  -4   5  -9 57.8745 10.8272   4
   4  -5 -10 64.5337 9.71652   7
   4  -5 -10 45.5050 10.0465   3
  -4  -5  10 88.9306 10.0209   2
   4  -5 -10 72.8140 9.95712   5
  -4   5 -10 57.9436 11.7093   4
   4  -5 -11 43.3488 8.32125   7
   4  -5 -11 46.1222 9.01925   3
   4  -5 -11 40.1386 8.75261   5
  -4  -5  11 75.6612 9.06853   2
  -4   5 -11 57.5239 10.9642   4
   4  -5 -12 71.1663 11.0446   7
   4  -5 -12 68.0141 11.6166   3
  -4  -5  12 96.1091 11.4894   2
   4  -5 -12 90.6025 11.2404   5
  -4   5 -12 68.6784 13.1030   4
   4  -5 -13 115.576 15.9471   3
   4  -5 -13 122.548 15.3531   5
  -4  -5  13 116.521 15.7812   2
  -4   5 -13 108.673 17.0267   4
   4  -5 -13 139.098 15.3789   7
   4  -5 -14 247.438 29.6291   5
  -4   5 -14 263.125 30.5759   4
  -4  -5  14 264.915 29.8479   2
   4  -5 -14 253.323 29.9415   3
  -4  -5  15 49.8559 10.1626   2
   4  -5 -15 54.9544 9.56684   5
  -4   5 -15 59.9328 12.0496   4
   4  -5 -15 66.1683 10.7697   3
  -4  -5  16 23.6806 9.06865   2
   4  -5 -16 36.3172 9.45786   3
   4  -5 -16 31.7900 7.83818   5
  -4   5 -16 35.4241 10.9809   4
   4  -5 -17 75.5605 12.9672   3
  -4  -5  17 81.7672 13.0016   2
   4  -5 -17 70.7907 11.8175   5
  -4   5 -17 112.881 14.4295   4
  -4  -5  18 124.635 15.9867   2
   4  -5 -18 102.627 15.1263   5
  -4   5 -18 126.689 17.3683   4
   4  -5 -18 114.924 16.1659   3
   4  -5 -19 104.183 15.5432   3
  -4  -5  19 111.545 15.4467   2
  -4   5 -19 102.208 17.2120   4
   4  -5 -20 25.8132 11.0369   3
  -4  -5  20 53.0846 10.4320   2
  -4   5 -20 29.8786 13.5376   4
   4  -5 -21 28.1782 11.0940   3
  -4  -5  21 35.2551 10.7314   2
  -4   5 -21 48.2197 13.6023   4
   4  -5 -22 5.69416 10.6698   3
  -4  -5  22 37.0901 10.4555   2
  -4   5 -22 2.62709 13.5904   4
  -4  -5  23 6.38684 10.3192   2
  -4   5 -23-2.13326 14.2394   4
   4  -5 -23 14.1458 10.8203   3
   4  -5 -24-18.0474 10.7782   3
  -4  -5  24 8.53591 10.6712   2
  -4   5 -24-3.69402 14.0527   4
   4  -5 -25 15.3784 11.0132   3
  -4  -5  25 9.25859 10.8840   2
  -4   5 -25-4.57977 13.8683   4
   4  -5 -26-13.2990 11.0739   3
  -4  -5  26 1.25088 11.0094   2
   4  -5 -27 2.55426 11.2992   3
  -4  -5  27-0.76761 10.8439   2
   4  -6  26-0.25330 11.0653   2
   4  -6  25-7.43218 11.1299   2
   4  -6  23 5.49875 10.8969   8
   4  -6  22 19.9552 11.0531   8
  -4  -6 -21 10.3393 10.6835   3
  -4  -6 -20 0.20215 10.3373   3
  -4  -6 -19 24.5271 11.9670   4
  -4  -6 -19 20.2348 10.7945   3
  -4  -6 -18 1.17647 11.4389   4
  -4  -6 -18 19.9036 10.4087   3
  -4  -6 -17 44.6535 12.0422   3
  -4  -6 -17 60.2803 12.9210   4
  -4  -6 -16 33.2623 11.9453   4
  -4  -6 -16 47.2901 10.9358   3
  -4  -6 -15 141.369 18.8416   3
  -4  -6 -14 96.1674 14.3986   3
  -4  -6 -13 22.7686 9.53716   3
  -4  -6 -12 28.0091 9.36344   3
  -4  -6 -11 62.5895 11.5795   3
   4   6 -11 58.3974 9.91713   4
  -4  -6 -10 534.449 52.3692   3
   4   6 -10 412.521 51.9476   4
  -4  -6  -9 338.328 35.9391   3
   4   6  -9 267.316 35.4623   4
   4   6  -9 350.694 36.1023   9
  -4  -6  -8 382.791 39.6932   3
   4   6  -8 382.386 39.8102   9
   4   6  -8 332.755 39.2939   4
   4  -6   8 306.852 39.2701   7
   4   6  -7 21.6175 7.30201   4
  -4  -6  -7 29.6393 8.41067   3
   4   6  -7 30.4730 9.19519   9
   4  -6   7 5.04249 6.86488   7
  -4  -6  -6 480.276 50.7455   3
   4   6  -6 486.355 50.8898   9
   4   6  -6 455.965 50.6706   4
   4  -6   6 391.874 50.5117   7
  -4  -6  -5 220.062 22.6442   3
   4   6  -5 201.284 22.8491   9
   4   6  -5 184.051 22.3048   4
   4  -6   5 158.926 22.3214   7
   4  -6   4 400.025 46.9128   1
  -4  -6  -4 408.622 47.0266   3
   4   6  -4 451.152 47.2702   9
   4   6  -4 444.777 46.9768   4
   4  -6   4 385.861 46.8726   7
  -4  -6  -3 469.353 50.6558   6
  -4  -6  -3 477.810 50.7859   3
   4  -6   3 492.623 50.6085   1
   4   6  -3 536.171 50.9373   9
   4   6  -3 501.914 50.7324   4
   4  -6   3 484.042 50.6584   7
  -4  -6  -2 181.300 20.0360   6
  -4  -6  -2 168.589 20.3184   3
   4  -6   2 170.570 19.9318   1
  -4   6   2 118.079 19.8523   4
   4   6  -2 195.889 20.1797   4
   4  -6   2 186.776 19.9640   7
  -4  -6  -1 72.1097 10.1266   6
   4   6  -1 77.8250 10.0903   4
   4  -6   1 68.3710 9.84081   1
  -4   6   1 39.3494 9.73805   4
   4  -6   1 87.9873 9.83012   7
  -4  -6   0 193.947 21.9849   6
  -4   6   0 153.225 21.9638   4
   4  -6   0 167.326 22.4933   1
   4  -6   0 186.596 21.9786   7
   4   6   0 235.237 22.1453   4
   4   6   1 54.5550 8.86287   4
  -4  -6   1 57.8879 8.70911   6
  -4   6  -1 38.3568 8.54790   4
   4  -6  -1 45.4710 8.14247   7
  -4  -6   2 201.957 21.9475   6
   4  -6  -2 207.772 21.5743   3
  -4   6  -2 153.578 22.0647   4
   4   6   2 219.198 22.0328   4
   4  -6  -2 215.746 21.7275   7
  -4  -6   3 520.002 55.3607   6
   4  -6  -3 479.428 55.1474   3
  -4   6  -3 436.254 55.4762   4
   4  -6  -3 477.342 55.2051   7
   4   6   3 553.274 55.4636   4
   4  -6  -4 350.035 42.5747   3
  -4   6  -4 355.339 42.9907   4
  -4  -6   4 368.980 42.8589   6
   4  -6  -4 385.337 42.6455   7
   4   6   4 446.208 42.9758   4
   4  -6  -5 223.731 25.5421   3
  -4   6  -5 165.073 25.9475   4
  -4  -6   5 210.613 25.8857   6
   4  -6  -5 237.424 25.5216   7
   4   6   5 256.857 25.8901   4
   4   6   6 417.575 43.4537   4
   4  -6  -6 360.064 43.1926   3
  -4   6  -6 318.665 43.4617   4
   4  -6  -6 421.776 43.1631   7
   4  -6  -7 26.3318 6.46901   7
   4   6   7 24.9970 7.60012   4
  -4   6  -7 13.0987 8.63798   4
   4  -6  -7 22.8233 7.49427   3
   4   6   8 329.599 34.6195   4
   4  -6  -8 246.664 34.2424   5
  -4   6  -8 286.323 34.8976   4
   4  -6  -8 346.362 34.6391   3
   4  -6  -8 310.538 34.2304   7
   4   6   9 311.034 33.1625   4
   4  -6  -9 250.433 32.7233   5
  -4   6  -9 284.209 33.5773   4
   4  -6  -9 283.358 32.9497   3
   4  -6  -9 309.566 32.7243   7
   4   6  10 472.098 48.3409   4
   4  -6 -10 375.911 47.9768   5
  -4   6 -10 407.941 48.6644   4
  -4  -6  10 471.710 48.0142   2
   4  -6 -10 391.200 48.0976   3
   4  -6 -10 435.380 47.9674   7
   4  -6 -11 73.2693 12.5132   3
   4  -6 -11 77.1787 11.6494   7
   4  -6 -11 82.1900 11.9116   5
  -4  -6  11 112.693 12.2872   2
  -4   6 -11 96.1293 14.1474   4
   4   6  11 97.9637 13.1043   4
   4  -6 -12 23.3434 8.55434   3
  -4  -6  12 41.0947 8.17119   2
   4  -6 -12 33.3865 7.54477   5
   4   6  12 30.9334 9.51123   4
  -4   6 -12 43.0289 11.0831   4
   4  -6 -13 2.13820 7.80539   3
  -4  -6  13 1.19107 7.35090   2
   4  -6 -13 7.51909 6.48130   5
   4   6  13-3.52049 8.52905   4
  -4   6 -13 15.8027 10.4663   4
   4  -6 -14 116.104 14.6849   3
  -4  -6  14 124.544 14.1921   2
   4  -6 -14 87.1314 13.6739   5
   4   6  14 110.893 15.1238   4
  -4   6 -14 85.5956 16.0154   4
   4  -6 -15 89.8539 13.9801   3
  -4  -6  15 104.410 13.6227   2
   4  -6 -15 88.8929 12.7532   5
   4   6  15 104.413 14.2908   4
  -4   6 -15 91.5313 15.5632   4
   4  -6 -16 31.6871 10.2160   3
  -4  -6  16 32.7588 9.36682   2
   4  -6 -16 47.5363 8.33923   5
   4   6  16 36.7738 10.3370   4
  -4   6 -16 48.9737 12.1772   4
   4  -6 -17 25.3705 10.0593   3
  -4  -6  17 40.7941 9.68563   2
   4  -6 -17 27.7929 8.03938   5
   4   6  17 57.9806 10.2143   4
  -4   6 -17 16.0699 12.0399   4
   4  -6 -18 7.41574 9.68274   3
  -4  -6  18 1.91485 8.85071   2
   4   6  18-1.38717 9.41968   4
  -4   6 -18 7.69077 11.7997   4
  -4  -6  19 2.79759 9.10082   2
   4  -6 -19 22.1837 10.1384   3
  -4   6 -19 8.96376 12.3026   4
   4  -6 -20 5.85747 10.2485   3
  -4  -6  20-6.23719 9.54120   2
  -4   6 -20 0.79753 12.5478   4
   4  -6 -21 7.48691 10.5145   3
  -4  -6  21 11.2229 9.74214   2
  -4   6 -21 0.28155 12.9772   4
   4  -6 -22 23.0604 11.0999   3
  -4  -6  22 4.91217 10.1886   2
  -4   6 -22 20.2669 14.1418   4
   4  -6 -23 15.1733 11.0856   3
  -4  -6  23 16.9973 10.7624   2
  -4   6 -23 12.3125 13.9315   4
   4  -6 -24 2.90905 11.3713   3
  -4  -6  24 7.43132 10.6549   2
  -4   6 -24 0.32459 14.7132   4
   4  -6 -25 1.59068 10.9418   3
  -4  -6  25 4.96747 10.8106   2
  -4   6 -25 6.39364 14.8177   4
   4  -6 -26-0.23386 11.1773   3
  -4  -6  26-0.76303 10.9351   2
   4  -7  25 3.07558 11.3005   2
   4  -7  24 22.2459 11.1497   2
   4  -7  24 13.7034 12.2507   8
   4  -7  23 16.4266 11.8179   8
   4  -7  22 22.2863 11.5248   8
  -4  -7 -22 4.88740 11.8353   3
  -4  -7 -21 39.1430 12.7455   3
  -4  -7 -20 14.0112 11.2072   3
  -4  -7 -19 9.88038 11.1401   3
  -4  -7 -18-5.47333 10.9337   3
  -4  -7 -17 8.91398 10.6512   3
  -4  -7 -16 9.35043 10.6855   3
  -4  -7 -15 14.7416 10.1925   3
  -4  -7 -14 70.5897 13.2410   3
  -4  -7 -13 20.8003 10.8303   3
  -4  -7 -12 120.240 15.2168   3
   4   7 -12 82.5866 13.7684   4
  -4  -7 -11 48.6721 10.5340   3
   4   7 -11 23.6028 8.73410   4
  -4  -7 -10 100.524 14.6371   3
   4   7 -10 114.497 14.7034   9
   4   7 -10 76.3105 13.2595   4
  -4  -7  -9 250.486 29.1778   3
   4   7  -9 212.279 28.6511   4
   4   7  -9 288.230 29.3442   9
   4   7  -8 25.1773 9.07564   4
  -4  -7  -8 50.3371 10.1456   3
   4   7  -8 42.5611 10.8799   9
   4   7  -7 9.60311 8.07267   4
  -4  -7  -7 13.9527 8.35964   3
   4   7  -7 2.00300 9.48337   9
   4  -7   7 1.21632 7.31312   7
   4   7  -6 109.962 13.8802   4
  -4  -7  -6 90.4765 14.3286   3
   4   7  -6 119.171 14.6198   9
   4  -7   6 81.7429 13.3346   7
   4   7  -5 119.919 15.4757   4
  -4  -7  -5 144.181 15.9961   3
   4   7  -5 116.705 16.1438   9
   4  -7   5 96.6172 14.8931   7
  -4  -7  -4 277.518 33.7264   3
   4   7  -4 324.219 34.0838   9
   4   7  -4 291.394 33.7094   4
   4  -7   4 282.375 33.4528   7
  -4  -7  -3 136.480 16.4607   6
   4   7  -3 132.165 17.2777   9
  -4  -7  -3 138.645 16.7690   3
   4  -7   3 130.400 15.9014   1
   4   7  -3 153.124 16.6466   4
  -4   7   3 82.2522 15.9093   4
   4  -7   3 149.188 16.1891   7
  -4  -7  -2 153.635 18.5890   6
   4  -7   2 141.691 17.9312   1
  -4  -7  -2 160.317 18.7546   3
   4   7  -2 184.535 18.5813   4
  -4   7   2 103.044 18.2307   4
   4  -7   2 170.222 18.1914   7
  -4  -7  -1 370.237 40.2655   6
   4  -7   1 394.679 40.0553   1
  -4   7   1 246.877 40.0880   4
   4   7  -1 405.049 40.3137   4
   4  -7   1 360.834 40.1099   7
  -4  -7   0 37.0139 8.27750   6
   4   7   0 40.4291 8.38032   4
   4  -7   0 42.8117 7.34840   1
  -4   7   0 24.9119 8.05029   4
   4  -7   0 24.8036 7.63941   7
  -4  -7   1 305.069 35.6728   6
  -4   7  -1 220.935 35.6506   4
   4  -7  -1 351.153 35.6541   1
   4   7   1 335.116 35.8196   4
   4  -7  -1 346.064 35.5705   7
  -4  -7   2 180.556 21.2633   6
  -4   7  -2 135.139 21.2440   4
   4  -7  -2 190.246 20.9512   7
   4   7   2 196.009 21.3505   4
  -4  -7   3 167.429 20.0672   6
  -4   7  -3 149.079 20.2896   4
   4  -7  -3 151.731 19.5719   7
   4   7   3 194.808 20.2816   4
  -4  -7   4 236.486 28.3316   6
  -4   7  -4 224.245 28.6191   4
   4  -7  -4 251.384 27.8707   7
   4   7   4 247.443 28.3158   4
   4   7   5 150.244 16.9739   4
  -4  -7   5 129.477 17.0337   6
  -4   7  -5 94.4120 17.4304   4
   4  -7  -5 130.269 16.4878   3
   4  -7  -5 145.758 16.1757   7
  -4  -7   6 78.0395 11.9551   6
   4   7   6 94.3727 11.7355   4
  -4   7  -6 67.7006 12.3956   4
   4  -7  -6 79.0524 11.0355   3
   4  -7  -6 63.4628 10.3303   7
   4  -7  -7 12.3063 5.69267   7
   4   7   7-0.16085 7.84971   4
  -4   7  -7 5.03800 9.03414   4
   4  -7  -7 10.6383 7.39124   3
   4   7   8 45.5946 9.37671   4
   4  -7  -8 49.2785 7.47880   7
  -4   7  -8 21.9164 10.2509   4
   4  -7  -8 35.5984 8.74741   3
   4  -7  -9 214.557 25.9675   3
  -4   7  -9 200.078 26.6976   4
   4   7   9 241.430 26.2028   4
   4   7  10 80.2718 11.7220   4
  -4   7 -10 62.1388 13.1916   4
   4  -7 -10 67.6714 11.4837   3
   4   7  11 36.1786 9.55802   4
  -4   7 -11 22.1459 11.7566   4
   4  -7 -11 41.4469 9.54569   3
   4   7  12 107.025 14.3092   4
  -4   7 -12 88.7035 15.8800   4
   4  -7 -12 99.3968 14.6912   3
   4  -7 -13 15.6521 6.94678   5
   4   7  13 4.85528 8.68851   4
  -4   7 -13 1.15174 10.7172   4
   4  -7 -13-2.14307 9.73244   3
   4  -7 -14 52.7779 9.43435   5
   4   7  14 50.9809 11.0676   4
   4  -7 -14 62.6266 11.6397   3
  -4   7 -14 60.0680 13.3010   4
   4  -7 -15 27.4599 7.54124   5
   4   7  15 19.0281 9.79766   4
  -4   7 -15 33.6256 12.4333   4
   4  -7 -15 44.3467 10.0535   3
   4  -7 -16 11.4006 6.87075   5
   4   7  16 2.88347 9.23022   4
  -4   7 -16-6.73559 11.7049   4
   4  -7 -16 13.2365 9.47529   3
   4   7  17 18.7998 9.34465   4
  -4   7 -17 6.58891 12.6357   4
   4  -7 -17-11.3203 9.85512   3
  -4  -7  18 8.38687 8.94738   2
   4   7  18 1.00696 9.33435   4
  -4   7 -18 9.77719 12.3005   4
   4  -7 -18 4.31434 9.98091   3
   4  -7 -19 23.3042 10.2981   3
  -4  -7  19 5.29208 9.30563   2
  -4   7 -19 4.35912 12.5452   4
   4  -7 -20 5.62079 10.3283   3
  -4  -7  20 4.02556 9.89786   2
  -4   7 -20-0.27996 12.5739   4
   4  -7 -21 43.7378 11.5080   3
  -4  -7  21 26.3592 10.4765   2
  -4   7 -21 27.3700 13.9020   4
   4  -7 -22 25.4550 11.3068   3
  -4  -7  22 24.5506 10.7187   2
  -4   7 -22 1.80158 14.0897   4
   4  -7 -23 14.5351 11.1200   3
  -4  -7  23 9.71135 10.6740   2
  -4   7 -23 9.20331 14.1931   4
  -4  -7  24 5.11806 10.7938   2
   4  -7 -24 0.22663 11.0626   3
  -4   7 -24 14.7268 15.0213   4
  -4   7 -25 4.55456 14.2666   4
  -4  -7  25 7.56848 11.0393   2
   4  -7 -25 29.3208 11.4701   3
   4  -8  24 0.25812 11.3600   2
   4  -8  24-2.38848 12.2861   8
  -4  -8 -23 0.23946 11.5420   3
   4  -8  23 0.67393 11.8341   8
  -4  -8 -22 15.1577 11.9755   3
   4  -8  22 17.2874 11.7735   8
  -4  -8 -21 6.57361 11.7508   3
  -4  -8 -20 75.4529 14.7751   3
  -4  -8 -19 12.7433 11.6848   3
  -4  -8 -18 49.7671 13.0059   3
  -4  -8 -17 27.9553 12.1687   3
  -4  -8 -16 43.4705 12.7827   3
  -4  -8 -15 35.3621 11.9812   3
  -4  -8 -14 110.881 17.1424   3
  -4  -8 -13 37.2933 11.9559   3
  -4  -8 -12 41.6762 11.5825   3
   4   8 -12 16.6854 9.48331   4
  -4  -8 -11 42.0456 11.3719   3
   4   8 -11 11.4954 9.38056   4
   4   8 -10 65.6164 12.2218   9
  -4  -8 -10 40.8076 11.8057   3
   4   8 -10 48.0359 10.5640   4
  -4  -8  -9 43.7236 10.8188   3
   4   8  -9 42.8298 11.6196   9
   4   8  -9 36.8699 9.97843   4
   4   8  -8 7.79814 8.80432   4
  -4  -8  -8 38.5968 10.1030   3
   4   8  -8 25.4269 10.8189   9
   4   8  -7 13.2254 8.77687   4
  -4  -8  -7 13.9220 10.1991   3
   4   8  -7 20.8945 10.4092   9
   4   8  -6 24.9846 9.39379   4
   4   8  -6 30.4699 10.4095   9
  -4  -8  -6 25.3990 10.1315   3
   4   8  -5 45.0963 10.5650   4
  -4  -8  -5 39.7175 10.6943   3
   4   8  -5 61.8725 11.2423   9
   4  -8   5 42.2530 9.46178   7
   4   8  -4 54.7909 10.8579   4
  -4  -8  -4 61.7667 10.6268   3
   4   8  -4 51.8870 11.4010   9
   4  -8   4 30.4872 9.10443   7
   4   8  -3 4.05528 8.37392   4
  -4  -8  -3 19.6789 8.70790   6
   4   8  -3-10.6485 9.60056   9
  -4  -8  -3-0.16270 8.90766   3
   4  -8   3 11.2011 7.10251   7
   4   8  -2 41.5620 11.1535   9
   4   8  -2 60.6799 10.3839   4
  -4  -8  -2 55.4673 10.2261   6
  -4   8   2 32.0507 9.29588   4
   4  -8   2 48.2567 8.90016   7
   4   8  -1 40.7833 9.60649   4
  -4  -8  -1 40.4608 9.24462   6
   4  -8   1 24.8018 7.90774   7
  -4   8   1 36.3541 8.58127   4
   4   8   0 105.119 12.9788   4
  -4  -8   0 96.2090 12.7263   6
  -4   8   0 70.0384 12.5272   4
   4  -8   0 74.9280 11.7871   7
  -4  -8   1 25.5688 8.53450   6
  -4   8  -1 28.7146 8.61989   4
   4   8   1 18.6090 8.76973   4
   4  -8  -1 17.6629 7.01354   7
  -4  -8   2 58.9907 10.1958   6
   4   8   2 55.0842 10.0516   4
  -4   8  -2 30.2736 9.91594   4
   4  -8  -2 47.8223 8.60064   7
  -4  -8   3 1.47673 8.51485   6
   4   8   3 3.94930 7.78931   4
  -4   8  -3 17.4950 8.43605   4
   4  -8  -3-4.61602 6.34678   7
  -4  -8   4 20.9358 8.87612   6
   4   8   4 17.5470 8.69675   4
  -4   8  -4 22.2098 8.96219   4
   4  -8  -4 18.1645 6.95489   7
  -4  -8   5 69.8382 11.3984   6
   4   8   5 58.4516 11.3787   4
  -4   8  -5 46.5949 12.1329   4
   4  -8  -5 69.6276 9.75754   7
  -4  -8   6 2.85304 9.08781   6
   4   8   6 10.8693 8.83189   4
  -4   8  -6 11.6743 9.99039   4
   4  -8  -6 13.4393 6.35664   7
  -4  -8   7 3.87047 9.06998   6
   4   8   7 8.77672 8.89220   4
  -4   8  -7 0.60789 9.96874   4
   4   8   8 37.9887 8.95814   4
   4  -8  -8 10.2099 8.22121   3
  -4   8  -8 8.84596 10.2847   4
   4   8   9 29.3257 9.41903   4
  -4   8  -9 13.3907 10.6027   4
   4  -8  -9 22.0618 8.47941   3
   4   8  10 18.8628 9.59400   4
  -4   8 -10 10.0413 11.0385   4
   4  -8 -10 23.6297 8.69996   3
   4   8  11 12.2704 9.27273   4
  -4   8 -11 18.2207 11.5129   4
   4  -8 -11 13.8633 8.98077   3
   4   8  12 17.0778 9.22471   4
  -4   8 -12 5.61765 11.8172   4
   4  -8 -12 14.1055 9.31279   3
   4   8  13 14.5711 9.63892   4
  -4   8 -13 9.92230 12.2686   4
   4  -8 -13 30.4738 9.81842   3
   4  -8 -14 66.7784 13.3137   3
   4   8  14 93.9499 13.0036   4
  -4   8 -14 67.0593 15.1759   4
   4  -8 -15 40.9821 10.9427   3
   4   8  15 34.8741 10.3805   4
  -4   8 -15 37.2839 13.1742   4
   4   8  16 44.5287 10.7743   4
  -4   8 -16 31.7659 13.4677   4
   4  -8 -16 44.8945 11.2617   3
   4   8  17 5.56969 9.62600   4
  -4   8 -17 6.88718 12.8124   4
   4  -8 -17 25.4284 10.8766   3
   4  -8 -18 22.6299 11.5690   3
  -4   8 -18 25.3312 13.4551   4
   4  -8 -19 26.8763 11.8451   3
  -4   8 -19 9.16551 13.7014   4
  -4   8 -20 33.2837 14.5305   4
   4  -8 -20 48.4581 12.8709   3
   4  -8 -21 1.42434 12.0196   3
  -4   8 -21 3.65476 13.6067   4
   4  -8 -22 9.02521 12.1744   3
  -4   8 -22 0.31143 13.7038   4
  -4   8 -23 9.91267 14.2123   4
   4  -8 -23 0.25020 12.1288   3
  -4   8 -24 3.01689 14.6250   4
   4  -8 -24 0.25644 12.1928   3
  -4  -9 -22 0.25455 12.0929   3
   4  -9  22 18.4379 12.3469   8
  -4  -9 -21 3.53471 12.0840   3
  -4  -9 -20 19.2340 12.8769   3
  -4  -9 -19 8.87933 12.7446   3
  -4  -9 -18 22.2606 12.7283   3
  -4  -9 -17 8.29980 12.3337   3
  -4  -9 -16 11.3557 12.4134   3
  -4  -9 -15-2.84691 12.1460   3
  -4  -9 -14 15.6952 12.4540   3
  -4  -9 -13 21.2611 12.6664   3
   4   9 -12 8.69856 9.80711   4
  -4  -9 -12 14.0327 11.5593   3
  -4  -9 -11 35.8986 11.7114   3
   4   9 -11 17.8919 10.2408   4
  -4  -9 -10 30.9271 11.6933   3
   4   9 -10 61.8746 12.2773   9
   4   9 -10 28.5850 10.6405   4
  -4  -9  -9 13.8454 10.5719   3
   4   9  -9 28.7839 11.1151   9
   4   9  -9-5.75474 9.61507   4
   4   9  -8 61.4603 12.2655   4
   4   9  -8 82.9579 13.7806   9
  -4  -9  -8 57.1134 13.5597   3
   4   9  -7 63.8654 13.0433   4
   4   9  -7 76.7837 14.1933   9
  -4  -9  -7 104.133 14.5093   3
   4   9  -6 89.1536 13.7798   4
  -4  -9  -6 87.9432 14.2620   3
   4   9  -6 76.3542 14.5276   9
   4   9  -5 38.7089 10.6293   4
   4   9  -5 44.3222 11.4267   9
  -4  -9  -5 32.6638 11.2519   3
   4   9  -4 40.1300 10.3687   4
  -4  -9  -4 2.95543 10.0398   3
   4   9  -4 27.0038 11.1897   9
   4  -9   4 29.8292 8.69682   7
   4   9  -3 49.9516 11.4472   4
  -4  -9  -3 39.1880 11.1684   6
  -4  -9  -3 62.6182 11.6137   3
   4   9  -3 41.4919 11.9340   9
   4  -9   3 51.3080 9.70652   7
   4  -9   2-3.41274 7.51200   7
   4   9  -2 17.2391 9.63624   4
  -4  -9  -2 29.7739 9.66527   6
   4   9  -2 10.9273 10.5672   9
   4   9  -1 4.37998 9.19528   4
  -4  -9  -1 26.4551 9.60516   6
  -4   9   1 6.82102 8.77556   4
   4  -9   1 28.1180 7.67655   7
   4   9   0 32.0476 10.0079   4
  -4  -9   0 27.3247 9.51115   6
  -4   9   0 30.7580 9.30108   4
   4  -9   0 8.02635 7.68499   7
   4   9   1 28.6097 9.83739   4
  -4  -9   1 22.7848 9.56041   6
  -4   9  -1 10.9386 9.16149   4
   4  -9  -1 17.4325 7.33872   7
   4   9   2 8.30675 9.32874   4
  -4  -9   2 15.5667 9.48577   6
  -4   9  -2 19.6996 9.29978   4
   4  -9  -2 11.1455 7.03869   7
  -4  -9   3 35.2954 10.3119   6
   4   9   3 32.2244 9.95793   4
  -4   9  -3 30.7963 9.89140   4
   4  -9  -3 26.6343 7.42441   7
   4   9   4 28.5972 10.1177   4
  -4  -9   4 37.9187 10.0662   6
  -4   9  -4 18.2689 9.92677   4
  -4  -9   5 46.0122 10.7081   6
   4   9   5 40.3652 10.2987   4
  -4   9  -5 27.1926 10.9243   4
  -4  -9   6 90.9511 13.4541   6
   4   9   6 74.9747 12.8502   4
  -4   9  -6 65.9252 14.2534   4
  -4  -9   7 57.7349 13.0089   6
   4   9   7 90.5640 12.5005   4
  -4   9  -7 60.0383 13.7968   4
  -4  -9   8 74.2700 12.7048   6
   4   9   8 76.1125 12.3459   4
  -4   9  -8 50.7646 13.1900   4
   4   9   9 0.39945 9.56991   4
  -4   9  -9-12.7570 10.9893   4
   4   9  10 30.6449 10.4277   4
  -4   9 -10 22.6773 11.4467   4
   4   9  11 37.6462 10.1901   4
  -4   9 -11 18.3368 12.2749   4
   4  -9 -11 27.4248 10.0992   3
   4   9  12 31.7886 10.2771   4
  -4   9 -12 6.01015 12.6921   4
   4  -9 -12 27.0423 9.79448   3
   4   9  13 8.68660 9.79495   4
  -4   9 -13-6.79435 12.7722   4
   4  -9 -13-1.40384 9.43020   3
   4   9  14-7.64951 9.86272   4
  -4   9 -14-24.6529 13.3735   4
   4  -9 -14 4.05076 9.66389   3
   4   9  15 25.4959 10.2136   4
   4  -9 -15 4.25623 9.97195   3
   4   9  16 7.80060 10.0008   4
  -4   9 -16 5.27602 13.3659   4
   4  -9 -16 22.7067 10.7168   3
  -4   9 -17-16.8273 13.5865   4
   4  -9 -17 20.6603 10.8530   3
  -4   9 -18 6.31959 13.5032   4
   4  -9 -18 13.1327 11.1516   3
  -4   9 -19 2.47778 13.7678   4
   4  -9 -19 11.3367 11.3246   3
  -4   9 -20 12.4905 14.2238   4
   4  -9 -20 5.01648 11.5429   3
  -4   9 -21-6.72075 14.1123   4
   4  -9 -21 0.46744 11.4675   3
  -4   9 -22 1.96221 14.4409   4
   4  -9 -22 0.23922 11.4523   3
  -4 -10 -20 0.26869 12.8698   3
  -4 -10 -19 0.26588 12.6506   3
  -4 -10 -18 6.33414 12.9490   3
  -4 -10 -17 3.98984 12.9626   3
  -4 -10 -16 6.10442 13.1494   3
  -4 -10 -15 8.36188 12.8740   3
  -4 -10 -14 3.18544 12.2347   3
  -4 -10 -13 20.9942 12.5437   3
  -4 -10 -12 25.6971 12.0945   3
   4  10 -12 5.30440 10.8044   4
  -4 -10 -11 69.8325 13.4917   3
   4  10 -11 37.9527 12.0088   4
  -4 -10 -10 91.8977 15.3430   3
   4  10 -10 104.673 15.0997   9
  -4 -10  -9 31.5247 13.1349   3
   4  10  -9 47.2769 12.6907   9
   4  10  -9 42.0303 11.2713   4
  -4 -10  -8-1.10920 11.5793   3
   4  10  -8 35.9747 12.1509   9
   4  10  -8 7.43204 10.4584   4
   4  10  -7 17.6661 10.9252   4
  -4 -10  -7 44.8235 12.0672   3
   4  10  -7 41.9814 12.2231   9
   4  10  -6 0.21060 9.93728   4
  -4 -10  -6 7.57947 10.9629   3
   4  10  -6 16.9398 11.4236   9
   4  10  -5 13.3798 10.0153   4
  -4 -10  -5 1.86240 10.8519   3
   4  10  -5-17.3765 11.1497   9
   4  10  -4 23.7659 10.9798   4
  -4 -10  -4 35.5063 11.6998   6
  -4 -10  -4 44.3405 11.4248   3
   4  10  -4 39.2013 12.0072   9
   4  10  -3 124.956 15.1059   4
  -4 -10  -3 98.4962 15.2024   6
   4  10  -2 42.7276 11.9431   4
  -4 -10  -2 42.4174 11.1503   6
   4  10  -2 31.7637 11.4099   9
   4 -10   2 9.45167 8.89572   7
   4  10  -1 43.2776 11.5079   4
   4  10  -1 46.9147 11.5303   9
   4 -10   1 25.9212 8.80697   7
   4  10   0 28.5952 11.1900   4
  -4 -10   0 51.5427 10.6932   6
  -4  10   0 19.8728 10.1983   4
   4 -10   0 16.0783 7.96098   7
   4  10   1 40.3559 10.8539   4
  -4 -10   1 36.4693 10.4324   6
  -4  10  -1 33.6909 10.4474   4
   4 -10  -1 23.4021 8.30378   7
   4  10   2 39.7820 11.2578   4
  -4 -10   2 44.2705 11.4109   6
  -4  10  -2 27.6686 10.8574   4
   4  10   3 123.208 15.5416   4
  -4 -10   3 90.1399 15.3509   6
  -4  10  -3 79.3787 15.1544   4
   4  10   4 32.1731 10.3615   4
  -4 -10   4 23.0402 10.7028   6
  -4  10  -4 20.8443 10.6862   4
  -4 -10   5-1.02239 10.6003   6
   4  10   5 20.8582 10.0661   4
  -4  10  -5 22.7304 11.0755   4
  -4 -10   6 23.1690 10.8736   6
   4  10   6 3.81725 10.2392   4
  -4  10  -6 7.15831 11.1108   4
   4  10   7 22.2004 10.6895   4
  -4 -10   7 34.0226 11.4420   6
  -4  10  -7 35.5752 12.2998   4
  -4 -10   8 4.70296 10.6461   6
   4  10   8 18.0392 10.0839   4
  -4  10  -8 12.5402 12.0814   4
   4  10   9 40.0972 10.8398   4
  -4  10  -9 34.2695 12.7054   4
   4  10  10 70.9193 12.4602   4
  -4  10 -10 55.0131 14.1311   4
   4  10  11 49.0253 12.1729   4
  -4  10 -11 63.4876 13.5685   4
   4  10  12 25.9549 10.3727   4
  -4  10 -12 15.3260 13.3614   4
  -4  10 -13 9.21680 13.4837   4
   4  10  13 7.34518 10.3772   4
   4  10  14 4.71992 10.3489   4
  -4  10 -14-13.7364 13.7837   4
   4  10  15 7.79318 10.3076   4
  -4  10 -15 8.03188 14.1669   4
  -4  10 -16 4.33763 14.2495   4
   4 -10 -16 2.28644 10.5455   3
  -4  10 -17 6.37813 14.4541   4
   4 -10 -17 12.3518 10.9249   3
  -4  10 -18 1.30230 14.4698   4
   4 -10 -18 0.21582 10.5394   3
  -4  10 -19 4.87373 14.4459   4
   4 -10 -19 0.65017 10.6046   3
  -4  10 -20 7.99136 14.4406   4
   4 -10 -20 0.22136 10.7237   3
  -4 -11 -17 0.26873 12.7141   3
  -4 -11 -16 0.26584 12.6832   3
  -4 -11 -15 9.66441 12.5342   3
  -4 -11 -14 6.67981 12.5206   3
  -4 -11 -13-24.1045 13.0350   3
  -4 -11 -12 12.1740 13.0920   3
   4  11 -12 0.47585 11.0902   4
  -4 -11 -11 23.1618 13.1491   3
   4  11 -11 13.2042 11.2914   4
  -4 -11 -10 14.6431 12.9014   3
   4  11 -10 4.31185 12.2558   9
   4  11 -10 7.04128 11.0851   4
   4  11  -9-11.6264 10.8564   4
  -4 -11  -9 20.0411 12.1125   3
   4  11  -9 12.0600 12.2023   9
  -4 -11  -8 1.65930 11.9770   3
   4  11  -8-16.8815 12.3331   9
   4  11  -8 6.22007 10.6722   4
  -4 -11  -7 15.5170 11.6690   3
   4  11  -7 7.81630 12.1960   9
   4  11  -7 8.77140 10.8597   4
   4  11  -6 0.23077 10.6918   4
   4  11  -6 5.39090 12.1452   9
  -4 -11  -6 19.0133 11.8801   3
   4  11  -5 12.5834 10.8308   4
  -4 -11  -5 11.4484 11.7655   6
  -4 -11  -5 14.6364 11.7348   3
   4  11  -5-6.93181 11.5871   9
   4  11  -4 26.8006 11.1689   4
  -4 -11  -4 22.1126 12.0521   6
   4  11  -4 0.98810 11.6538   9
   4  11  -3 14.1335 11.2239   4
  -4 -11  -3 19.0601 11.8610   6
   4  11  -3 12.1851 12.0142   9
   4  11  -2 66.6053 12.9767   4
  -4 -11  -2 56.1437 13.0746   6
   4  11  -2 36.5450 13.5093   9
   4  11  -1 40.9590 11.5987   4
  -4 -11  -1 12.9089 11.4528   6
   4  11  -1 3.16665 11.7055   9
   4  11   0 15.2618 11.8066   4
  -4 -11   0 14.7446 11.1165   6
   4  11   0 38.7906 12.1854   9
   4  11   1 43.4587 11.9394   4
  -4 -11   1 21.3565 11.3305   6
  -4  11  -1 12.2747 10.6138   4
   4  11   2 69.7181 13.5308   4
  -4 -11   2 82.3103 13.7012   6
  -4  11  -2 41.4485 12.8444   4
   4  11   3 32.5181 11.3193   4
  -4 -11   3 9.75131 11.4474   6
  -4  11  -3 18.9200 11.1762   4
   4  11   4 14.1353 11.2236   4
  -4 -11   4 10.7634 11.2823   6
  -4  11  -4-1.90020 10.8788   4
   4  11   5 9.79310 11.3505   4
  -4 -11   5 25.2709 11.2861   6
  -4  11  -5 0.74442 11.6819   4
  -4 -11   6 14.0931 11.3846   6
   4  11   6 6.03439 10.9597   4
  -4  11  -6 3.63749 11.8033   4
  -4 -11   7-2.10135 11.1453   6
   4  11   7-3.54276 10.8176   4
  -4  11  -7 20.9679 12.8444   4
  -4 -11   8 20.8232 11.3429   6
   4  11   8-2.82034 10.7432   4
  -4  11  -8-8.16101 12.2273   4
   4  11   9 17.6366 10.9744   4
  -4  11  -9 10.7058 12.8141   4
   4  11  10 8.03149 10.7047   4
  -4  11 -10 6.39922 12.5025   4
  -4  11 -11-12.8300 12.5613   4
   4  11  11 14.8117 10.9370   4
   4  11  12 2.13166 10.6703   4
  -4  11 -12 0.29008 13.2785   4
   4  11  13 1.42266 10.6942   4
  -4  11 -13-3.94774 13.7533   4
   4  11  14 4.72128 10.5266   4
  -4  11 -14 6.37598 14.2058   4
  -4  11 -15 0.33022 14.3951   4
  -4  11 -16 5.58556 14.2799   4
  -4  11 -17 12.0252 14.4040   4
  -4 -12 -13 1.95555 13.3143   3
  -4 -12 -12 10.6345 13.6784   3
   4  12 -12-1.03534 11.5186   4
  -4 -12 -11-1.30248 12.6649   3
   4  12 -11 2.31682 11.8040   4
   4  12 -10 4.31363 11.5516   4
  -4 -12 -10 0.77782 12.8135   3
   4  12  -9 17.5844 12.6802   9
  -4 -12  -9 9.44283 12.7750   3
   4  12  -9 13.6699 11.6592   4
  -4 -12  -8 25.6025 12.5756   3
   4  12  -8 5.55576 12.4395   9
   4  12  -8-3.00887 11.5358   4
   4  12  -7 45.6669 12.8556   9
  -4 -12  -7 15.9489 12.8152   3
   4  12  -7 7.95698 11.8483   4
  -4 -12  -6 10.0126 12.5225   6
   4  12  -6 5.90373 12.2817   9
   4  12  -6 2.24484 11.5797   4
  -4 -12  -5 18.4617 12.4143   6
   4  12  -5 4.51730 12.1121   9
   4  12  -5 6.73830 11.4950   4
   4  12  -4 7.72594 11.4147   4
  -4 -12  -4 9.24943 12.2664   6
   4  12  -4 7.97656 11.9561   9
   4  12  -3 4.24898 11.7775   4
  -4 -12  -3-1.46296 12.1370   6
   4  12  -3-22.0530 11.8469   9
   4  12  -2 12.8748 11.9182   4
  -4 -12  -2 0.62073 12.1016   6
   4  12  -2 14.1958 12.3130   9
   4  12  -1-0.25614 12.0054   4
  -4 -12  -1 2.59996 11.6489   6
   4  12  -1-7.79624 12.3395   9
   4  12   0 26.2721 12.1071   4
  -4 -12   0 16.1006 11.6983   6
   4  12   0-3.99741 11.9406   9
   4  12   1 1.02431 11.7425   4
  -4 -12   1 35.0084 11.9348   6
   4  12   1 2.76604 11.8239   9
   4  12   2 12.7794 11.9139   4
  -4 -12   2 7.60221 12.0479   6
  -4  12  -2-0.24604 10.9585   4
   4  12   3 8.59980 12.6060   4
  -4 -12   3 11.1747 11.8549   6
  -4  12  -3 7.25104 11.5099   4
   4  12   4 18.0875 12.3359   4
  -4 -12   4 5.66639 11.9710   6
  -4  12  -4 5.13730 11.6333   4
   4  12   5 8.93721 12.0913   4
  -4 -12   5 10.8307 12.1715   6
  -4  12  -5 20.0851 12.2658   4
   4  12   6 26.6002 11.9501   4
  -4 -12   6-3.26884 11.7375   6
  -4  12  -6 0.28009 12.6218   4
   4  12   7 4.11288 11.7781   4
  -4 -12   7 14.0876 12.1866   6
  -4  12  -7 19.5856 13.7351   4
  -4 -12   8-0.61344 11.6990   6
   4  12   8 4.14054 11.7137   4
  -4  12  -8 11.0920 12.8524   4
   4  12   9 1.57074 11.5242   4
  -4  12  -9 2.05771 12.9732   4
   4  12  10 12.4168 12.0592   4
  -4  12 -10-3.56806 13.0706   4
   4  12  11 11.4141 11.8829   4
  -4  12 -11-27.8128 13.4479   4
   4  12  12 0.77677 11.2835   4
  -4  12 -12-4.01064 13.3431   4
   4  12  13 8.98668 11.4000   4
  -4  12 -13 4.83048 13.8391   4
  -4  12 -14 2.31826 14.3213   4
   4  13 -10 3.00997 11.9033   4
   4  13  -9 6.48172 11.9241   4
   4  13  -9 0.23225 12.5562   9
  -4 -13  -8 5.17505 13.3115   6
  -4 -13  -8 0.26507 12.6240   3
   4  13  -8 38.2162 12.6242   9
   4  13  -8 6.99618 11.8220   4
   4  13  -7-0.69178 12.2374   9
  -4 -13  -7 7.06860 13.3643   6
   4  13  -7 5.34711 11.8098   4
  -4 -13  -6 4.90271 13.2521   6
   4  13  -6 3.45025 12.1556   4
   4  13  -6 33.4160 12.6289   9
   4  13  -5 2.49568 12.6031   9
  -4 -13  -5 28.3506 13.2286   6
   4  13  -5 11.3819 11.9320   4
  -4 -13  -4 17.2945 12.9524   6
   4  13  -4-1.12356 12.3010   9
   4  13  -4 11.0008 12.0542   4
   4  13  -3-4.28287 11.9125   4
  -4 -13  -3 0.22085 12.6006   6
   4  13  -3-8.33411 11.7358   9
   4  13  -2-1.06206 11.7616   4
  -4 -13  -2 1.30510 12.2845   6
   4  13  -2-1.09945 12.0314   9
   4  13  -1 12.3497 12.2811   4
  -4 -13  -1 0.21601 12.3860   6
   4  13  -1 0.90184 12.3031   9
   4  13   0 0.68178 12.2991   9
   4  13   0-1.07888 11.9661   4
  -4 -13   0 0.21839 12.3702   6
   4  13   1 18.9861 12.3162   4
  -4 -13   1 6.89686 12.7536   6
   4  13   1 0.22101 12.1461   9
   4  13   2 13.7414 12.0467   4
  -4 -13   2 16.6896 12.8120   6
   4  13   2 7.16400 12.4682   9
   4  13   3 6.60401 12.3060   4
  -4 -13   3-23.8684 12.4193   6
  -4  13  -3-2.97532 11.7574   4
   4  13   4 6.90168 12.1129   4
  -4 -13   4-5.70522 12.3967   6
  -4  13  -4 13.5296 12.4611   4
   4  13   5 16.0114 12.3565   4
  -4 -13   5 13.0219 12.4638   6
  -4  13  -5 9.42154 12.9367   4
   4  13   6 3.53501 12.6943   4
  -4 -13   6 0.22123 12.5791   6
  -4  13  -6-2.18133 13.5738   4
   4  13   7 14.5223 12.6876   4
  -4 -13   7 0.22262 12.6409   6
  -4  13  -7 2.17914 13.5574   4
   4  13   8 8.44450 13.0353   4
  -4 -13   8 3.06112 12.3991   6
  -4  13  -8 11.7763 13.3733   4
  -4  13  -9-0.31140 13.1633   4
   4  13   9 17.5391 12.2710   4
  -5   0   0 4.57318 5.34053   4
   5   0   0-1.11063 3.91670   4
   5   0   1-1.01252 4.09545   7
  -5   0   1 5.28951 4.72175   4
   5   0   1 1.29728 2.52530   3
  -5   0  -1 5.96458 5.51928   4
   5   0  -1-1.35684 3.78369   4
   5   0   1-2.42744 3.99769   4
   5   0  -1 3.31019 3.49854   9
   5   0   2 4.96341 4.10478   7
  -5   0   2-2.85311 4.72717   4
  -5   0  -2 7.81769 6.01682   4
   5   0   2 9.71412 2.66359   3
   5   0  -2 1.30408 3.60998   4
   5   0   2 8.84830 4.28768   4
   5   0  -2 3.94564 3.49909   9
  -5   0   3 385.760 53.6534   4
  -5   0  -3 594.823 54.0262   4
   5   0  -3 453.052 53.5619   4
   5   0   3 538.823 53.6841   4
   5   0   3 514.664 53.4226   3
   5   0  -3 419.519 53.5026   9
   5   0   3 497.101 53.6592   7
   5   0   4 917.796 110.562   5
  -5   0   4 967.844 110.636   4
  -5   0  -4 1202.93 110.947   4
   5   0  -4 903.567 110.582   4
   5   0   4 1030.08 110.488   3
   5   0   4 1055.83 110.669   7
   5   0   5 31.9723 4.82174   7
   5   0   5 22.4809 3.96413   5
  -5   0   5 31.7860 4.62768   4
  -5   0  -5 28.3313 7.44482   4
   5   0   6 151.606 16.1389   5
  -5   0  -6 192.571 17.9433   4
   5   0   6 191.853 16.9873   1
   5   0   6 163.964 16.4395   7
  -5   0  -7 195.513 24.2202   4
   5   0   7 230.141 23.4559   1
   5   0   7 190.791 23.0457   7
  -5   0  -8 45.9545 10.3702   4
   5   0   8 57.5435 8.01930   1
   5   0   8 51.6183 7.02282   7
  -5   0  -9-7.17445 8.42267   4
   5   0   9 0.99075 3.47048   7
  -5   0 -10 16.7668 9.19981   4
  -5   0  10 22.8080 8.09242   2
   5   0  10 20.1258 4.40544   7
  -5   0 -11 299.541 30.8515   4
  -5   0  11 303.934 30.2447   2
   5   0  11 236.293 29.2332   7
  -5   0 -12 114.769 16.2500   4
  -5   0  12 115.711 15.4406   2
  -5   0  13 165.772 20.2059   2
  -5   0 -13 154.938 20.9962   4
  -5   0 -14 183.516 27.2779   4
  -5   0  14 246.897 26.4772   2
  -5   0 -15 434.262 53.4842   4
  -5   0  15 486.228 52.9485   2
  -5   0 -16 881.279 99.5724   4
  -5   0  16 886.803 99.3157   2
  -5   0 -17 85.4518 14.6915   4
  -5   0  17 66.7623 13.1133   2
  -5   0 -18 54.8876 14.2635   4
  -5   0  18 83.9668 13.2520   2
  -5   0 -19-4.28200 12.2007   4
  -5   0  19 0.21479 10.6476   2
  -5   0 -20 7.33096 12.4604   4
  -5   0  20 18.2853 10.9261   2
  -5   0 -21-7.34621 13.3229   4
  -5   0  21 8.08964 10.8331   2
  -5   0 -22 70.3135 16.2585   4
  -5   0  22 79.8823 14.4690   2
  -5   0 -23 1.14427 13.2320   4
  -5   0  23 27.1474 11.9675   2
  -5   0 -24-4.08890 13.5544   4
  -5   0  24 5.59068 11.6880   2
  -5   0  25 7.05525 12.2213   2
   5   0 -26 8.62036 13.1058   3
  -5   0  26 2.41108 12.3754   2
   5   0 -27 0.27783 13.4470   3
  -5   0  27 8.22121 12.3883   2
   5   0 -28 0.28090 13.5972   3
  -5   0  28 2.47567 11.9814   2
  -5   0  29 6.71509 12.0395   2
  -5   1  29-0.27597 12.1434   2
  -5   1  28 4.60962 12.1740   2
  -5   1  27 11.4231 11.6622   2
   5  -1  26 12.6019 10.2055   2
  -5   1  26-3.61576 12.0108   2
   5  -1  25 10.1426 10.2988   2
  -5   1  25 24.1824 11.9722   2
  -5  -1 -24-10.1034 13.1251   4
  -5   1  24 5.63740 11.1915   2
  -5  -1 -23 3.68231 12.3720   4
  -5   1  23 31.4215 11.6524   2
  -5  -1 -22 12.6306 13.0266   4
  -5   1  22 39.2067 11.4947   2
  -5  -1 -21 26.0688 13.2869   4
  -5   1  21 38.3686 11.7108   2
  -5  -1 -20-0.25880 12.4146   4
  -5   1  20 11.4715 10.6843   2
  -5  -1 -19 14.2172 12.2910   4
  -5   1  19-3.75432 10.4022   2
  -5  -1 -18 35.9115 12.5824   4
  -5   1  18 31.2747 10.8084   2
  -5  -1 -17 89.6055 16.2572   4
  -5   1  17 104.223 15.1007   2
  -5  -1 -16 61.1592 13.7543   4
  -5   1  16 72.4662 12.3501   2
  -5  -1 -15 83.8485 14.6479   4
  -5   1  15 88.3785 13.4734   2
  -5  -1 -14 36.7721 11.1712   4
  -5   1  14 39.3426 10.0630   2
  -5  -1 -13 159.673 21.8800   4
  -5   1  13 183.759 21.5637   2
  -5  -1 -12 248.484 30.3629   4
  -5   1  12 262.113 30.0878   2
  -5  -1 -11 209.204 23.8510   4
   5  -1  11 188.430 22.1412   7
  -5  -1 -10 444.072 43.3578   4
   5  -1  10 356.835 42.3253   7
  -5  -1  -9 434.707 43.8612   4
   5  -1   9 366.553 42.9319   7
  -5  -1  -8 408.974 45.0145   4
   5  -1   8 469.950 44.4787   1
   5  -1   8 346.883 44.1748   7
  -5  -1  -7 348.063 39.7397   4
  -5  -1  -7 330.427 38.7752   3
   5  -1   7 434.592 39.2918   1
   5   1  -7 340.361 38.7100   4
   5  -1   7 335.354 38.9811   7
  -5  -1  -6 457.487 38.9183   4
  -5  -1  -6 323.025 38.0085   3
   5  -1   6 430.015 38.5290   1
   5   1  -6 326.417 37.9810   4
   5  -1   6 300.503 38.1776   7
   5  -1   5 59.6343 7.37427   7
   5  -1   5 63.1525 6.78234   5
   5  -1   5 14.7952 9.34964   1
   5   1  -5 56.8623 6.77120   4
  -5  -1  -5 56.8101 6.80431   3
  -5  -1  -5 70.5335 9.07808   4
   5   1  -5 30.1820 7.11254   4
   5   1  -5 52.8902 7.65893   9
   5  -1   4 69.0204 8.86733   5
  -5   1   4 88.5988 9.14532   4
  -5  -1  -4 89.1341 10.5487   4
   5   1  -4 56.6508 9.14782   4
   5   1  -4 69.0697 9.54832   9
   5  -1   4 80.2795 9.44276   7
   5  -1   3 224.922 27.3050   5
  -5  -1  -3 258.122 28.0448   4
  -5   1   3 257.861 27.4573   4
   5   1  -3 227.454 27.4333   4
   5  -1   3 281.312 27.4625   4
   5   1  -3 228.346 27.4562   9
   5  -1   3 233.622 27.4916   7
   5  -1   2 1076.47 136.346   5
  -5  -1  -2 1371.39 136.623   4
  -5   1   2 1417.03 136.417   4
   5   1  -2 1134.47 136.371   4
   5  -1   2 1153.53 136.203   3
   5   1  -2 1438.99 136.421   2
   5  -1   2 1504.93 136.420   4
   5   1  -2 1091.26 136.330   9
   5  -1   2 1230.64 136.442   7
   5  -1   1 446.789 59.0967   5
  -5  -1  -1 576.338 59.4181   4
  -5   1   1 595.191 59.2397   4
   5   1  -1 485.980 59.1419   4
   5  -1   1 645.881 59.1405   4
   5  -1   1 453.731 59.2344   7
   5   1   0 725.338 83.5915   6
  -5  -1   0 866.907 83.9164   4
  -5   1   0 850.778 83.8040   4
   5   1   0 748.278 83.7343   4
   5   1   0 828.890 83.6234   3
   5  -1   0 896.364 83.6930   4
   5  -1   0 622.496 83.5189   9
   5  -1   0 765.497 83.8221   7
   5   1   1 444.810 50.8426   6
  -5  -1   1 497.976 51.1779   4
  -5   1  -1 532.255 51.1712   4
   5   1   1 464.857 51.0497   4
   5   1   1 516.418 50.8937   3
   5  -1  -1 525.278 50.9263   4
   5  -1  -1 375.640 50.7556   9
   5  -1  -1 461.302 51.1309   7
   5   1   2 1420.54 163.115   6
  -5  -1   2 1485.56 163.279   4
  -5   1  -2 1533.74 163.340   4
   5   1   2 1427.87 163.285   4
   5   1   2 1517.10 163.141   3
   5  -1  -2 1441.28 163.158   4
   5   1   3 346.328 36.4796   6
  -5  -1   3 318.872 36.7197   4
  -5   1  -3 351.441 37.0473   4
   5   1   3 340.848 36.5099   3
   5  -1  -3 293.232 36.5081   4
   5   1   3 312.010 36.6231   7
   5   1   4 48.5282 6.47471   7
  -5  -1   4 46.4814 6.68682   4
  -5   1  -4 38.3332 8.21073   4
   5  -1  -4 48.1564 5.98723   4
   5   1   4 53.1546 6.02353   3
   5   1   5 42.6653 5.72871   7
  -5   1  -5 42.5499 5.49152   7
  -5   1  -5 47.4793 8.17372   4
   5   1   5 41.1434 5.33509   3
   5   1   6 393.968 46.7419   5
  -5   1  -6 470.433 47.4474   4
   5   1   6 528.450 47.1860   1
   5   1   6 397.875 46.8540   7
  -5   1  -7 355.210 37.8374   4
   5   1   7 427.623 37.3600   1
  -5  -1   7 301.646 36.9705   9
   5   1   7 313.740 36.9932   7
  -5   1  -8 464.017 52.2685   4
   5   1   8 534.869 51.8463   1
  -5  -1   8 481.109 52.0656   2
   5   1   8 422.073 51.5224   7
  -5   1  -9 458.220 47.4410   4
  -5  -1   9 495.089 47.2974   2
   5   1   9 387.671 46.5676   7
  -5   1 -10 393.430 46.3246   4
  -5  -1  10 414.035 46.0030   2
  -5   1 -11 239.134 31.5552   4
  -5  -1  11 292.075 31.2139   2
  -5   1 -12 231.363 29.6505   4
  -5  -1  12 261.894 29.1726   2
  -5   1 -13 241.225 30.6015   4
  -5  -1  13 269.127 30.1675   2
  -5   1 -14 36.5057 10.7310   4
  -5  -1  14 42.5523 9.80841   2
  -5   1 -15 88.3279 17.1003   4
  -5  -1  15 150.950 16.6996   2
  -5   1 -16 45.6271 13.3676   4
  -5  -1  16 95.4336 12.9779   2
  -5   1 -17 95.5230 17.1556   4
  -5  -1  17 136.101 17.0856   2
  -5   1 -18 21.1988 11.4824   4
  -5  -1  18 28.6730 11.5953   2
  -5   1 -19 23.1328 12.0908   4
  -5  -1  19 17.2575 11.4679   2
  -5  -1  20 39.1046 11.7585   2
  -5   1 -20 17.8904 12.8742   4
  -5   1 -21 28.5578 13.9893   4
  -5  -1  21 50.4479 12.4615   2
   5  -1 -22 42.7099 12.2173   3
  -5   1 -22 10.2498 14.2443   4
  -5  -1  22 21.4458 11.9497   2
   5  -1 -23 9.46657 12.4961   3
  -5   1 -23 33.3560 13.9548   4
  -5  -1  23 32.2186 12.5894   2
   5  -1 -24 12.7960 12.4307   3
  -5   1 -24-3.00838 13.9036   4
  -5  -1  24 12.1503 12.9579   2
   5  -1 -25 10.2267 12.5791   3
  -5   1 -25 8.09154 14.1162   4
  -5  -1  25 10.2149 13.1328   2
   5  -1 -26 10.5647 13.3256   3
  -5  -1  26 25.8937 13.6772   2
   5  -1 -27 9.76021 12.8938   3
  -5  -1  27 13.6941 13.6387   2
   5  -1 -28-12.6692 13.7590   3
  -5  -1  28-19.4963 13.1145   2
   5  -2  29 5.79352 10.8808   2
   5  -2  28-2.34096 10.4481   2
  -5   2  28-2.42959 11.7106   2
   5  -2  27-3.00222 10.4884   2
  -5   2  27 9.32753 12.3865   2
   5  -2  26 22.6739 10.5983   2
  -5   2  26 14.5979 11.9867   2
  -5   2  25 8.13263 11.7888   2
  -5   2  24-4.70058 11.6903   2
  -5  -2 -23 4.71254 13.9215   4
  -5   2  23 6.48953 11.5092   2
  -5  -2 -22 18.2849 13.5662   4
  -5   2  22 18.1673 11.3054   2
  -5  -2 -21-1.09344 12.8379   4
  -5   2  21 17.5719 10.9631   2
  -5  -2 -20-0.79381 13.0452   4
  -5   2  20 30.2642 11.0301   2
  -5  -2 -19 55.0989 15.0028   4
  -5   2  19 82.7191 13.2405   2
  -5  -2 -18 17.4846 12.2881   4
  -5   2  18 35.3134 10.8757   2
  -5  -2 -17 49.4831 13.0249   4
  -5   2  17 45.5644 11.4142   2
  -5  -2 -16 108.130 16.5615   4
  -5   2  16 104.230 15.7946   2
  -5  -2 -15 86.0450 16.7715   4
  -5   2  15 130.406 15.9808   2
  -5  -2 -14 93.2118 15.1180   4
  -5   2  14 95.1038 14.2705   2
  -5  -2 -13 133.880 18.5186   4
  -5  -2 -12 60.4099 12.0684   4
  -5  -2 -11 19.7380 9.93476   4
   5  -2  11 21.5175 5.72290   7
  -5  -2 -10 19.1715 9.49438   4
   5  -2  10 20.3704 5.48306   7
  -5  -2  -9 30.6247 9.51609   4
  -5  -2  -9 30.3059 5.80347   3
   5  -2   9 25.4404 5.79684   7
  -5  -2  -8 88.8666 13.2552   4
  -5  -2  -8 79.2621 10.8610   3
   5  -2   8 99.2986 11.6485   1
   5  -2   8 85.1961 10.9211   7
   5  -2   7 15.7846 5.66866   1
   5   2  -7 14.9452 3.68848   4
  -5  -2  -7 0.96472 8.32690   4
  -5  -2  -7 1.41302 4.40965   3
   5  -2   7 21.1107 4.80939   7
   5  -2   6 161.894 17.6586   7
  -5  -2  -6 151.839 18.8279   4
  -5  -2  -6 139.150 17.3771   3
   5  -2   6 194.094 18.0877   1
   5   2  -6 122.471 17.8715   9
   5   2  -6 148.141 17.2546   4
  -5  -2  -5 891.404 59.6686   4
   5   2  -5 274.527 58.8727   4
  -5  -2  -5 655.379 58.9153   3
   5   2  -5 675.081 59.1414   9
   5  -2   5 785.572 59.1519   7
   5   2  -5 644.929 58.8977   4
   5  -2   4 47.5826 5.96436   7
   5   2  -4 34.3041 6.51987   9
   5   2  -4 36.2461 5.17249   4
  -5  -2  -4 58.2881 8.47801   4
   5   2  -4 11.0626 5.47195   4
  -5   2   4 36.0378 5.45589   4
   5  -2   4-0.23492 10.0937   1
   5  -2   3 39.8494 5.96879   7
   5   2  -3 30.6132 6.35753   9
   5  -2   3 34.5492 5.16416   5
   5   2  -3 26.8096 5.39197   4
  -5  -2  -3 39.8716 7.88928   4
   5   2  -3 18.9592 5.26662   4
  -5   2   3 51.5232 5.71986   4
   5   2  -2 180.525 20.2979   6
   5  -2   2 171.312 20.3871   5
  -5  -2  -2 209.503 21.2818   4
   5   2  -2 112.969 20.3938   4
  -5   2   2 213.553 20.5166   4
   5   2  -2 190.400 20.3251   2
   5  -2   2 211.346 20.3649   4
   5   2  -2 133.799 20.5864   9
   5  -2   2 201.338 20.7100   7
   5   2  -1 496.680 47.6639   6
   5  -2   1 372.100 47.7363   5
  -5  -2  -1 492.457 48.1802   4
   5   2  -1 296.409 47.7392   4
   5   2  -1 525.129 47.6862   3
  -5   2   1 532.438 47.8301   4
   5   2  -1 525.671 47.7117   2
   5  -2   1 512.112 47.6820   4
   5  -2   1 343.910 47.4467   3
   5  -2   1 506.394 47.9516   7
   5   2   0 547.911 55.2052   6
   5  -2   0 403.354 55.3590   5
  -5  -2   0 611.221 55.5925   4
   5   2   0 384.902 55.3261   4
   5   2   0 564.565 55.2585   3
  -5   2   0 625.715 55.4776   4
   5  -2   0 541.667 55.2169   4
   5  -2   0 415.960 55.0756   3
   5  -2   0 559.114 55.4916   7
   5   2   1 446.019 49.3075   6
   5  -2  -1 342.234 49.4822   5
  -5  -2   1 477.811 49.6010   4
  -5   2  -1 502.830 49.6548   4
   5   2   1 482.193 49.3427   3
   5  -2  -1 423.274 49.2895   4
   5  -2  -1 423.481 49.6206   7
   5  -2  -2 154.552 20.8875   5
  -5  -2   2 172.850 20.9870   4
  -5   2  -2 194.938 21.2443   4
   5   2   2 207.433 20.6337   3
   5  -2  -2 177.337 20.5231   4
   5  -2  -2 171.112 21.0948   7
   5  -2  -3 21.5640 5.63953   7
  -5   2  -3 24.7435 6.31230   4
   5   2   3 16.8714 3.94401   3
   5  -2  -3 19.5961 3.47382   4
   5   2   4 24.9470 4.21955   7
  -5   2  -4 34.4672 6.92209   4
   5   2   4 20.5435 4.10156   3
  -5   2  -5 822.615 70.5177   4
   5   2   5 764.451 70.0458   3
   5   2   5 792.393 70.0669   7
  -5   2  -6 160.113 19.1089   4
   5   2   6 155.207 17.7823   3
   5   2   6 158.341 18.1142   1
   5   2   6 154.631 17.7332   7
   5   2   7 19.4641 4.57229   1
  -5   2  -7 12.1137 7.82628   4
  -5  -2   7 30.7453 6.69715   2
   5   2   7 12.0461 3.34482   7
   5   2   8 153.211 17.7844   1
  -5  -2   8 162.135 18.4995   2
  -5   2  -8 136.626 19.0094   4
  -5   2  -9 32.2479 8.89404   4
  -5  -2   9 28.8941 7.75163   2
  -5  -2  10 30.0279 7.60234   2
  -5   2 -10 14.1296 8.39757   4
  -5   2 -11 35.1575 9.78489   4
  -5  -2  11 39.7524 8.92476   2
  -5   2 -12 92.2212 15.9216   4
  -5  -2  12 135.507 15.5373   2
  -5  -2  13 196.852 21.3367   2
  -5   2 -13 143.537 21.6496   4
  -5   2 -14 97.7985 17.6741   4
  -5  -2  14 150.586 17.2240   2
  -5   2 -15 76.6021 14.5730   4
  -5  -2  15 98.9220 13.8289   2
   5  -2 -16 91.3884 14.8826   3
  -5   2 -16 111.013 16.2361   4
  -5  -2  16 111.901 15.3393   2
   5  -2 -17 40.4160 10.6076   3
  -5   2 -17 33.0448 12.3536   4
  -5  -2  17 58.8548 11.0398   2
   5  -2 -18 12.6764 10.4687   3
  -5   2 -18 28.9289 11.5869   4
  -5  -2  18 22.5416 10.3678   2
   5  -2 -19 79.1093 13.7242   3
  -5   2 -19 60.1010 14.9498   4
  -5  -2  19 93.6974 13.8604   2
   5  -2 -20 23.6432 10.8973   3
  -5   2 -20 6.49226 12.1170   4
  -5  -2  20 37.0628 11.0835   2
   5  -2 -21-5.22530 11.0223   3
  -5   2 -21 7.68803 12.3178   4
  -5  -2  21 12.8046 10.8847   2
   5  -2 -22 18.8319 11.8347   3
  -5   2 -22 18.8046 12.8613   4
  -5  -2  22 15.3779 11.3348   2
   5  -2 -23 30.3086 11.9339   3
  -5   2 -23 0.56295 12.9242   4
  -5  -2  23-0.24774 11.6745   2
   5  -2 -24 15.5764 12.2381   3
  -5   2 -24 7.38568 13.6553   4
  -5  -2  24-18.1029 11.8101   2
   5  -2 -25 0.74123 12.3515   3
  -5   2 -25-0.63038 14.3717   4
  -5  -2  25 11.7905 12.1296   2
   5  -2 -26 37.1808 13.3468   3
  -5  -2  26 16.9248 12.6329   2
   5  -2 -27 14.7432 12.8052   3
  -5  -2  27-8.48086 12.5899   2
   5  -2 -28-0.26491 12.8826   3
  -5  -2  28 11.5361 12.4038   2
   5  -3  28-0.98202 10.8481   2
   5  -3  27 0.72275 10.5135   2
   5  -3  26 17.6815 11.0970   2
  -5   3  24 19.7870 12.5803   2
  -5  -3 -23 11.9914 13.8650   4
  -5   3  23 3.99391 11.9483   2
  -5  -3 -22 9.90849 14.1151   4
  -5   3  22 31.3231 11.6842   2
  -5  -3 -21 14.4463 14.0456   4
  -5   3  21 43.2794 12.2511   2
  -5  -3 -20 45.3457 14.7628   4
  -5   3  20 64.1575 13.0144   2
  -5  -3 -19 27.9793 13.3296   4
  -5   3  19 40.1007 11.5771   2
  -5   3  18 208.786 25.0994   2
  -5  -3 -18 191.014 26.2038   4
  -5  -3 -17 96.2953 16.7328   4
  -5  -3 -16 75.7153 14.9092   4
  -5  -3 -15 239.940 29.6768   4
  -5  -3 -14 297.042 35.4615   4
  -5  -3 -13 154.130 20.8866   4
  -5  -3 -12 89.0523 16.0547   4
  -5  -3 -12 111.843 13.5197   3
  -5  -3 -11 6.13290 10.1697   4
  -5  -3 -11 23.2620 6.17274   3
   5  -3  11 8.01814 6.13635   7
  -5  -3 -10 147.720 15.7242   3
  -5  -3 -10 133.670 17.8377   4
   5  -3  10 107.887 15.5862   7
  -5  -3  -9 195.934 28.0300   4
  -5  -3  -9 257.824 26.6798   3
   5  -3   9 218.853 26.7569   7
  -5  -3  -8 114.348 13.4678   3
  -5  -3  -8 99.9226 15.6418   4
   5  -3   8 127.321 14.1227   1
   5   3  -8 98.0587 13.0457   4
   5  -3   8 110.803 13.4283   7
   5   3  -7 8.72182 4.45690   4
  -5  -3  -7 10.0797 8.96504   4
  -5  -3  -7 8.82371 5.17074   3
   5   3  -7 5.77380 6.88743   9
   5  -3   7 16.0548 6.38860   1
   5  -3   7 11.2882 5.28471   7
  -5  -3  -6 526.605 53.5156   4
  -5  -3  -6 475.677 52.7861   3
   5  -3   6 550.315 53.0573   1
   5   3  -6 488.276 52.9809   9
   5   3  -6 421.403 52.6421   4
   5  -3   6 448.709 52.8243   7
  -5  -3  -5 224.606 23.9072   6
  -5  -3  -5 256.972 25.2656   4
  -5  -3  -5 244.326 24.0857   3
   5  -3   5 305.219 24.6720   1
   5   3  -5 243.330 23.9908   4
   5   3  -5 269.570 24.5497   9
   5  -3   5 250.246 24.3151   7
  -5  -3  -4 193.448 17.7445   6
  -5  -3  -4 211.980 19.3084   4
  -5  -3  -4 208.375 17.9429   3
   5   3  -4 211.319 18.3928   9
   5  -3   4 225.822 18.1905   7
   5   3  -4 179.489 17.7936   4
   5  -3   3 76.8688 8.36691   7
   5   3  -3 56.6774 8.02659   4
  -5  -3  -3 99.1980 9.78321   4
   5   3  -3 17.4028 7.85872   4
   5   3  -3 67.5910 7.37989   2
  -5   3   3 48.0482 7.87651   4
   5   3  -3 80.7118 9.17189   9
   5   3  -2 34.9066 4.86688   2
   5  -3   2 37.0683 6.12947   7
   5  -3   2 36.9282 5.58415   5
   5   3  -2 36.1164 5.93249   4
  -5  -3  -2 29.4169 7.52915   4
  -5   3   2 20.2395 5.72121   4
   5  -3   1 72.7581 8.71657   7
   5  -3   1 52.6954 8.20158   5
   5   3  -1 55.2628 8.44609   4
  -5  -3  -1 68.2155 9.45278   4
   5   3  -1 79.9965 7.84465   2
  -5   3   1 57.9506 8.43028   4
   5  -3   1 48.5796 7.60517   4
   5   3   0 222.565 25.0840   4
   5  -3   0 170.954 24.9746   5
  -5  -3   0 220.305 25.3135   4
   5   3   0 247.921 24.7084   2
  -5   3   0 216.543 25.0921   4
   5  -3   0 195.383 24.6562   4
   5  -3   0 270.670 25.1775   7
   5  -3  -1 48.2140 6.95972   7
   5  -3  -1 36.5981 5.28216   3
   5  -3  -1 41.4211 6.56862   5
  -5   3  -1 25.6642 6.85730   4
   5   3   1 45.8950 5.56154   2
   5  -3  -1 33.9294 5.32545   4
   5  -3  -2 53.6012 6.91094   7
   5  -3  -2 33.4922 5.11023   3
   5  -3  -2 46.7351 6.44011   5
  -5   3  -2 36.2197 6.92769   4
   5  -3  -2 28.9505 4.95976   4
   5  -3  -3 46.6799 8.54873   7
   5  -3  -3 50.4053 7.52041   3
   5  -3  -3 68.4048 8.41158   5
  -5   3  -3 46.9008 8.78034   4
   5   3   3 66.1250 7.46699   3
   5  -3  -4 208.361 19.1726   5
  -5   3  -4 187.287 19.3913   4
   5  -3  -4 168.071 18.6641   3
   5  -3  -4 225.484 19.2643   7
   5  -3  -5 220.430 20.7776   3
  -5   3  -5 228.976 21.4374   4
   5  -3  -5 236.781 21.1972   5
   5  -3  -5 261.416 21.3824   7
   5  -3  -6 449.096 48.0369   5
  -5  -3   6 448.048 48.0357   2
  -5   3  -6 423.061 48.1763   4
   5   3   6 436.007 47.7440   1
   5  -3  -6 362.147 47.7850   3
   5  -3  -6 469.560 48.0805   7
   5  -3  -7 1.34210 5.77080   5
   5  -3  -7 1.71209 5.45948   3
  -5   3  -7 10.8952 7.27704   4
  -5  -3   7 10.3934 6.53728   2
   5   3   7 11.8256 3.88265   1
  -5  -3   8 140.906 14.1588   2
  -5   3  -8 126.865 14.7949   4
  -5   3  -9 208.066 22.2766   4
  -5  -3   9 197.476 21.8612   2
   5  -3  -9 160.153 21.4836   3
   5  -3 -10 111.271 16.6582   3
  -5  -3  10 167.496 17.1631   2
  -5   3 -10 139.547 17.6771   4
   5  -3 -11 21.4264 7.78791   3
  -5   3 -11 34.8364 9.77851   4
  -5  -3  11 36.6805 8.81670   2
   5  -3 -12 101.405 16.2599   3
  -5   3 -12 133.609 17.1820   4
  -5  -3  12 163.734 17.1682   2
   5  -3 -13 110.085 17.1140   3
  -5   3 -13 139.823 18.4062   4
  -5  -3  13 160.859 17.6581   2
  -5   3 -14 334.082 37.4506   4
  -5  -3  14 388.417 37.0685   2
   5  -3 -14 256.828 36.7461   3
   5  -3 -15 153.532 21.7863   3
  -5  -3  15 205.641 22.0259   2
  -5   3 -15 170.413 22.7588   4
   5  -3 -16 66.3900 12.4077   3
  -5   3 -16 54.1572 13.7447   4
  -5  -3  16 87.1045 12.5090   2
   5  -3 -17 89.2777 14.3923   3
  -5   3 -17 75.2928 15.4817   4
  -5  -3  17 106.083 14.3965   2
  -5  -3  18 173.067 20.1718   2
   5  -3 -18 146.599 20.2319   3
  -5   3 -18 141.053 21.0340   4
  -5  -3  19 43.8177 10.8268   2
   5  -3 -19 12.1413 10.7831   3
  -5   3 -19 20.8106 12.8277   4
  -5  -3  20 83.5542 13.1613   2
   5  -3 -20 61.5388 13.2197   3
  -5   3 -20 47.6605 15.3161   4
  -5  -3  21 32.8254 11.5618   2
   5  -3 -21 44.8936 11.6107   3
  -5   3 -21 15.7740 13.8271   4
  -5  -3  22 20.7449 11.1584   2
   5  -3 -22 15.8640 11.2762   3
  -5   3 -22-4.83903 13.3577   4
  -5  -3  23 12.1684 11.1667   2
   5  -3 -23 19.7404 11.3791   3
  -5   3 -23-2.34312 13.5528   4
   5  -3 -24-4.79790 11.7466   3
  -5   3 -24 1.46918 13.1436   4
  -5  -3  24 9.51813 11.6637   2
   5  -3 -25 6.34245 12.2371   3
  -5   3 -25 20.9726 13.9022   4
  -5  -3  25 1.31026 11.6186   2
   5  -3 -26 8.24478 12.7749   3
  -5  -3  26 8.06044 12.1681   2
   5  -3 -27 0.26658 13.0767   3
  -5  -3  27 4.39140 12.1764   2
   5  -4  27-0.50109 10.7397   2
   5  -4  26-1.47307 11.2814   2
  -5  -4 -22 10.3522 13.9597   4
  -5  -4 -21 31.1538 14.2728   4
  -5  -4 -20 6.73894 13.2061   4
  -5  -4 -19 1.90410 13.4039   4
  -5  -4 -18 10.8408 12.9681   4
  -5  -4 -17 20.0382 13.0396   4
  -5  -4 -16 0.99835 12.5284   4
  -5  -4 -15 23.6221 12.0422   4
  -5  -4 -14 40.6733 12.9201   4
  -5  -4 -13 9.17719 11.5573   4
  -5  -4 -13 6.19927 7.20995   3
  -5  -4 -12 48.7107 13.4738   4
  -5  -4 -12 72.8858 10.4056   3
  -5  -4 -11 246.088 29.4762   4
  -5  -4 -11 270.759 28.3101   3
   5  -4  11 218.074 28.0838   7
  -5  -4 -10 99.0756 14.1252   4
  -5  -4 -10 90.1021 11.7691   3
   5  -4  10 71.2706 11.3892   7
  -5  -4  -9 476.666 51.7124   4
  -5  -4  -9 503.961 50.9802   3
   5  -4   9 395.863 50.8663   7
  -5  -4  -8 254.902 27.5350   4
  -5  -4  -8 254.047 26.3748   3
   5   4  -8 249.806 26.8273   9
   5   4  -8 194.369 26.1381   4
   5  -4   8 218.632 26.3412   7
   5   4  -7 11.2292 5.48785   4
  -5  -4  -7 22.3685 9.25965   4
  -5  -4  -7 6.34554 6.03886   3
   5   4  -7 15.1697 7.76938   9
   5  -4   7 8.22582 6.99228   1
   5  -4   7 5.98844 5.67543   7
   5   4  -6 53.4063 8.82431   4
  -5  -4  -6 77.9421 11.4050   4
  -5  -4  -6 67.9996 9.42411   3
   5   4  -6 58.6442 10.2711   9
   5  -4   6 61.7461 9.20977   7
   5  -4   6 67.9225 9.60094   1
  -5  -4  -5 226.387 28.1075   6
  -5  -4  -5 273.307 29.1103   4
  -5  -4  -5 262.579 28.3625   3
   5  -4   5 282.475 28.7726   1
   5   4  -5 252.126 28.6905   9
   5   4  -5 230.305 28.2084   4
   5  -4   5 246.925 28.4102   7
  -5  -4  -4 89.1515 12.6877   6
   5   4  -4 103.967 12.8944   4
  -5  -4  -4 113.421 14.1847   4
  -5  -4  -4 105.859 13.0124   3
   5  -4   4 116.977 13.5821   1
   5  -4   4 109.898 13.2314   7
   5   4  -4 104.616 13.8102   9
  -5  -4  -3 36.1470 6.67446   6
   5   4  -3 50.9950 6.92114   4
  -5  -4  -3 38.9840 8.57482   4
  -5   4   3 38.8716 6.64304   4
   5   4  -3 42.8139 8.35020   9
   5  -4   3 48.1523 7.33051   7
  -5  -4  -2 31.8215 6.44313   6
   5   4  -2 38.9770 6.57045   4
  -5   4   2 30.7432 6.35840   4
   5  -4   2 31.2405 6.65674   7
   5  -4   1 95.9865 10.6988   7
  -5  -4  -1 73.4966 10.6140   6
   5   4  -1 105.567 10.7219   4
  -5   4   1 72.5249 10.6994   4
   5  -4   0 9.47315 5.59969   7
   5  -4   0 14.9747 5.01750   5
   5   4   0 2.95253 5.32244   4
  -5   4   0 8.57980 5.66765   4
   5  -4  -1 94.9026 10.0154   7
   5  -4  -1 63.6494 9.56133   5
   5   4   1 71.7363 9.99934   4
  -5   4  -1 58.2108 10.0177   4
   5  -4  -2 47.1278 7.15116   7
   5  -4  -2 32.3282 6.80522   5
   5   4   2 31.3993 7.29928   4
  -5   4  -2 38.0945 7.47574   4
   5  -4  -3 35.1825 6.96808   7
   5  -4  -3 33.1465 5.48336   3
   5  -4  -3 36.1251 6.62362   5
   5   4   3 31.7029 7.43141   4
  -5   4  -3 32.5061 7.44065   4
   5  -4  -4 135.485 16.0761   5
   5  -4  -4 117.389 15.4914   3
  -5   4  -4 124.758 16.5340   4
   5  -4  -4 168.159 16.2108   7
   5  -4  -5 193.374 22.5023   5
  -5   4  -5 203.231 22.9209   4
   5  -4  -5 162.122 22.0480   3
   5  -4  -5 243.163 22.6785   7
   5  -4  -6 56.3681 9.08677   7
   5  -4  -6 50.9953 8.22275   3
   5  -4  -6 63.5824 8.93734   5
  -5  -4   6 67.5751 9.17315   2
  -5   4  -6 54.5811 9.94046   4
   5  -4  -7 8.32976 6.20529   7
   5  -4  -7 10.1546 5.46345   3
   5  -4  -7 3.26627 6.36984   5
  -5   4  -7 13.7427 7.76087   4
  -5  -4   7 17.7604 6.43630   2
   5  -4  -8 287.570 30.7363   5
  -5  -4   8 324.561 30.7405   2
  -5   4  -8 252.897 31.0214   4
   5  -4  -8 198.121 30.3453   3
   5  -4  -8 309.399 30.7524   7
   5  -4  -9 343.656 41.1032   5
  -5   4  -9 333.924 41.3671   4
  -5  -4   9 447.983 41.1889   2
   5  -4  -9 293.871 40.8915   3
   5  -4  -9 411.139 41.1094   7
   5  -4 -10 85.9490 12.0562   3
   5  -4 -10 63.4540 12.2439   5
  -5   4 -10 81.3852 13.2637   4
   5  -4 -11 213.241 28.2935   5
  -5   4 -11 246.802 28.7338   4
  -5  -4  11 305.894 28.7349   2
   5  -4 -11 223.741 28.3553   3
   5  -4 -12 49.2496 9.66192   3
   5  -4 -12 37.4514 9.12898   5
  -5  -4  12 69.1814 10.2961   2
  -5   4 -12 56.2517 11.2309   4
   5  -4 -13 3.38494 7.88817   3
   5  -4 -13-5.30899 6.90865   5
  -5   4 -13-1.60559 9.96188   4
  -5  -4  13 14.0394 8.35714   2
   5  -4 -14 21.8070 9.11786   3
   5  -4 -14 22.1845 8.14805   5
  -5   4 -14 40.2371 10.8275   4
  -5  -4  14 47.6780 9.37446   2
   5  -4 -15 52.5350 11.3887   3
   5  -4 -15 38.3663 10.3649   5
  -5   4 -15 76.2383 13.5682   4
  -5  -4  16 7.17680 9.00289   2
   5  -4 -16 4.15831 9.11661   3
   5  -4 -16-16.2092 7.88322   5
  -5   4 -16-4.70419 10.5726   4
  -5  -4  17 21.2538 9.41997   2
   5  -4 -17 20.5053 9.84848   3
   5  -4 -17 3.40427 7.90403   5
  -5   4 -17 22.8521 12.3669   4
  -5  -4  18 1.79942 9.42219   2
   5  -4 -18-0.56187 9.96852   3
   5  -4 -18-13.3832 7.90563   5
  -5   4 -18 12.7658 12.1861   4
  -5  -4  19-6.45892 9.91367   2
   5  -4 -19 5.69648 10.2349   3
   5  -4 -19-7.95342 7.89945   5
  -5   4 -19-3.24464 12.7608   4
  -5  -4  20-14.5039 10.1608   2
   5  -4 -20-10.7540 10.1241   3
   5  -4 -20 1.83185 8.22562   5
  -5   4 -20 16.8160 12.5434   4
  -5  -4  21 49.5849 11.2751   2
   5  -4 -21 17.0616 10.9616   3
  -5   4 -21 27.1252 13.2816   4
  -5  -4  22 30.6362 11.2392   2
   5  -4 -22 17.0671 10.7835   3
  -5   4 -22 26.0494 13.6314   4
  -5  -4  23 48.1280 12.1002   2
   5  -4 -23 55.8422 12.0808   3
  -5   4 -23 15.2650 14.9839   4
  -5  -4  24 10.3516 11.4150   2
   5  -4 -24 10.6847 10.9591   3
  -5   4 -24 0.64102 14.6592   4
  -5  -4  25 1.04523 11.5407   2
   5  -4 -25 24.6445 11.7805   3
  -5   4 -25 2.57735 14.5796   4
  -5  -4  26-5.88954 11.8542   2
   5  -4 -26 3.30191 11.4460   3
  -5   4 -26 2.30419 14.6720   4
   5  -4 -27 0.24224 11.6110   3
  -5  -4  27-8.20299 12.0228   2
   5  -5  26-7.62456 11.2558   2
  -5  -5 -21-19.3779 13.0978   4
  -5  -5 -20 10.2852 12.9373   4
  -5  -5 -19 29.4666 13.2381   4
  -5  -5 -18 18.3960 12.8301   4
  -5  -5 -17 68.4063 14.4063   4
  -5  -5 -16 211.382 26.8191   4
  -5  -5 -15 234.689 28.8016   4
  -5  -5 -15 229.797 27.6697   3
  -5  -5 -14 152.118 19.7506   4
  -5  -5 -14 133.300 18.0138   3
  -5  -5 -13 62.4568 13.4887   4
  -5  -5 -13 67.2862 11.2793   3
  -5  -5 -12 6.37279 10.4245   4
  -5  -5 -12 18.7677 8.26198   3
  -5  -5 -11 83.5688 13.4304   4
  -5  -5 -11 64.2583 11.4166   3
  -5  -5 -10 127.911 16.2086   4
  -5  -5 -10 116.501 14.8703   3
   5  -5  10 94.6673 14.3141   7
   5   5  -9 45.3721 8.67201   4
  -5  -5  -9 59.9171 11.4421   4
  -5  -5  -9 66.8579 9.67958   3
   5   5  -9 61.6499 10.9053   9
   5  -5   9 41.0487 8.91468   7
   5   5  -8 45.5600 8.34202   4
  -5  -5  -8 45.2563 10.6625   4
  -5  -5  -8 44.3851 8.75081   3
   5   5  -8 57.4975 10.1950   9
   5  -5   8 37.5082 8.30229   7
   5   5  -7-3.23547 6.03189   4
  -5  -5  -7 10.1733 9.23664   4
  -5  -5  -7 14.0599 7.04366   3
   5   5  -7-2.43717 8.57951   9
   5  -5   7-0.15114 6.48513   7
   5   5  -6 4.24269 6.26692   4
  -5  -5  -6 8.26221 5.60519   6
  -5  -5  -6 11.8587 7.02303   3
   5   5  -6 7.38283 8.27940   9
   5  -5   6 5.14471 6.63304   1
   5  -5   6-5.85000 6.08180   7
   5  -5   5 78.7572 11.2788   1
   5   5  -5 82.7050 10.9273   4
  -5  -5  -5 73.9748 10.5831   6
  -5  -5  -5 84.8108 11.0840   3
   5   5  -5 65.4436 11.8833   9
   5  -5   5 84.6807 10.9970   7
  -5  -5  -4 93.3096 11.7154   6
   5   5  -4 86.2631 11.9302   4
   5  -5   4 106.696 12.6466   1
  -5  -5  -4 80.2763 12.1661   3
   5   5  -4 105.254 13.0974   9
   5  -5   4 87.8300 12.1763   7
  -5  -5  -3 69.9749 10.4384   6
   5   5  -3 91.1778 10.7137   4
   5  -5   3 77.6762 11.0354   1
   5   5  -3 71.1451 11.7873   9
   5  -5   3 74.6160 10.8660   7
  -5  -5  -2 109.891 11.7170   6
  -5   5   2 67.4066 11.6347   4
   5   5  -2 124.915 12.0398   4
   5  -5   2 106.340 12.0061   7
  -5  -5  -1 104.681 12.3252   6
   5   5  -1 96.0427 12.4329   4
  -5   5   1 80.3409 12.3736   4
   5  -5   1 98.7967 12.4190   7
  -5  -5   0 385.371 39.4883   6
  -5   5   0 300.525 39.5208   4
   5  -5   0 407.700 39.5250   7
   5   5   0 448.681 39.6126   4
   5  -5  -1 100.510 12.3673   7
  -5  -5   1 85.6308 12.6007   6
  -5   5  -1 75.5226 12.9042   4
   5   5   1 126.866 12.9079   4
   5  -5  -2 116.550 13.7373   7
   5   5   2 114.238 13.8960   4
  -5   5  -2 91.7686 14.1980   4
   5  -5  -3 86.9959 9.72762   7
   5  -5  -3 54.6269 9.56963   5
   5   5   3 60.5821 10.0519   4
  -5   5  -3 57.8999 10.3166   4
   5  -5  -4 117.835 12.1410   7
   5  -5  -4 73.2845 12.0044   5
   5   5   4 95.6714 12.5099   4
  -5   5  -4 75.9348 12.7690   4
   5  -5  -5 67.7400 8.89684   7
   5  -5  -5 41.1607 8.46891   5
   5   5   5 67.6006 9.69264   4
  -5   5  -5 37.2894 9.71616   4
   5  -5  -5 54.2265 7.95451   3
   5  -5  -6 21.7110 6.18097   3
   5  -5  -6 23.8497 6.90276   7
   5  -5  -6 28.8299 6.75255   5
   5   5   6 17.8210 7.94704   4
  -5  -5   6 26.7039 6.53109   2
  -5   5  -6 19.5779 8.42942   4
   5  -5  -7 0.59858 6.39497   7
   5  -5  -7-4.11721 5.94085   3
   5  -5  -7 2.06412 6.15984   5
   5   5   7 2.87028 7.62126   4
  -5   5  -7 12.2886 8.47591   4
  -5  -5   7 9.67286 6.14153   2
   5  -5  -8 38.3551 8.04963   7
   5  -5  -8 37.6752 7.79311   3
   5  -5  -8 35.4653 7.90650   5
  -5   5  -8 44.4035 9.85188   4
  -5  -5   8 41.3557 7.95824   2
   5  -5  -9 71.4858 10.3153   7
   5  -5  -9 59.6273 9.81788   3
   5  -5  -9 53.9700 9.98085   5
  -5   5  -9 47.2225 11.6886   4
  -5  -5   9 93.0482 10.4065   2
   5  -5 -10 98.6339 13.7568   7
   5  -5 -10 101.010 13.6129   3
   5  -5 -10 88.1487 13.8018   5
  -5   5 -10 83.5440 15.2723   4
   5  -5 -11 33.4770 8.38690   7
   5  -5 -11 36.5480 8.77267   3
   5  -5 -11 40.9329 8.57631   5
  -5   5 -11 44.8937 10.3755   4
  -5  -5  11 58.6427 9.30630   2
   5  -5 -12 3.29667 7.03064   7
   5  -5 -12-0.40236 7.43098   3
   5  -5 -12-4.25851 7.02675   5
  -5   5 -12 11.9825 10.0091   4
  -5  -5  12 23.1322 8.17126   2
   5  -5 -13 67.8163 11.2438   7
   5  -5 -13 63.3841 11.7570   3
   5  -5 -13 67.9173 11.5202   5
  -5   5 -13 87.8378 13.2925   4
  -5  -5  13 104.775 12.1484   2
   5  -5 -14 95.3161 12.8129   7
   5  -5 -14 86.2422 13.2776   3
   5  -5 -14 81.9643 13.0082   5
  -5   5 -14 54.8719 14.7026   4
   5  -5 -15 171.829 23.1705   5
  -5  -5  15 223.661 23.3849   2
  -5   5 -15 196.573 24.4009   4
   5  -5 -15 179.625 23.2646   3
   5  -5 -16 120.829 18.3426   3
   5  -5 -16 124.945 17.9893   5
  -5  -5  16 174.151 18.4618   2
  -5   5 -16 149.248 19.7761   4
   5  -5 -17 69.6242 11.5275   3
   5  -5 -17 39.1310 10.4581   5
  -5   5 -17 41.1115 14.0557   4
  -5  -5  17 81.7282 11.4785   2
  -5  -5  18 8.00021 9.41096   2
   5  -5 -18 2.86348 9.66310   3
   5  -5 -18 16.8577 8.16835   5
  -5   5 -18 5.07505 12.5146   4
  -5  -5  19 13.3363 9.54856   2
   5  -5 -19 7.29319 9.95189   3
   5  -5 -19 9.01193 8.31989   5
  -5   5 -19 17.3202 12.2901   4
  -5  -5  20 34.6695 10.2141   2
   5  -5 -20 7.79991 10.2664   3
  -5   5 -20 4.05247 13.6802   4
  -5  -5  21-12.5792 10.0572   2
  -5   5 -21 7.85595 13.9748   4
  -5  -5  22-1.16121 10.5941   2
   5  -5 -22 14.6771 10.9499   3
  -5   5 -22 2.74787 13.9457   4
  -5  -5  23-3.11337 11.0669   2
   5  -5 -23 25.1740 11.1761   3
  -5   5 -23 0.30605 13.9621   4
  -5  -5  24-4.50762 10.9359   2
   5  -5 -24 4.75245 11.1855   3
  -5   5 -24 7.87621 13.9502   4
  -5  -5  25 5.14014 11.4758   2
   5  -5 -25 0.23402 11.4381   3
  -5   5 -25 8.81112 15.0510   4
  -5  -5  26 9.73386 11.4938   2
   5  -5 -26 1.64089 11.1766   3
  -5   5 -26-4.53473 14.9976   4
  -5  -6 -21 36.1913 13.0748   4
  -5  -6 -20 14.2083 12.5992   4
  -5  -6 -19 26.5549 12.4174   4
  -5  -6 -18 21.4578 12.2488   4
  -5  -6 -17 5.16304 12.2371   4
  -5  -6 -17 43.1915 10.7118   3
  -5  -6 -16 27.8887 11.8836   4
  -5  -6 -16 24.4975 10.4725   3
  -5  -6 -15 7.75914 11.3145   4
  -5  -6 -15 5.80983 9.79233   3
  -5  -6 -14 37.9143 11.7456   4
  -5  -6 -14 30.9764 10.4873   3
  -5  -6 -13 23.1404 11.8047   4
  -5  -6 -13 44.4734 10.3891   3
  -5  -6 -12 221.376 26.6737   3
  -5  -6 -11 113.286 15.9082   3
  -5  -6 -10 22.8043 9.34443   3
   5   6  -9 110.126 15.6286   4
  -5  -6  -9 143.326 16.2713   3
   5   6  -9 141.635 16.9953   9
   5  -6   9 106.237 15.7753   7
  -5  -6  -8 236.195 24.0770   3
   5   6  -8 221.219 24.7605   9
   5   6  -8 191.564 23.8919   4
   5  -6   8 168.857 23.8013   7
  -5  -6  -7 177.441 19.8688   3
   5   6  -7 159.213 19.5689   4
   5   6  -7 163.088 20.4094   9
   5  -6   7 143.745 19.4388   7
  -5  -6  -6 363.002 41.7911   6
  -5  -6  -6 364.067 42.0153   3
   5   6  -6 401.481 42.3410   9
   5   6  -6 379.563 41.9342   4
   5  -6   6 345.130 41.9291   7
  -5  -6  -5 159.007 20.4654   6
   5  -6   5 182.132 20.8028   1
  -5  -6  -5 151.126 20.9491   3
   5   6  -5 189.632 21.3522   9
   5   6  -5 188.953 20.8268   4
   5  -6   5 169.785 20.6103   7
   5  -6   4 62.5361 9.45311   1
   5   6  -4 72.6716 9.74896   4
  -5  -6  -4 55.6507 9.23267   6
  -5  -6  -4 50.1434 9.92428   3
   5   6  -4 67.1829 11.1184   9
   5  -6   4 43.7646 9.33282   7
  -5  -6  -3 83.1717 11.9492   6
   5   6  -3 98.5156 12.3303   4
   5  -6   3 98.2901 12.4579   1
   5   6  -3 84.2116 13.4006   9
   5  -6   3 82.3498 12.1095   7
  -5  -6  -2 36.1410 7.55213   6
   5   6  -2 36.6634 7.61727   4
   5  -6   2 25.2057 7.65640   1
   5  -6   2 21.2161 7.59460   7
   5  -6   1 143.742 15.6698   7
   5   6  -1 170.136 15.8355   4
  -5   6   1 100.560 15.4376   4
  -5  -6  -1 144.927 15.5757   6
  -5  -6   0 69.9523 10.4585   6
   5   6   0 89.2404 10.8079   4
  -5   6   0 49.3090 10.1642   4
   5  -6   0 67.9860 10.2149   7
  -5  -6   1 178.093 18.4128   6
  -5   6  -1 109.233 18.3296   4
   5  -6  -1 136.754 18.3356   7
   5   6   1 184.857 18.5517   4
  -5  -6   2 30.0734 7.57998   6
   5   6   2 24.0225 7.86782   4
  -5   6  -2 12.5260 8.01595   4
   5  -6  -2 17.9162 6.76177   7
   5  -6  -3 103.538 12.9826   7
  -5  -6   3 82.9728 13.5554   6
   5   6   3 105.490 13.6126   4
  -5   6  -3 108.128 13.9515   4
   5  -6  -4 66.0991 9.37090   7
   5   6   4 66.5988 10.0629   4
  -5   6  -4 37.2240 10.6489   4
   5   6   5 182.612 20.6104   4
  -5   6  -5 144.073 21.1522   4
   5  -6  -5 174.743 20.1962   7
   5   6   6 368.864 38.6608   4
   5  -6  -6 336.417 38.4119   5
  -5   6  -6 295.359 38.8507   4
   5  -6  -6 340.786 38.4377   7
   5   6   7 169.463 19.6653   4
   5  -6  -7 153.189 19.1593   5
  -5   6  -7 179.299 20.3298   4
   5  -6  -7 144.733 19.1971   7
   5   6   8 184.114 19.8857   4
   5  -6  -8 117.841 19.2103   5
  -5   6  -8 181.137 20.4147   4
   5  -6  -8 143.775 19.2310   3
   5  -6  -8 193.659 19.4130   7
   5   6   9 154.423 18.1657   4
   5  -6  -9 140.872 17.3630   5
  -5   6  -9 131.268 18.9208   4
   5  -6  -9 156.651 17.4048   7
   5  -6  -9 122.971 17.4231   3
   5  -6 -10 25.1647 7.90918   3
   5  -6 -10 26.9748 7.44404   7
   5  -6 -10 31.4773 7.59216   5
   5   6  10 22.3061 9.24782   4
  -5   6 -10 33.6331 10.3322   4
   5  -6 -11 75.5286 11.2482   3
   5  -6 -11 78.2706 11.1084   7
   5  -6 -11 67.2380 11.0152   5
   5   6  11 79.9183 12.3753   4
  -5   6 -11 67.1595 13.5330   4
   5   6  12 226.777 24.9935   4
   5  -6 -12 195.012 24.1455   5
  -5   6 -12 224.719 25.5924   4
   5  -6 -12 172.022 24.2569   3
   5  -6 -12 220.135 24.1649   7
   5  -6 -13 20.8429 8.98577   3
   5  -6 -13 33.2064 8.25528   5
   5   6  13 29.9712 9.93124   4
  -5   6 -13 41.6024 11.5819   4
  -5  -6  13 49.3013 9.28241   2
  -5  -6  14 26.7819 9.08952   2
   5  -6 -14 16.6882 9.04342   3
   5  -6 -14 34.6382 7.95220   5
   5   6  14 23.6709 9.89628   4
  -5   6 -14 25.9914 11.5734   4
  -5  -6  15 0.71557 8.78006   2
   5  -6 -15 11.3465 9.08549   3
   5  -6 -15 15.4498 7.66170   5
  -5   6 -15 1.66874 11.5983   4
  -5  -6  16 14.0656 8.79303   2
   5  -6 -16 6.52824 9.10824   3
   5  -6 -16 6.73085 7.73300   5
  -5   6 -16 0.24585 11.4758   4
  -5  -6  17 6.59913 9.12165   2
   5  -6 -17 9.31938 9.64539   3
   5  -6 -17 13.6703 7.75595   5
  -5   6 -17 14.3064 11.9992   4
  -5  -6  18 3.85508 9.33059   2
   5  -6 -18 1.86855 9.87357   3
   5  -6 -18 5.47377 7.64904   5
  -5   6 -18 3.46106 12.6708   4
  -5  -6  19 22.2150 10.0737   2
   5  -6 -19 19.6337 10.4859   3
  -5   6 -19 29.0270 13.3516   4
  -5  -6  20-7.91850 9.98917   2
   5  -6 -20 1.41381 10.3273   3
  -5   6 -20 0.29987 13.5496   4
  -5  -6  21 14.3651 10.5161   2
   5  -6 -21 19.4852 10.8194   3
  -5   6 -21 13.4313 13.6975   4
  -5  -6  22-7.30699 10.6501   2
   5  -6 -22-2.82372 10.9777   3
  -5   6 -22 3.54140 14.6012   4
  -5  -6  23-6.56347 10.4920   2
   5  -6 -23 18.1922 11.2738   3
  -5   6 -23 3.67618 14.8374   4
  -5  -6  24-0.74987 11.1165   2
   5  -6 -24-11.3604 11.4995   3
  -5   6 -24 4.03161 14.9051   4
  -5  -6  25-4.43030 11.2674   2
   5  -6 -25 0.23717 11.3740   3
  -5   6 -25 0.33480 14.4670   4
  -5  -6  26-5.06070 11.0103   2
  -5   6 -26 3.76882 14.8073   4
  -5  -7 -18 8.55491 10.9183   3
  -5  -7 -17-10.3221 11.2075   3
  -5  -7 -16 30.3493 11.4199   3
  -5  -7 -15 2.23649 10.7759   3
  -5  -7 -14 11.9650 10.7501   3
  -5  -7 -13 41.8881 11.6281   3
  -5  -7 -12 55.5024 12.2653   3
  -5  -7 -11 111.704 16.1053   3
   5   7 -10 51.5804 10.5696   4
   5   7 -10 61.0744 12.3261   9
  -5  -7 -10 66.2980 11.6510   3
   5   7  -9 88.0629 14.0183   4
  -5  -7  -9 110.369 14.6932   3
   5   7  -9 108.469 15.4490   9
   5   7  -8 90.6517 12.8958   4
  -5  -7  -8 96.8438 13.7864   3
   5   7  -8 96.7526 14.4755   9
   5  -7   8 70.6992 12.8027   7
  -5  -7  -7 188.477 21.6307   3
   5   7  -7 180.709 21.9130   9
   5   7  -7 185.609 21.2289   4
   5  -7   7 143.558 20.8442   7
   5   7  -6 99.6846 14.3248   4
  -5  -7  -6 98.5360 13.9426   6
  -5  -7  -6 113.138 14.4626   3
   5   7  -6 108.254 15.2461   9
   5  -7   6 93.2458 13.8821   7
   5   7  -5 5.75397 7.95369   4
  -5  -7  -5 18.0556 7.54172   6
  -5  -7  -5-7.47126 8.16550   3
   5   7  -5 2.61411 9.45589   9
   5  -7   5 1.79712 7.49913   7
   5   7  -4 97.9491 12.6081   4
  -5  -7  -4 82.6934 12.2005   6
  -5  -7  -4 89.5295 12.6958   3
   5  -7   4 78.0511 12.1191   1
   5   7  -4 79.8126 13.6282   9
   5  -7   4 78.4983 12.1035   7
   5   7  -3 40.4120 9.51128   4
  -5  -7  -3 47.8472 9.04793   6
   5   7  -3 52.9651 10.9459   9
   5  -7   3 44.1923 8.93079   7
   5  -7   3 51.9088 8.70432   1
  -5  -7  -2 60.4222 10.9640   6
   5   7  -2 68.7334 11.3074   4
   5  -7   2 80.2799 10.8248   1
   5  -7   2 74.6475 10.7674   7
  -5  -7  -1 148.512 17.8706   6
  -5   7   1 108.409 17.9026   4
   5  -7   1 156.057 17.6052   1
   5   7  -1 170.217 17.8426   4
   5  -7   1 126.363 17.6696   7
  -5  -7   0 205.432 23.0728   6
  -5   7   0 151.322 23.0619   4
   5  -7   0 207.818 23.2654   1
   5   7   0 196.498 23.0991   4
   5  -7   0 202.728 22.9452   7
  -5  -7   1 165.699 19.0316   6
  -5   7  -1 126.215 19.0680   4
   5  -7  -1 111.133 20.3841   1
   5  -7  -1 164.357 18.8309   7
   5   7   1 179.653 19.1018   4
  -5  -7   2 68.1224 10.7215   6
   5   7   2 76.0865 10.6721   4
  -5   7  -2 50.0974 10.7642   4
   5  -7  -2 52.2854 9.89986   7
  -5  -7   3 75.1139 12.0266   6
   5   7   3 92.9864 11.9828   4
  -5   7  -3 59.2621 12.0072   4
   5  -7  -3 106.197 11.1382   7
  -5  -7   4 83.2674 12.8905   6
   5   7   4 90.7306 13.0784   4
  -5   7  -4 69.1719 13.2111   4
   5  -7  -4 100.540 12.0326   7
   5  -7  -5 7.44580 6.60085   7
   5   7   5 28.9549 8.51443   4
  -5   7  -5 5.89577 9.31613   4
   5  -7  -6 89.3508 12.4108   7
   5   7   6 111.981 13.7468   4
  -5   7  -6 86.7937 14.4030   4
  -5   7  -7 164.437 24.2297   4
   5  -7  -7 206.161 23.0142   7
   5   7   7 201.225 23.6580   4
   5  -7  -8 57.2003 9.39595   7
   5   7   8 63.9987 10.8641   4
  -5   7  -8 55.4648 12.1733   4
   5  -7  -9 96.2179 11.6867   7
   5   7   9 83.2921 13.0080   4
  -5   7  -9 52.1911 14.1230   4
   5  -7 -10 51.1342 9.52694   7
  -5   7 -10 40.5677 12.5872   4
   5  -7 -11 76.5018 11.8827   5
   5   7  11 93.1922 13.2577   4
  -5   7 -11 73.9263 14.5389   4
   5  -7 -11 88.2405 13.2011   3
   5  -7 -12 54.6262 8.76153   5
   5   7  12 13.4628 9.92598   4
  -5   7 -12 42.0704 12.4963   4
   5  -7 -12 43.1564 10.1380   3
   5  -7 -13 32.4484 8.69215   5
   5   7  13 34.8277 10.5913   4
  -5   7 -13 50.2211 12.4071   4
   5  -7 -13 45.9356 10.1045   3
   5  -7 -14-1.67348 8.86572   3
   5  -7 -14 13.5243 7.32318   5
   5   7  14 13.7441 9.52545   4
  -5   7 -14-9.64984 11.5203   4
   5  -7 -15 6.21762 7.41680   5
   5   7  15-4.46721 9.63236   4
  -5   7 -15 0.26013 12.3478   4
   5  -7 -15 12.0319 9.47461   3
   5  -7 -16 32.1977 9.59728   3
   5  -7 -16 12.7559 7.52120   5
   5   7  16-8.36054 10.0037   4
  -5   7 -16 11.2687 12.3614   4
   5  -7 -17 0.91914 9.59905   3
   5  -7 -17-0.93479 7.24661   5
   5   7  17-1.70245 9.80300   4
  -5   7 -17 3.51383 12.4483   4
   5  -7 -18 18.3028 10.0036   3
   5   7  18 9.96355 10.0900   4
  -5   7 -18-3.60860 12.4874   4
   5  -7 -19 5.08339 10.0879   3
   5   7  19 6.16643 10.0173   4
  -5   7 -19 28.1520 13.4236   4
   5  -7 -20-4.25111 10.4244   3
  -5   7 -20 0.29793 13.4399   4
   5  -7 -21 12.3487 10.7627   3
  -5   7 -21 1.57496 14.1237   4
   5  -7 -22 6.69392 10.7469   3
  -5  -7  22-4.28857 10.3588   2
  -5   7 -22-4.32293 14.9479   4
   5  -7 -23 0.22260 11.0016   3
  -5  -7  23-2.21127 10.5850   2
  -5   7 -23 0.33680 14.9196   4
   5  -7 -24 0.22895 11.0048   3
  -5  -7  24-5.30287 11.0047   2
  -5   7 -24-0.35291 15.4666   4
  -5  -7  25-1.84065 11.1068   2
  -5   7 -25 0.72873 15.7709   4
   5  -8  23 12.5952 12.3203   8
  -5  -8 -19 21.6735 12.4177   3
  -5  -8 -18 52.2911 13.5720   3
  -5  -8 -17 22.0034 12.0964   3
  -5  -8 -16 22.0218 11.9245   3
  -5  -8 -15 23.6035 12.0451   3
  -5  -8 -14 8.99270 11.6246   3
  -5  -8 -13 15.7528 11.2994   3
  -5  -8 -12 17.0897 10.9672   3
  -5  -8 -11-4.35127 10.3759   3
   5   8 -10 19.5240 9.36096   4
  -5  -8 -10 39.6453 10.6824   3
   5   8 -10 39.3409 11.8485   9
   5   8  -9 32.3084 9.43930   4
  -5  -8  -9 5.14019 10.8123   3
   5   8  -9 23.5756 11.3067   9
   5   8  -8 42.7204 9.70239   4
  -5  -8  -8 32.5958 11.1363   3
   5   8  -8 26.6296 11.7041   9
   5   8  -7 18.0088 9.39679   4
  -5  -8  -7 14.9768 9.91094   3
   5   8  -7 38.2170 11.1479   9
   5  -8   7 30.2519 9.08771   7
   5   8  -6 30.8513 9.77932   4
  -5  -8  -6 12.0109 8.97047   6
  -5  -8  -6 16.9374 9.62680   3
   5   8  -6 18.5965 10.6505   9
   5  -8   6 14.8632 8.58853   7
   5   8  -5 46.1135 10.8863   4
  -5  -8  -5 51.1130 9.83991   6
  -5  -8  -5 37.2020 10.4694   3
   5   8  -5 58.0513 11.1882   9
   5  -8   5 29.3752 9.57776   7
   5   8  -4 20.2200 8.85955   4
  -5  -8  -4 11.5995 8.45908   6
   5   8  -4-2.73066 10.2532   9
   5  -8   4 21.9027 8.24853   7
   5   8  -3 30.1206 9.06945   4
  -5  -8  -3 21.8207 8.30093   6
   5   8  -3 2.81300 9.78772   9
   5  -8   3 7.98034 7.96828   7
   5   8  -2 116.425 15.0757   4
  -5  -8  -2 99.6672 14.6059   6
   5   8  -2 84.9161 15.4730   9
   5  -8   2 117.970 14.2615   7
  -5  -8  -1 32.8738 8.78894   6
   5   8  -1 15.0661 8.66189   4
   5  -8   1 15.6994 7.66758   7
  -5  -8   0 15.5257 8.50591   6
   5   8   0 12.5681 8.49737   4
  -5   8   0 7.86216 8.81479   4
   5  -8   0 7.66067 7.18630   7
  -5  -8   1 28.9623 8.74282   6
   5   8   1 14.2126 8.53549   4
  -5   8  -1 14.7038 9.14559   4
   5  -8  -1 19.9870 7.47194   7
  -5  -8   2 91.1017 12.1036   6
   5   8   2 89.2657 12.0559   4
  -5   8  -2 55.0565 12.2877   4
   5  -8  -2 59.6530 11.1072   7
  -5  -8   3 30.3165 9.24450   6
   5   8   3 15.3776 8.99235   4
  -5   8  -3 28.4693 9.66250   4
   5  -8  -3 15.7057 7.83801   7
  -5  -8   4 10.4346 9.02681   6
   5   8   4 0.55211 9.17631   4
  -5   8  -4-4.76161 9.13080   4
   5  -8  -4 11.8085 7.31749   7
   5   8   5 52.1658 10.6745   4
  -5   8  -5 33.6444 10.6116   4
  -5  -8   5 42.8539 10.2771   6
   5  -8  -5 44.8562 8.61086   7
   5   8   6 4.08345 9.04176   4
   5  -8  -6 1.96039 6.82452   7
   5   8   7 58.1496 10.5645   4
  -5   8  -7 44.9960 11.6608   4
   5  -8  -7 42.6814 8.75018   7
   5   8   8 28.3484 9.72011   4
  -5   8  -8 14.1949 11.2525   4
   5   8   9 14.3699 9.36458   4
  -5   8  -9-4.32395 11.4439   4
   5   8  10 15.1936 9.73569   4
  -5   8 -10 4.17179 11.9101   4
   5   8  11-4.73075 9.70697   4
  -5   8 -11 7.93262 11.9754   4
   5   8  12 6.24891 9.43388   4
  -5   8 -12 5.14179 11.8939   4
   5   8  13 20.9798 10.1210   4
  -5   8 -13 16.3985 12.6644   4
   5   8  14 3.76045 9.78736   4
  -5   8 -14 20.2138 12.8353   4
   5  -8 -15 2.33150 10.3037   3
   5   8  15 30.1474 9.88971   4
  -5   8 -15 7.70290 12.6537   4
   5   8  16 15.7270 10.1694   4
  -5   8 -16 40.8044 13.4351   4
   5  -8 -16 23.5648 11.0224   3
   5   8  17 34.5199 10.6130   4
  -5   8 -17 12.6225 13.3344   4
   5  -8 -17 35.0222 11.5815   3
   5   8  18 13.8783 10.3062   4
  -5   8 -18 12.0819 13.7333   4
   5  -8 -18 32.4813 11.6868   3
  -5   8 -19-3.02156 13.8780   4
   5  -8 -19 11.3106 12.1326   3
  -5   8 -20 8.96643 14.2842   4
   5  -8 -20 5.09981 12.2005   3
  -5   8 -21 3.49789 14.1753   4
   5  -8 -21 5.25233 12.4366   3
  -5   8 -22 0.33365 14.7288   4
   5  -8 -22 0.25724 12.6248   3
  -5   8 -23 2.07088 14.9292   4
   5  -8 -23 0.26421 12.6542   3
  -5  -9 -20-0.51646 12.3555   3
  -5  -9 -19 2.29506 12.4501   3
  -5  -9 -18 7.44381 12.6662   3
  -5  -9 -17 10.4902 12.9284   3
  -5  -9 -16-1.94785 12.2824   3
  -5  -9 -15 5.64285 11.9194   3
  -5  -9 -14-5.31102 11.9881   3
  -5  -9 -13 9.91145 11.7269   3
  -5  -9 -12 16.4079 11.6254   3
  -5  -9 -11 26.4224 12.1470   3
  -5  -9 -10 52.6755 12.7784   3
   5   9 -10 53.6896 13.1228   9
   5   9 -10 37.0462 10.9939   4
   5   9  -9 27.3342 10.2053   4
  -5  -9  -9 30.9832 11.9369   3
   5   9  -9 26.7190 12.1251   9
   5   9  -8 57.9456 12.1190   4
  -5  -9  -8 60.1619 13.0562   3
   5   9  -8 68.1015 13.7889   9
   5   9  -7 56.1122 11.9618   4
  -5  -9  -7 59.4928 12.3046   3
   5   9  -7 51.7835 13.0556   9
   5   9  -6 14.7194 9.76670   4
  -5  -9  -6 17.3087 9.90023   6
  -5  -9  -6 3.29438 10.1656   3
   5   9  -6 16.9689 11.3649   9
   5  -9   6 21.8826 8.93189   7
   5   9  -5 6.67123 9.79114   4
   5   9  -5-1.08896 10.7848   9
  -5  -9  -5-7.49544 9.37897   6
  -5  -9  -5 7.98927 9.91748   3
   5  -9   5-5.27050 8.22174   7
   5   9  -4 19.1817 10.2433   4
  -5  -9  -4 14.7387 9.62547   6
   5   9  -4 15.7882 11.0440   9
   5  -9   4 17.0719 8.52052   7
   5   9  -3 68.2023 13.1440   4
  -5  -9  -3 73.8068 12.4094   6
   5   9  -3 62.8988 13.7772   9
   5  -9   3 74.5919 11.5684   7
   5   9  -2 20.5477 9.98129   4
  -5  -9  -2 7.28278 9.02520   6
   5  -9   2 6.08729 8.04710   7
   5   9  -2 14.9885 11.1382   9
   5   9  -1 12.6229 9.93478   4
  -5  -9  -1 7.11783 9.39813   6
   5  -9   1 16.2058 8.31625   7
   5   9   0-1.57548 9.43817   4
   5  -9   0 3.17791 7.62520   7
  -5  -9   1 10.4726 9.64146   6
   5   9   1-1.75323 9.52272   4
  -5   9  -1-5.76825 10.0807   4
   5  -9  -1 3.93556 7.31680   7
  -5   9  -2 11.6682 10.3240   4
  -5  -9   2 27.2814 9.53567   6
   5   9   2 17.6232 9.46509   4
   5  -9  -2 11.5094 7.43570   7
  -5  -9   3 80.5863 13.2622   6
   5   9   3 73.5401 13.3512   4
  -5   9  -3 57.0473 13.4866   4
   5  -9  -3 93.5078 11.7474   7
  -5  -9   4 26.4265 10.2059   6
   5   9   4 13.7362 9.74425   4
  -5   9  -4 16.8613 10.4972   4
   5  -9  -4 11.2591 7.52561   7
  -5  -9   5 5.61322 9.84944   6
   5   9   5 6.06061 9.39893   4
  -5   9  -5-0.21783 10.1713   4
   5  -9  -5-1.78139 7.17090   7
  -5  -9   6 7.50010 9.78345   6
   5   9   6-4.21480 9.45283   4
  -5   9  -6 0.22117 10.5216   4
   5   9   7 49.3244 11.0661   4
  -5   9  -7 27.8747 11.6781   4
   5   9   8 56.2388 12.0773   4
  -5   9  -8 50.0609 13.3901   4
   5   9   9 32.0702 10.5421   4
  -5   9  -9 7.06595 12.0975   4
   5   9  10 37.8381 11.1868   4
  -5   9 -10 30.1944 13.1305   4
   5   9  11 21.3510 10.3811   4
  -5   9 -11 5.45569 12.5851   4
   5   9  12 0.65247 9.91465   4
  -5   9 -12-14.5598 12.9358   4
   5   9  13 9.91846 10.2041   4
  -5   9 -13 23.9173 13.1940   4
   5   9  14 7.58752 10.5564   4
  -5   9 -14 10.7744 13.3963   4
   5   9  15 12.7071 10.5773   4
  -5   9 -15 7.39176 13.3781   4
   5   9  16 0.22968 10.5196   4
  -5   9 -16-7.75721 13.8100   4
   5   9  17-14.1682 10.5256   4
  -5   9 -17 10.9540 14.0533   4
   5   9  18 3.28399 10.4765   4
  -5   9 -18 2.54404 14.0008   4
  -5   9 -19 1.27350 13.8064   4
  -5   9 -20 7.80106 14.1944   4
   5  -9 -20 0.23216 11.3295   3
  -5   9 -21-8.27702 14.1051   4
   5  -9 -21 1.90496 11.4752   3
  -5 -10 -19 14.7486 13.1509   3
  -5 -10 -18 5.98923 12.5744   3
  -5 -10 -17 3.34486 12.5911   3
  -5 -10 -16-0.25231 12.1183   3
  -5 -10 -15 9.17141 12.3937   3
  -5 -10 -14 15.3738 12.2602   3
  -5 -10 -13 16.6516 12.6945   3
  -5 -10 -12 42.3905 13.6340   3
  -5 -10 -11 23.1923 12.8372   3
  -5 -10 -10 7.70515 12.0613   3
   5  10 -10 6.64808 12.1725   9
   5  10 -10 4.72633 10.2784   4
  -5 -10  -9 11.4955 11.8668   3
   5  10  -9 32.6207 12.2518   9
   5  10  -9 15.3747 10.6510   4
   5  10  -8 27.0866 11.8265   4
  -5 -10  -8 68.4799 12.9357   3
   5  10  -8 59.8925 13.6556   9
   5  10  -7-3.45180 10.4506   4
  -5 -10  -7 7.58731 11.2601   3
   5  10  -7 5.35014 11.9708   9
   5  10  -6 32.9150 10.7855   4
  -5 -10  -6 12.9089 10.7234   6
  -5 -10  -6 12.4464 11.6029   3
   5  10  -6 30.0766 12.1616   9
   5  10  -5-2.64011 10.2730   4
  -5 -10  -5 26.0350 10.4802   6
   5  10  -5-6.07998 11.5776   9
   5  10  -4 14.0915 10.7365   4
  -5 -10  -4 26.1313 10.5630   6
   5  10  -4 14.6638 11.7765   9
   5 -10   4 24.1294 9.37456   7
   5  10  -3-0.23435 10.9794   4
  -5 -10  -3 9.70278 10.1156   6
   5  10  -3 17.5291 11.7507   9
   5 -10   3-4.77960 8.49657   7
   5  10  -2 12.9537 11.2488   4
  -5 -10  -2 10.1533 10.1944   6
   5  10  -2 13.4265 11.7512   9
   5 -10   2 6.82258 8.37452   7
   5  10  -1 13.0772 10.6410   4
  -5 -10  -1 29.4177 10.5169   6
   5  10  -1 18.3942 11.8120   9
   5 -10   1 20.4151 8.78717   7
   5  10   0 17.5655 10.7287   4
  -5 -10   0 17.8736 10.4570   6
   5 -10   0 9.13456 8.07317   7
   5  10   1 50.3281 11.4425   4
  -5 -10   1 38.0083 11.2040   6
   5 -10  -1 28.6003 9.22864   7
  -5 -10   2 20.4534 10.6376   6
   5  10   2 11.5972 10.3170   4
  -5  10  -2 4.65819 10.9263   4
   5 -10  -2 18.0944 8.10103   7
  -5 -10   3 22.7992 10.7257   6
   5  10   3 23.1051 10.4962   4
  -5  10  -3 17.3893 11.3498   4
  -5 -10   4-10.5085 10.5253   6
   5  10   4 2.61219 10.1622   4
  -5  10  -4 12.4989 10.7617   4
  -5 -10   5-17.0296 10.6929   6
   5  10   5 0.21710 10.5491   4
  -5  10  -5 8.37268 11.3564   4
   5  10   6 15.0338 10.1614   4
  -5 -10   6 5.04659 10.5698   6
  -5  10  -6 16.1929 11.3102   4
   5  10   7 19.1757 10.3901   4
  -5  10  -7-20.3622 11.4535   4
  -5  10  -8 30.4778 12.6252   4
   5  10   8 30.3697 10.9337   4
   5  10   9 9.53929 10.5399   4
  -5  10  -9 4.03933 12.0728   4
   5  10  10 8.96495 10.2075   4
  -5  10 -10-12.2719 13.1811   4
   5  10  11 26.3255 10.7239   4
  -5  10 -11 0.29545 13.5322   4
   5  10  12 18.9336 10.9344   4
  -5  10 -12 18.2858 14.1053   4
   5  10  13 0.72004 11.1233   4
  -5  10 -13 26.7833 13.7922   4
   5  10  14 23.5095 11.1670   4
  -5  10 -14 17.2045 14.2724   4
   5  10  15 4.15121 10.9552   4
  -5  10 -15 10.7752 14.2544   4
   5  10  16 4.43552 11.0468   4
  -5  10 -16-6.09364 14.0488   4
   5  10  17 3.20165 10.8026   4
  -5  10 -17 0.97530 14.2376   4
  -5  10 -18-8.76103 14.6423   4
  -5  10 -19 3.40949 14.6038   4
  -5 -11 -16 0.26537 12.5632   3
  -5 -11 -15 1.35747 13.1317   3
  -5 -11 -14 0.27509 13.4814   3
  -5 -11 -13 0.27020 12.9647   3
  -5 -11 -12 2.06169 12.5763   3
  -5 -11 -11-0.24956 12.4095   3
  -5 -11 -10 7.68262 12.4484   3
   5  11 -10-2.34390 10.8849   4
   5  11 -10-1.80198 12.3475   9
   5  11  -9 5.57332 10.6328   4
  -5 -11  -9-4.52867 11.6476   3
   5  11  -9 2.42478 12.3857   9
  -5 -11  -8 25.3466 12.2645   3
   5  11  -8 20.8247 12.9199   9
   5  11  -8 6.83658 11.0776   4
   5  11  -7 2.57589 10.8265   4
  -5 -11  -7-4.22345 12.1179   3
   5  11  -7 2.43257 12.5827   9
   5  11  -6 7.28867 10.8926   4
   5  11  -6 24.9547 12.6806   9
  -5 -11  -6 15.6291 11.6602   6
  -5 -11  -5 17.5350 11.5372   6
   5  11  -5-6.19410 12.4940   9
   5  11  -4 13.0249 11.2795   4
  -5 -11  -4 23.0535 11.2839   6
   5  11  -4 3.72520 11.9057   9
   5  11  -3 18.7675 11.4771   4
  -5 -11  -3 22.9257 10.9948   6
   5  11  -3-6.32359 12.0571   9
   5  11  -2 13.2172 11.3996   4
  -5 -11  -2 22.5511 10.8248   6
   5  11  -2-1.49771 12.3123   9
   5  11  -1 27.5210 12.0826   4
  -5 -11  -1 10.7167 11.1729   6
   5  11  -1 26.7665 12.0567   9
   5 -11   1 7.95449 9.06929   7
   5  11   0 54.0984 12.8914   4
  -5 -11   0 19.1528 11.9702   6
   5  11   0 32.5137 12.9432   9
   5  11   1 22.4919 11.4033   4
  -5 -11   1 17.7592 11.5210   6
   5  11   2 35.6632 12.0668   4
  -5 -11   2 35.8010 11.9215   6
   5  11   3 16.0311 11.4104   4
  -5 -11   3 3.58040 11.1175   6
  -5  11  -3 6.14358 11.8717   4
  -5 -11   4 10.1908 11.2971   6
   5  11   4 11.1251 11.4082   4
  -5  11  -4 11.2843 11.7602   4
  -5 -11   5 10.5374 11.5242   6
   5  11   5 35.0766 11.4967   4
  -5  11  -5 0.51934 12.0525   4
  -5 -11   6 12.3173 11.1890   6
   5  11   6-1.68638 11.1839   4
  -5  11  -6-8.70149 11.7386   4
   5  11   7 17.1137 11.0227   4
  -5  11  -7 5.86249 12.2639   4
   5  11   8 6.30151 11.1627   4
  -5  11  -8 14.2954 12.2683   4
   5  11   9 14.9580 11.3758   4
  -5  11  -9 13.2089 12.9863   4
   5  11  10-2.17768 10.9957   4
  -5  11 -10 3.88837 13.2647   4
   5  11  11-0.48235 10.6931   4
  -5  11 -11 5.26206 14.0418   4
   5  11  12-7.04932 10.8780   4
  -5  11 -12-9.63638 14.1351   4
   5  11  13-5.35626 10.9158   4
  -5  11 -13 3.57748 14.7187   4
   5  11  14 18.3573 11.0468   4
  -5  11 -14 2.60689 13.9857   4
   5  11  15-1.72456 10.9069   4
  -5  11 -15 0.33405 14.4760   4
   5  11  16-2.48513 10.8225   4
  -5  11 -16 1.70124 14.5793   4
  -5 -12 -12 0.26881 12.7530   3
  -5 -12 -11 5.18623 12.4610   3
  -5 -12 -10 9.38062 12.6651   3
   5  12 -10 2.55008 11.4504   4
  -5 -12  -9-29.4731 12.6121   3
   5  12  -9 2.11341 12.9171   9
   5  12  -9 7.56248 11.5079   4
  -5 -12  -8 1.53057 12.2133   3
   5  12  -8 4.64028 12.7445   9
   5  12  -8 11.7459 11.4575   4
   5  12  -7 17.6075 13.0133   9
   5  12  -7 6.82571 11.4528   4
   5  12  -6 6.33615 11.6795   4
  -5 -12  -6 0.20705 11.6925   6
   5  12  -6 23.3003 12.8217   9
   5  12  -5-5.54085 11.5224   4
  -5 -12  -5 17.3546 11.7737   6
   5  12  -5-12.3638 12.4274   9
   5  12  -4-8.66305 11.7074   4
  -5 -12  -4 13.6883 11.9422   6
   5  12  -4 11.4621 12.4177   9
   5  12  -3 16.7462 11.7132   4
  -5 -12  -3 6.59811 11.5918   6
   5  12  -3 5.26512 12.3285   9
   5  12  -2 2.86397 11.6925   4
  -5 -12  -2 0.40434 11.7786   6
   5  12  -2-9.89476 12.7546   9
   5  12  -1 10.9648 11.7232   4
  -5 -12  -1-6.18488 11.7462   6
   5  12  -1 8.60584 12.5544   9
   5  12   0 11.9498 12.0272   4
  -5 -12   0 2.89026 11.9037   6
   5  12   0 14.2937 12.2738   9
   5  12   1 0.55819 12.9242   4
  -5 -12   1 0.20325 11.6289   6
   5  12   1 16.2496 12.4014   9
   5  12   2 4.68234 12.5340   4
  -5 -12   2 3.67024 11.5885   6
   5  12   3 5.63731 12.2465   4
  -5 -12   3 15.1990 11.9162   6
   5  12   4 8.36020 11.8549   4
  -5 -12   4 4.31347 11.9490   6
  -5  12  -4 1.10297 12.2070   4
   5  12   5 1.05142 11.8850   4
  -5 -12   5 3.53369 11.8876   6
  -5  12  -5 1.67162 12.3373   4
  -5 -12   6 17.8288 11.9798   6
   5  12   6 6.08692 12.1630   4
  -5  12  -6 10.1689 12.4899   4
   5  12   7-0.26809 12.0081   4
  -5  12  -7 5.41333 12.3643   4
   5  12   8 23.2743 12.3346   4
  -5  12  -8 1.15158 12.7207   4
  -5  12  -9 9.27367 13.0966   4
   5  12   9-12.6944 11.6065   4
   5  12  10 8.40658 11.4166   4
  -5  12 -10 10.0176 13.8845   4
   5  12  11 3.96170 11.4998   4
  -5  12 -11-5.25080 14.1073   4
   5  12  12 2.10870 11.3600   4
  -5  12 -12-2.37739 14.5265   4
   5  13  -7-2.14129 11.6367   4
  -5 -13  -6 0.22113 12.2435   6
   5  13  -6 0.24002 12.8403   9
   5  13  -6-1.07651 11.8471   4
  -5 -13  -5 0.21810 12.1713   6
   5  13  -5 0.70960 12.7629   9
   5  13  -5-5.16181 11.7960   4
   5  13  -4 13.7736 11.8397   4
  -5 -13  -4 0.43316 11.9679   6
   5  13  -4-0.23430 12.6736   9
   5  13  -3-2.42811 11.8028   4
  -5 -13  -3 0.21899 12.2777   6
   5  13  -3 0.22871 12.2634   9
   5  13  -2 17.7577 12.0928   4
  -5 -13  -2 0.22317 12.5760   6
   5  13  -2 0.22916 12.3191   9
   5  13  -1-3.31407 12.0910   4
  -5 -13  -1 8.92196 12.6346   6
   5  13  -1-0.23516 12.8726   9
   5  13   0-3.34633 12.2474   4
  -5 -13   0 0.22129 12.3827   6
   5  13   0 0.47409 12.7876   9
   5  13   1 6.98856 12.2600   4
  -5 -13   1 5.27587 12.4900   6
   5  13   1 2.85767 13.0869   9
   5  13   2 0.28059 12.4040   4
  -5 -13   2 0.44234 12.4448   6
   5  13   2 0.23530 12.5242   9
   5  13   3 8.28991 12.3345   4
  -5 -13   3-1.10956 12.3320   6
   5  13   3 0.23310 12.5699   9
   5  13   4-1.20060 12.8028   4
  -5 -13   4 8.44595 12.3316   6
   5  13   5 2.07249 12.6638   4
  -5 -13   5-0.22348 12.3144   6
  -5  13  -6-10.1722 12.8813   4
  -5  13  -7-1.50577 12.7530   4
  -6   0   0 1294.04 159.548   4
   6   0   0 1544.45 159.494   4
  -6   0   1 918.191 89.7929   4
  -6   0  -1 800.243 89.7991   4
   6   0  -1 837.183 89.5940   4
   6   0  -1 671.945 89.4911   9
   6   0   1 947.667 89.7508   7
  -6   0   2 572.715 63.3087   4
  -6   0  -2 631.635 63.5146   4
   6   0  -2 477.847 63.0541   9
   6   0   2 707.101 63.3660   7
   6   0   3-6.66639 4.89581   7
  -6   0   3-1.50020 5.36075   4
  -6   0  -3 7.83238 7.18176   4
   6   0  -3-2.37717 4.20600   9
   6   0   4 789.141 87.5700   5
  -6   0  -4 1047.31 88.0930   4
   6   0   4 1050.98 87.7761   7
   6   0   5 464.811 57.7825   5
  -6   0  -5 550.408 58.5368   4
   6   0   5 600.739 57.9922   7
   6   0   6 53.0566 6.54039   7
  -6   0  -6 51.8828 9.70701   4
   6   0   7 12.2195 6.47206   1
  -6   0  -7 12.1555 9.06683   4
   6   0   7 6.06980 4.40952   7
   6   0   8 26.8140 6.75073   1
  -6   0  -8 27.6787 9.55931   4
   6   0   8 24.4698 5.38997   7
  -6   0  -9 100.063 14.6641   4
   6   0   9 122.417 13.0805   1
   6   0   9 88.6879 12.0546   7
  -6   0 -10 35.8710 10.3408   4
  -6   0 -11 49.5832 11.6063   4
  -6   0 -12 134.496 18.3723   4
  -6   0 -13 61.5683 14.3412   4
  -6   0  13 95.3974 13.2444   2
  -6   0 -14 123.366 19.7510   4
  -6   0  14 159.686 19.1611   2
  -6   0 -15 134.195 20.6523   4
  -6   0  15 160.184 19.9621   2
  -6   0 -16-1.46311 12.0751   4
  -6   0  16 4.76724 10.0299   2
  -6   0 -17 3.79843 12.6882   4
  -6   0  17 6.89353 10.6040   2
  -6   0 -18 26.5232 13.3526   4
  -6   0  18 47.6092 11.7281   2
  -6   0 -19 106.026 17.7820   4
  -6   0  19 108.698 16.7832   2
  -6   0 -20 74.7532 17.3224   4
  -6   0  20 106.305 15.5382   2
  -6   0 -21 10.2826 13.4106   4
  -6   0  21 16.5568 11.8062   2
  -6   0 -22-8.44519 13.5280   4
  -6   0  22 5.52162 11.5016   2
  -6   0 -23 3.65390 13.9591   4
  -6   0  23 12.9097 12.1794   2
  -6   0 -24 19.8835 14.2648   4
  -6   0  24-4.26047 12.6003   2
  -6   0 -25-12.4755 14.5661   4
  -6   0  25-6.79517 12.6349   2
   6   0 -26 13.1738 13.6347   3
  -6   0 -26-6.06387 14.4347   4
  -6   0  26-5.83162 12.0385   2
   6   0 -27 3.20920 13.9913   3
  -6   0  27 1.13261 12.5752   2
  -6   1  28 9.61364 12.9113   2
  -6   1  27 9.16772 12.7349   2
  -6   1  26 18.8313 12.9341   2
  -6  -1 -25-0.31651 14.4029   4
  -6   1  25 10.4507 12.6986   2
  -6  -1 -24 15.1845 13.7293   4
  -6   1  24 6.44458 12.7081   2
  -6  -1 -23-5.20493 13.3802   4
  -6   1  23 19.3513 12.4577   2
  -6  -1 -22-4.61262 12.5542   4
  -6   1  22 14.2410 11.8434   2
  -6  -1 -21 9.24668 12.9221   4
  -6   1  21 15.3040 11.9012   2
  -6  -1 -20 26.0617 12.9801   4
  -6   1  20 34.1324 12.0397   2
  -6  -1 -19 12.8026 12.7014   4
  -6   1  19 29.2293 11.8111   2
  -6  -1 -18 2.77590 12.1126   4
  -6   1  18 21.0631 11.2142   2
  -6  -1 -17 16.0604 13.1304   4
  -6   1  17 56.5710 12.0093   2
  -6  -1 -16 23.9640 12.5300   4
  -6   1  16 42.2462 11.3830   2
  -6  -1 -15 82.4435 14.9990   4
  -6  -1 -14 142.755 19.8530   4
  -6  -1 -13 6.72722 10.7784   4
  -6  -1 -12-2.71710 10.4410   4
   6  -1  12 2.26042 4.95364   7
  -6  -1 -11 133.434 15.3044   4
   6  -1  11 91.9171 12.4845   7
  -6  -1 -10 99.9718 14.1017   4
   6  -1  10 82.9516 10.9388   7
  -6  -1  -9 358.731 38.6693   4
   6  -1   9 407.459 38.0411   1
   6  -1   9 286.324 37.5124   7
  -6  -1  -8 269.097 36.1139   4
   6  -1   8 346.514 35.5906   1
   6  -1   8 305.515 35.2934   7
   6  -1   7 36.1233 7.63873   1
  -6  -1  -7 32.8179 9.25666   4
   6  -1   7 30.2142 6.27410   7
  -6  -1  -6 107.776 12.9982   4
   6  -1   6 101.078 10.8939   7
   6   1  -5 301.095 39.4593   4
   6  -1   5 394.763 39.4894   5
  -6  -1  -5 434.809 40.3851   4
   6   1  -5 371.263 39.6711   9
   6  -1   5 447.087 39.7480   7
   6  -1   4 65.6106 8.49176   7
   6  -1   4 62.2904 7.71941   5
  -6  -1  -4 51.5189 10.4911   4
   6   1  -4 48.2340 8.44402   9
   6  -1   3 85.3763 10.3487   7
   6  -1   3 75.0130 9.81157   5
  -6  -1  -3 99.7950 11.8900   4
   6   1  -3 69.6633 10.1598   9
   6  -1   2 133.972 15.0474   5
  -6  -1  -2 167.247 16.3250   4
  -6   1   2 154.961 15.3681   4
   6   1  -2 115.161 15.1381   9
   6  -1   2 151.141 15.3760   7
   6  -1   1 111.431 12.6679   5
  -6   1   1 137.076 13.3449   4
  -6  -1  -1 103.342 13.8031   4
   6   1  -1 80.7263 12.6192   4
   6   1  -1 81.7251 12.6888   9
   6  -1   1 141.222 13.2019   7
   6  -1   0 64.1901 8.90979   7
   6   1   0 60.0504 7.69621   6
  -6  -1   0 40.5606 9.80358   4
  -6   1   0 70.9921 9.41911   4
   6  -1   0 65.4989 8.07871   4
   6  -1  -1 86.2937 11.2261   7
  -6  -1   1 65.2062 11.5815   4
   6  -1  -1 100.690 10.3547   4
  -6   1  -1 63.5915 11.5627   4
  -6  -1   2 133.896 17.8796   4
  -6   1  -2 166.706 18.0640   4
   6   1   2 148.064 17.3708   7
   6   1   3 66.2717 8.32041   7
  -6  -1   3 52.5587 8.84611   4
  -6   1  -3 61.1642 9.87540   4
   6   1   4 80.9644 9.15853   7
  -6  -1   4 67.7696 9.37178   4
  -6   1  -4 84.7427 10.8843   4
  -6   1  -5 342.071 39.8804   4
   6   1   5 352.170 39.3001   7
  -6   1  -6 103.850 11.9627   4
   6   1   6 116.054 10.1406   7
   6   1   7 27.1015 6.46228   1
  -6   1  -7 11.3064 8.21296   4
   6   1   7 23.4573 4.70678   7
  -6   1  -8 274.828 37.9115   4
   6   1   8 363.010 37.4356   1
  -6   1  -9 372.286 47.1361   4
   6   1   9 436.263 46.6364   1
  -6   1 -10 95.4315 14.3247   4
  -6   1 -11 105.819 15.5550   4
  -6  -1  11 113.277 15.2705   2
  -6   1 -12-0.19515 9.49071   4
  -6  -1  12 0.70870 9.01307   2
  -6   1 -13 14.1812 10.4500   4
  -6  -1  13 18.7642 9.68118   2
  -6   1 -14 93.1213 17.0743   4
  -6  -1  14 134.561 16.4373   2
  -6   1 -15 85.6405 16.4291   4
  -6  -1  15 119.883 15.5246   2
  -6   1 -16 21.8623 11.5127   4
  -6  -1  16 31.6503 10.8653   2
  -6   1 -17 25.6280 12.3480   4
  -6  -1  17 23.8931 10.7796   2
  -6   1 -18-9.95111 12.3049   4
  -6  -1  18 4.43207 10.6023   2
  -6   1 -19-10.3291 12.9038   4
  -6  -1  19 3.62844 10.9075   2
  -6   1 -20 25.1411 14.1257   4
  -6  -1  20 24.1796 11.6984   2
  -6   1 -21 12.1387 13.6267   4
  -6  -1  21 13.8220 11.3810   2
  -6   1 -22 8.09418 14.2749   4
  -6  -1  22 14.5069 11.7584   2
   6  -1 -23 10.7326 12.7043   3
  -6   1 -23 19.5303 14.4277   4
  -6  -1  23-2.55964 11.9353   2
   6  -1 -24-13.8125 13.2370   3
  -6   1 -24-2.23927 14.8057   4
  -6  -1  24 19.9810 12.3576   2
   6  -1 -25 10.0657 13.4141   3
  -6   1 -25 12.1409 15.0799   4
  -6  -1  25 6.22865 12.2960   2
   6  -1 -26 14.9876 13.8443   3
  -6   1 -26 14.5867 14.9472   4
  -6  -1  26 19.3884 12.4514   2
   6  -1 -27 4.48125 13.5530   3
  -6  -1  27 13.2771 12.5903   2
   6  -2  28 0.49279 10.5714   2
  -6   2  28 2.61430 12.8715   2
   6  -2  27-5.80845 10.7281   2
  -6   2  27-2.57213 12.5433   2
  -6   2  26 9.53986 12.6790   2
  -6  -2 -25-5.99797 14.3618   4
  -6   2  25 33.2267 12.8446   2
  -6  -2 -24 1.84732 13.9429   4
  -6   2  24 10.4655 12.4744   2
  -6  -2 -23 32.6741 14.6617   4
  -6   2  23 27.4492 12.7075   2
  -6  -2 -22 13.3759 14.5523   4
  -6   2  22 35.1174 12.8587   2
  -6  -2 -21 24.7936 14.5125   4
  -6   2  21 42.2320 12.7251   2
  -6  -2 -20-0.28310 13.4832   4
  -6  -2 -19 22.2303 13.6091   4
  -6  -2 -18 35.1017 13.5344   4
  -6  -2 -17 5.65200 12.5902   4
  -6  -2 -16 64.8618 14.2513   4
  -6  -2 -15 36.3139 12.8268   4
  -6  -2 -14 29.5232 12.1288   4
  -6  -2 -13 10.5646 10.9048   4
  -6  -2 -12 3.91022 10.8960   4
   6  -2  12 1.16465 5.87752   7
  -6  -2 -11 70.2677 13.7171   4
   6  -2  11 75.3210 10.1167   7
  -6  -2 -10 197.519 22.7525   4
   6  -2  10 172.334 20.9901   7
  -6  -2  -9 108.641 15.9912   4
   6  -2   9 131.706 14.1770   1
   6  -2   9 90.3767 13.0214   7
  -6  -2  -8 26.2270 10.8684   4
   6  -2   8 59.4020 8.45779   1
   6  -2   8 39.9877 7.45665   7
   6  -2   7 37.2396 7.56324   1
  -6  -2  -7 16.1545 9.33272   4
   6  -2   7 17.9274 6.30405   7
  -6  -2  -6 29.3702 9.59223   4
   6  -2   6 33.7944 7.78248   1
   6   2  -6 37.9432 7.50638   9
   6  -2   6 31.3815 6.82988   7
   6   2  -5 89.8243 10.2572   4
  -6  -2  -5 95.3319 12.8661   4
   6   2  -5 95.8230 11.2224   9
   6  -2   5 90.2798 10.8770   7
   6   2  -4 227.953 27.4438   4
   6  -2   4 225.701 27.4801   5
  -6  -2  -4 274.461 28.6283   4
   6   2  -4 252.297 27.7783   9
   6  -2   4 265.405 27.7366   7
   6   2  -3 248.486 27.8534   4
   6  -2   3 247.941 27.8443   5
  -6  -2  -3 274.990 28.8304   4
   6   2  -3 248.566 28.0180   9
   6  -2   3 291.593 28.0968   7
   6  -2   2 395.754 43.1493   5
  -6  -2  -2 408.978 43.6997   4
  -6   2   2 357.388 43.2180   4
   6   2  -2 348.188 43.2062   9
   6  -2   2 425.838 43.3438   7
   6  -2   1 240.773 27.7033   5
  -6  -2  -1 256.881 28.3875   4
  -6   2   1 239.633 27.8892   4
   6  -2   1 239.911 27.9078   7
   6  -2   0 34.5523 7.20852   7
   6   2   0 33.9906 5.50309   6
   6  -2   0 34.8616 6.48984   5
  -6  -2   0 27.9237 7.91352   4
   6   2   0 42.8102 5.67497   3
  -6   2   0 39.0372 7.41858   4
   6  -2   0 33.4026 5.46268   4
   6  -2  -1 258.105 28.3290   5
  -6   2  -1 252.457 28.5866   4
   6  -2  -1 311.404 28.5656   7
   6  -2  -2 342.658 36.6600   5
  -6  -2   2 236.420 36.6438   4
  -6   2  -2 368.440 36.9513   4
   6  -2  -2 371.112 36.8293   7
  -6   2  -3 312.474 34.6946   4
   6  -2  -3 336.398 34.5116   7
   6   2   3 280.186 34.0387   7
   6  -2  -4 352.279 39.1721   7
  -6   2  -4 315.564 39.3919   4
   6   2   4 352.011 38.7577   7
   6   2   5 76.5686 9.47394   7
  -6   2  -5 72.8787 11.8881   4
  -6   2  -6 15.3949 8.22985   4
   6   2   6-0.55816 5.76586   1
   6   2   7 31.9559 6.27041   1
  -6   2  -7 13.1665 9.05538   4
  -6   2  -8 39.4978 10.7942   4
   6   2   8 63.2337 8.38671   1
   6   2   9 133.926 14.7202   1
  -6   2  -9 86.2025 16.4590   4
  -6   2 -10 173.041 24.7725   4
  -6  -2  10 220.161 24.0924   2
  -6   2 -11 52.7471 13.5924   4
  -6  -2  11 105.282 12.9861   2
  -6   2 -12 18.4240 11.1727   4
  -6  -2  12 40.4302 9.76382   2
  -6   2 -13 6.69889 10.6900   4
  -6  -2  13 29.0780 9.37549   2
  -6   2 -14 6.07885 10.8399   4
  -6  -2  14 2.81921 9.48752   2
  -6   2 -15 64.8980 14.8713   4
  -6  -2  15 92.5240 13.5014   2
  -6   2 -16 76.5839 15.6967   4
  -6  -2  16 104.385 14.7132   2
   6  -2 -17 29.5951 10.7364   3
  -6   2 -17 28.8530 12.1160   4
  -6  -2  17 36.1945 10.9190   2
   6  -2 -18 39.5671 11.2284   3
  -6   2 -18 40.9808 13.2772   4
  -6  -2  18 36.1083 11.4679   2
   6  -2 -19 10.8363 11.2203   3
  -6   2 -19 16.3805 12.3443   4
  -6  -2  19 25.9687 11.4000   2
   6  -2 -20 10.0565 11.4244   3
  -6   2 -20-5.35854 12.5358   4
  -6  -2  20-2.38095 11.2161   2
   6  -2 -21 38.4796 12.4426   3
  -6   2 -21 13.4513 13.4438   4
  -6  -2  21 21.1646 11.8709   2
   6  -2 -22 58.9233 13.1784   3
  -6  -2  22 50.2528 12.7822   2
   6  -2 -23 2.38240 12.2001   3
  -6   2 -23 0.61296 14.1663   4
  -6  -2  23-4.44305 11.9658   2
   6  -2 -24 17.6559 13.0768   3
  -6   2 -24 29.1192 15.3688   4
  -6  -2  24 30.3226 12.8133   2
   6  -2 -25 16.5904 13.0026   3
  -6   2 -25 5.93842 14.8272   4
  -6  -2  25 9.89665 12.3864   2
   6  -2 -26 1.08162 13.2245   3
  -6   2 -26 6.12142 15.0522   4
  -6  -2  26 8.99281 12.2918   2
   6  -2 -27 0.27020 12.9743   3
  -6  -2  27-0.28666 12.3925   2
  -6  -3 -24-6.99574 14.3100   4
  -6  -3 -23-2.53851 14.3754   4
  -6  -3 -22 29.3986 14.6683   4
  -6  -3 -21 27.9960 14.4918   4
  -6  -3 -20 6.44603 13.8762   4
  -6  -3 -19 18.8006 13.8023   4
  -6  -3 -18 3.87324 13.2008   4
  -6  -3 -17 39.6498 13.9761   4
  -6  -3 -16 134.373 20.1859   4
  -6  -3 -15 122.362 19.0093   4
  -6  -3 -14-1.71872 11.9159   4
  -6  -3 -13 41.6697 12.8364   4
  -6  -3 -12 84.5280 15.5085   4
   6  -3  12 92.0827 12.1795   7
  -6  -3 -11 39.4389 11.8281   4
   6  -3  11 34.4200 7.44170   7
  -6  -3 -10 24.5500 11.4402   4
   6  -3  10 39.1993 7.45723   7
  -6  -3  -9 6.18234 10.1279   4
   6  -3   9 1.21703 5.77439   7
  -6  -3  -8 15.1704 10.6272   4
   6  -3   8 38.1898 8.16849   1
   6  -3   8 31.2425 6.98583   7
   6  -3   7 82.0240 10.8998   1
  -6  -3  -7 69.0375 12.8233   4
   6   3  -7 71.0958 10.9913   9
   6  -3   7 67.5812 10.1720   7
  -6  -3  -6 141.443 17.3926   3
  -6  -3  -6 163.396 19.5593   4
   6  -3   6 190.752 18.3517   1
   6   3  -6 140.892 18.2326   9
   6  -3   6 170.864 18.0357   7
   6   3  -6 124.737 17.3367   4
   6   3  -5 8.05440 4.92851   4
  -6  -3  -5 17.0278 9.15625   4
   6   3  -5 12.6005 6.87107   9
   6  -3   5 8.13261 7.64082   1
   6  -3   5 3.94977 5.93693   7
  -6  -3  -4 141.952 16.2217   4
   6   3  -4 129.635 15.1796   9
   6  -3   4 138.620 14.9954   7
   6   3  -4 125.444 14.5558   4
   6   3  -3 234.702 28.1346   4
  -6  -3  -3 268.621 29.0054   4
   6   3  -3 269.128 28.5278   9
   6  -3   3 282.492 28.3522   7
   6   3  -2 276.462 31.2535   4
   6  -3   2 291.842 31.2669   5
  -6  -3  -2 279.041 31.8876   4
   6   3  -2 289.698 31.4846   9
   6  -3   2 329.423 31.5090   7
   6  -3   1 54.5665 8.74663   7
   6  -3   1 61.4959 8.22821   5
   6   3  -1 55.5377 8.61074   4
  -6  -3  -1 63.5467 9.65002   4
  -6   3   1 47.2880 8.90615   4
   6  -3   0 26.4575 6.69366   7
   6  -3   0 25.8388 5.95307   5
  -6  -3   0 24.8222 7.34483   4
  -6   3   0 10.6195 6.66652   4
   6  -3  -1 75.2679 10.1817   7
   6  -3  -1 76.1137 9.82609   5
  -6   3  -1 59.5079 10.1484   4
   6  -3  -2 276.881 29.3844   5
  -6   3  -2 200.166 29.4872   4
   6  -3  -2 291.811 29.5684   7
   6  -3  -3 315.928 34.6410   5
  -6   3  -3 249.849 34.7523   4
   6  -3  -3 345.313 34.7946   7
   6  -3  -4 146.947 17.5011   5
  -6   3  -4 130.453 17.8802   4
   6  -3  -4 154.487 17.7050   7
   6  -3  -5 3.96883 6.37523   7
   6  -3  -5 6.08088 6.23535   5
   6  -3  -5 8.83705 4.95285   3
  -6   3  -5 2.32967 7.34336   4
   6  -3  -6 129.306 14.1205   5
  -6   3  -6 162.135 15.0832   4
   6  -3  -6 121.522 13.5080   3
   6  -3  -6 157.208 14.2618   7
   6  -3  -7 67.4461 10.5244   5
   6  -3  -7 73.2226 9.86479   3
  -6   3  -7 74.5877 11.7627   4
   6  -3  -8 21.8899 6.40885   3
  -6   3  -8-1.62804 8.95787   4
   6  -3  -9 12.6137 6.52647   3
  -6   3  -9 8.51494 9.48521   4
  -6  -3   9 14.1080 8.00119   2
   6  -3 -10 33.2572 8.36378   3
  -6   3 -10 15.8060 10.6170   4
   6  -3 -11 28.8950 8.75965   3
  -6   3 -11 48.6599 11.1296   4
  -6  -3  11 47.2358 9.82738   2
   6  -3 -12 103.247 16.7985   3
  -6   3 -12 130.104 18.4273   4
   6  -3 -13 30.3205 9.11893   3
  -6   3 -13 27.7084 10.9856   4
  -6  -3  13 48.4043 10.0983   2
   6  -3 -14 10.0739 8.59823   3
  -6   3 -14 5.71411 11.1103   4
  -6  -3  14 9.71540 9.49802   2
   6  -3 -15 76.9567 13.6298   3
  -6   3 -15 92.9768 15.4804   4
  -6  -3  15 101.586 14.2184   2
   6  -3 -16 97.0083 16.3535   3
  -6   3 -16 119.361 18.3802   4
  -6  -3  16 141.156 17.0028   2
   6  -3 -17 51.7774 11.2301   3
  -6   3 -17 31.4520 13.3309   4
  -6  -3  17 30.6825 11.0444   2
   6  -3 -18-3.54389 10.6078   3
  -6   3 -18-10.5646 12.5969   4
  -6  -3  18 18.8574 10.9013   2
   6  -3 -19 21.1890 11.0194   3
  -6   3 -19 13.0673 13.4747   4
  -6  -3  19 27.3729 11.5651   2
   6  -3 -20-2.75122 11.1048   3
  -6   3 -20-10.2126 13.4799   4
  -6  -3  20-11.4988 11.3530   2
   6  -3 -21 26.7535 12.0700   3
  -6   3 -21 15.1642 14.0048   4
  -6  -3  21 17.7108 12.3729   2
   6  -3 -22 30.3637 11.8903   3
  -6   3 -22 17.2413 13.6785   4
  -6  -3  22 17.2002 12.8440   2
   6  -3 -23 10.9223 11.9242   3
  -6   3 -23 0.59581 13.5360   4
  -6  -3  23-4.98004 12.6638   2
   6  -3 -24 6.28594 12.1714   3
  -6   3 -24 17.0467 14.2466   4
  -6  -3  24 1.13674 12.9118   2
   6  -3 -25 3.22602 12.3618   3
  -6   3 -25 4.24825 14.5089   4
  -6  -3  25-5.37142 12.4672   2
   6  -3 -26 0.79201 12.9353   3
  -6   3 -26 0.33866 14.6234   4
  -6  -3  26-12.9982 12.8161   2
  -6   3 -27 1.42223 15.3800   4
  -6  -4 -23 21.7219 14.8918   4
  -6  -4 -22 10.9467 14.4166   4
  -6  -4 -21 30.8551 14.7691   4
  -6  -4 -20 28.6299 14.2965   4
  -6  -4 -19 18.5179 13.8720   4
  -6  -4 -18-13.8160 13.6974   4
  -6  -4 -17-0.82405 13.2315   4
  -6  -4 -16 20.3258 13.2329   4
  -6  -4 -15-0.52337 12.5767   4
  -6  -4 -14 13.2413 12.7041   4
  -6  -4 -13 44.8542 13.2937   4
  -6  -4 -12 153.397 19.6678   4
   6  -4  12 126.871 16.8656   7
  -6  -4 -11 82.9331 15.1039   4
   6  -4  11 80.4841 11.4739   7
  -6  -4 -10 68.5048 12.7000   4
   6  -4  10 48.8758 9.24651   7
  -6  -4  -9 30.5793 10.8014   4
  -6  -4  -9 17.1978 7.21323   3
   6  -4   9 18.0478 6.94801   7
  -6  -4  -8 79.9713 15.3907   4
  -6  -4  -8 103.366 13.1022   3
   6  -4   8 124.842 13.8333   1
   6   4  -8 100.419 14.1591   9
   6  -4   8 86.5499 12.9807   7
  -6  -4  -7 272.549 32.1562   4
  -6  -4  -7 269.967 30.9603   3
   6  -4   7 278.412 31.4073   1
   6   4  -7 285.584 31.6543   9
   6  -4   7 255.526 31.2029   7
  -6  -4  -6 278.086 30.8130   4
  -6  -4  -6 248.755 29.7228   3
   6  -4   6 293.397 30.4238   1
   6   4  -6 260.364 30.2496   9
   6   4  -6 245.906 29.6051   4
   6  -4   6 262.878 29.9701   7
  -6  -4  -5 208.637 24.3590   4
   6  -4   5 233.379 23.9318   1
   6   4  -5 184.614 23.8655   9
   6  -4   5 203.848 23.5860   7
   6   4  -5 185.772 23.1733   4
   6   4  -4 32.0941 6.34478   4
  -6  -4  -4 24.2626 8.79202   4
   6   4  -4 20.8084 7.91004   9
   6  -4   4 11.8732 8.62399   1
   6  -4   4 24.2148 7.10867   7
   6   4  -3 12.6958 5.87020   4
  -6  -4  -3 12.5685 8.26442   4
   6   4  -3 9.65358 7.76384   9
   6  -4   3 22.8062 13.2618   1
   6  -4   3 8.18849 6.32531   7
   6  -4   2 60.1629 9.51757   7
   6   4  -2 67.6414 9.35744   4
   6   4  -2 74.1032 10.2913   9
   6  -4   1 85.4209 9.74927   7
   6   4  -1 65.1076 9.54848   4
  -6   4   1 49.0308 9.53417   4
   6  -4   0 70.5832 9.59585   7
   6  -4   0 67.1833 9.04386   5
   6   4   0 57.9630 9.40900   4
  -6   4   0 51.8397 9.40019   4
   6  -4  -1 52.1984 8.13697   5
   6   4   1 44.2507 8.65988   4
  -6   4  -1 32.6824 8.70288   4
   6  -4  -2 96.8720 10.8907   7
   6  -4  -2 74.5356 10.4928   5
   6   4   2 77.3967 11.1172   4
  -6   4  -2 55.5707 10.8045   4
   6  -4  -3 14.3955 6.86047   7
   6  -4  -3 21.8416 6.32647   5
  -6   4  -3 13.4996 7.24654   4
   6  -4  -4 18.1773 6.89494   7
   6  -4  -4 23.3167 6.78330   5
  -6   4  -4 18.6258 7.65954   4
   6  -4  -5 163.793 20.5965   5
  -6   4  -5 160.751 21.0843   4
   6  -4  -5 195.642 20.8784   7
   6  -4  -6 236.242 29.8250   5
  -6   4  -6 251.569 30.1780   4
   6  -4  -6 289.785 30.0189   7
   6  -4  -7 278.775 33.5419   5
  -6   4  -7 278.820 33.7912   4
   6  -4  -7 313.644 33.5627   7
   6  -4  -8 86.3196 11.6524   7
   6  -4  -8 82.6022 10.8801   3
   6  -4  -8 66.4726 11.6037   5
  -6   4  -8 86.2896 12.7602   4
   6  -4  -9 21.8978 7.84842   7
   6  -4  -9 22.7836 7.36410   3
   6  -4  -9 13.2113 7.61611   5
  -6   4  -9 15.3188 9.66658   4
  -6  -4   9 14.2981 7.99004   2
   6  -4 -10 36.0230 8.97792   7
   6  -4 -10 43.1647 8.44712   3
   6  -4 -10 38.7172 8.99936   5
  -6   4 -10 25.5491 10.9421   4
  -6  -4  10 61.4527 9.45952   2
   6  -4 -11 82.8427 12.3091   3
   6  -4 -11 63.4516 12.6198   5
  -6   4 -11 79.8850 14.4362   4
   6  -4 -12 110.186 18.1153   5
   6  -4 -12 129.760 18.1309   3
  -6  -4  12 190.081 18.5873   2
  -6   4 -12 162.343 19.9290   4
   6  -4 -13 30.4246 8.77789   3
   6  -4 -13 24.4138 8.77088   5
  -6   4 -13 34.0004 11.2717   4
  -6  -4  13 38.4357 9.82576   2
   6  -4 -14 41.1765 9.11814   3
   6  -4 -14 16.3092 8.75758   5
  -6   4 -14 15.3554 12.1310   4
  -6  -4  14 38.8396 9.93773   2
   6  -4 -15 2.40916 8.87731   3
   6  -4 -15 4.25175 8.34311   5
  -6   4 -15-7.54262 12.0638   4
  -6  -4  15 11.2932 9.52838   2
   6  -4 -16 15.8392 9.65580   3
   6  -4 -16 1.03877 8.54788   5
  -6   4 -16 4.69339 12.6748   4
  -6  -4  16 18.9825 10.3758   2
   6  -4 -17-7.50610 9.70975   3
   6  -4 -17-14.0590 8.83716   5
  -6   4 -17 16.1468 13.0249   4
  -6  -4  17 28.6381 10.6680   2
   6  -4 -18-8.84671 10.1152   3
   6  -4 -18 0.87338 8.63941   5
  -6   4 -18 19.5255 12.4809   4
  -6  -4  18 25.7603 11.1464   2
   6  -4 -19 7.05755 10.7826   3
   6  -4 -19-0.22343 8.75550   5
  -6   4 -19 18.4674 12.9067   4
  -6  -4  19 28.9953 11.6415   2
   6  -4 -20 22.9881 11.4917   3
   6  -4 -20 4.57213 9.18918   5
  -6   4 -20 25.0440 14.0381   4
  -6  -4  20 34.6484 12.0460   2
   6  -4 -21 28.0415 11.8639   3
   6  -4 -21-3.26628 9.15898   5
  -6   4 -21 16.7448 14.6044   4
  -6  -4  21 39.3288 13.1009   2
   6  -4 -22 14.1870 11.4036   3
  -6   4 -22-6.37422 14.3707   4
  -6  -4  22 30.6419 13.0782   2
   6  -4 -23 4.54377 11.5173   3
  -6   4 -23-10.7318 14.9461   4
  -6  -4  23-15.1965 13.4292   2
   6  -4 -24 8.92222 11.2837   3
  -6   4 -24-3.60327 14.8020   4
  -6  -4  24-1.20008 13.3572   2
   6  -4 -25 9.16815 11.5862   3
  -6   4 -25 14.6880 14.4856   4
  -6  -4  25-10.0127 12.7148   2
   6  -4 -26 1.69975 11.9346   3
  -6   4 -26 0.66167 14.1995   4
  -6  -4  26 10.8345 13.0337   2
  -6   4 -27 3.45256 15.0872   4
  -6  -5 -23-12.7687 13.7515   4
  -6  -5 -22 1.19336 13.5795   4
  -6  -5 -21 43.1799 14.6737   4
  -6  -5 -20 4.88816 13.2489   4
  -6  -5 -19 1.96938 12.9938   4
  -6  -5 -18 23.9253 13.0827   4
  -6  -5 -17 33.8615 13.4715   4
  -6  -5 -16 7.87646 12.7919   4
  -6  -5 -15 21.6871 12.3640   4
  -6  -5 -14 30.8902 12.7268   4
  -6  -5 -13 8.51273 12.0333   4
  -6  -5 -12 29.4405 11.8562   4
  -6  -5 -11 9.35261 10.7712   4
  -6  -5 -11-3.37582 7.85354   3
   6  -5  11-17.7817 7.77131   7
  -6  -5 -10 28.8884 11.2719   4
  -6  -5 -10 49.6662 8.49413   3
   6  -5  10 24.2754 8.17882   7
  -6  -5  -9 30.7513 10.5091   4
  -6  -5  -9 30.9060 8.54216   3
   6   5  -9 42.5235 9.94575   9
   6  -5   9 8.91505 7.74630   7
  -6  -5  -8 77.6116 12.8323   4
  -6  -5  -8 69.1457 11.0291   3
   6   5  -8 66.5131 12.1008   9
   6  -5   8 69.2127 10.8284   7
   6   5  -7 42.6240 8.27168   4
  -6  -5  -7 57.5212 11.0807   4
  -6  -5  -7 54.1218 8.61255   3
   6   5  -7 44.4831 10.3620   9
   6  -5   7 46.7939 9.73860   1
   6  -5   7 26.9227 8.60272   7
   6   5  -6 21.5440 6.78336   4
  -6  -5  -6 17.5751 9.56552   4
  -6  -5  -6 10.6861 7.00665   3
   6   5  -6 21.4663 8.54685   9
   6  -5   6 13.0288 6.99585   7
   6  -5   6 27.8117 7.92914   1
   6   5  -5 42.4061 8.63282   4
   6  -5   5 64.4272 10.1166   1
  -6  -5  -5 62.5106 9.09452   3
   6   5  -5 54.7530 10.0295   9
   6  -5   5 45.7417 9.11809   7
   6   5  -4 3.38956 6.29554   4
   6  -5   4 0.91078 7.65783   1
   6   5  -4 6.10621 8.19935   9
   6  -5   4 3.57277 7.12834   7
  -6  -5  -3 15.5246 6.35787   6
   6   5  -3 26.2986 6.80228   4
   6   5  -3 15.0619 8.22535   9
   6  -5   3 2.63519 8.52549   1
   6  -5   3 8.75531 7.23530   7
  -6  -5  -2 76.2430 11.6008   6
   6   5  -2 104.542 11.9093   4
   6  -5   2 99.5559 12.0807   7
   6  -5   1 277.724 27.4281   7
   6   5  -1 247.709 27.3552   4
  -6   5   0 190.583 23.5365   4
   6  -5   0 238.100 23.5314   7
   6   5   0 242.931 23.6106   4
   6   5   1 233.224 26.2575   4
  -6   5  -1 187.658 26.2043   4
   6  -5  -1 251.817 26.1553   7
   6  -5  -2 118.147 12.9334   7
   6  -5  -2 83.9328 12.5532   5
   6   5   2 102.447 13.0107   4
  -6   5  -2 79.0223 13.2539   4
   6  -5  -3 9.87159 6.77036   7
   6  -5  -3 8.27192 6.30969   5
   6   5   3-3.00317 6.96866   4
  -6   5  -3 2.63526 7.90599   4
   6  -5  -4 21.4539 7.11734   7
   6  -5  -4 11.9701 6.59784   5
   6   5   4-0.75027 7.66714   4
  -6   5  -4 7.57316 8.22314   4
   6  -5  -5 51.3981 8.82189   7
   6  -5  -5 46.3014 8.50819   5
   6   5   5 41.6089 9.37219   4
  -6   5  -5 35.2331 9.83471   4
   6  -5  -6 28.1082 7.60833   7
   6  -5  -6 31.9308 7.40282   5
   6   5   6 23.2090 8.60694   4
  -6   5  -6 13.9200 8.93769   4
   6  -5  -7 35.6875 8.28874   7
   6  -5  -7 26.8129 7.86922   5
  -6   5  -7 25.5915 9.76627   4
   6  -5  -8 76.1266 12.4981   7
   6  -5  -8 88.2665 12.2043   5
  -6  -5   8 89.0230 12.2487   2
  -6   5  -8 84.5487 13.4930   4
   6  -5  -9 25.6613 8.54361   7
   6  -5  -9 31.9472 8.16275   5
  -6   5  -9 20.2852 9.97865   4
  -6  -5   9 45.9700 8.73469   2
   6  -5 -10 43.0449 8.55590   7
   6  -5 -10 16.0042 8.31188   5
  -6   5 -10 12.4481 10.1791   4
  -6  -5  10 51.9353 8.82236   2
   6  -5 -11 18.9228 7.73931   7
   6  -5 -11 14.2334 7.60806   3
   6  -5 -11 6.17055 7.87317   5
  -6   5 -11 15.6994 10.0604   4
  -6  -5  11 26.0647 8.44167   2
   6  -5 -12 8.01049 7.81335   7
   6  -5 -12 1.23548 7.70667   3
   6  -5 -12 8.09165 7.97554   5
  -6   5 -12 1.97250 10.2911   4
  -6  -5  12 20.0413 8.69080   2
   6  -5 -13 24.5531 8.44879   7
   6  -5 -13 46.9860 8.83700   3
   6  -5 -13 15.5066 9.06884   5
  -6   5 -13 17.3157 11.2475   4
  -6  -5  13 29.9368 9.34521   2
   6  -5 -14 30.7308 8.62071   7
   6  -5 -14 31.3296 8.73971   3
   6  -5 -14 6.46303 9.22170   5
  -6   5 -14 35.1257 12.0276   4
  -6  -5  14 39.1032 9.85585   2
   6  -5 -15 16.8642 8.77608   7
   6  -5 -15 32.9667 9.23991   3
   6  -5 -15 17.7526 9.17587   5
  -6   5 -15 26.5719 12.8606   4
   6  -5 -16 4.97149 9.37657   3
   6  -5 -16 34.1070 8.91772   5
  -6   5 -16 17.9867 12.5371   4
  -6  -5  16 39.8454 10.8988   2
   6  -5 -17 11.4629 9.37471   3
   6  -5 -17 3.08710 9.03947   5
  -6   5 -17 21.7838 13.0789   4
   6  -5 -18 1.45480 9.77008   3
   6  -5 -18 12.1469 8.98047   5
  -6   5 -18 20.6915 14.0695   4
  -6  -5  18 41.0968 11.9150   2
   6  -5 -19 22.2258 10.1523   3
   6  -5 -19 2.06443 8.86303   5
  -6   5 -19 3.00792 14.0839   4
   6  -5 -20 17.2426 10.3290   3
   6  -5 -20-6.54247 8.75732   5
  -6   5 -20 17.3249 14.0443   4
  -6  -5  20 16.1188 12.3529   2
   6  -5 -21 32.0024 11.1626   3
  -6   5 -21 10.0492 14.1155   4
  -6  -5  21-3.33684 12.6652   2
   6  -5 -22-4.37816 11.0703   3
  -6   5 -22 14.1089 14.0438   4
  -6  -5  22 7.45881 12.6189   2
   6  -5 -23-1.58968 11.5154   3
  -6   5 -23 11.1274 15.0301   4
  -6  -5  23-20.6787 13.2330   2
   6  -5 -24 1.41967 11.5951   3
  -6   5 -24-10.1134 15.5720   4
  -6  -5  24 1.81929 13.2672   2
   6  -5 -25-0.48904 12.0523   3
  -6   5 -25 1.76292 15.4750   4
  -6  -5  25-37.9038 13.6119   2
  -6   5 -26 1.42191 15.2487   4
  -6  -6 -22 14.9206 13.0850   4
  -6  -6 -21-2.82237 12.7753   4
  -6  -6 -20 4.98972 12.5300   4
  -6  -6 -19 10.8819 12.6211   4
  -6  -6 -18-1.33491 12.4947   4
  -6  -6 -17 9.94085 12.3709   4
  -6  -6 -16 13.5867 12.3358   4
  -6  -6 -15 21.5877 12.2740   4
  -6  -6 -14 25.4271 12.2869   4
  -6  -6 -13 2.87223 11.6289   4
  -6  -6 -12 9.37068 11.2101   4
  -6  -6 -12 2.81311 9.09422   3
  -6  -6 -11 13.4520 8.85859   3
   6  -6  11 21.8329 8.45738   7
  -6  -6 -10 124.475 15.5776   3
   6  -6  10 103.028 15.0596   7
  -6  -6  -9 106.994 15.1838   3
   6   6  -9 117.051 16.0403   9
   6  -6   9 104.748 14.6541   7
  -6  -6  -8 50.1720 10.0322   3
   6   6  -8 51.8033 11.6135   9
   6  -6   8 48.0596 9.77421   7
   6   6  -7 12.8825 7.48729   4
  -6  -6  -7 20.4100 7.91101   3
   6   6  -7 17.0333 9.77602   9
   6  -6   7-0.91221 7.79851   7
   6   6  -6 33.6939 8.32257   4
  -6  -6  -6 36.5960 8.57086   3
   6   6  -6 18.8635 9.96690   9
   6  -6   6 32.8159 8.70645   1
   6  -6   6 31.7603 8.30314   7
   6  -6   5 107.402 14.2807   1
   6   6  -5 113.014 14.0481   4
   6   6  -5 105.099 15.0203   9
   6  -6   5 93.8604 14.1651   7
   6  -6   4 238.533 25.6059   1
   6   6  -4 226.401 25.9898   9
   6   6  -4 212.124 25.2483   4
   6  -6   4 189.377 25.3852   7
  -6  -6  -3 128.776 16.0869   6
   6   6  -3 140.582 16.3749   4
   6  -6   3 108.859 16.6975   1
   6   6  -3 135.561 17.1678   9
   6  -6   3 131.991 16.6151   7
  -6  -6  -2 84.4978 11.0726   6
   6   6  -2 78.8951 11.3541   4
   6   6  -2 86.0113 12.5654   9
   6  -6   2 44.3130 12.1317   1
   6  -6   2 78.2705 11.5239   7
  -6  -6  -1 10.6461 7.27584   6
   6   6  -1 24.3969 7.66772   4
   6  -6   1 17.3584 7.48527   7
  -6  -6   0 8.08867 7.43525   6
   6   6   0 21.1786 7.70549   4
   6  -6   0 13.9661 7.41535   7
   6  -6  -1 0.66856 13.6513   1
   6   6   1 7.96553 7.65321   4
  -6   6  -1 1.72733 8.06405   4
   6  -6  -1 6.88016 7.02909   7
   6  -6  -2 88.4776 12.6384   7
   6   6   2 104.759 13.1718   4
  -6   6  -2 84.8019 13.3448   4
   6   6   3 140.906 17.8816   4
  -6   6  -3 125.443 18.3087   4
   6  -6  -3 151.580 17.3944   7
   6   6   4 222.277 23.1484   4
  -6   6  -4 155.075 23.3896   4
   6  -6  -4 194.242 22.8458   7
   6  -6  -5 117.932 15.9990   5
   6   6   5 136.890 16.4491   4
  -6   6  -5 105.647 16.9370   4
   6  -6  -5 140.747 16.1419   7
   6  -6  -6 22.9928 7.64217   7
   6  -6  -6 24.7745 7.58863   5
   6   6   6 32.0341 8.63992   4
  -6   6  -6 5.48268 9.57785   4
   6  -6  -7 12.7733 7.46157   7
   6  -6  -7 11.9747 7.22756   5
   6   6   7 10.2658 8.44826   4
  -6   6  -7 10.9697 9.89627   4
   6  -6  -8 48.8516 9.54502   7
   6  -6  -8 50.8336 9.23505   5
   6   6   8 48.7399 10.5624   4
  -6   6  -8 45.4528 11.6561   4
   6  -6  -9 80.3310 12.2090   7
   6  -6  -9 79.1533 12.1435   5
   6   6   9 86.4231 13.3382   4
  -6   6  -9 87.1936 14.2743   4
   6  -6 -10 97.3380 13.8360   7
   6  -6 -10 97.5427 13.9179   5
   6   6  10 122.032 14.9759   4
  -6   6 -10 84.8516 15.7575   4
   6  -6 -11 27.2569 8.52466   7
   6  -6 -11 24.2634 7.99614   5
   6   6  11 22.1103 9.88234   4
  -6   6 -11 14.2898 11.2282   4
   6  -6 -12 6.69252 7.78735   7
   6  -6 -12 4.58347 7.92049   5
   6   6  12 16.6365 9.56682   4
  -6   6 -12 3.22423 10.8359   4
   6  -6 -13-6.69987 8.14206   7
   6  -6 -13 5.24397 7.88170   5
   6   6  13-1.41581 9.39272   4
  -6   6 -13 8.80971 11.2134   4
   6  -6 -14 19.9322 9.30631   3
   6  -6 -14 22.3323 8.29867   5
  -6   6 -14 8.15016 11.7691   4
   6  -6 -15 33.0190 10.1046   3
   6  -6 -15 36.5088 9.21454   5
  -6   6 -15 27.8102 12.8496   4
   6  -6 -16 12.4076 9.25673   3
   6  -6 -16 17.0791 8.63413   5
  -6   6 -16 8.09655 12.5300   4
  -6  -6  16 34.7624 10.9319   2
   6  -6 -17 21.9763 9.87280   3
   6  -6 -17 15.2203 8.77388   5
  -6   6 -17 4.22685 13.1409   4
  -6  -6  17 42.2730 11.9497   2
   6  -6 -18 9.38869 9.87516   3
   6  -6 -18 6.96827 8.46230   5
  -6   6 -18 0.29528 13.5292   4
  -6  -6  18 22.0589 11.6818   2
   6  -6 -19 1.17309 9.92296   3
   6  -6 -19 3.33534 8.84483   5
  -6   6 -19 0.87614 13.5949   4
  -6  -6  19-7.56946 11.7707   2
   6  -6 -20 3.25159 10.3688   3
  -6   6 -20-10.8950 14.4032   4
  -6  -6  20-0.25414 11.4738   2
   6  -6 -21-1.05506 10.7502   3
  -6   6 -21-14.9647 15.2404   4
  -6  -6  21-4.99982 12.1682   2
   6  -6 -22 3.27858 10.9071   3
  -6   6 -22 12.3713 15.0931   4
  -6  -6  22-5.70641 12.0623   2
   6  -6 -23 4.74599 11.2391   3
  -6   6 -23 1.66627 14.5124   4
  -6  -6  23-4.75583 12.3799   2
   6  -6 -24 0.23842 11.5438   3
  -6   6 -24 2.03018 14.8855   4
  -6  -6  24 0.91747 13.1398   2
  -6   6 -25 0.73055 15.6363   4
  -6  -6  25-30.6752 13.4035   2
  -6  -7 -14 11.9227 10.4629   3
  -6  -7 -13 23.1720 10.3192   3
  -6  -7 -12 33.4780 10.4487   3
  -6  -7 -11 15.0463 9.83836   3
  -6  -7 -10 48.7744 11.5534   3
   6   7 -10 55.6684 12.4832   9
   6  -7  10 56.0978 11.0636   7
   6   7  -9 68.6580 14.3711   9
  -6  -7  -9 91.1726 13.5602   3
   6  -7   9 92.9954 13.1354   7
   6   7  -8 7.13318 8.33806   4
  -6  -7  -8-15.8340 8.80917   3
   6   7  -8 6.40074 10.4115   9
   6  -7   8-11.7330 8.24977   7
   6   7  -7 14.0578 8.80040   4
  -6  -7  -7 13.7387 8.68135   3
   6   7  -7 9.04499 10.2307   9
   6  -7   7 8.18129 8.16905   7
   6   7  -6 42.7485 9.23884   4
  -6  -7  -6 34.3318 9.54890   3
   6   7  -6 23.5046 11.0852   9
   6  -7   6 36.3115 9.21730   7
   6   7  -5 57.1453 10.7540   4
   6  -7   5 63.6154 10.5956   1
   6   7  -5 49.0643 11.7715   9
   6  -7   5 59.5944 10.3320   7
   6   7  -4 98.9490 13.3784   4
   6   7  -4 85.9147 14.5688   9
   6  -7   4 92.6724 13.2088   1
   6  -7   4 92.2256 13.1821   7
  -6  -7  -3 38.7278 8.76186   6
   6   7  -3 49.0263 9.27106   4
   6  -7   3 42.7026 9.06423   1
   6   7  -3 23.1949 10.9782   9
   6  -7   3 31.0691 8.89159   7
  -6  -7  -2 20.1509 7.80623   6
   6   7  -2 19.0570 8.02124   4
   6  -7   2-7.91580 7.82576   1
   6   7  -2 7.45682 9.82192   9
   6  -7   2 7.75397 7.53699   7
  -6  -7  -1 87.9379 12.0066   6
   6   7  -1 72.7133 12.1303   4
   6  -7   1 78.9607 12.2071   1
   6  -7   1 80.4419 12.0606   7
  -6  -7   0 17.8999 8.14001   6
   6   7   0 17.7952 8.29137   4
   6  -7   0 1.73430 10.1770   1
   6  -7   0 10.7248 7.97629   7
  -6  -7   1 45.5071 10.2161   6
   6   7   1 73.9683 10.9255   4
   6  -7  -1 53.4793 10.2124   7
   6   7   2 6.09013 8.24655   4
   6  -7  -2 16.4637 16.3676   1
  -6   7  -2-10.8545 8.88506   4
   6  -7  -2 15.9532 7.51144   7
   6   7   3 50.0921 9.78065   4
  -6   7  -3 25.3245 10.1746   4
   6  -7  -3 50.6983 8.70635   7
   6   7   4 89.2270 11.6074   4
  -6   7  -4 60.5341 12.3220   4
   6  -7  -4 54.7045 10.6978   7
   6  -7  -5 81.4682 10.8689   7
   6   7   5 77.8243 11.8847   4
  -6   7  -5 44.1797 12.8299   4
   6  -7  -6 22.0408 7.76665   7
   6   7   6 33.0571 9.18295   4
  -6   7  -6 22.5939 10.5658   4
   6  -7  -7 15.5370 7.32981   7
   6   7   7 15.3013 9.05023   4
  -6   7  -7 6.06139 10.3605   4
   6  -7  -8 17.5056 7.68589   7
   6   7   8 9.77596 8.88677   4
  -6   7  -8 8.87329 10.8765   4
   6  -7  -9 54.7192 10.0428   7
   6  -7  -9 46.3539 10.1098   5
   6   7   9 59.6090 11.2324   4
  -6   7  -9 76.0869 12.9346   4
   6  -7 -10 33.9570 8.78868   7
   6  -7 -10 47.1777 9.06600   5
   6   7  10 43.0775 10.5366   4
  -6   7 -10 38.4583 12.3931   4
   6  -7 -11 9.08545 7.80531   7
   6  -7 -11 10.9571 8.05823   5
   6   7  11 11.8626 9.26825   4
  -6   7 -11 18.8466 11.7839   4
   6  -7 -12 22.3882 8.14095   5
   6   7  12 25.4265 10.2609   4
  -6   7 -12 11.8408 11.9102   4
   6  -7 -13 5.89836 7.72109   5
   6   7  13 8.07776 9.73819   4
  -6   7 -13-14.5007 11.9824   4
   6  -7 -14 10.9529 7.79628   5
   6   7  14 12.7880 9.95755   4
  -6   7 -14 9.42880 12.3407   4
   6  -7 -15 15.5641 7.83565   5
   6   7  15-3.03734 10.1356   4
  -6   7 -15 20.1742 12.2702   4
   6  -7 -16 15.9577 7.94775   5
   6   7  16-2.90890 10.3591   4
  -6   7 -16-0.27692 13.1114   4
   6  -7 -17 8.83578 8.35201   5
   6   7  17-0.68293 10.2525   4
  -6   7 -17-0.28870 12.7111   4
   6  -7 -18 11.9182 8.13597   5
   6   7  18 2.08326 10.6785   4
  -6   7 -18 2.41303 13.9067   4
   6  -7 -19 10.2217 10.3583   3
   6   7  19 7.28717 10.6517   4
  -6   7 -19 11.9137 14.1395   4
   6  -7 -20 0.41494 10.4830   3
   6   7  20 4.29412 10.7035   4
  -6   7 -20 0.66196 14.9806   4
   6  -7 -21 10.3032 10.8112   3
   6   7  21 2.90405 10.6308   4
  -6   7 -21-0.32203 14.4295   4
   6  -7 -22 6.65145 10.8857   3
  -6   7 -22-4.56878 15.1271   4
   6  -7 -23 0.68520 11.0943   3
  -6   7 -23 6.89725 15.8857   4
  -6  -8 -15-5.91066 11.1632   3
  -6  -8 -14 26.7830 11.3547   3
  -6  -8 -13 15.4837 10.9327   3
  -6  -8 -12 12.3252 11.0447   3
  -6  -8 -11-5.56487 10.9053   3
  -6  -8 -10 12.7495 10.5163   3
   6   8 -10 29.5938 11.8440   9
  -6  -8  -9-0.94336 10.1795   3
   6   8  -9 29.5160 11.4959   9
   6   8  -8 18.1722 9.25470   4
  -6  -8  -8 13.2694 9.84288   3
   6   8  -8 3.27671 11.5269   9
   6  -8   8-0.22050 8.98237   7
   6   8  -7 2.61941 9.35137   4
  -6  -8  -7 21.8243 9.81020   3
   6   8  -7 10.9386 10.9744   9
   6  -8   7 8.00367 8.59067   7
   6   8  -6 15.4493 10.0364   4
  -6  -8  -6 17.6620 9.49971   3
   6   8  -6 11.2843 11.1371   9
   6  -8   6 26.3023 9.00225   7
   6   8  -5 0.36454 9.19028   4
   6   8  -5 10.8415 10.2674   9
   6  -8   5 3.31571 8.47885   7
   6   8  -4 12.7724 9.14622   4
  -6  -8  -4 1.87291 8.28883   6
   6  -8   4-2.83618 8.24120   1
   6   8  -4 11.8057 10.7620   9
   6  -8   4 13.0718 8.26560   7
   6   8  -3-5.09777 8.88318   4
  -6  -8  -3 21.8636 8.51618   6
   6   8  -3-10.7378 10.9479   9
   6  -8   3 11.4121 7.93460   1
   6  -8   3 6.02735 8.03364   7
   6  -8   2 34.1211 8.33037   1
  -6  -8  -2 22.9800 8.95988   6
   6   8  -2 32.1079 9.41770   4
   6   8  -2 16.6909 10.9411   9
   6  -8   2 20.0772 8.38996   7
  -6  -8  -1 27.4159 8.74457   6
   6   8  -1 17.3023 9.16500   4
   6  -8   1 9.63399 7.84319   7
  -6  -8   0 12.8018 8.96679   6
   6   8   0 35.6559 9.27443   4
   6  -8   0 25.0607 8.35386   7
  -6  -8   1 25.5100 9.34212   6
   6   8   1 11.1219 9.12192   4
   6  -8  -1 37.3462 8.76828   7
  -6  -8   2 29.8209 9.45808   6
   6   8   2 42.7773 9.77255   4
  -6   8  -2 13.8743 10.3144   4
   6  -8  -2 40.9638 9.06341   7
   6   8   3 6.33310 9.19820   4
  -6   8  -3 0.20796 10.1209   4
   6  -8  -3 25.2468 7.94254   7
   6   8   4 0.58274 9.39460   4
  -6   8  -4-10.7107 10.5367   4
   6  -8  -4 11.4606 7.74334   7
   6   8   5 23.7978 9.47907   4
  -6   8  -5 3.80744 10.8957   4
   6  -8  -5 19.6681 8.08148   7
   6   8   6 13.4849 9.22979   4
  -6   8  -6 0.22678 10.7297   4
   6  -8  -6 3.57669 7.45284   7
   6   8   7-0.99057 9.55563   4
  -6   8  -7 14.4817 11.2195   4
   6  -8  -7 14.7736 7.25674   7
   6  -8  -8-5.37238 6.88215   7
   6   8   8-4.24240 9.52565   4
  -6   8  -8 0.24222 11.7886   4
   6   8   9 5.04269 9.54870   4
  -6   8  -9 0.49891 11.7058   4
   6   8  10 11.1327 10.0102   4
  -6   8 -10-7.12482 11.6023   4
   6   8  11 4.41292 9.96383   4
  -6   8 -11 12.6425 12.0041   4
   6   8  12 25.8273 10.1321   4
  -6   8 -12 13.3424 12.7050   4
   6   8  13 24.3605 10.2029   4
  -6   8 -13 16.3697 13.0253   4
   6   8  14 17.4677 10.3354   4
  -6   8 -14 13.9259 12.7841   4
   6   8  15 11.3012 10.2587   4
  -6   8 -15 17.1702 13.3488   4
   6   8  16 10.1219 10.2015   4
  -6   8 -16 5.57669 13.1372   4
   6   8  17-1.60807 10.2911   4
  -6   8 -17 5.10219 13.7148   4
   6   8  18 4.42443 10.3531   4
  -6   8 -18 0.30924 13.6078   4
   6   8  19 15.5589 10.6396   4
  -6   8 -19-9.26691 14.1798   4
   6   8  20 20.5097 10.6785   4
  -6   8 -20 2.98938 14.9404   4
  -6   8 -21 0.35366 15.3195   4
  -6  -9 -16 0.23689 11.7747   3
  -6  -9 -15-0.23283 11.7389   3
  -6  -9 -14 10.6459 11.8844   3
  -6  -9 -13 17.6307 12.3091   3
  -6  -9 -12 1.86126 11.7813   3
  -6  -9 -11 19.8639 11.5321   3
  -6  -9 -10 7.86086 10.9545   3
   6   9 -10 17.3961 12.1828   9
  -6  -9  -9 10.5988 10.8207   3
   6   9  -9 13.0625 11.9186   9
   6   9  -8 28.3571 10.4744   4
  -6  -9  -8 20.5473 11.2337   3
   6   9  -8 36.0220 12.6179   9
   6   9  -7 34.9210 10.7824   4
  -6  -9  -7 41.8119 11.1282   3
   6   9  -7 24.2386 12.4166   9
   6  -9   7 25.8140 10.1020   7
   6   9  -6 12.8963 10.5728   4
   6   9  -6 27.6749 12.0052   9
   6  -9   6 38.7278 9.91868   7
   6   9  -5 20.6253 10.5545   4
   6   9  -5 7.42390 11.3016   9
   6  -9   5 6.58205 8.98878   7
   6   9  -4 23.7030 10.2564   4
  -6  -9  -4 19.6477 9.58375   6
   6   9  -4 23.4100 11.5281   9
   6  -9   4 8.80196 8.57411   7
   6   9  -3 4.28790 9.88085   4
  -6  -9  -3 11.7056 9.55145   6
   6   9  -3 15.7330 11.5397   9
   6  -9   3 23.1562 9.12227   7
   6   9  -2-5.61838 9.90680   4
  -6  -9  -2-9.18798 9.35020   6
   6   9  -2 12.2139 11.2209   9
   6  -9   2 9.95757 8.46525   7
  -6  -9  -1 10.6426 9.36807   6
   6   9  -1-1.81326 9.87992   4
   6   9  -1-3.22041 11.1858   9
   6  -9   1 4.43077 8.09707   7
  -6  -9   0 10.9434 9.78978   6
   6   9   0 19.1837 9.97748   4
   6  -9   0 28.3867 8.48203   7
  -6  -9   1-14.4365 9.50731   6
   6   9   1-0.80302 9.77221   4
   6  -9  -1 4.49331 7.99687   7
   6   9   2 21.5599 9.59758   4
   6  -9  -2 7.94549 7.85447   7
  -6  -9   3-1.89008 9.54574   6
   6   9   3-9.43195 9.58575   4
  -6   9  -3 12.1971 10.5378   4
   6  -9  -3 6.76838 7.66056   7
   6   9   4 1.01814 9.63746   4
  -6   9  -4-12.2446 10.8969   4
   6  -9  -4 19.8932 8.14002   7
   6   9   5 6.86976 9.83139   4
  -6   9  -5-17.8487 11.0952   4
   6  -9  -5 5.38207 8.16217   7
   6   9   6 42.8533 11.0396   4
   6  -9  -6 27.5987 8.53879   7
   6   9   7 50.7650 11.4814   4
  -6   9  -7 27.2982 12.8828   4
   6   9   8 27.4782 10.2817   4
  -6   9  -8-6.75469 11.9358   4
   6   9   9 8.15860 10.1927   4
  -6   9  -9 4.79671 12.3133   4
   6   9  10 18.2189 10.2869   4
  -6   9 -10 9.90953 12.7296   4
   6   9  11 1.57467 10.7828   4
  -6   9 -11 20.9170 13.3139   4
   6   9  12-0.68363 10.3830   4
  -6   9 -12 0.28371 12.8773   4
   6   9  13 6.25847 10.5286   4
  -6   9 -13 23.3892 13.2745   4
   6   9  14 6.33142 10.7928   4
  -6   9 -14-0.30446 13.8572   4
   6   9  15 5.45932 10.8124   4
  -6   9 -15-14.2389 13.7207   4
   6   9  16 8.88282 10.8543   4
  -6   9 -16 4.64487 14.0613   4
   6   9  17 4.76926 10.3854   4
  -6   9 -17-12.0512 14.0276   4
   6   9  18 3.61252 10.6738   4
  -6   9 -18-7.75601 14.4622   4
   6   9  19 0.97197 10.5862   4
  -6   9 -19 4.94801 14.2246   4
  -6 -10 -17 55.4561 13.7287   3
  -6 -10 -16 0.26119 12.6365   3
  -6 -10 -15 5.28236 12.8285   3
  -6 -10 -14 4.38007 12.7573   3
  -6 -10 -13 1.47893 12.1095   3
  -6 -10 -12 11.8998 12.2153   3
  -6 -10 -11-3.30342 11.8401   3
  -6 -10 -10 14.0344 11.5620   3
   6  10 -10 21.5578 12.6744   9
  -6 -10  -9 34.4419 12.3418   3
   6  10  -9 40.3318 13.2630   9
  -6 -10  -8 31.9433 11.7603   3
   6  10  -8 41.3384 12.9421   9
   6  10  -7 5.78585 10.4057   4
   6  10  -7-6.40878 12.2272   9
   6  10  -6 5.40490 10.6358   4
   6  10  -6-5.86542 12.1142   9
   6  10  -5 4.73884 10.5272   4
   6  10  -5 14.0573 11.7422   9
   6 -10   5 2.63338 9.56405   7
   6  10  -4 28.1454 11.7051   4
  -6 -10  -4 3.04679 10.1979   6
   6  10  -4 23.3899 11.7457   9
   6 -10   4 0.69443 8.93519   7
   6  10  -3 26.3767 11.3580   4
  -6 -10  -3 25.4885 10.4861   6
   6  10  -3 4.78073 12.3181   9
   6 -10   3 17.3660 9.31873   7
   6  10  -2 20.4129 10.6338   4
  -6 -10  -2 8.29109 10.2686   6
   6  10  -2 9.81497 12.3061   9
   6 -10   2 7.05812 8.99360   7
   6  10  -1 7.46330 10.7415   4
  -6 -10  -1-0.84450 10.1614   6
   6  10  -1 13.3791 11.8753   9
   6 -10   1 3.75052 8.69306   7
   6  10   0 8.06250 10.9871   4
  -6 -10   0 22.9008 10.3371   6
   6  10   0-3.45770 11.7651   9
   6 -10   0-16.2921 8.73206   7
  -6 -10   1 13.1907 10.3839   6
   6  10   1 14.6708 10.7571   4
   6 -10  -1 3.37235 8.37673   7
  -6 -10   2-6.26583 10.5996   6
   6  10   2 10.7150 10.4807   4
  -6 -10   3 8.44780 10.4462   6
   6  10   3 10.3364 10.6650   4
   6 -10  -3 15.9374 8.28718   7
  -6 -10   4 21.2754 10.4657   6
   6  10   4 3.34033 10.2990   4
  -6  10  -4-0.24780 11.2674   4
   6  10   5 1.55838 10.3086   4
  -6  10  -5-0.25745 11.8905   4
   6  10   6 1.56430 10.5518   4
  -6  10  -6-0.26811 12.5996   4
   6  10   7 11.7323 10.7036   4
  -6  10  -7 18.4565 13.0012   4
   6  10   8 10.9880 10.6093   4
  -6  10  -8-8.24635 12.9801   4
   6  10   9 22.6686 11.0235   4
  -6  10  -9 9.15402 13.2702   4
   6  10  10 17.4267 11.1523   4
  -6  10 -10 13.4515 13.0734   4
   6  10  11 8.82055 11.2957   4
  -6  10 -11 31.0371 13.7395   4
   6  10  12 11.6172 11.2999   4
  -6  10 -12 3.39000 13.6601   4
   6  10  13 5.74070 11.0712   4
  -6  10 -13-5.93088 14.0272   4
   6  10  14 7.49907 11.0376   4
  -6  10 -14-0.31693 13.9245   4
   6  10  15 10.8431 11.0512   4
  -6  10 -15 0.65800 14.4892   4
   6  10  16-0.50326 10.9518   4
  -6  10 -16 13.6584 14.1649   4
   6  10  17 0.76076 11.0213   4
  -6  10 -17 10.2979 14.3149   4
   6  10  18 1.27562 10.6949   4
  -6 -11 -14 0.26035 12.5381   3
  -6 -11 -13-0.25892 12.2541   3
  -6 -11 -12-0.25451 12.2396   3
  -6 -11 -11 0.99160 12.2785   3
  -6 -11 -10-39.3392 12.2993   3
   6  11 -10 6.28732 12.9281   9
  -6 -11  -9 5.35989 12.0108   3
   6  11  -9 10.7127 12.9500   9
   6  11  -8 3.55790 11.0608   4
   6  11  -8 22.7259 13.1272   9
   6  11  -7 4.53452 10.9927   4
   6  11  -7 1.14427 12.4699   9
   6  11  -6 8.46287 11.3558   4
   6  11  -6 7.19468 12.7261   9
   6  11  -5 11.2568 11.4917   4
   6  11  -5 19.3154 12.4494   9
   6  11  -4 15.2206 11.2980   4
   6  11  -4 9.66104 12.2110   9
   6  11  -3 21.5221 11.9056   4
  -6 -11  -3 21.0849 10.9959   6
   6  11  -3 5.90792 12.3868   9
   6 -11   3-0.24564 9.37539   7
   6  11  -2 32.5423 12.1118   4
  -6 -11  -2 11.5118 11.0184   6
   6  11  -2 11.9305 12.6117   9
   6 -11   2 4.47212 8.93908   7
   6  11  -1 8.58109 11.9434   4
  -6 -11  -1 2.05103 10.8189   6
   6  11  -1 12.0325 12.6852   9
   6 -11   1-1.82602 8.90239   7
   6  11   0-7.11556 11.5276   4
  -6 -11   0 12.9888 11.1982   6
   6  11   0 17.8281 12.4865   9
   6 -11   0 2.25731 8.93510   7
   6  11   1 2.96748 11.4280   4
  -6 -11   1 5.26868 11.1372   6
   6  11   1-11.3240 12.4923   9
   6 -11  -1 5.71988 8.72696   7
  -6 -11   2 22.4847 11.3591   6
   6  11   2-1.00318 11.5202   4
  -6 -11   3 16.3684 11.1759   6
   6  11   3 4.31372 11.5616   4
  -6 -11   4 4.74051 11.1363   6
   6  11   4 17.9203 11.4172   4
   6  11   5-11.3033 11.3240   4
  -6  11  -5 0.27312 12.2415   4
   6  11   6-5.18713 11.1782   4
  -6  11  -6-0.28304 12.7070   4
   6  11   7 11.8001 11.1580   4
  -6  11  -7 0.29383 13.1247   4
   6  11   8 1.72530 10.9607   4
  -6  11  -8 0.91689 13.5687   4
   6  11   9 9.59512 11.0825   4
  -6  11  -9 4.64889 13.6887   4
   6  11  10 12.0729 11.0797   4
  -6  11 -10 6.84064 13.8258   4
   6  11  11 6.20892 10.6977   4
  -6  11 -11 6.97298 13.8104   4
   6  11  12 7.49762 11.0283   4
  -6  11 -12 6.83650 14.3331   4
   6  11  13-0.75859 10.9855   4
  -6  11 -13 2.96796 14.2336   4
   6  11  14 11.7024 10.9502   4
  -6  11 -14 0.66235 13.9816   4
   6  12  -9 0.24219 13.0811   9
   6  12  -8 2.63373 13.0095   9
   6  12  -8 10.4426 11.1821   4
   6  12  -7-6.39645 11.4218   4
   6  12  -7 10.6723 13.1572   9
   6  12  -6 20.3768 11.6547   4
   6  12  -6 4.48313 12.6109   9
   6  12  -5 2.58354 11.6153   4
   6  12  -5 7.20188 12.4882   9
   6  12  -4-4.18496 11.6756   4
   6  12  -4 9.76768 12.5434   9
   6  12  -3 14.2926 12.0688   4
  -6 -12  -3-0.20393 11.6481   6
   6  12  -3 9.26514 12.3189   9
   6  12  -2 0.53058 12.1427   4
  -6 -12  -2-0.61049 11.5685   6
   6  12  -2 5.53512 12.5306   9
   6  12  -1 3.24669 12.2540   4
  -6 -12  -1 5.30291 11.5435   6
   6  12  -1 7.46657 12.8365   9
   6  12   0 0.27930 12.8791   4
  -6 -12   0 2.05233 11.8469   6
   6  12   0 2.35578 12.9371   9
   6  12   1 0.56214 12.4617   4
  -6 -12   1 0.40989 11.5790   6
   6  12   1 0.23292 12.7380   9
   6  12   2 17.2683 12.2182   4
  -6 -12   2 0.62113 11.6078   6
   6  12   2 0.23062 12.4737   9
   6  12   3-0.53370 12.1820   4
  -6 -12   3 0.61155 11.5880   6
  -6 -12   4 0.20488 11.5780   6
   6  12   4-0.80605 11.9578   4
   6  12   5 6.53679 12.1237   4
   6  12   6 16.2345 12.2250   4
   6  12   7 7.25997 11.7909   4
  -6  12  -7 0.31197 13.5002   4
   6  12   8 6.95090 11.4455   4
  -6  12  -8 2.26698 13.9386   4
   6  12   9 3.20391 11.5816   4
  -6  12  -9 0.65572 13.9849   4
  -6  12 -10 2.29683 14.1053   4
  -6 -13  -3 0.21897 11.8790   6
   7   0   0-8.72261 6.27916   7
  -7   0   0 0.13513 7.24897   4
  -7   0  -1 215.429 24.4991   4
   7   0   1 264.457 24.2734   7
  -7   0  -2 239.851 34.9681   4
   7   0   2 360.802 34.8229   7
  -7   0  -3 611.198 73.0920   4
   7   0   3 674.100 72.8014   7
  -7   0  -4 570.742 52.8373   4
   7   0   4 615.195 52.3062   7
  -7   0  -5 258.723 31.6044   4
   7   0   5 273.486 30.6805   7
   7   0   6 7.72837 5.11562   7
   7   0   6-0.22564 9.24884   1
  -7   0  -6 11.0193 9.10108   4
  -7   0  -7 17.4699 10.0845   4
   7   0   7 40.3628 8.14138   1
   7   0   7 29.5432 6.23046   7
   7   0   8 70.3225 9.97317   1
  -7   0  -8 65.1774 12.0997   4
   7   0   8 53.7253 8.79016   7
  -7   0  -9 57.1446 11.9102   4
   7   0   9 56.8377 9.62371   1
  -7   0 -10-10.7472 10.8092   4
   7   0  10 17.1706 7.44900   1
  -7   0 -11 5.35081 10.8682   4
  -7   0 -12 33.0429 12.0096   4
  -7   0 -13 3.11226 11.7228   4
  -7   0 -14 16.7935 11.9937   4
  -7   0 -15 144.154 20.9082   4
  -7   0 -16 61.8793 14.6941   4
  -7   0 -17 31.4263 13.0650   4
  -7   0 -18 26.3708 13.3478   4
  -7   0 -19 5.65406 13.1483   4
  -7   0  19 18.5058 11.8833   2
  -7   0 -20 0.29176 13.4912   4
  -7   0  20 31.9767 12.2398   2
  -7   0 -21 39.5768 14.7617   4
  -7   0  21 26.2642 13.1681   2
  -7   0 -22 19.5526 14.3369   4
  -7   0  22 17.9914 12.8833   2
  -7   0 -23 1.59696 14.6152   4
  -7   0  23 10.1742 13.1597   2
  -7   0 -24 5.09741 14.1370   4
  -7   0  24 6.64912 12.8572   2
  -7   0 -25-2.54957 14.1373   4
  -7   0  25 0.88599 12.9167   2
  -7   0 -26 6.31097 13.9262   4
  -7   0  26 9.92191 12.8629   2
  -7   0 -27-7.99692 14.5963   4
  -7  -1 -26 1.71851 15.0155   4
  -7  -1 -25 6.37346 14.9082   4
  -7  -1 -24-1.63681 14.5263   4
  -7  -1 -23 11.7061 14.5019   4
  -7  -1 -22-13.0944 13.9220   4
  -7  -1 -21 8.97472 13.6032   4
  -7  -1 -20 16.3162 12.7145   4
  -7  -1 -19-11.0870 12.6065   4
  -7  -1 -18 9.80004 12.6243   4
  -7  -1 -17 26.1890 12.6985   4
  -7  -1 -16 32.5803 12.4942   4
  -7  -1 -15 3.85393 11.4280   4
  -7  -1 -14 41.2835 12.8636   4
  -7  -1 -13 101.401 16.5449   4
  -7  -1 -12 81.4089 14.5374   4
  -7  -1 -11 125.835 17.8788   4
  -7  -1 -10 205.303 29.3884   4
   7  -1  10 288.065 28.6628   1
   7  -1  10 233.376 27.8476   7
  -7  -1  -9 200.785 27.3726   4
   7  -1   9 266.251 26.5862   1
   7  -1   9 211.505 25.8579   7
   7  -1   8 71.3627 10.1192   1
  -7  -1  -8 43.6469 11.4667   4
   7  -1   8 55.1171 8.75509   7
  -7  -1  -7 290.325 42.0492   4
   7  -1   7 351.399 41.3449   7
  -7  -1  -6 306.528 25.0341   4
   7  -1   6 286.028 23.7462   7
   7  -1   5 85.7310 9.95746   7
  -7  -1  -5 68.6918 12.2154   4
   7  -1   4 58.1887 9.20739   7
   7  -1   4 64.7562 8.23793   5
  -7  -1  -4 46.3431 11.2453   4
   7  -1   3 11.3566 6.16543   7
   7  -1   3 5.57155 4.77766   5
  -7  -1  -3 8.84258 8.72631   4
   7  -1   2 259.575 27.6998   5
  -7  -1  -2 197.196 28.4597   4
   7  -1   2 248.020 27.8926   7
   7  -1   1 241.911 27.5190   5
  -7  -1  -1 193.858 28.0968   4
   7  -1   1 276.770 27.8721   7
   7  -1   0 15.4156 6.74937   7
  -7  -1   0 14.4051 7.97050   4
  -7   1   0 13.8046 7.30959   4
  -7   1  -1 159.639 21.3613   4
   7  -1  -1 201.532 21.0381   7
   7   1   1 204.541 20.7271   7
  -7   1  -2 241.939 29.0391   4
   7   1   2 291.685 28.4513   7
   7  -1  -2 310.930 28.7321   7
   7   1   3-1.23546 5.58732   7
  -7   1  -3-6.57604 8.30495   4
   7   1   4 86.2178 9.67644   7
  -7   1  -4 67.4873 12.3288   4
   7   1   5 86.0173 10.7664   7
  -7   1  -5 76.1723 13.1435   4
  -7   1  -6 304.915 29.4167   4
   7   1   6 322.798 28.1506   7
  -7   1  -7 327.450 50.1799   4
   7   1   7 517.732 49.7959   1
   7   1   8 57.7536 8.97602   1
  -7   1  -8 29.9226 11.0614   4
  -7   1  -9 176.257 26.6571   4
   7   1   9 240.402 25.5577   1
   7   1  10 305.858 31.7608   1
  -7   1 -10 217.254 32.7281   4
  -7   1 -11 120.338 17.3970   4
  -7   1 -12 115.095 17.3956   4
  -7   1 -13 135.757 19.5409   4
  -7   1 -14 56.9453 13.8549   4
  -7   1 -15 10.7302 12.6093   4
  -7   1 -16 41.1556 15.4560   4
  -7  -1  16 77.9554 13.3556   2
  -7   1 -17 43.4462 14.6805   4
  -7  -1  17 46.5908 12.5875   2
  -7   1 -18 33.3813 13.9042   4
  -7  -1  18 37.4832 12.3572   2
  -7   1 -19 11.9135 13.3003   4
  -7  -1  19 2.02563 11.9312   2
  -7   1 -20 8.99948 14.5310   4
  -7  -1  20 60.0619 13.1838   2
  -7   1 -21 23.2364 15.0639   4
  -7  -1  21 50.6759 13.5086   2
  -7   1 -22-7.66421 14.6427   4
  -7  -1  22 16.5319 13.0874   2
   7  -1 -23-2.05137 13.0418   3
  -7   1 -23 5.89236 14.7914   4
  -7  -1  23 11.4680 12.8078   2
   7  -1 -24 9.29370 13.6691   3
  -7   1 -24 5.62228 14.6826   4
  -7  -1  24 3.72188 12.7519   2
   7  -1 -25 3.32573 13.6559   3
  -7   1 -25 0.33506 14.7491   4
  -7  -1  25 7.89580 13.0051   2
   7  -1 -26-0.28444 13.7442   3
  -7   1 -26 4.17021 15.1865   4
  -7  -1  26 2.38481 13.2152   2
  -7   1 -27 0.35169 15.3675   4
  -7  -2 -26 6.19969 15.2261   4
  -7  -2 -25 9.39719 14.7517   4
  -7  -2 -24 4.20688 14.5434   4
  -7  -2 -23 4.74390 14.3137   4
  -7  -2 -22 6.90980 14.5684   4
  -7  -2 -21-12.8498 14.3788   4
  -7  -2 -20 15.5482 14.4099   4
  -7  -2 -19 15.7150 13.7320   4
  -7  -2 -18 34.8678 14.4155   4
  -7  -2 -17 12.8811 13.4324   4
  -7  -2 -16 12.3630 13.2657   4
  -7  -2 -15 26.3552 13.4828   4
  -7  -2 -14 17.2173 12.5386   4
  -7  -2 -13 55.1726 13.8824   4
  -7  -2 -12 75.6747 14.4232   4
   7  -2  12 66.8453 10.1138   7
  -7  -2 -11 21.0337 11.3456   4
   7  -2  11 15.9209 6.48831   7
  -7  -2 -10 13.2801 10.8044   4
   7  -2  10 15.6595 8.46164   1
   7  -2  10 11.5008 6.23723   7
  -7  -2  -9 69.9304 13.6871   4
   7  -2   9 92.7725 11.9486   1
   7  -2   9 70.8105 10.6099   7
  -7  -2  -8 173.536 26.0201   4
   7  -2   8 239.380 25.1445   1
   7  -2   8 207.696 24.5741   7
   7  -2   7 149.228 17.3294   1
  -7  -2  -7 146.651 18.5430   4
   7  -2   7 120.026 16.5621   7
  -7  -2  -6 110.072 17.0108   4
   7  -2   6 144.338 16.3742   1
   7   2  -6 113.472 15.3491   9
   7  -2   6 120.529 15.0758   7
   7  -2   5 60.2734 8.53051   7
  -7  -2  -5 69.4267 11.4980   4
   7   2  -5 47.7438 8.92121   9
   7  -2   4 6.92244 6.45234   7
   7  -2   4 10.9085 4.76812   5
  -7  -2  -4-5.23537 9.06429   4
   7   2  -4 2.16596 6.31182   9
   7  -2   3 60.2358 8.75095   7
   7  -2   3 62.8794 7.89195   5
   7   2  -3 49.8674 8.14568   4
  -7  -2  -3 43.8583 10.9162   4
   7   2  -3 54.2882 8.61479   9
   7  -2   2 74.0807 9.62540   7
   7  -2   2 65.2654 8.66957   5
  -7  -2  -2 35.4253 11.0839   4
   7   2  -2 54.8477 9.15860   9
   7  -2   1 50.9530 8.34427   7
   7  -2   1 49.4527 7.44855   5
  -7  -2  -1 30.5491 9.71817   4
   7   2  -1 40.6926 7.81075   9
   7  -2   0-4.55502 6.63671   7
   7  -2   0 5.58952 5.98947   5
  -7  -2   0 0.43533 7.53751   4
  -7   2   0 5.08816 6.83001   4
   7  -2  -1 36.5893 7.63058   7
   7  -2  -1 26.5063 6.85829   5
  -7  -2   1 20.6426 7.70814   4
  -7   2  -1 24.6726 7.77345   4
   7  -2  -2 83.1754 11.0405   7
   7  -2  -2 83.3566 10.4576   5
  -7  -2   2 57.6123 10.6949   4
  -7   2  -2 70.5591 11.2934   4
   7  -2  -3 43.7218 8.76678   7
   7   2   3 46.3603 7.28956   7
   7  -2  -3 49.2566 8.12797   5
  -7   2  -3 39.6798 9.29338   4
   7  -2  -4 4.76206 7.08743   7
  -7   2  -4-6.43535 8.29100   4
  -7   2  -5 37.4156 9.85677   4
   7   2   6 22.2859 10.3052   1
  -7   2  -6 77.0024 10.6572   4
   7   2   7 163.641 17.5737   1
  -7   2  -7 107.664 18.7243   4
  -7   2  -8 213.932 30.6231   4
   7   2   8 282.989 29.8011   1
  -7   2  -9 62.3678 13.1107   4
   7   2   9 77.9474 10.5322   1
  -7   2 -10 12.0640 10.5202   4
  -7   2 -11 18.8236 10.9574   4
  -7   2 -12 48.8242 12.0324   4
  -7   2 -13 79.4145 14.2147   4
  -7   2 -14 28.5097 12.0462   4
  -7  -2  14 54.7306 11.3740   2
  -7   2 -15 24.7538 12.8928   4
  -7  -2  15 70.6248 12.2479   2
  -7   2 -16 7.78524 12.3664   4
  -7  -2  16 21.0061 11.1884   2
   7  -2 -17 21.5157 10.7282   3
  -7   2 -17 14.1813 12.6233   4
  -7  -2  17 44.8863 12.2641   2
   7  -2 -18 37.8098 11.4347   3
  -7   2 -18 20.6557 13.6320   4
  -7  -2  18 38.4871 12.4051   2
   7  -2 -19 41.8631 12.4005   3
  -7   2 -19 24.4886 13.6504   4
  -7  -2  19 26.7837 12.4667   2
   7  -2 -20 6.09366 11.9167   3
  -7   2 -20-4.74625 13.7228   4
  -7  -2  20 12.8736 11.6957   2
   7  -2 -21 5.38475 12.1086   3
  -7   2 -21 5.01245 14.3127   4
  -7  -2  21-0.26016 11.7962   2
   7  -2 -22 4.36915 12.3902   3
  -7   2 -22 3.01322 15.1544   4
  -7  -2  22 13.9139 12.7162   2
   7  -2 -23 4.04510 12.7231   3
  -7   2 -23 6.91145 14.7037   4
  -7  -2  23 0.27464 12.1450   2
   7  -2 -24 11.9458 13.2464   3
  -7   2 -24 0.33916 15.0175   4
  -7  -2  24 5.62544 12.2787   2
   7  -2 -25-1.11106 13.7287   3
  -7   2 -25 0.34841 15.2178   4
  -7  -2  25 10.3409 12.4382   2
   7  -2 -26 1.95998 13.6578   3
  -7   2 -26 0.35703 15.5241   4
  -7  -2  26 10.2454 12.6306   2
  -7  -3 -25-1.00622 14.7212   4
  -7  -3 -24 9.00109 15.2319   4
  -7  -3 -23 37.5253 15.5802   4
  -7  -3 -22 16.3018 15.0772   4
  -7  -3 -21 28.0211 14.8330   4
  -7  -3 -20 15.5382 14.5509   4
  -7  -3 -19 13.9290 14.4667   4
  -7  -3 -18 48.9731 14.9592   4
  -7  -3 -17 31.3099 14.0574   4
  -7  -3 -16 48.3850 14.4663   4
  -7  -3 -15 32.9272 13.5955   4
  -7  -3 -14 47.1332 14.2566   4
  -7  -3 -13 14.4411 12.2143   4
   7  -3  13 8.10998 7.15534   7
  -7  -3 -12 9.53106 12.3041   4
   7  -3  12 15.6221 7.11423   7
  -7  -3 -11-3.58028 11.6305   4
   7  -3  11 9.72214 6.60078   7
  -7  -3 -10 37.1301 11.4164   4
   7  -3  10 11.2139 6.99188   7
  -7  -3  -9 10.0125 11.3025   4
   7  -3   9 18.4631 8.82123   1
   7  -3   9 12.4127 6.69812   7
  -7  -3  -8-12.4521 10.8782   4
   7  -3   8 8.79583 6.65232   7
   7  -3   8 12.4142 8.03268   1
   7  -3   7 78.7568 11.6425   1
  -7  -3  -7 64.7688 13.1965   4
   7   3  -7 67.9279 11.2024   9
   7  -3   7 63.8173 10.6902   7
  -7  -3  -6 30.5872 11.4886   4
   7  -3   6 45.3954 9.49869   1
   7   3  -6 50.7952 9.21086   9
   7  -3   6 46.5883 8.45910   7
  -7  -3  -5 54.1326 11.8552   4
   7   3  -5 69.8623 9.56713   9
   7  -3   5 71.5663 9.25210   7
   7  -3   4 48.7331 8.78018   7
   7   3  -4 49.1473 7.70230   4
  -7  -3  -4 54.9807 11.2362   4
   7   3  -4 61.9048 9.07917   9
   7  -3   3 53.1501 7.79198   7
   7  -3   3 39.3274 6.74841   5
   7   3  -3 35.0048 7.00918   4
  -7  -3  -3 22.8549 9.47893   4
   7   3  -3 24.6580 7.97860   9
   7  -3   2 86.2170 9.64472   7
   7  -3   2 65.5523 8.83565   5
   7   3  -2 44.6599 8.85528   4
  -7  -3  -2 67.7431 10.7188   4
   7   3  -2 48.1858 9.53380   9
   7   3  -1 249.683 30.2684   4
   7  -3   1 278.842 30.2206   5
  -7  -3  -1 225.041 30.6863   4
   7  -3   1 293.893 30.4823   7
   7  -3   0 248.316 28.0794   5
  -7  -3   0 204.618 28.4504   4
   7  -3   0 273.915 28.3735   7
   7  -3  -1 284.362 31.6728   5
  -7   3  -1 240.379 31.8609   4
   7  -3  -1 301.426 31.8595   7
   7  -3  -2 68.7443 10.4438   7
   7  -3  -2 72.9446 9.97416   5
  -7   3  -2 50.6911 10.6065   4
   7  -3  -3 49.9757 9.22075   7
   7  -3  -3 55.4284 8.85605   5
  -7   3  -3 33.7755 9.50225   4
   7  -3  -4 41.7428 9.13061   7
   7  -3  -4 39.7720 8.49972   5
  -7   3  -4 49.5614 9.59519   4
   7  -3  -5 78.9971 10.6985   7
   7  -3  -5 58.3568 10.4171   5
  -7   3  -5 56.1185 11.2585   4
   7  -3  -6 32.1728 8.41076   7
   7  -3  -6 28.0949 7.92565   5
  -7   3  -6 21.2524 9.25748   4
   7  -3  -7 59.7766 10.0213   7
   7  -3  -7 45.5841 9.65807   5
  -7   3  -7 56.4713 11.2276   4
   7  -3  -8 9.00038 7.57322   5
  -7   3  -8 5.59708 9.48601   4
  -7   3  -9 3.61682 9.89611   4
  -7   3 -10 24.2542 10.8173   4
   7  -3 -11-6.01819 7.90547   3
  -7   3 -11 4.08984 11.2437   4
   7  -3 -12 9.19969 7.94498   3
  -7   3 -12 5.22583 11.7826   4
   7  -3 -13 24.4084 9.10573   3
  -7  -3  13 30.3591 9.94290   2
   7  -3 -14 43.4635 10.7497   3
  -7   3 -14 33.3322 13.4479   4
  -7  -3  14 68.8773 12.0443   2
   7  -3 -15 32.4694 10.6994   3
  -7   3 -15 29.4831 13.6330   4
   7  -3 -16 42.9543 11.1939   3
  -7   3 -16 51.3518 14.1573   4
  -7  -3  16 54.5173 12.3159   2
   7  -3 -17 1.71968 10.3558   3
  -7   3 -17 19.2792 13.0048   4
  -7  -3  17 36.7715 11.6223   2
   7  -3 -18 56.3679 12.4273   3
  -7   3 -18 26.5689 14.6983   4
  -7  -3  18 58.0895 12.7017   2
   7  -3 -19 11.2365 11.0756   3
  -7   3 -19-6.22911 12.9708   4
  -7  -3  19 22.9771 11.7818   2
   7  -3 -20 20.2209 11.9138   3
  -7   3 -20 15.8761 13.4639   4
  -7  -3  20 14.0501 12.2182   2
   7  -3 -21 16.8224 12.2067   3
  -7   3 -21 0.30025 13.4779   4
  -7  -3  21 15.5360 12.2575   2
   7  -3 -22 14.8256 11.9151   3
  -7  -3  22-7.86100 12.2014   2
   7  -3 -23 31.1073 12.7949   3
  -7   3 -23 2.28151 14.7419   4
  -7  -3  23 45.2419 13.0888   2
   7  -3 -24 2.26848 12.2962   3
  -7   3 -24 3.37669 14.6720   4
  -7  -3  24-1.71592 12.5264   2
   7  -3 -25 23.7562 12.9345   3
  -7   3 -25 0.35450 15.6590   4
  -7  -3  25-9.64299 12.7621   2
  -7   3 -26 7.15569 16.5914   4
  -7  -4 -25 5.03874 14.5559   4
  -7  -4 -24 12.9502 15.2183   4
  -7  -4 -23 11.0385 15.1437   4
  -7  -4 -22 1.64190 14.8279   4
  -7  -4 -21 6.10899 14.7290   4
  -7  -4 -20 16.6670 14.8426   4
  -7  -4 -19 6.45705 14.1573   4
  -7  -4 -18-3.60525 13.8586   4
  -7  -4 -17 5.27969 13.5451   4
  -7  -4 -16 34.9390 14.2951   4
  -7  -4 -15 16.2071 13.3836   4
  -7  -4 -14 5.72684 12.9594   4
  -7  -4 -13 5.57950 12.2823   4
   7  -4  13-21.7466 7.83487   7
  -7  -4 -12 38.8776 12.9274   4
   7  -4  12 25.7313 8.02258   7
  -7  -4 -11 100.263 16.8640   4
   7  -4  11 101.862 13.7594   7
  -7  -4 -10 115.937 17.6372   4
   7  -4  10 107.459 14.5864   7
  -7  -4  -9 55.5558 13.0991   4
   7  -4   9 66.1274 11.0582   1
   7  -4   9 52.6473 9.74851   7
  -7  -4  -8 36.3460 11.7309   4
   7   4  -8 50.4431 9.66476   9
   7  -4   8 41.9799 9.23774   1
   7  -4   8 29.6523 8.27009   7
   7  -4   7 65.9557 10.4051   1
  -7  -4  -7 39.7063 12.2314   4
   7   4  -7 49.4881 10.4841   9
   7  -4   7 53.6937 9.43592   7
  -7  -4  -6 21.4217 10.4165   4
   7  -4   6 41.7422 9.42331   1
   7   4  -6 22.0404 8.91446   9
   7  -4   6 27.7757 8.44185   7
  -7  -4  -5 124.408 18.0224   4
   7  -4   5 147.015 17.5202   1
   7   4  -5 114.334 17.1002   9
   7  -4   5 144.966 16.8760   7
   7   4  -4 119.500 13.0504   4
  -7  -4  -4 128.933 14.7811   4
   7   4  -4 108.986 14.0101   9
   7  -4   4 116.603 13.8187   7
   7   4  -3 86.4158 11.6693   4
  -7  -4  -3 98.9876 13.5674   4
   7   4  -3 84.0704 12.7208   9
   7  -4   3 82.5200 12.2133   7
   7  -4   2 30.2224 7.27324   7
   7   4  -2 18.8292 6.78085   4
  -7  -4  -2 27.1687 9.20436   4
   7   4  -2 11.4796 7.93147   9
   7  -4   1 3.13253 7.02812   7
   7  -4   1 2.67086 5.85371   5
   7   4  -1 15.1240 6.60278   4
   7  -4   0 36.4692 7.93998   7
   7  -4   0 25.7842 6.87993   5
   7   4   0 23.4445 7.48502   4
   7  -4  -1 13.2784 7.44323   7
   7  -4  -1 6.07503 6.31173   5
   7   4   1-6.71310 7.10736   4
   7  -4  -2 22.4118 7.46306   7
   7  -4  -2 21.1879 6.78236   5
   7   4   2 9.37181 7.60299   4
  -7   4  -2 15.2206 7.94410   4
   7  -4  -3 73.3288 10.9084   7
   7  -4  -3 79.6735 10.5574   5
  -7   4  -3 50.0206 11.2185   4
   7  -4  -4 154.323 17.9083   5
  -7   4  -4 129.995 18.3448   4
   7  -4  -4 146.805 18.0654   7
   7  -4  -5 146.601 15.8718   7
   7  -4  -5 99.6085 15.4346   5
  -7   4  -5 115.281 16.1026   4
   7  -4  -6 21.6033 8.62881   7
   7  -4  -6 28.0634 7.93769   5
  -7   4  -6 36.8405 10.1322   4
   7  -4  -7 53.8307 9.83601   7
   7  -4  -7 45.8378 9.64232   5
  -7   4  -7 43.2274 11.6914   4
   7  -4  -8 50.5459 9.41547   7
   7  -4  -8 19.5692 9.04523   5
  -7   4  -8 47.2928 11.3260   4
   7  -4  -9 59.4688 10.9824   7
   7  -4  -9 55.8456 10.7150   5
  -7   4  -9 65.9050 13.0624   4
   7  -4 -10 97.0599 13.6214   7
   7  -4 -10 85.2130 13.5157   5
  -7   4 -10 91.4687 15.4571   4
   7  -4 -11 104.697 13.7633   7
  -7   4 -11 119.999 15.7686   4
   7  -4 -12 12.3516 9.36827   5
  -7   4 -12 41.0840 12.2685   4
  -7  -4  12 50.9180 10.4789   2
   7  -4 -13-14.3862 8.61738   5
  -7   4 -13 6.52896 11.4319   4
   7  -4 -14-7.56986 9.11318   5
  -7   4 -14 1.00210 12.2865   4
   7  -4 -15 25.5456 9.66801   3
   7  -4 -15 13.4644 9.27283   5
  -7   4 -15 33.6125 12.3029   4
  -7  -4  15 25.3106 10.8739   2
   7  -4 -16 16.4754 9.85243   3
   7  -4 -16-4.67945 9.37275   5
  -7   4 -16 11.2521 12.7611   4
   7  -4 -17 21.2384 9.95306   3
   7  -4 -17-4.27323 9.34206   5
  -7   4 -17 0.28950 13.6688   4
  -7  -4  17 32.0653 11.3532   2
   7  -4 -18 19.0916 10.7408   3
   7  -4 -18-11.6690 9.70342   5
  -7   4 -18 10.2291 14.1773   4
  -7  -4  18 26.1080 11.2876   2
   7  -4 -19 13.8943 11.0327   3
   7  -4 -19-4.96903 9.64315   5
  -7   4 -19 1.85513 14.4889   4
  -7  -4  19 16.2059 11.6328   2
   7  -4 -20 15.4562 11.6306   3
   7  -4 -20 2.02969 10.0603   5
  -7   4 -20 17.3476 14.6797   4
  -7  -4  20 43.2932 12.0667   2
   7  -4 -21 2.80564 11.8351   3
   7  -4 -21-2.61078 9.98001   5
  -7   4 -21-6.07688 14.6692   4
  -7  -4  21-3.72280 12.1023   2
   7  -4 -22 0.68167 11.6676   3
   7  -4 -22 2.65751 10.1582   5
  -7   4 -22 4.57587 14.7922   4
  -7  -4  22 13.9645 12.1335   2
   7  -4 -23 7.78566 11.6908   3
  -7   4 -23 3.58084 14.4882   4
  -7  -4  23 8.43661 12.6057   2
   7  -4 -24-0.23745 11.5679   3
  -7   4 -24 5.93788 14.3211   4
  -7  -4  24 0.85167 12.3150   2
   7  -4 -25 0.24559 11.7558   3
  -7   4 -25 6.82040 14.8959   4
  -7  -4  25 15.0033 12.7633   2
  -7  -5 -24 0.64444 13.9577   4
  -7  -5 -23 1.26877 13.9294   4
  -7  -5 -22 1.55982 13.7656   4
  -7  -5 -21 18.1533 14.1390   4
  -7  -5 -20 18.4183 14.1141   4
  -7  -5 -19 5.62577 13.5413   4
  -7  -5 -18 37.7124 14.0696   4
  -7  -5 -17 8.23732 13.1060   4
  -7  -5 -16 16.6858 13.4779   4
  -7  -5 -15 26.8241 13.0963   4
  -7  -5 -14 42.9264 13.6334   4
  -7  -5 -13 37.3231 13.2907   4
  -7  -5 -12 7.92482 12.2367   4
   7  -5  12-0.39486 8.07670   7
  -7  -5 -11 12.6368 11.1284   4
   7  -5  11 8.35510 8.03746   7
  -7  -5 -10 37.7776 12.1444   4
   7  -5  10 19.5874 8.13713   7
  -7  -5  -9 16.1573 11.5069   4
   7   5  -9 33.0278 10.0362   9
   7  -5   9 26.8245 8.57243   7
  -7  -5  -8 26.7545 10.6911   4
   7  -5   8 4.45113 8.89370   1
   7   5  -8 11.4117 9.41707   9
   7  -5   8 18.1579 7.87692   7
  -7  -5  -7 62.6524 12.0820   4
   7   5  -7 57.4743 11.2360   9
   7  -5   7 46.1221 10.4951   1
   7  -5   7 49.3516 9.69527   7
   7  -5   6 77.8254 12.5144   1
  -7  -5  -6 96.1278 13.7623   4
   7   5  -6 76.7702 12.8975   9
   7  -5   6 76.7453 11.9375   7
   7   5  -5 82.6351 12.0182   4
   7  -5   5 99.6297 13.5954   1
   7   5  -5 74.6905 13.2249   9
   7  -5   5 95.9157 12.8095   7
   7   5  -4 101.709 12.6490   4
   7   5  -4 68.4237 13.5989   9
   7  -5   4 75.2652 13.2642   7
   7   5  -3 37.5788 7.56814   4
   7  -5   3 6.55790 11.2719   1
   7   5  -3 22.4102 9.22822   9
   7  -5   3 24.5144 8.33562   7
   7   5  -2 74.3358 9.85702   4
   7   5  -2 48.2210 10.7448   9
   7  -5   2 65.3024 10.2099   7
   7   5  -1 37.5907 7.71703   4
   7  -5   1 13.6071 7.92573   7
   7  -5   0 23.2446 7.34901   7
   7   5   0 33.0112 7.75207   4
   7  -5  -1 48.2395 8.94913   7
   7  -5  -1 39.0370 8.21535   5
   7   5   1 35.2463 8.79881   4
   7  -5  -2 52.2009 9.39880   7
   7  -5  -2 52.2667 8.88195   5
   7   5   2 46.2509 9.35364   4
  -7   5  -2 41.7389 9.91541   4
   7  -5  -3 20.3536 8.33739   7
   7  -5  -3 40.5311 7.67682   5
   7   5   3 25.2404 8.48785   4
  -7   5  -3 7.02792 8.81181   4
   7  -5  -4 102.761 13.4988   7
   7  -5  -4 83.0405 12.9031   5
   7   5   4 100.491 13.4667   4
  -7   5  -4 92.2403 13.8625   4
   7  -5  -5 60.8978 11.1632   7
   7  -5  -5 80.2045 10.7063   5
   7   5   5 62.2741 11.5117   4
  -7   5  -5 58.0962 11.8177   4
   7  -5  -6 102.369 14.0149   7
   7  -5  -6 97.0200 13.6684   5
   7   5   6 100.675 14.3532   4
  -7   5  -6 101.717 14.9203   4
   7  -5  -7 39.0308 9.31864   7
   7  -5  -7 38.3129 8.98179   5
  -7   5  -7 41.2372 10.8350   4
   7  -5  -8 4.60998 8.25322   7
   7  -5  -8 3.26920 7.89209   5
  -7   5  -8 8.92544 10.4263   4
   7  -5  -9 25.8813 9.34470   7
   7  -5  -9 27.0323 8.79618   5
  -7   5  -9 41.6466 11.5191   4
   7  -5 -10 11.9563 8.58259   7
   7  -5 -10 13.5517 8.39842   5
  -7   5 -10 3.99418 11.1908   4
   7  -5 -11 28.8392 9.70374   7
   7  -5 -11 40.5722 9.33414   5
  -7   5 -11 18.2652 12.3945   4
   7  -5 -12 11.6626 8.76869   7
   7  -5 -12 4.93288 8.78840   5
  -7   5 -12 12.4205 11.6182   4
   7  -5 -13 28.4139 9.85181   7
   7  -5 -13 29.0653 10.2008   5
  -7   5 -13 26.5880 12.9676   4
  -7  -5  13 54.0821 10.9126   2
   7  -5 -14 12.4866 9.18929   7
   7  -5 -14 12.0665 9.83343   5
  -7   5 -14 20.3191 13.5611   4
  -7  -5  14 51.0306 10.5212   2
   7  -5 -15 23.6319 9.67718   7
   7  -5 -15 24.1721 9.87741   5
  -7   5 -15 3.68685 13.6540   4
  -7  -5  15 43.2411 10.3880   2
   7  -5 -16 5.66933 9.29778   7
   7  -5 -16 7.44257 9.49573   5
  -7   5 -16 31.8848 14.0129   4
  -7  -5  16 40.9990 10.9953   2
   7  -5 -17 12.7418 9.81585   5
  -7   5 -17 7.67978 14.0465   4
  -7  -5  17 24.7035 10.8278   2
   7  -5 -18-18.4871 9.71231   5
  -7   5 -18 0.88731 13.7841   4
  -7  -5  18 23.8702 10.9331   2
   7  -5 -19 24.7968 10.5843   3
   7  -5 -19 11.4558 10.2421   5
  -7   5 -19 16.5846 14.0532   4
  -7  -5  19 40.2752 11.7677   2
   7  -5 -20-8.00465 10.5850   3
   7  -5 -20 2.85077 9.93826   5
  -7   5 -20 6.89102 14.1373   4
  -7  -5  20 16.5866 11.8833   2
   7  -5 -21 3.20446 10.7023   3
   7  -5 -21-1.58077 10.0501   5
  -7   5 -21 3.72820 14.9967   4
  -7  -5  21 0.52691 11.3303   2
   7  -5 -22 2.94179 11.3528   3
   7  -5 -22 0.26743 10.1128   5
  -7   5 -22 6.93241 15.3927   4
  -7  -5  22 11.6669 11.8968   2
   7  -5 -23 11.7175 11.4400   3
  -7   5 -23 3.86932 15.6144   4
  -7  -5  23 4.18097 12.1884   2
   7  -5 -24-0.24415 11.6042   3
  -7   5 -24 4.96893 15.1675   4
  -7  -5  24 1.99947 12.2622   2
  -7  -6 -23 3.03085 13.0331   4
  -7  -6 -22-2.09282 13.0318   4
  -7  -6 -21-1.75989 13.0670   4
  -7  -6 -20 10.6847 13.2193   4
  -7  -6 -19 5.39487 13.0997   4
  -7  -6 -18-0.27900 12.7994   4
  -7  -6 -17 6.32723 12.8326   4
  -7  -6 -16 19.1616 12.4643   4
  -7  -6 -15 10.3278 12.2742   4
  -7  -6 -14 34.1235 13.0414   4
  -7  -6 -13 54.2614 13.7466   4
  -7  -6 -12 21.3739 12.2311   4
   7  -6  12 28.5484 9.13246   7
  -7  -6 -11 19.9846 12.1513   4
   7  -6  11 24.9851 9.01110   7
   7  -6  10-7.93797 8.41168   7
   7   6  -9 15.5320 10.5562   9
   7  -6   9-2.03092 8.23349   7
   7   6  -8 20.6831 10.2083   9
   7  -6   8 9.44287 8.71465   7
   7  -6   7 33.8337 9.83750   1
   7   6  -7 20.5876 10.4152   9
   7  -6   7 25.5137 8.63611   7
   7   6  -6 85.7480 14.0641   9
   7  -6   6 102.135 13.4074   1
   7  -6   6 79.7025 12.9217   7
   7   6  -5 100.398 13.9728   4
   7  -6   5 112.192 14.8140   1
   7   6  -5 99.3560 15.0418   9
   7  -6   5 104.485 14.3873   7
   7   6  -4 20.5321 7.96088   4
   7  -6   4 14.7816 9.37978   1
   7   6  -4 40.0956 9.81957   9
   7  -6   4 26.6019 8.27066   7
   7   6  -3 36.0765 8.54499   4
   7  -6   3 32.8526 9.43436   1
   7   6  -3 26.5107 10.1827   9
   7  -6   3 35.8529 9.29104   7
   7   6  -2 45.7215 8.49939   4
   7   6  -2 25.9571 9.72788   9
   7  -6   2 21.1633 8.66517   7
   7   6  -1 59.2594 9.98008   4
   7  -6   1 30.0846 16.0810   1
   7  -6   1 53.8592 10.0670   7
   7   6   0 42.5411 9.00982   4
   7  -6   0 30.2432 18.3390   1
   7  -6   0 31.2020 8.80478   7
   7   6   1 81.8715 9.96422   4
   7  -6  -1 42.6247 9.73738   7
   7  -6  -2 33.4562 8.29789   7
   7   6   2 32.8363 8.88304   4
   7  -6  -3 31.8636 8.71957   7
   7   6   3 29.0230 8.97064   4
  -7   6  -3 22.6309 9.49629   4
   7  -6  -4 27.7686 8.22122   7
   7  -6  -4 17.1409 7.65391   5
   7   6   4 13.4049 8.52816   4
  -7   6  -4-0.18824 9.39305   4
   7  -6  -5 93.5540 11.8743   7
   7  -6  -5 72.0569 11.5983   5
   7   6   5 80.8147 12.1032   4
  -7   6  -5 51.0392 12.9894   4
   7  -6  -6 86.2259 12.9282   7
   7  -6  -6 95.7670 12.8496   5
   7   6   6 84.3351 13.3670   4
  -7   6  -6 78.3786 14.0942   4
   7  -6  -7 24.2933 8.50211   7
   7  -6  -7 24.0461 8.17729   5
   7   6   7 15.3548 9.34649   4
  -7   6  -7 3.98577 10.2065   4
   7  -6  -8 2.65804 8.12395   7
   7  -6  -8-3.11168 7.93237   5
   7   6   8-10.7074 9.36532   4
  -7   6  -8 8.25766 10.6635   4
   7  -6  -9 7.41778 8.08149   7
   7  -6  -9-2.20238 8.21710   5
   7   6   9 7.71496 9.79933   4
  -7   6  -9 2.48275 10.6911   4
   7  -6 -10 5.05412 8.14499   7
   7  -6 -10 17.2154 8.49306   5
   7   6  10-13.4624 9.98935   4
  -7   6 -10 17.1968 11.1888   4
   7  -6 -11 5.49003 9.01213   7
   7  -6 -11 25.3337 8.65201   5
   7   6  11 21.2454 10.0773   4
  -7   6 -11 31.3677 12.0948   4
   7  -6 -12 40.6376 9.58955   7
   7  -6 -12 21.5083 9.17422   5
   7   6  12 18.7176 10.7497   4
  -7   6 -12 35.9699 12.7196   4
   7  -6 -13 57.1470 10.5378   7
   7  -6 -13 34.9715 10.2625   5
  -7   6 -13 44.7461 13.5799   4
   7  -6 -14 8.58669 9.25316   7
   7  -6 -14 42.9224 9.25072   5
  -7   6 -14 14.9693 13.3163   4
   7  -6 -15 11.0068 8.87635   5
  -7   6 -15 2.87567 13.2369   4
   7  -6 -16 4.19909 9.01425   5
  -7   6 -16 1.98875 12.6771   4
   7  -6 -17-3.31987 9.38837   5
  -7   6 -17-9.04237 14.1807   4
   7  -6 -18 0.24207 9.25566   5
  -7   6 -18 0.32371 14.6854   4
   7  -6 -19 4.42157 8.99803   5
  -7   6 -19 1.32969 15.1737   4
   7  -6 -20 0.99620 9.19697   5
  -7   6 -20 9.41039 14.5886   4
  -7  -6  20 16.3460 11.4854   2
   7  -6 -21 0.25227 9.22825   5
  -7   6 -21 4.28296 14.2447   4
  -7  -6  21-1.31887 11.5846   2
  -7   6 -22 6.47588 15.1751   4
  -7  -6  22 1.35856 11.4659   2
  -7   6 -23 1.82298 15.5707   4
  -7  -6  23 3.90835 11.7337   2
   7  -7  11 32.0095 10.0653   7
   7   7 -10 35.1835 11.5229   9
   7  -7  10 27.9367 9.64386   7
  -7  -7  -9 43.6894 10.2208   3
   7   7  -9 41.6180 12.1084   9
   7  -7   9 31.6393 10.0084   7
  -7  -7  -8 80.3392 13.0811   3
   7   7  -8 88.1137 14.8398   9
   7  -7   8 87.4467 13.2196   7
   7   7  -7 34.0474 12.0371   9
   7  -7   7 58.4722 10.5970   7
   7  -7   6 67.1078 11.0933   1
   7   7  -6 51.9656 12.2304   9
   7  -7   6 38.9062 10.2456   7
   7   7  -5 33.1167 8.96404   4
   7   7  -5 15.7428 10.3508   9
   7  -7   5 23.1539 9.03977   1
   7  -7   5 24.1479 8.96369   7
   7  -7   4 22.0189 9.12213   1
   7   7  -4 13.5129 8.60238   4
   7   7  -4 17.5102 10.4780   9
   7  -7   4 20.8955 8.30555   7
   7   7  -3 34.1744 9.40048   4
   7  -7   3 40.6738 10.0974   1
   7   7  -3 24.4749 11.2295   9
   7  -7   3 50.3606 9.37250   7
   7   7  -2 21.1683 8.41183   4
   7  -7   2 21.8187 8.74418   1
   7   7  -2 1.66649 9.99047   9
   7  -7   2-2.26647 8.52170   7
   7   7  -1 35.2507 8.95732   4
   7  -7   1 12.8753 10.0438   1
   7  -7   1 29.8172 9.14372   7
   7   7   0 13.3262 8.74508   4
   7  -7   0 13.2224 12.9736   1
   7  -7   0 3.84003 8.31672   7
   7   7   1 25.3690 8.98005   4
   7  -7  -1 12.1497 8.49110   7
   7   7   2 24.3357 8.87708   4
   7  -7  -2 8.66824 7.97183   7
   7   7   3 67.5378 10.4512   4
   7  -7  -3 42.2980 9.41303   7
   7  -7  -4 14.1841 7.84211   7
   7   7   4 15.1326 9.35506   4
  -7   7  -4 17.2254 10.3929   4
   7  -7  -5 31.8462 8.27053   7
   7   7   5 28.3515 9.79283   4
  -7   7  -5 20.3196 10.8163   4
   7  -7  -6 65.5807 9.79000   7
   7   7   6 46.2702 10.4704   4
   7  -7  -7 40.1317 9.21478   7
   7   7   7 41.7337 10.3467   4
  -7   7  -7 19.4120 11.4504   4
   7  -7  -8 60.5311 10.5580   7
   7   7   8 75.6771 11.7316   4
   7  -7  -9 29.1777 8.64085   7
   7  -7  -9 19.1462 8.82815   5
   7   7   9 26.6278 9.79734   4
  -7   7  -9 21.4224 11.7731   4
   7  -7 -10 18.4789 9.04566   7
   7  -7 -10 41.1545 9.20322   5
   7   7  10 30.5875 10.1752   4
  -7   7 -10 7.92029 12.1924   4
   7  -7 -11 25.4833 8.97240   7
   7  -7 -11 37.3436 9.27136   5
   7   7  11 22.5708 10.6355   4
  -7   7 -11 27.2551 12.5919   4
   7  -7 -12 32.2108 9.59431   7
   7  -7 -12 26.1589 9.10409   5
   7   7  12 33.2485 10.6329   4
  -7   7 -12 25.1883 12.9056   4
   7  -7 -13 14.4369 8.48968   5
   7   7  13 13.6591 10.3156   4
  -7   7 -13 17.0826 12.6967   4
   7  -7 -14 12.2618 8.51156   5
   7   7  14 2.46363 10.1113   4
  -7   7 -14 3.65885 12.8465   4
   7  -7 -15 8.20668 8.59546   5
   7   7  15 15.2404 10.6271   4
  -7   7 -15 11.4582 13.3677   4
   7  -7 -16 4.56682 8.77191   5
   7   7  16 12.1955 10.8184   4
  -7   7 -16 2.44473 13.9350   4
   7  -7 -17 5.31706 8.80316   5
   7   7  17 4.04937 10.7951   4
  -7   7 -17 5.41882 14.4851   4
   7  -7 -18 6.08165 8.83842   5
   7   7  18-0.73548 11.0083   4
  -7   7 -18 0.31381 13.8246   4
   7  -7 -19 3.83047 8.91169   5
   7   7  19 11.9350 10.9929   4
  -7   7 -19 5.83067 15.3428   4
   7  -7 -20 0.24188 9.01965   5
   7   7  20 6.55538 10.9788   4
  -7   7 -20 4.25495 15.9582   4
   7   7  21 6.89112 10.9226   4
  -7   7 -21 11.5941 15.5675   4
   7   7  22 0.25809 11.0133   4
  -7  -8 -10 13.8409 9.83015   3
   7   8 -10 13.4887 11.7041   9
   7  -8  10 5.35840 9.65699   7
  -7  -8  -9 3.01458 9.77578   3
   7   8  -9 15.4961 11.5026   9
   7  -8   9 15.4996 9.46112   7
   7   8  -8 15.2435 11.9338   9
   7  -8   8 2.28317 9.19303   7
   7   8  -7-4.80114 11.3173   9
   7  -8   7-12.4749 9.19704   7
   7   8  -6-0.18787 9.17291   4
   7   8  -6 5.26357 11.2895   9
   7  -8   6-5.19084 8.93101   7
   7   8  -5 23.3662 9.57705   4
   7  -8   5 23.0045 9.35334   1
   7   8  -5 2.36781 10.6560   9
   7  -8   5 6.02236 8.94610   7
   7   8  -4 10.3670 9.49056   4
   7   8  -4 9.90867 11.1368   9
   7  -8   4 30.0493 9.25720   1
   7  -8   4 20.6299 8.81242   7
   7  -8   3 16.2546 8.95944   1
   7   8  -3 28.0329 9.57507   4
   7   8  -3 21.9577 11.1494   9
   7  -8   3 14.1874 8.78017   7
   7   8  -2 8.18950 9.41370   4
   7  -8   2 20.4101 8.96132   1
   7   8  -2 15.7961 10.7287   9
   7  -8   2 16.1960 8.83309   7
  -7  -8  -1 18.7489 8.67458   6
   7   8  -1 12.6051 9.14338   4
   7  -8   1 10.3606 8.72227   1
   7   8  -1 6.51405 10.7631   9
   7  -8   1 11.4143 8.49605   7
   7   8   0-5.21815 9.02796   4
   7  -8   0 6.71967 8.76923   1
   7  -8   0 12.0206 8.67753   7
   7   8   1 0.57495 9.19135   4
   7  -8  -1 3.23315 8.73476   7
   7   8   2 28.7269 10.1783   4
   7  -8  -2 10.4029 8.66321   7
   7   8   3 32.6934 10.1717   4
   7  -8  -3 24.1759 9.19354   7
   7   8   4 28.9570 10.3828   4
   7  -8  -4 32.0731 9.04160   7
   7   8   5 22.5227 9.92479   4
  -7   8  -5 4.82750 10.9097   4
   7  -8  -5 11.9818 8.13568   7
   7   8   6 6.99452 9.74545   4
  -7   8  -6 0.23861 11.0185   4
   7  -8  -6-0.19832 7.93813   7
   7  -8  -7 10.8892 8.08426   7
   7   8   7 15.2929 10.0542   4
  -7   8  -7 5.15754 11.5401   4
   7  -8  -8-1.50726 7.63636   7
   7   8   8 16.9273 9.88309   4
  -7   8  -8 5.40097 12.0586   4
   7  -8  -9-4.28700 7.83530   7
   7   8   9 13.0089 10.0437   4
  -7   8  -9 11.8271 12.0372   4
   7  -8 -10 3.45036 8.15667   7
   7   8  10 6.08572 10.3478   4
  -7   8 -10 0.52869 11.9216   4
   7   8  11 5.06917 9.92054   4
  -7   8 -11 2.71876 12.4721   4
   7   8  12 11.2431 10.0941   4
  -7   8 -12 6.69738 12.7359   4
   7   8  13 2.47713 10.2943   4
  -7   8 -13 0.28569 12.7864   4
   7   8  14 0.22837 10.3401   4
  -7   8 -14 15.5374 13.3226   4
   7   8  15 3.49815 10.4652   4
  -7   8 -15 5.43307 13.4449   4
   7  -8 -16 4.39437 8.83334   5
   7   8  16 12.9922 10.7185   4
  -7   8 -16 4.05536 13.7726   4
   7  -8 -17 3.03230 8.81998   5
   7   8  17 7.17787 10.6515   4
  -7   8 -17-0.32456 14.5849   4
   7  -8 -18-0.23511 8.75077   5
   7   8  18 0.48734 10.6634   4
  -7   8 -18-7.05387 14.7220   4
   7  -8 -19 0.23666 8.65405   5
   7   8  19 1.97102 10.6271   4
  -7   8 -19-0.34892 14.8280   4
   7   8  20 0.24894 10.6899   4
  -7   8 -20 0.68415 14.5651   4
  -7  -9 -12 20.6352 11.3142   3
  -7  -9 -11-2.12889 10.8147   3
  -7  -9 -10 4.02203 10.7543   3
   7   9 -10 35.7404 12.7102   9
  -7  -9  -9 9.14137 10.6981   3
   7   9  -9 22.4349 12.0946   9
   7   9  -8 11.1697 12.1046   9
   7  -9   8 4.25379 9.73937   7
   7   9  -7 6.59601 11.9140   9
   7  -9   7 15.3033 9.67020   7
   7   9  -6 4.18261 10.5465   4
   7   9  -6 7.27437 11.9577   9
   7  -9   6 5.22322 9.35694   7
   7   9  -5 3.22704 10.3640   4
   7   9  -5 20.0282 11.5119   9
   7  -9   5 8.14926 9.20122   7
   7   9  -4-10.2942 9.97259   4
   7   9  -4-11.7551 11.5685   9
   7  -9   4 16.3797 9.26829   7
   7   9  -3 41.6615 10.8868   4
   7   9  -3 23.3984 11.9262   9
   7  -9   3 20.4453 9.65147   7
   7   9  -2 2.94433 10.0179   4
   7   9  -2 9.64140 11.6384   9
   7  -9   2 5.27941 8.72373   7
  -7  -9  -1 7.39062 9.44623   6
   7   9  -1 0.20839 9.90489   4
   7   9  -1 9.89846 11.5277   9
   7  -9   1 2.40723 8.64100   7
  -7  -9   0-7.47180 9.41632   6
   7   9   0 1.65824 9.76377   4
   7  -9   0-1.71523 8.52932   7
   7   9   1-8.24775 9.61434   4
   7  -9  -1 8.94936 8.31971   7
   7   9   2 12.4426 9.99945   4
   7  -9  -2 21.5208 8.77431   7
   7   9   3 31.5685 10.4898   4
   7  -9  -3 25.9289 9.29589   7
   7   9   4 21.0834 10.0805   4
   7  -9  -4 5.73585 8.84177   7
   7   9   5-10.5104 10.4813   4
   7  -9  -5 3.90807 8.64172   7
   7   9   6 17.6170 10.2992   4
  -7   9  -6 1.03444 11.6956   4
   7  -9  -6 5.11312 8.34030   7
   7   9   7 3.85550 10.2834   4
  -7   9  -7 0.26210 12.1302   4
   7  -9  -7 23.1822 8.67707   7
   7   9   8 17.0519 10.7232   4
  -7   9  -8 14.7799 12.4702   4
   7   9   9 12.6015 10.4866   4
  -7   9  -9 4.44315 12.3168   4
   7   9  10 8.57088 10.4741   4
  -7   9 -10-0.28960 12.9238   4
   7   9  11 22.3662 11.0146   4
  -7   9 -11 10.9137 13.5971   4
   7   9  12 8.33816 10.7950   4
  -7   9 -12 0.29535 13.0906   4
   7   9  13 4.58021 10.8184   4
  -7   9 -13 3.02656 13.5312   4
   7   9  14 4.38608 10.8691   4
  -7   9 -14-12.0741 13.5530   4
   7   9  15-1.45262 10.4883   4
  -7   9 -15-5.68540 13.7911   4
   7   9  16 1.46754 10.5619   4
  -7   9 -16-9.35439 13.9809   4
   7   9  17 18.3913 11.0869   4
  -7   9 -17 12.2387 14.5384   4
   7   9  18-1.00292 10.5152   4
  -7   9 -18-1.73061 14.4367   4
  -7 -10 -13 0.23693 11.6208   3
  -7 -10 -12 12.3286 11.6995   3
  -7 -10 -11 5.39203 11.4902   3
   7  10 -10 12.7196 12.5995   9
   7  10  -9 0.88881 12.3704   9
   7  10  -8 19.3864 13.0173   9
   7  10  -7 21.1475 12.6074   9
   7 -10   7-2.36655 10.1814   7
   7  10  -6-5.28432 10.5418   4
   7  10  -6 3.93329 12.4270   9
   7 -10   6-0.25702 10.0008   7
   7  10  -5 13.2567 11.8410   4
   7  10  -5 25.3590 12.3952   9
   7 -10   5 4.91890 9.54117   7
   7  10  -4 16.5289 11.6638   4
   7  10  -4 17.0904 11.9418   9
   7 -10   4 6.33151 9.47239   7
   7  10  -3 0.22957 10.5888   4
   7  10  -3 6.79475 12.1670   9
   7 -10   3-4.29798 9.31950   7
   7  10  -2-6.25895 10.6962   4
   7  10  -2 9.43132 12.2539   9
   7 -10   2 23.8476 9.86722   7
  -7 -10  -1 3.11801 10.1650   6
   7  10  -1 0.94201 11.0175   4
   7  10  -1-2.09272 11.9922   9
   7 -10   1-7.79929 9.43443   7
  -7 -10   0-14.0421 10.2446   6
   7  10   0 5.09789 11.0168   4
   7  10   0-5.92603 12.0983   9
   7 -10   0-0.90019 8.88748   7
   7  10   1 5.96254 10.5608   4
   7 -10  -1 5.52418 8.73744   7
   7  10   2 21.9361 11.1315   4
   7 -10  -2 23.4832 9.02469   7
   7  10   3 18.9992 10.9189   4
   7 -10  -3 9.52468 8.67664   7
   7  10   4 17.1505 10.6539   4
   7 -10  -4 12.9000 8.54490   7
   7  10   5-1.60800 10.7610   4
   7 -10  -5 24.9228 8.79606   7
   7  10   6-4.63417 10.6056   4
   7  10   7 0.70512 10.5999   4
  -7  10  -7 4.57751 12.6693   4
   7  10   8 18.2285 10.9590   4
  -7  10  -8 2.03526 13.0244   4
   7  10   9 20.5723 11.0678   4
  -7  10  -9-0.29351 13.1769   4
   7  10  10 15.3286 11.2667   4
  -7  10 -10 0.30218 13.2820   4
   7  10  11 10.6412 11.6825   4
  -7  10 -11 0.31441 13.6606   4
   7  10  12 8.36839 11.1746   4
  -7  10 -12 3.18956 13.4729   4
   7  10  13 5.11712 11.1190   4
  -7  10 -13 4.14242 13.9062   4
   7  10  14 9.19684 11.0413   4
  -7  10 -14 3.25298 13.9840   4
   7  10  15 3.34965 11.1164   4
  -7  10 -15 17.5790 14.4470   4
  -7 -11 -12 0.25261 11.8884   3
   7  11 -10 3.56604 12.8403   9
   7  11  -9 0.23812 12.8692   9
   7  11  -8-5.17092 12.6310   9
   7  11  -7 22.1279 13.4538   9
   7  11  -6 5.97409 11.4580   4
   7  11  -6 4.16393 12.6777   9
   7  11  -5 6.72716 11.5160   4
   7  11  -5 19.5964 12.7487   9
   7 -11   5-1.33690 10.2655   7
   7  11  -4 9.40664 11.4768   4
   7  11  -4 11.1083 12.1833   9
   7 -11   4-1.30652 10.0061   7
   7  11  -3 8.15077 12.2099   4
   7  11  -3 11.7871 12.3463   9
   7 -11   3 10.1294 9.87385   7
   7  11  -2 16.4329 12.2908   4
   7  11  -2-1.36744 12.4462   9
   7 -11   2 5.18625 9.31464   7
   7  11  -1 21.7656 11.3657   4
  -7 -11  -1 0.75862 10.9603   6
   7  11  -1 20.4382 12.6792   9
   7 -11   1 0.24409 9.21593   7
  -7 -11   0 1.30908 10.8191   6
   7  11   0 1.51370 11.4676   4
   7  11   0 0.44629 12.2107   9
   7 -11   0-0.24227 9.20484   7
  -7 -11   1 4.70588 10.8587   6
   7  11   1 22.0366 11.5651   4
   7  11   1-2.71297 12.3176   9
   7 -11  -1 8.25932 9.58293   7
   7  11   2 33.1989 12.0510   4
   7 -11  -2 3.06390 9.00298   7
   7  11   3 6.77197 11.5008   4
   7  11   4 21.0940 11.7234   4
   7  11   5 2.27210 11.3945   4
   7  11   6 2.51464 11.2918   4
   7  11   7 13.0986 11.2206   4
   7  11   8 1.50856 11.2703   4
  -7  11  -8 5.89928 13.4741   4
   7  11   9-2.01377 11.1483   4
  -7  11  -9 0.31454 13.4887   4
   7  11  10 2.53429 10.9906   4
  -7  11 -10-0.31653 13.6093   4
   7  11  11-0.76893 11.2595   4
  -7  11 -11 0.97491 13.7757   4
  -7  11 -12 0.67366 13.8150   4
   7  12  -6-6.49297 11.4645   4
   7  12  -5-0.26355 11.5777   4
   7  12  -4 6.14328 11.7661   4
   7  12  -4-0.23895 12.7534   9
   7  12  -3 4.29615 11.7872   4
   7  12  -3 0.93391 12.7026   9
   7  12  -2 2.46552 12.1694   4
   7  12  -2 0.23401 12.6171   9
   7 -12   2 0.26412 9.84226   7
   7  12  -1 6.79388 12.6600   4
   7  12  -1 0.24005 13.0384   9
   7 -12   1-14.4312 9.67576   7
   7  12   0 10.2631 12.6629   4
  -7 -12   0 0.20267 11.2613   6
   7  12   0 0.24209 13.0453   9
   7  12   1 11.1289 12.2827   4
  -7 -12   1 0.20354 11.4531   6
   7  12   1 0.23558 12.6020   9
   7  12   2-0.81306 11.8333   4
   7  12   2-0.23861 12.8408   9
   7  12   3-1.91084 11.7823   4
   7  12   4 7.47406 12.2623   4
   8   0   0 891.431 99.8239   7
  -8   0  -1 855.844 118.421   4
   8   0   1 1182.73 118.391   7
   8   0  -1 1127.23 118.389   7
   8   0   2 71.5776 9.72258   7
  -8   0  -2 38.2258 11.0422   4
   8   0   3 20.8660 7.12058   7
  -8   0  -3 28.8361 9.11260   4
   8   0   4 7.22630 6.34077   7
  -8   0  -4-1.94946 8.91911   4
   8   0   4-7.55418 15.0132   1
  -8   0  -5 312.556 38.5715   4
   8   0   5 342.079 37.7762   7
   8   0   6 105.714 11.2141   7
  -8   0  -6 113.816 13.8873   4
  -8   0  -7 6.25683 10.3413   4
   8   0   7 5.73688 8.23819   1
   8   0   8 12.6562 8.54551   1
  -8   0  -8 32.0718 11.1348   4
   8   0   9 161.338 18.5360   1
  -8   0  -9 122.044 20.0045   4
  -8   0 -10 22.3316 11.7589   4
   8   0  10 32.7655 8.77747   1
  -8   0 -11 30.2075 11.9069   4
  -8   0 -12 6.38406 11.7531   4
  -8   0 -13 24.0633 12.3184   4
  -8   0 -14 21.9538 12.7091   4
  -8   0 -15 24.7917 13.3899   4
  -8   0 -16-3.09109 12.9295   4
  -8   0 -17 10.1301 13.7807   4
  -8   0 -18 23.8446 14.3335   4
  -8   0 -19 38.5019 14.6564   4
  -8   0 -20 25.5709 14.7991   4
  -8   0 -21 9.64121 14.4321   4
  -8   0 -22-17.2267 14.7564   4
  -8   0 -23 10.2033 14.0710   4
  -8   0 -24 14.5143 14.3082   4
  -8   0 -25-2.66555 14.6324   4
  -8  -1 -25-3.55153 15.4770   4
  -8  -1 -24 5.50388 15.1081   4
  -8  -1 -23-1.00933 14.8488   4
  -8  -1 -22 6.22940 14.8739   4
  -8  -1 -21 4.12521 14.5403   4
  -8  -1 -20-3.71105 14.3603   4
  -8  -1 -19-2.10932 13.8273   4
  -8  -1 -18 6.23759 13.0346   4
  -8  -1 -17 19.0268 13.2612   4
  -8  -1 -16 14.7492 12.7958   4
  -8  -1 -15 34.1384 12.8076   4
  -8  -1 -14 26.5877 12.4239   4
  -8  -1 -13 27.3094 12.2159   4
  -8  -1 -12 6.68791 11.4736   4
  -8  -1 -11 34.3180 12.4181   4
  -8  -1 -10 52.8632 13.9622   4
   8  -1  10 89.2603 12.4475   1
   8  -1   9 176.861 20.5912   1
  -8  -1  -9 147.619 21.8795   4
  -8  -1  -8 231.480 30.9706   4
   8  -1   8 314.186 30.3774   1
   8  -1   8 235.002 29.5556   7
  -8  -1  -7 171.302 19.3369   4
   8  -1   7 167.116 18.2300   1
   8  -1   7 115.041 17.0219   7
   8  -1   6 6.88535 6.32922   7
   8  -1   6 16.8378 9.31933   1
  -8  -1  -6 26.5606 10.6072   4
   8  -1   5-12.1907 16.0525   1
  -8  -1  -5 30.0468 11.8797   4
   8  -1   4 1.05336 6.26087   7
  -8  -1  -4-12.8353 9.60888   4
   8  -1   3 62.3310 10.0870   7
  -8  -1  -3 63.1409 11.9374   4
   8  -1   2 98.4994 13.3798   7
   8  -1   2 110.319 12.8575   5
  -8  -1  -2 81.2638 14.6216   4
   8  -1   1 46.1997 9.07454   7
   8  -1   1 60.2109 8.20042   5
  -8  -1  -1 32.0320 10.6911   4
   8  -1   0 109.904 12.6381   7
   8   1   0 92.3866 12.2805   7
   8  -1   0 71.9199 11.6241   5
   8  -1  -1 45.5252 8.55399   7
   8   1   1 29.6537 7.55022   7
   8   1   2 106.747 13.9091   7
   8  -1  -2 127.468 14.3643   7
  -8   1  -2 81.5129 15.1283   4
   8   1   3 53.5960 8.23877   7
   8  -1  -3 33.9389 9.01015   7
  -8   1  -3 42.5638 10.7638   4
   8   1   4 16.9432 14.4184   1
   8   1   4 0.26710 5.88609   7
  -8   1  -4 10.7141 9.44314   4
  -8   1  -5 54.2074 11.8049   4
   8   1   6 49.1986 11.2519   1
  -8   1  -6 19.3214 10.8043   4
  -8   1  -7 129.704 18.5589   4
   8   1   7 136.907 17.2916   1
  -8   1  -8 266.544 33.2401   4
   8   1   8 283.899 32.2725   1
   8   1   9 213.175 23.2110   1
  -8   1  -9 156.997 24.5911   4
  -8   1 -10 62.6037 15.1789   4
   8   1  10 96.1276 12.6118   1
  -8   1 -11 27.3614 12.5423   4
  -8   1 -12 13.7955 11.9488   4
  -8   1 -13 20.9868 12.4018   4
  -8   1 -14 17.1229 12.8562   4
  -8   1 -15 52.2036 14.6196   4
  -8   1 -16 0.28510 12.8791   4
  -8   1 -17 3.52767 13.5508   4
  -8   1 -18 11.2079 14.0324   4
  -8   1 -19 9.04101 13.9043   4
  -8   1 -20 13.7348 14.6129   4
  -8   1 -21 16.4145 15.1619   4
  -8   1 -22-2.98080 14.5438   4
   8  -1 -23-8.02031 13.1249   3
  -8   1 -23 17.7551 15.0366   4
   8  -1 -24 0.28425 13.7998   3
  -8   1 -24 5.90288 14.9821   4
   8  -1 -25 31.3167 13.7936   3
  -8   1 -25-2.46066 15.2498   4
  -8  -2 -25-5.27120 15.1034   4
  -8  -2 -24-2.75771 15.0912   4
  -8  -2 -23 17.1517 15.0587   4
  -8  -2 -22 29.9377 15.2071   4
  -8  -2 -21 8.24176 14.4430   4
  -8  -2 -20 19.2015 14.5496   4
  -8  -2 -19-5.13590 13.7292   4
  -8  -2 -18 49.5190 15.0643   4
  -8  -2 -17 21.6584 13.7988   4
  -8  -2 -16 57.2889 15.2212   4
  -8  -2 -15 8.04933 12.9443   4
  -8  -2 -14 20.2724 13.0738   4
  -8  -2 -13 3.15687 12.4415   4
  -8  -2 -12 22.1190 12.5060   4
  -8  -2 -11 102.006 16.9602   4
  -8  -2 -10 36.8775 13.3719   4
   8  -2  10 61.9804 11.4687   1
   8  -2  10 57.5230 9.21274   7
  -8  -2  -9 42.9376 13.1705   4
   8  -2   9 54.2777 10.4035   1
   8  -2   9 49.6834 9.00125   7
   8  -2   8 26.2945 9.34298   1
   8  -2   8 14.4370 7.00470   7
  -8  -2  -7 77.0866 15.1370   4
   8  -2   7 108.304 13.5650   1
   8  -2   7 78.0708 12.0759   7
  -8  -2  -6 18.5598 11.0260   4
   8  -2   6 7.02444 9.97510   1
   8  -2   6 26.9916 7.19515   7
   8  -2   5-1.82712 6.44323   7
  -8  -2  -5-8.70730 10.2621   4
   8  -2   4 67.8314 10.5577   7
  -8  -2  -4 70.9202 12.6289   4
   8  -2   3 101.618 12.7310   7
   8  -2   3 99.5191 11.8997   5
  -8  -2  -3 85.3956 14.5023   4
   8  -2   2 96.3367 12.6954   7
   8  -2   2 88.1065 11.8115   5
  -8  -2  -2 84.0136 14.0921   4
   8  -2   1 28.3513 7.23975   5
  -8  -2  -1 12.2255 9.55670   4
   8  -2   0 48.2096 8.74956   7
   8  -2   0 40.0336 7.93528   5
  -8  -2   0 24.5027 9.50958   4
   8  -2  -1 46.3665 8.97450   7
   8  -2  -1 36.8530 8.31526   5
   8  -2  -2 83.2724 11.3914   7
   8   2   2 73.0281 10.0527   7
   8  -2  -2 66.8410 10.6622   5
  -8   2  -2 48.3609 11.8156   4
   8  -2  -3 104.969 13.4010   7
   8  -2  -3 92.3137 12.6491   5
  -8   2  -3 78.6405 13.9433   4
   8  -2  -4 104.906 11.5612   7
  -8   2  -4 61.1019 12.3634   4
   8  -2  -5 4.95679 8.08564   7
  -8   2  -5 4.54877 9.34294   4
   8  -2  -6 20.1088 8.57997   7
   8   2   6 12.8200 9.84033   1
  -8   2  -6 12.2644 9.84329   4
  -8   2  -7 65.1740 13.8906   4
   8   2   7 93.8773 12.2234   1
  -8   2  -8 4.41113 10.4847   4
  -8   2  -9 23.7584 11.1369   4
  -8   2 -10 47.4244 12.6263   4
  -8   2 -11 60.3275 13.4776   4
  -8   2 -12 7.98079 11.6843   4
  -8   2 -13 5.32499 12.0194   4
  -8   2 -14 17.5550 12.7026   4
  -8   2 -15 8.99912 13.0378   4
  -8   2 -16 43.8980 14.4860   4
   8  -2 -17 11.6829 11.3765   3
  -8   2 -17 60.2917 14.5038   4
   8  -2 -18 31.2132 12.1618   3
  -8   2 -18 54.1772 14.6423   4
   8  -2 -19 20.1386 12.3170   3
  -8   2 -19 8.82028 15.1772   4
   8  -2 -20 6.15151 12.1615   3
  -8   2 -20-13.1619 14.4250   4
   8  -2 -21 9.55120 12.6164   3
  -8   2 -21 24.0905 15.2912   4
   8  -2 -22 10.3847 12.8539   3
  -8   2 -22-3.39441 15.0219   4
   8  -2 -23 4.15980 12.7673   3
  -8   2 -23 21.6001 15.6316   4
  -8  -2  23-3.85757 12.7357   2
   8  -2 -24 0.27793 13.4366   3
  -8   2 -24-6.77807 15.5861   4
  -8  -2  24 2.72593 13.0816   2
   8  -2 -25 0.28038 13.3960   3
  -8   2 -25-1.09018 15.2669   4
  -8  -3 -24 18.1432 15.0568   4
  -8  -3 -23 7.39750 14.7846   4
  -8  -3 -22 39.7803 16.0227   4
  -8  -3 -21 21.2791 15.0516   4
  -8  -3 -20-1.92337 14.5284   4
  -8  -3 -19-6.26731 14.3260   4
  -8  -3 -18-9.07881 14.4533   4
  -8  -3 -17 29.9667 14.7580   4
  -8  -3 -16-10.1551 14.2183   4
  -8  -3 -15 39.6496 14.7962   4
  -8  -3 -14 6.39984 12.7712   4
  -8  -3 -13 26.0607 13.4638   4
  -8  -3 -12 3.17847 12.5743   4
   8  -3  12 14.0928 7.27001   7
  -8  -3 -11-11.4609 11.9964   4
   8  -3  11 12.8322 7.24965   7
  -8  -3 -10 10.6797 12.2248   4
   8  -3  10 28.7127 9.69309   1
   8  -3  10 14.4335 7.23602   7
  -8  -3  -9 42.5421 13.4397   4
   8  -3   9 48.6556 10.5318   1
   8  -3   9 53.3688 9.12828   7
   8  -3   8 21.2166 9.04713   1
  -8  -3  -8 10.9291 11.7260   4
   8  -3   8 9.32981 7.23965   7
   8  -3   7 36.1729 9.88405   1
  -8  -3  -7 21.6323 11.8175   4
   8  -3   7 15.1477 7.89055   7
  -8  -3  -6 44.5830 13.2085   4
   8  -3   6 62.3790 11.3513   1
   8  -3   6 57.3689 9.83532   7
   8  -3   5 17.3596 10.1291   1
  -8  -3  -5 23.0506 10.6766   4
   8  -3   5 10.6108 7.24987   7
   8  -3   4 74.2470 10.4292   7
   8  -3   4 33.8669 17.1866   1
  -8  -3  -4 60.5978 12.4812   4
   8  -3   3 128.130 14.3227   7
   8  -3   3 108.211 13.7514   5
  -8  -3  -3 111.519 15.7431   4
   8   3  -2 171.140 20.2369   4
   8  -3   2 176.009 20.0585   5
  -8  -3  -2 175.681 21.3469   4
   8  -3   2 201.961 20.6855   7
   8  -3   1 70.9305 10.1420   7
   8  -3   1 63.0697 9.16891   5
   8   3  -1 41.7232 9.55098   4
  -8  -3  -1 55.7509 11.0062   4
   8  -3   0 26.8170 8.31314   7
   8  -3   0 18.0448 7.10029   5
  -8  -3   0 29.4072 8.74490   4
   8  -3  -1 86.0097 12.4590   7
   8  -3  -1 80.8139 11.8398   5
   8  -3  -2 175.343 21.3751   5
   8  -3  -2 182.641 21.8104   7
   8  -3  -3 145.080 16.2282   7
   8  -3  -3 117.484 15.8137   5
  -8   3  -3 99.9834 16.6221   4
   8  -3  -4 68.2427 10.6634   7
   8  -3  -4 47.3543 9.93914   5
  -8   3  -4 47.0856 11.4068   4
   8  -3  -5 18.5492 8.59501   7
   8  -3  -5 3.76694 8.04511   5
  -8   3  -5 17.0244 9.83026   4
   8  -3  -6 51.1756 10.1918   7
   8  -3  -6 51.9567 9.66086   5
  -8   3  -6 21.7222 11.4056   4
   8  -3  -7 17.3037 8.67456   7
   8  -3  -7 3.95050 8.35105   5
  -8   3  -7 13.9860 10.7578   4
   8  -3  -8 4.60603 8.56013   7
   8  -3  -8 14.1117 8.30745   5
   8  -3  -9 32.8924 9.50568   7
   8  -3  -9 8.92384 9.08148   5
  -8   3  -9 38.1238 11.6121   4
  -8   3 -10 2.83855 11.5700   4
  -8   3 -11-0.24486 11.3657   4
  -8   3 -12 19.8726 12.5559   4
  -8   3 -13 11.1806 12.6984   4
  -8   3 -14-11.8218 12.9725   4
  -8   3 -15 11.0226 12.5186   4
  -8   3 -16 14.2374 12.7307   4
  -8   3 -17 16.9433 13.6071   4
  -8   3 -18-0.29333 13.2181   4
  -8   3 -19 15.2578 14.3954   4
   8  -3 -20 11.1349 11.9812   3
  -8   3 -20 0.63596 14.1947   4
  -8  -3  20 7.44048 12.5003   2
   8  -3 -21 29.6870 12.7543   3
  -8   3 -21 3.26792 15.0376   4
  -8  -3  21 31.4520 13.2388   2
   8  -3 -22 23.7472 12.8280   3
  -8   3 -22 17.9252 16.0320   4
  -8  -3  22 49.7171 13.5302   2
   8  -3 -23-0.25427 12.4677   3
  -8   3 -23 15.5983 15.2661   4
  -8  -3  23 12.0358 13.2661   2
   8  -3 -24 0.26090 12.5243   3
  -8   3 -24 0.75272 16.1951   4
  -8  -3  24 7.37159 13.1504   2
  -8  -4 -24 28.7865 15.3876   4
  -8  -4 -23 13.9220 15.3107   4
  -8  -4 -22 13.3462 15.2450   4
  -8  -4 -21-10.0783 15.1372   4
  -8  -4 -20-5.93453 14.8534   4
  -8  -4 -19 18.7358 14.9093   4
  -8  -4 -18 19.9619 14.9077   4
  -8  -4 -17-2.78894 14.2143   4
  -8  -4 -16 27.3076 14.5505   4
  -8  -4 -15 15.4384 14.2964   4
  -8  -4 -14 10.1624 13.8793   4
  -8  -4 -13 25.5583 14.0157   4
   8  -4  13 22.5860 8.45474   7
  -8  -4 -12 73.4751 15.2330   4
   8  -4  12 61.1292 10.8526   7
  -8  -4 -11 31.0479 13.1961   4
   8  -4  11-3.11482 8.03893   7
  -8  -4 -10 5.04551 11.9085   4
   8  -4  10 9.18752 7.69679   7
  -8  -4  -9 23.2365 12.3207   4
   8  -4   9 33.1655 9.84781   1
   8  -4   9 14.1394 8.14642   7
  -8  -4  -8 71.6521 14.2772   4
   8  -4   8 65.5241 11.0278   7
   8  -4   8 79.9648 12.4138   1
   8  -4   7 97.3111 14.4291   1
  -8  -4  -7 84.2463 15.6878   4
   8   4  -7 88.6441 13.8720   9
   8  -4   7 102.681 13.7466   7
  -8  -4  -6 176.710 24.5006   4
   8  -4   6 228.709 24.2143   1
   8   4  -6 180.020 23.5242   9
   8  -4   6 192.159 23.3568   7
  -8  -4  -5 69.6902 13.1441   4
   8  -4   5 70.4265 12.3972   1
   8   4  -5 56.4246 11.5535   9
   8  -4   5 74.6765 11.3204   7
  -8  -4  -4 51.9688 11.3776   4
   8   4  -4 52.6221 9.75815   9
   8  -4   4 60.7992 9.68820   7
  -8  -4  -3 2.09115 9.30949   4
   8   4  -3 2.39647 7.94918   9
   8  -4   3-0.53939 7.60688   7
   8  -4   2 27.5841 8.18009   7
   8   4  -2 30.5875 7.68989   4
  -8  -4  -2 47.9548 10.1431   4
   8   4  -2 34.2641 8.79713   9
   8  -4   1 84.3779 11.3193   7
   8  -4   1 72.4575 10.1742   5
   8   4  -1 74.3250 10.5491   4
   8   4  -1 50.6130 10.9104   9
   8  -4   0 31.4902 8.32274   7
   8  -4   0 22.4998 7.20597   5
   8   4   0 10.5561 7.80396   4
   8  -4  -1 88.8982 11.9496   7
   8  -4  -1 75.0803 10.9567   5
   8   4   1 60.3367 11.4520   4
   8  -4  -2 67.3991 10.5512   7
   8  -4  -2 63.5063 9.67406   5
   8   4   2 37.1382 10.2277   4
   8  -4  -3 10.8665 8.33470   7
   8  -4  -3-3.71892 7.49065   5
   8  -4  -4 48.1205 9.54451   7
   8  -4  -4 33.8022 9.04865   5
  -8   4  -4 39.5154 10.5691   4
   8  -4  -5 65.5637 10.5971   7
   8  -4  -5 41.9708 9.84736   5
  -8   4  -5 45.5227 11.5031   4
   8  -4  -6 141.035 20.1143   5
  -8   4  -6 142.523 21.0030   4
   8  -4  -6 203.956 20.6296   7
   8  -4  -7 121.164 14.4986   7
   8  -4  -7 74.2999 14.0914   5
  -8   4  -7 93.7506 15.1433   4
   8  -4  -8 72.3320 12.2735   7
   8  -4  -8 74.9358 12.2158   5
  -8   4  -8 64.9247 13.8428   4
   8  -4  -9 16.3392 9.10812   7
   8  -4  -9 15.8527 8.86259   5
  -8   4  -9 10.8214 11.3150   4
   8  -4 -10 11.1977 9.38699   7
   8  -4 -10 12.6324 9.42068   5
  -8   4 -10-0.23836 11.3277   4
   8  -4 -11 5.57403 9.38163   7
   8  -4 -11-6.93904 9.40312   5
  -8   4 -11 2.06215 11.9466   4
   8  -4 -12 54.7759 10.7622   7
   8  -4 -12 22.9101 10.4853   5
  -8   4 -12 48.2368 13.6429   4
   8  -4 -13-2.85704 9.60708   7
   8  -4 -13 14.0531 9.65085   5
  -8   4 -13 6.37334 12.8908   4
   8  -4 -14-5.61084 9.50350   5
  -8   4 -14 5.43115 13.3739   4
   8  -4 -15-14.9988 9.85917   5
  -8   4 -15 0.29375 13.8314   4
   8  -4 -16-11.8854 10.0658   5
  -8   4 -16-0.29944 13.6779   4
   8  -4 -17 6.07735 10.1978   5
  -8   4 -17 0.60774 14.0055   4
   8  -4 -18-16.7441 10.2642   5
  -8   4 -18-8.75245 14.2239   4
   8  -4 -19 1.37757 10.2825   5
  -8   4 -19 1.59569 14.4162   4
  -8  -4  19 33.9571 12.5584   2
   8  -4 -20 3.93307 10.6114   5
  -8   4 -20 5.08563 14.3946   4
  -8  -4  20 19.7801 12.6462   2
   8  -4 -21-27.1647 10.8040   5
  -8   4 -21-11.5991 14.6987   4
  -8  -4  21 11.1795 12.7720   2
   8  -4 -22-0.28767 10.5671   5
  -8   4 -22 7.32923 14.8963   4
  -8  -4  22 7.35541 12.5966   2
   8  -4 -23 0.29183 10.5078   5
  -8   4 -23 0.34452 15.0921   4
  -8  -4  23 4.21828 12.8938   2
   8  -4 -24 0.29562 10.4777   5
  -8  -5 -23 4.60114 14.2303   4
  -8  -5 -22 1.94378 14.1389   4
  -8  -5 -21 0.95723 13.9135   4
  -8  -5 -20 9.72310 13.7923   4
  -8  -5 -19 22.1990 14.1217   4
  -8  -5 -18-5.45081 13.7397   4
  -8  -5 -17-19.9146 13.5616   4
  -8  -5 -16 32.3835 14.2386   4
  -8  -5 -15 24.8984 13.7642   4
  -8  -5 -14 8.41714 13.0507   4
  -8  -5 -13 18.2587 12.7243   4
   8  -5  13 17.4098 9.07325   7
  -8  -5 -12 3.15989 12.6713   4
   8  -5  12 14.8704 8.63344   7
  -8  -5 -11 13.2052 12.2023   4
   8  -5  11 2.44891 8.34192   7
  -8  -5 -10 40.6475 11.7748   4
   8  -5  10 8.36537 8.74413   7
  -8  -5  -9 25.9805 11.6590   4
   8  -5   9 23.0265 10.2205   1
   8  -5   9 20.8611 8.45810   7
  -8  -5  -8 30.1308 11.9261   4
   8   5  -8 32.3472 10.6166   9
   8  -5   8 51.3129 10.7406   1
   8  -5   8 31.2935 9.35718   7
   8  -5   7 22.1309 9.42677   1
  -8  -5  -7 4.03317 11.0116   4
   8   5  -7 29.5544 10.0118   9
   8  -5   7 29.1442 8.42827   7
   8  -5   6 19.9417 9.62464   1
  -8  -5  -6 1.75455 10.7559   4
   8   5  -6 12.1403 9.21693   9
   8  -5   6 2.92917 8.17386   7
   8  -5   5 42.0924 10.3737   1
   8   5  -5 30.9875 10.1132   9
   8  -5   5 35.1649 9.53858   7
   8   5  -4 4.62227 8.90925   9
   8  -5   4 21.8265 10.1422   1
   8  -5   4 32.6313 8.90444   7
   8   5  -3 15.5195 7.44136   4
   8  -5   3 11.0738 12.0548   1
   8   5  -3 13.2946 9.03850   9
   8  -5   3 7.12529 8.22013   7
   8   5  -2 69.2700 10.3490   4
   8   5  -2 41.2507 11.2260   9
   8  -5   2 64.1016 10.6157   7
   8  -5   1 66.4961 11.2396   7
   8   5  -1 78.4980 10.7336   4
   8   5  -1 56.2097 11.4445   9
   8  -5   0 160.803 17.0649   7
   8   5   0 140.670 17.0885   4
   8  -5  -1 63.7783 11.3615   7
   8  -5  -1 62.6844 10.5722   5
   8   5   1 73.1027 11.0279   4
   8  -5  -2 95.0569 13.2253   7
   8  -5  -2 90.3764 12.7534   5
   8   5   2 84.5652 13.1458   4
   8  -5  -3 15.2950 8.46226   7
   8  -5  -3 13.6864 7.56820   5
   8   5   3 6.08523 8.42437   4
   8  -5  -4 16.4452 8.56049   7
   8  -5  -4-4.11313 7.68286   5
   8   5   4 11.0200 8.88567   4
  -8   5  -4 0.20838 10.1287   4
   8  -5  -5 36.7412 9.87740   7
   8  -5  -5 30.3182 8.87167   5
   8   5   5 32.8841 9.90885   4
  -8   5  -5 25.1436 11.2094   4
   8  -5  -6 10.5451 8.94530   7
   8  -5  -6 14.7932 8.28745   5
   8   5   6 9.48600 9.00406   4
  -8   5  -6 13.7399 10.9241   4
   8  -5  -7 7.01844 8.63212   7
   8  -5  -7 20.9166 8.76805   5
  -8   5  -7 18.8727 11.6501   4
   8  -5  -8 40.9009 10.0224   7
   8  -5  -8 41.3861 9.75221   5
  -8   5  -8 14.1717 12.3096   4
   8  -5  -9 17.3137 9.23817   7
   8  -5  -9 5.44548 8.98184   5
  -8   5  -9 12.6320 11.9148   4
   8  -5 -10 5.63860 9.52216   7
   8  -5 -10 1.34037 9.04527   5
  -8   5 -10 3.13449 12.4555   4
   8  -5 -11 12.4089 9.37541   7
   8  -5 -11 15.1732 9.23659   5
  -8   5 -11 3.43336 12.2017   4
   8  -5 -12 18.9157 9.66199   7
   8  -5 -12 18.3173 9.42335   5
  -8   5 -12 0.27254 12.8352   4
   8  -5 -13 13.7395 9.73111   7
   8  -5 -13 13.0614 9.41692   5
  -8   5 -13 7.37295 12.7196   4
   8  -5 -14 2.95297 9.52733   7
   8  -5 -14 20.4777 10.2071   5
  -8   5 -14 1.39300 12.6652   4
   8  -5 -15-2.97997 9.83616   7
   8  -5 -15 16.9775 10.2848   5
  -8   5 -15 8.32008 13.0240   4
   8  -5 -16 11.3694 9.99726   7
   8  -5 -16 8.26166 10.0346   5
  -8   5 -16-8.04822 13.4817   4
   8  -5 -17 15.9328 10.5362   7
   8  -5 -17 5.16238 10.5013   5
  -8   5 -17 22.7561 14.8394   4
  -8  -5  17 43.4989 11.9065   2
   8  -5 -18 2.74840 10.7446   5
  -8   5 -18 8.61731 15.1203   4
  -8  -5  18 40.9797 12.0258   2
   8  -5 -19 1.11817 10.6239   5
  -8   5 -19 1.35589 15.5125   4
  -8  -5  19 18.8569 12.0599   2
   8  -5 -20-0.28414 10.5187   5
  -8  -5  20 26.9801 12.3801   2
   8  -5 -21 3.17323 10.7205   5
  -8   5 -21-4.85852 15.0546   4
  -8  -5  21-0.86979 12.7101   2
   8  -5 -22 0.29462 10.9071   5
  -8   5 -22 1.41084 15.1444   4
  -8  -5  22-28.8852 12.6118   2
   8  -5 -23 0.29798 10.4868   5
  -8  -5  23-3.96553 12.8671   2
  -8  -6 -21 13.7209 13.3722   4
  -8  -6 -20-4.19907 13.3920   4
  -8  -6 -19-7.68411 13.4122   4
  -8  -6 -18 37.0929 13.9532   4
  -8  -6 -17 4.02319 12.9638   4
  -8  -6 -16 24.8849 13.4518   4
  -8  -6 -15 0.27808 12.5923   4
  -8  -6 -14 18.2128 12.6340   4
  -8  -6 -13 18.6915 12.4607   4
  -8  -6 -12 25.7015 12.4190   4
   8  -6  12 16.7496 9.46643   7
  -8  -6 -11 30.6669 12.5562   4
   8  -6  11 16.5846 9.33779   7
   8  -6  10 7.61935 8.76723   7
   8   6  -9 39.1954 10.9204   9
   8  -6   9 14.9386 9.48534   7
   8  -6   8 28.2691 10.8274   1
   8   6  -8 36.4784 10.8749   9
   8  -6   8 33.3249 9.47543   7
   8   6  -7 53.1743 12.2774   9
   8  -6   7 60.9388 11.3891   1
   8  -6   7 44.5722 10.3474   7
   8   6  -6 31.1233 10.1778   9
   8  -6   6 16.0591 8.49185   7
   8  -6   5 54.3801 10.9287   1
   8   6  -5 35.8939 10.9368   9
   8  -6   5 38.2242 9.86597   7
   8  -6   4 38.0782 10.3008   1
   8   6  -4 28.3937 10.2705   9
   8  -6   4 36.6027 10.2438   7
   8   6  -3 17.6245 8.01304   4
   8  -6   3 5.97480 9.35614   1
   8   6  -3 8.88221 9.65563   9
   8  -6   3-7.05771 8.81752   7
   8   6  -2 18.0768 8.39087   4
   8  -6   2 0.31337 12.2763   1
   8   6  -2 4.28495 9.89878   9
   8  -6   2 14.5219 8.57845   7
   8   6  -1 11.5601 8.19167   4
   8   6  -1-2.32032 9.50259   9
   8  -6   1 0.82512 16.3570   1
   8  -6   1 13.0235 8.51746   7
   8  -6   0-3.55557 19.5118   1
   8   6   0 10.6422 8.43504   4
   8  -6   0 7.87749 8.46362   7
   8  -6  -1 17.3365 8.67392   7
   8  -6  -1-13.7858 16.9813   1
   8   6   1-2.53782 8.42341   4
   8  -6  -2 15.5613 8.39076   7
   8   6   2 34.8548 9.07050   4
   8  -6  -3-1.86224 8.52742   7
   8   6   3 4.05568 8.57285   4
   8  -6  -4 36.5195 9.73430   7
   8  -6  -4 39.5485 9.06223   5
   8   6   4 29.6994 9.86963   4
   8  -6  -5 56.3742 9.94431   7
   8  -6  -5 44.5171 9.71995   5
   8   6   5 36.6135 10.3377   4
  -8   6  -5 24.1231 11.8004   4
   8  -6  -6 14.6517 8.56275   7
   8  -6  -6 16.1186 8.33194   5
   8   6   6-4.78009 9.35557   4
  -8   6  -6 0.45859 10.8967   4
   8  -6  -7 59.8203 10.0713   7
   8  -6  -7 43.4222 9.66109   5
   8   6   7 22.2437 10.6122   4
  -8   6  -7 25.6347 12.2635   4
   8  -6  -8 31.7109 9.72175   7
   8  -6  -8 42.1092 9.43988   5
   8   6   8 29.6691 10.2195   4
  -8   6  -8 20.4343 12.4733   4
   8  -6  -9 29.7142 9.36162   7
   8  -6  -9 23.6770 9.08097   5
   8   6   9 16.3719 10.2835   4
  -8   6  -9 10.8158 12.5670   4
   8  -6 -10 6.11418 9.13282   7
   8  -6 -10 9.31923 8.97829   5
   8   6  10 7.78111 10.2809   4
  -8   6 -10 14.6126 12.6360   4
   8  -6 -11 16.1320 9.54819   7
   8  -6 -11 9.26054 8.94035   5
   8   6  11 5.67208 10.1767   4
  -8   6 -11 22.0796 12.2645   4
   8  -6 -12 9.54770 9.31915   7
   8  -6 -12-6.01326 8.98533   5
   8   6  12-1.77589 10.4332   4
  -8   6 -12 7.21686 13.6356   4
   8  -6 -13-8.07026 9.75413   7
   8  -6 -13 14.1534 9.30485   5
  -8   6 -13 0.30002 13.5463   4
   8  -6 -14 18.5138 9.86641   7
   8  -6 -14 0.24406 9.36500   5
  -8   6 -14 1.23398 13.8319   4
   8  -6 -15 16.3273 10.0433   7
   8  -6 -15 5.28298 9.58747   5
  -8   6 -15 2.53539 14.2464   4
   8  -6 -16 4.85969 9.74125   5
  -8   6 -16 20.7095 14.5140   4
   8  -6 -17-1.03942 9.64993   5
  -8   6 -17 1.58897 14.4800   4
   8  -6 -18 0.26517 9.86859   5
  -8   6 -18 0.32274 14.6860   4
   8  -6 -19 0.26900 10.0080   5
  -8   6 -19 5.67354 15.3226   4
   8  -6 -20 2.99673 10.1725   5
  -8   6 -20 7.85731 15.9526   4
   8  -6 -21 0.27573 10.1570   5
  -8   6 -21 7.71880 16.0671   4
   8  -6 -22 0.27847 9.94244   5
   8  -7  11-2.18820 9.54226   7
   8  -7  10-7.73107 9.37903   7
   8   7  -9-2.46944 11.1664   9
   8  -7   9 12.4453 9.27094   7
   8   7  -8 13.3939 11.0618   9
   8  -7   8 0.23589 9.25401   7
   8  -7   7 11.4969 10.0436   1
   8   7  -7 10.6878 11.2706   9
   8  -7   7 27.1784 9.31221   7
   8   7  -6 15.1105 10.8253   9
   8  -7   6 1.72104 9.59830   1
   8  -7   6 2.84026 8.87523   7
   8   7  -5 38.7621 11.1353   9
   8  -7   5 27.9051 9.62768   7
   8  -7   5 32.9475 10.1946   1
   8  -7   4 12.0025 9.76609   1
   8   7  -4 3.24898 10.3477   9
   8  -7   4 2.59783 8.65811   7
   8   7  -3 4.64013 8.39803   4
   8  -7   3 18.4663 9.81494   1
   8   7  -3 13.5989 10.5140   9
   8  -7   3 8.90756 9.09746   7
   8   7  -2 23.9999 9.34561   4
   8  -7   2 22.7136 10.2469   1
   8   7  -2 22.8848 10.8425   9
   8  -7   2 54.1602 10.4658   7
   8   7  -1 9.45505 8.73713   4
   8   7  -1-21.3332 10.4204   9
   8  -7   1 4.48176 9.16912   7
   8  -7   1-13.7246 10.5896   1
   8   7   0 10.8734 9.01588   4
   8  -7   0 6.87057 14.3511   1
   8  -7   0-3.08698 8.93347   7
   8   7   1-7.11179 9.01318   4
   8  -7  -1 24.6732 8.80695   7
   8   7   2 27.0485 9.64689   4
   8  -7  -2 17.5404 8.98851   7
   8   7   3 12.9393 9.50469   4
   8  -7  -3 4.43186 8.38987   7
   8  -7  -4 29.0730 8.47643   7
   8   7   4 0.77156 9.44238   4
   8  -7  -5 36.0492 9.75691   7
   8   7   5 52.6884 11.0085   4
   8  -7  -6 4.77084 8.82587   7
   8   7   6 8.53239 9.35419   4
  -8   7  -6 3.52924 11.0379   4
   8  -7  -7 30.2020 9.02904   7
   8   7   7 4.05925 9.73976   4
  -8   7  -7 4.65918 11.4975   4
   8  -7  -8 11.2466 8.60803   7
   8  -7  -8 8.37791 8.66789   5
   8   7   8-7.47798 9.81093   4
  -8   7  -8 0.25274 11.6477   4
   8  -7  -9 12.9773 9.07241   7
   8  -7  -9 9.95569 8.87983   5
   8   7   9 9.34835 10.0031   4
  -8   7  -9 7.67689 12.2313   4
   8  -7 -10 15.0177 9.00568   7
   8  -7 -10 6.19471 8.98139   5
   8   7  10 19.8744 10.2502   4
  -8   7 -10 6.81150 12.7090   4
   8  -7 -11 26.0453 9.47087   7
   8  -7 -11 8.54026 8.90792   5
   8   7  11 5.98346 10.2264   4
  -8   7 -11 3.68934 13.0772   4
   8  -7 -12-0.24066 9.56492   7
   8  -7 -12 17.8238 8.89406   5
   8   7  12-0.89981 10.1503   4
  -8   7 -12 2.40042 13.7001   4
   8  -7 -13 3.08367 9.38971   7
   8  -7 -13 5.64955 8.86172   5
   8   7  13 5.07751 10.5898   4
  -8   7 -13-5.78257 13.5580   4
   8  -7 -14 11.9332 8.98047   5
   8   7  14 5.22431 10.9763   4
  -8   7 -14 0.29993 13.5121   4
   8  -7 -15 27.2911 9.92243   5
   8   7  15 28.1788 11.3340   4
   8  -7 -16 0.24896 9.36719   5
   8   7  16 11.9702 10.8040   4
  -8   7 -16-13.1042 15.2373   4
   8  -7 -17 0.50409 9.27984   5
   8   7  17-3.51611 11.3161   4
  -8   7 -17 5.90837 15.8034   4
   8  -7 -18 5.35459 9.61164   5
   8   7  18 2.79841 11.0169   4
  -8   7 -18 6.04095 15.8827   4
   8  -7 -19 2.35001 9.61268   5
   8   7  19-6.69587 11.1205   4
  -8   7 -19 1.06630 15.4866   4
   8  -7 -20 0.26355 9.68306   5
   8   7  20-9.37736 11.1498   4
   8  -8  10 3.07077 9.91143   7
   8   8  -9 6.32502 11.7136   9
   8  -8   9-7.85601 9.50497   7
   8   8  -8 9.62261 11.5181   9
   8  -8   8 10.5155 9.68860   7
   8   8  -7 37.9987 12.0401   9
   8  -8   7 24.6234 10.4104   7
   8   8  -6 19.2856 11.5106   9
   8  -8   6-4.34506 9.49424   7
   8   8  -5 29.4412 11.5793   9
   8  -8   5 31.8125 10.4690   1
   8  -8   5 20.0747 9.59254   7
   8   8  -4-7.58390 10.9543   9
   8  -8   4 1.43569 9.04425   1
   8  -8   3 1.20827 9.51026   1
   8   8  -3 11.2709 9.30603   4
   8   8  -3 10.4382 11.2720   9
   8  -8   3 30.0661 9.30221   7
   8   8  -2 7.35287 9.46835   4
   8  -8   2 18.3507 9.52335   1
   8   8  -2 24.9779 11.3584   9
   8  -8   2 2.02643 8.84636   7
   8   8  -1 24.4990 9.43653   4
   8  -8   1 15.7506 9.88163   1
   8   8  -1-2.81864 11.1579   9
   8  -8   1 23.4806 9.38078   7
   8   8   0 14.1178 9.59449   4
   8  -8   0 8.23246 9.37112   1
   8   8   0 2.97316 10.9300   9
   8  -8   0 31.8827 9.77229   7
   8  -8  -1 8.09062 10.9463   1
   8  -8  -1 24.8958 10.0122   7
   8   8   2 8.99994 10.0674   4
   8  -8  -2-2.75745 9.16940   7
   8   8   3 31.5295 10.4443   4
   8  -8  -3 16.3318 9.43668   7
   8   8   4 5.06172 10.0587   4
   8  -8  -4 22.8679 8.97292   7
   8   8   5 32.7469 10.3209   4
   8  -8  -5 17.2851 8.98031   7
   8   8   6 17.1155 10.2335   4
   8  -8  -6 15.2956 8.90479   7
   8  -8  -7 38.3957 9.22418   7
   8   8   7 25.2471 10.5552   4
  -8   8  -7 3.86001 12.3192   4
   8  -8  -8 20.2051 8.62702   7
   8   8   8 12.0333 10.1474   4
  -8   8  -8 9.00683 12.1282   4
   8  -8  -9 10.3494 8.62890   7
   8   8   9 12.0495 10.3718   4
  -8   8  -9 1.08860 12.0993   4
   8  -8 -10-6.52197 8.73937   7
   8   8  10-7.94272 10.4504   4
  -8   8 -10 3.65152 12.7510   4
   8  -8 -11 4.94968 8.55120   7
   8   8  11 5.89529 10.1193   4
  -8   8 -11 0.29101 13.1596   4
   8   8  12 19.8982 10.7978   4
  -8   8 -12 0.30329 13.4214   4
   8   8  13 15.4572 10.8370   4
  -8   8 -13 7.45464 13.9865   4
   8   8  14 5.25594 10.7662   4
  -8   8 -14 4.18733 14.5124   4
   8  -8 -15 7.44932 9.49420   5
   8   8  15 1.93397 10.6559   4
  -8   8 -15 0.33897 15.0665   4
   8  -8 -16 0.25056 9.28286   5
   8   8  16-0.97844 10.7664   4
  -8   8 -16-7.18872 14.7403   4
   8  -8 -17 1.76955 9.23226   5
   8   8  17-5.22666 10.6183   4
  -8   8 -17 0.33565 14.3255   4
   8  -8 -18 0.51539 9.42024   5
   8   8  18 2.01189 10.8550   4
  -8   8 -18 0.36535 15.3515   4
   8   9  -9 30.4690 12.6529   9
   8  -9   9 1.07877 10.5370   7
   8   9  -8 21.8560 12.1473   9
   8  -9   8 2.86100 10.0815   7
   8   9  -7 13.4269 12.1084   9
   8  -9   7 1.01887 9.90697   7
   8   9  -6 9.61141 11.7443   9
   8  -9   6 9.01127 9.49179   7
   8   9  -5 13.1971 11.8503   9
   8  -9   5 2.04695 9.89724   7
   8   9  -4-0.21844 10.1728   4
   8   9  -4 20.5087 11.4765   9
   8  -9   4 11.2228 9.77375   7
   8   9  -3 2.80006 10.1191   4
   8   9  -3 7.70693 11.3747   9
   8  -9   3 16.6626 9.44732   7
   8   9  -2 2.79964 9.94910   4
   8   9  -2 19.0411 11.7023   9
   8  -9   2 7.36003 9.39831   7
   8   9  -1-2.37209 9.97125   4
   8   9  -1-3.51219 11.6068   9
   8  -9   1 7.71687 9.05340   7
   8   9   0-0.21422 9.92471   4
   8   9   0-13.7619 11.6031   9
   8  -9   0 21.5731 9.33287   7
   8   9   1-1.91943 10.0204   4
   8  -9  -1 9.99420 9.18020   7
   8   9   2-0.21558 9.95096   4
   8  -9  -2 9.84401 9.56667   7
   8   9   3 11.0674 10.4125   4
   8  -9  -3 17.5521 10.1273   7
   8   9   4 5.43376 10.5298   4
   8  -9  -4 12.1320 9.24685   7
   8   9   5 18.8530 10.8251   4
   8  -9  -5 18.0903 9.45154   7
   8   9   6 6.29688 11.0320   4
   8  -9  -6 29.6474 9.45579   7
   8   9   7 41.3374 11.2543   4
   8  -9  -7 5.71809 9.01482   7
   8   9   8 20.4612 10.8502   4
  -8   9  -8 8.72023 12.3798   4
   8  -9  -8-3.58118 8.89024   7
   8   9   9-2.61354 10.9049   4
  -8   9  -9 3.17268 12.8413   4
   8   9  10 4.32612 10.9666   4
  -8   9 -10 17.7082 13.2392   4
   8   9  11 5.61132 10.9155   4
  -8   9 -11 3.92988 13.3698   4
   8   9  12 1.47877 10.5811   4
  -8   9 -12 0.62141 13.5147   4
   8   9  13-1.24558 10.9000   4
  -8   9 -13-0.32062 13.8700   4
   8   9  14 6.17881 10.8695   4
  -8   9 -14 7.85717 14.3251   4
   8   9  15 4.49136 10.5494   4
  -8   9 -15 8.14592 14.7415   4
   8  10  -9 0.23001 12.5528   9
   8  10  -8 10.6634 12.5356   9
   8 -10   8 19.5627 10.6267   7
   8  10  -7 2.06545 12.7351   9
   8 -10   7 0.27394 10.2690   7
   8  10  -6 0.22301 12.0961   9
   8 -10   6 0.26271 9.77895   7
   8  10  -5 2.19570 12.1335   9
   8 -10   5 4.17380 9.70871   7
   8  10  -4 4.34258 11.0743   4
   8  10  -4 1.71245 11.8993   9
   8 -10   4-3.07614 9.74119   7
   8  10  -3 19.1085 10.9502   4
   8  10  -3 0.21410 11.7213   9
   8 -10   3 5.23634 10.1386   7
   8  10  -2 2.64009 11.0375   4
   8  10  -2 11.4096 12.1735   9
   8 -10   2 0.25494 9.72108   7
   8  10  -1 7.32910 10.8983   4
   8  10  -1 6.41954 12.4372   9
   8 -10   1-15.0792 9.30817   7
   8  10   0-5.66185 10.7800   4
   8  10   0 10.1154 12.0258   9
   8 -10   0 1.67557 9.18036   7
   8  10   1-3.30348 10.7359   4
   8  10   1-3.05290 12.1317   9
   8 -10  -1-3.60275 9.22555   7
   8  10   2 6.59033 10.8249   4
   8 -10  -2-8.01044 8.81126   7
   8  10   3 0.93596 10.6906   4
   8 -10  -3 2.57737 8.82258   7
   8  10   4-3.05365 10.5669   4
   8 -10  -4 1.64212 8.99715   7
   8  10   5 13.9792 10.9865   4
   8 -10  -5 7.98670 9.21777   7
   8  10   6 5.04559 10.7423   4
   8 -10  -6 5.72134 9.63669   7
   8  10   7-7.11360 10.7992   4
   8  10   8 11.2579 11.0908   4
   8  10   9 3.07861 11.4254   4
  -8  10  -9 2.73602 13.0405   4
   8  10  10 6.45834 11.1719   4
  -8  10 -10 0.31093 13.3262   4
   8  10  11 1.55153 11.1460   4
  -8  10 -11-1.58806 13.7067   4
   8  10  12 4.43323 11.2804   4
  -8  10 -12 6.14836 13.7788   4
  -8  10 -13 2.64118 13.9535   4
   8  11  -7-16.7779 12.9686   9
   8  11  -6 0.23822 12.7092   9
   8 -11   6-10.2109 10.5827   7
   8  11  -5 0.23452 12.7973   9
   8 -11   5-30.0279 10.5936   7
   8  11  -4 10.5497 12.3653   4
   8  11  -4 1.15756 12.4944   9
   8 -11   4 0.26636 9.97191   7
   8  11  -3 0.26804 12.0023   4
   8  11  -3-24.7641 12.3374   9
   8 -11   3-15.3239 10.1956   7
   8  11  -2 12.5862 11.8367   4
   8  11  -2 3.44975 12.6084   9
   8 -11   2-6.27991 9.79983   7
   8  11  -1 14.5888 11.5829   4
   8  11  -1 0.23330 12.6373   9
   8 -11   1 0.26032 9.54338   7
   8  11   0 13.7803 11.6700   4
   8  11   0 6.83311 12.9239   9
   8 -11   0-19.3667 9.90317   7
   8  11   1 3.68720 11.7058   4
   8  11   1-0.22929 12.2892   9
   8 -11  -1 0.25442 9.46778   7
   8  11   2 4.13161 11.5220   4
   8  11   2 0.23263 12.5378   9
   8 -11  -2-0.24261 9.11911   7
   8  11   3 5.87059 11.4127   4
   8 -11  -3 2.86032 9.01054   7
   8  11   4 18.7335 11.5173   4
   8  11   5 1.53360 11.1538   4
   8  11   6 4.86858 11.3810   4
   8  11   7 3.06620 11.2559   4
   9   0   0 21.3382 8.22802   7
   9   0   1 25.8095 8.76168   7
   9   0  -1 44.9037 8.99709   7
   9   0   2 109.043 14.4144   7
   9   0  -2 106.651 14.7614   7
   9   0  -3 443.100 50.4760   7
  -9   0  -3 390.184 50.8387   4
   9   0   3 478.622 50.3196   7
   9   0   4 87.3262 11.4250   7
  -9   0  -4 59.5735 13.5858   4
  -9   0  -5 19.7289 10.2832   4
   9   0   6 10.5898 12.1152   1
  -9   0  -6-3.69981 10.1249   4
  -9   0  -7 25.6813 10.6009   4
   9   0   7 16.3151 9.23963   1
   9   0   8-1.13263 9.13776   1
  -9   0  -8 1.58548 10.9593   4
   9   0   9 10.1220 8.92297   1
  -9   0  -9-9.80332 11.0481   4
  -9   0 -10-0.24666 11.7901   4
   9   0  10 15.5222 9.08273   1
  -9   0 -11 13.1968 12.2801   4
   9   0  11 10.9982 9.08750   1
  -9   0 -12 8.61653 12.5921   4
  -9   0 -13 9.12768 12.7981   4
  -9   0 -14-2.75947 13.0561   4
  -9   0 -15 24.0853 13.8011   4
  -9   0 -16 15.7113 13.4032   4
  -9   0 -17-12.2380 13.9342   4
  -9   0 -18-13.7304 13.6353   4
  -9   0 -19-13.7653 13.9834   4
  -9   0 -20 13.3182 13.9188   4
  -9   0 -21 15.1704 13.9815   4
  -9   0 -22 16.6871 14.5243   4
  -9   0 -23 4.34158 14.3625   4
  -9  -1 -23 3.20240 15.2689   4
  -9  -1 -22-2.09428 15.2236   4
  -9  -1 -21 25.3534 15.8491   4
  -9  -1 -20-20.8307 15.2590   4
  -9  -1 -19 7.76059 14.5036   4
  -9  -1 -18 14.1866 14.3527   4
  -9  -1 -17 21.5437 14.2631   4
  -9  -1 -16 6.00834 14.1399   4
  -9  -1 -15 24.0274 13.7742   4
  -9  -1 -14 67.4046 15.8774   4
  -9  -1 -13 31.4518 13.9162   4
  -9  -1 -12 20.6105 13.0661   4
  -9  -1 -11 32.7446 14.2337   4
   9  -1  11 62.7894 11.4989   1
  -9  -1 -10 46.1163 14.5842   4
   9  -1  10 80.6975 12.3246   1
   9  -1   9 31.9458 10.1335   1
  -9  -1  -9 49.1027 12.9244   4
   9  -1   8 37.4465 10.2151   1
  -9  -1  -8 16.2664 12.6559   4
  -9  -1  -7 60.3205 13.9820   4
   9  -1   7 78.5062 12.4389   1
   9  -1   6 76.8692 10.0471   7
  -9  -1  -6 79.2083 13.6385   4
   9  -1   5 27.3235 7.96008   7
  -9  -1  -5 34.1944 11.3029   4
   9  -1   5 17.3621 16.7908   1
   9  -1   4 62.4167 9.46761   7
  -9  -1  -4 36.8991 11.9948   4
   9  -1   3-6.31296 7.55349   7
   9  -1   3 8.49227 16.9951   1
  -9  -1  -3 2.70726 10.5869   4
   9  -1   2 43.5969 9.26997   7
   9  -1   1 44.7922 9.19645   7
   9   1  -1 39.5498 9.05746   7
   9  -1   0 0.95551 8.02891   7
   9   1   0-15.7692 7.50328   7
   9  -1   0-11.1001 6.71341   5
   9   1   1 26.9209 8.12982   7
   9  -1  -1 21.9634 7.92710   5
   9   1   2 27.1618 8.06547   7
   9  -1  -2 31.8982 9.11212   7
   9  -1  -3 6.16381 8.37913   7
   9  -1  -4 51.7707 9.63745   7
  -9   1  -4 40.9709 11.1966   4
   9  -1  -5 40.8142 9.72807   7
  -9   1  -5 29.2622 11.2710   4
   9   1   6 41.3013 13.0638   1
  -9   1  -6 62.3169 12.8314   4
  -9   1  -7 63.7854 14.0813   4
   9   1   7 76.6966 12.0185   1
   9   1   8 27.1484 9.50004   1
  -9   1  -8 26.6501 12.3702   4
   9   1   9 55.2388 10.2473   1
  -9   1  -9 46.2934 13.4740   4
  -9   1 -10 64.0018 14.9228   4
   9   1  10 65.1591 11.3339   1
  -9   1 -11 52.3906 14.2959   4
  -9   1 -12 46.3071 14.1794   4
  -9   1 -13 53.3183 15.0537   4
  -9   1 -14 8.41299 13.5802   4
  -9   1 -15 26.2490 14.0760   4
  -9   1 -16 5.72077 13.9171   4
  -9   1 -17 12.9867 14.1441   4
  -9   1 -18 21.5722 14.6715   4
  -9   1 -19 9.63053 14.4647   4
  -9   1 -20 10.8557 14.8184   4
  -9   1 -21 13.9756 15.1794   4
   9  -1 -22 0.26625 12.9471   3
  -9   1 -22 8.27636 14.9494   4
   9  -1 -23-0.28290 13.5349   3
  -9   1 -23 2.46564 15.0187   4
  -9  -2 -23-4.97573 15.1451   4
  -9  -2 -22-7.95357 14.9556   4
  -9  -2 -21-1.35741 14.9179   4
  -9  -2 -20 22.5131 15.4129   4
  -9  -2 -19 15.8786 14.8776   4
  -9  -2 -18 18.0771 14.8387   4
  -9  -2 -17-17.9879 14.4244   4
  -9  -2 -16 16.0738 14.1740   4
  -9  -2 -15 21.9154 14.0952   4
  -9  -2 -14 4.34085 13.8018   4
  -9  -2 -13 5.08628 13.0779   4
  -9  -2 -12 4.68706 13.2393   4
  -9  -2 -11 21.8981 13.1502   4
  -9  -2 -10-2.89904 12.3727   4
   9  -2  10 4.61118 9.45276   1
   9  -2   9 59.7897 10.9292   1
  -9  -2  -9 25.9559 13.8784   4
   9  -2   8 38.8286 10.4053   1
  -9  -2  -8 23.2718 12.4982   4
   9  -2   8 26.9232 8.34401   7
  -9  -2  -7 11.5818 12.3537   4
   9  -2   7 38.0601 10.0663   1
   9  -2   7 17.8189 7.98102   7
  -9  -2  -6 0.23452 11.5702   4
   9  -2   6 6.55807 10.4060   1
   9  -2   6-0.86715 7.33792   7
   9  -2   5 6.97026 7.48645   7
  -9  -2  -5 9.08266 10.9798   4
   9  -2   5-10.8544 14.5443   1
   9  -2   4 9.83018 7.08874   7
  -9  -2  -4-3.07838 10.8653   4
   9  -2   3 14.4494 7.77568   7
  -9  -2  -3 8.14631 10.9142   4
   9  -2   2-10.8397 7.81591   7
  -9  -2  -2 3.81748 10.1069   4
   9  -2   1 38.3009 9.07247   7
   9  -2   0 16.2225 8.16244   7
   9  -2   0 15.2898 7.14702   5
   9  -2  -1 41.1123 9.06049   7
   9  -2  -1 22.0041 8.19325   5
   9  -2  -2-0.41280 8.60020   7
   9  -2  -2 2.90130 7.37349   5
   9  -2  -3 0.21294 8.82450   7
   9  -2  -3 19.2651 7.85313   5
   9  -2  -4 16.8840 8.85929   7
   9  -2  -4-2.29706 7.90209   5
   9   2   4-1.11615 15.3985   1
   9  -2  -5-4.32550 8.93746   7
   9  -2  -5-5.68509 8.10503   5
  -9   2  -5 10.0096 10.7248   4
   9  -2  -6-17.3498 9.20506   7
  -9   2  -6 1.57949 10.8698   4
   9  -2  -7 6.92901 9.38117   7
  -9   2  -7 20.3221 11.7352   4
  -9   2  -8 27.6094 12.6909   4
  -9   2  -9 38.7462 13.5879   4
  -9   2 -10 1.89198 12.8815   4
  -9   2 -11 8.92159 13.0875   4
  -9   2 -12 22.4179 13.8276   4
  -9   2 -13 24.8694 14.0024   4
  -9   2 -14 28.3581 15.1508   4
  -9   2 -15 17.6591 13.9013   4
  -9   2 -16 5.84903 13.7969   4
  -9   2 -17 7.28726 14.2496   4
  -9   2 -18 2.60188 14.5285   4
  -9   2 -19 36.0720 15.7442   4
  -9   2 -20 10.6061 15.1706   4
  -9   2 -21-11.9072 15.5679   4
  -9   2 -22 3.56783 15.4269   4
  -9  -3 -22 14.2167 15.0952   4
  -9  -3 -21 19.5737 14.9843   4
  -9  -3 -20 14.5852 14.9503   4
  -9  -3 -19 39.9810 15.3840   4
  -9  -3 -18 42.3894 15.3683   4
  -9  -3 -17 20.6109 14.3177   4
  -9  -3 -16 20.1952 14.2816   4
  -9  -3 -15-11.9760 13.8933   4
  -9  -3 -14 6.74304 13.7884   4
  -9  -3 -13 17.2015 13.6185   4
  -9  -3 -12 18.4061 13.3744   4
  -9  -3 -11 6.09276 12.8844   4
  -9  -3 -10-1.34921 12.7446   4
   9  -3  10-13.3275 10.1470   1
   9  -3  10 11.3697 7.71938   7
  -9  -3  -9 13.1811 12.7736   4
   9  -3   9 17.0773 9.70978   1
   9  -3   9-9.06588 7.55389   7
   9  -3   8 1.23330 9.63481   1
  -9  -3  -8 24.5922 12.5833   4
   9  -3   8 9.12785 8.07607   7
  -9  -3  -7 18.6725 12.3344   4
   9  -3   7 47.8406 10.4521   1
   9  -3   7 14.0329 8.73838   7
  -9  -3  -6 18.8491 11.7221   4
   9  -3   6 1.22934 9.81489   1
   9  -3   6 19.1615 8.04883   7
   9  -3   5 8.58260 11.0550   1
  -9  -3  -5 23.5261 11.2038   4
   9  -3   5 13.2601 8.11935   7
   9  -3   4 7.83059 7.87511   7
  -9  -3  -4 18.5646 10.6259   4
   9  -3   4 35.2672 17.8527   1
   9  -3   3 12.7105 7.83806   7
  -9  -3  -3 7.53018 10.4269   4
   9  -3   2 29.0268 8.64287   7
   9  -3   2 0.89721 17.7306   1
  -9  -3  -2 17.3890 9.97356   4
   9  -3   1 127.904 15.2905   7
   9  -3   1 98.7687 14.2938   5
   9  -3   0 24.5969 9.05591   7
   9  -3   0 36.2181 7.85160   5
   9  -3  -1 123.446 15.6384   7
   9  -3  -1 100.550 14.5675   5
   9  -3  -2 26.9425 9.15174   7
   9  -3  -2 16.4768 7.99406   5
   9  -3  -3 13.5028 8.76632   7
   9  -3  -3 17.2021 7.91802   5
   9  -3  -4 12.8307 9.04870   7
   9  -3  -4 3.66687 8.24466   5
   9  -3  -5 13.7009 9.46478   7
   9  -3  -5 13.8217 8.49361   5
  -9   3  -5 11.0263 10.4881   4
   9  -3  -6 13.9676 9.53360   7
   9  -3  -6-2.14960 8.91582   5
  -9   3  -6 9.15401 10.7153   4
   9  -3  -7 32.9819 9.62437   7
   9  -3  -7 9.25538 9.25837   5
  -9   3  -7 1.58166 11.0802   4
   9  -3  -8 25.4973 9.64610   7
   9  -3  -8-7.57588 8.90697   5
  -9   3  -8 22.6854 11.5852   4
   9  -3  -9 8.73387 9.57289   7
   9  -3  -9-2.08400 9.14592   5
  -9   3  -9 0.24170 11.4711   4
   9  -3 -10 5.33638 9.65030   7
   9  -3 -10-5.42829 9.33335   5
  -9   3 -10 7.73801 11.9757   4
   9  -3 -11 6.71886 9.89408   7
   9  -3 -11-2.91038 9.65414   5
  -9   3 -11-20.0889 11.8007   4
  -9   3 -12 1.32781 12.4848   4
  -9   3 -13 0.27635 12.7913   4
  -9   3 -14 2.27573 12.9717   4
  -9   3 -15 1.18658 13.3238   4
  -9   3 -16 12.4988 13.7233   4
  -9   3 -17 15.1587 14.2645   4
  -9   3 -18 37.5993 15.5823   4
  -9   3 -19 26.8617 15.8751   4
  -9   3 -20 11.5526 15.8990   4
  -9   3 -21 1.47859 16.1381   4
  -9   3 -22 0.36069 15.4798   4
  -9  -4 -21 21.0014 15.0987   4
  -9  -4 -20 3.66709 14.5745   4
  -9  -4 -19-7.21178 14.6222   4
  -9  -4 -18 8.69025 14.4755   4
  -9  -4 -17 13.9153 14.4946   4
  -9  -4 -16 17.9980 14.1210   4
  -9  -4 -15 18.2697 14.3678   4
  -9  -4 -14 8.95808 13.7816   4
  -9  -4 -13-4.09702 13.5059   4
  -9  -4 -12-3.37701 13.4420   4
   9  -4  12 20.9463 8.67801   7
  -9  -4 -11 33.8328 13.2510   4
   9  -4  11 23.8915 9.07024   7
  -9  -4 -10 48.7777 13.3550   4
   9  -4  10 53.9133 11.8351   1
   9  -4  10 38.9386 9.85950   7
  -9  -4  -9 17.2238 12.6777   4
   9  -4   9 18.0359 10.2429   1
   9  -4   9 21.8776 8.66902   7
   9  -4   8 47.4114 10.9167   1
  -9  -4  -8 47.3407 13.0180   4
   9  -4   8 31.9378 9.50641   7
   9  -4   7 12.8695 10.0794   1
  -9  -4  -7 16.0359 11.5933   4
   9  -4   7 4.78388 8.45202   7
  -9  -4  -6 7.37345 11.2810   4
   9  -4   6 26.5493 10.2541   1
   9  -4   6 21.0329 8.67870   7
  -9  -4  -5 30.1399 11.6985   4
   9  -4   5 47.1899 11.1954   1
   9  -4   5 47.9603 9.92668   7
   9  -4   4 28.1223 13.9834   1
  -9  -4  -4 25.0055 10.7238   4
   9  -4   4 21.4659 8.57590   7
   9  -4   3 13.6649 17.9583   1
  -9  -4  -3 15.2182 10.3266   4
   9  -4   3 20.8381 8.70234   7
   9  -4   2 5.44374 7.97577   7
   9  -4   2-27.1427 22.0594   1
   9  -4   1 8.78219 8.55958   7
   9  -4   1 23.6674 7.47892   5
   9  -4   1 6.44170 18.4507   1
   9  -4   0-2.25744 8.24811   7
   9  -4   0 13.0913 6.98710   5
   9   4   0 0.31005 7.73306   4
   9  -4  -1 11.7660 8.91745   7
   9  -4  -1 5.21486 7.27869   5
   9   4   1 2.44812 8.14771   4
   9  -4  -2 18.7009 9.20909   7
   9  -4  -2 23.7473 8.05090   5
   9   4   2 7.90511 8.61582   4
   9  -4  -3 22.7120 9.34397   7
   9  -4  -3 1.52967 7.81145   5
   9  -4  -4 41.9691 10.1312   7
   9  -4  -4 31.9565 9.18206   5
   9  -4  -5 51.9647 10.7120   7
   9  -4  -5 32.4830 9.51540   5
   9  -4  -6 5.12810 9.33697   7
   9  -4  -6 3.23723 8.93940   5
  -9   4  -6 0.23647 11.1572   4
   9  -4  -7 3.38125 9.89724   7
   9  -4  -7-5.57575 8.84077   5
  -9   4  -7-19.8528 11.7460   4
   9  -4  -8 33.0902 10.7173   7
   9  -4  -8 29.6143 9.99983   5
  -9   4  -8 6.34007 12.3444   4
   9  -4  -9 14.2974 10.2141   7
   9  -4  -9 16.8743 9.67734   5
  -9   4  -9 0.26214 12.6150   4
   9  -4 -10 42.1147 10.5277   7
   9  -4 -10 13.4803 10.4161   5
  -9   4 -10 29.8595 13.1634   4
   9  -4 -11 27.2554 10.3009   7
   9  -4 -11 15.0619 10.1917   5
  -9   4 -11 19.5162 13.2634   4
   9  -4 -12 17.7536 10.2234   7
   9  -4 -12-2.60378 10.1244   5
  -9   4 -12 18.1321 13.6008   4
   9  -4 -13 5.86241 10.2624   7
   9  -4 -13-5.33333 10.2318   5
  -9   4 -13-14.1878 13.0333   4
   9  -4 -14 0.79789 10.4484   7
   9  -4 -14-2.17502 10.3580   5
  -9   4 -14 1.19135 13.3552   4
   9  -4 -15 0.27217 10.7214   7
   9  -4 -15 1.39069 10.7807   5
  -9   4 -15 4.45146 13.2122   4
   9  -4 -16-0.27714 10.7133   7
   9  -4 -16 1.42124 10.7685   5
  -9   4 -16 19.8156 13.8962   4
   9  -4 -17-3.12476 10.6652   7
   9  -4 -17-5.99208 10.8971   5
  -9   4 -17 13.5962 14.2964   4
   9  -4 -18 0.29095 10.8706   5
  -9   4 -18 4.15451 13.9947   4
   9  -4 -19 12.1537 11.3081   5
  -9   4 -19 5.23975 14.4028   4
   9  -4 -20-0.30145 11.2758   5
  -9   4 -20 10.1575 14.7453   4
   9  -4 -21-0.30626 11.1931   5
  -9   4 -21 10.5264 15.2503   4
   9  -4 -22-0.31597 11.2856   5
  -9  -5 -20 3.25349 14.2747   4
  -9  -5 -19 8.01583 13.8731   4
  -9  -5 -18-3.15728 13.8795   4
  -9  -5 -17 2.17645 14.4104   4
  -9  -5 -16-5.37485 13.4111   4
  -9  -5 -15 17.9132 13.7270   4
  -9  -5 -14-0.28861 13.2387   4
   9  -5  14 8.86555 9.12464   7
  -9  -5 -13 27.9101 12.6577   4
   9  -5  13-3.16237 8.84573   7
  -9  -5 -12 15.6279 12.5338   4
   9  -5  12 0.44455 8.72728   7
  -9  -5 -11 0.26494 12.0882   4
   9  -5  11 23.4233 9.05913   7
  -9  -5 -10 22.3692 12.4209   4
   9  -5  10 5.54840 8.62750   7
  -9  -5  -9 28.1315 11.7060   4
   9  -5   9 11.1584 10.3361   1
   9  -5   9-3.80932 8.49703   7
  -9  -5  -8 14.9519 11.5732   4
   9  -5   8 4.62964 9.69866   1
   9  -5   8 9.32385 8.69032   7
   9  -5   7 48.6534 10.7300   1
  -9  -5  -7 23.1984 12.1280   4
   9  -5   7 44.3914 10.0580   7
   9  -5   6 39.7314 10.9828   1
  -9  -5  -6 18.9815 11.7712   4
   9  -5   6 32.2661 9.76295   7
   9  -5   5 29.4234 10.6911   1
   9  -5   5 18.7472 9.49203   7
   9  -5   4 57.5020 12.0234   1
   9  -5   4 39.4243 10.5120   7
   9  -5   3 24.5879 13.9167   1
   9  -5   3 28.7515 9.28951   7
   9  -5   2 16.1969 18.1452   1
   9  -5   2 25.6271 9.05977   7
   9  -5   1 19.3224 8.68664   7
   9  -5   1-5.54416 21.5484   1
   9  -5   0-7.02173 8.39681   7
   9  -5   0-16.4579 18.3729   1
   9   5   0-0.81187 7.80210   4
   9  -5  -1 8.87331 9.19718   7
   9   5   1-2.52939 8.51206   4
   9  -5  -2 20.4308 8.89971   7
   9  -5  -2 8.73918 7.82983   5
   9   5   2 1.21620 8.51643   4
   9  -5  -3 18.6824 9.12689   7
   9  -5  -3 6.47225 8.05039   5
   9   5   3 0.54364 8.80254   4
   9  -5  -4 37.3603 10.6151   7
   9  -5  -4 49.3615 9.98208   5
   9   5   4 51.8022 10.5457   4
   9  -5  -5-0.23186 9.29096   7
   9  -5  -5 8.64628 8.38174   5
   9   5   5 10.6196 9.68877   4
   9  -5  -6 47.6785 10.4889   7
   9  -5  -6 26.3389 9.18967   5
   9   5   6 29.0434 10.3919   4
   9  -5  -7 48.6638 10.9373   7
   9  -5  -7 41.4884 10.2581   5
  -9   5  -7 26.4597 12.3788   4
   9  -5  -8 6.25452 9.44428   7
   9  -5  -8 8.12959 9.07613   5
  -9   5  -8 0.75973 11.8396   4
   9  -5  -9-13.4686 9.86436   7
   9  -5  -9 3.81386 9.42042   5
  -9   5  -9 0.26151 12.2465   4
   9  -5 -10-5.88351 10.1912   7
   9  -5 -10 11.6915 9.49917   5
  -9   5 -10 0.56389 12.7992   4
   9  -5 -11 3.40935 10.1430   7
   9  -5 -11 2.24825 9.65039   5
  -9   5 -11 0.29050 13.2642   4
   9  -5 -12 7.49841 10.3492   7
   9  -5 -12-2.31141 9.90021   5
  -9   5 -12-0.30109 13.6261   4
   9  -5 -13 9.24615 10.5271   7
   9  -5 -13-9.43890 10.0101   5
  -9   5 -13 11.4566 13.9735   4
   9  -5 -14 12.2662 10.8684   7
   9  -5 -14-3.23796 10.1188   5
  -9   5 -14 27.2556 14.3799   4
   9  -5 -15 15.6115 10.4772   7
   9  -5 -15-2.47722 10.6913   5
  -9   5 -15 0.65074 14.9441   4
   9  -5 -16-5.58055 10.5002   7
   9  -5 -16 0.84156 10.5397   5
  -9   5 -16-0.33040 14.8390   4
   9  -5 -17 1.41609 10.7492   7
   9  -5 -17-1.18385 11.0027   5
  -9   5 -17 0.66707 14.8066   4
   9  -5 -18 3.98493 10.6769   7
   9  -5 -18 1.80593 10.8509   5
  -9   5 -18-12.2965 15.1652   4
   9  -5 -19 0.30593 11.1528   5
  -9   5 -19-16.3026 14.9324   4
   9  -5 -20-0.31036 11.1436   5
  -9   5 -20 0.34392 14.4222   4
   9  -5 -21-0.31433 11.0340   5
  -9  -6 -19 0.92009 13.3560   4
  -9  -6 -18 15.4372 13.4246   4
  -9  -6 -17-4.77611 12.8914   4
  -9  -6 -16 17.0760 13.4250   4
  -9  -6 -15-4.04092 12.8116   4
  -9  -6 -14 10.8037 12.9243   4
  -9  -6 -13 24.6212 13.2156   4
   9  -6  13 16.8673 10.0410   7
  -9  -6 -12 10.1923 12.4664   4
   9  -6  12-8.29123 9.50179   7
   9  -6  11 4.49556 9.08988   7
   9  -6  10-2.13091 9.44186   7
   9  -6   9 9.40625 9.19724   7
   9  -6   8 18.4418 10.9177   1
   9   6  -8 15.4522 10.5902   9
   9  -6   8 5.37645 9.05265   7
   9   6  -7-1.03258 10.3865   9
   9  -6   7 16.9614 10.3048   1
   9  -6   7 20.4041 8.97813   7
   9  -6   6 16.4641 9.95738   1
   9   6  -6 2.72757 10.3835   9
   9  -6   6 7.36407 8.98016   7
   9  -6   5 50.8890 11.8627   1
   9   6  -5 32.1787 11.2151   9
   9  -6   5 50.2873 10.5140   7
   9  -6   4-13.7551 10.4623   1
   9   6  -4 10.1230 9.70622   9
   9  -6   4-2.89067 9.67435   7
   9  -6   3 15.5937 10.0387   1
   9   6  -3-4.12295 9.72918   9
   9  -6   3 10.0092 9.40036   7
   9  -6   2 19.1151 11.4166   1
   9   6  -2 14.5284 9.99015   9
   9  -6   2 13.3134 9.22828   7
   9   6  -1-2.76295 9.94519   9
   9  -6   1-14.1794 18.1024   1
   9  -6   1-4.74442 9.11849   7
   9   6   0 8.43220 8.76320   4
   9   6   0 5.24502 9.56666   9
   9  -6   0 1.54734 9.03426   7
   9  -6  -1 17.8916 9.09029   7
   9   6   1 16.7183 8.99334   4
   9  -6  -2 15.6046 8.39577   7
   9   6   2 2.40643 8.91919   4
   9  -6  -2-3.86114 18.6328   1
   9  -6  -3 4.37495 8.74881   7
   9   6   3 9.74287 9.26243   4
   9  -6  -4 3.42007 9.10629   7
   9  -6  -4 10.6352 8.41624   5
   9   6   4 0.38452 9.23794   4
   9  -6  -5 48.4303 10.7137   7
   9  -6  -5 48.6416 10.2580   5
   9   6   5 35.3035 10.7894   4
   9  -6  -6 22.8335 9.63290   7
   9  -6  -6 2.43385 8.73917   5
   9   6   6 12.9811 9.61052   4
   9  -6  -7 16.1319 9.75616   7
   9  -6  -7 5.34652 8.83781   5
   9   6   7 15.0140 9.81252   4
   9  -6  -8 5.64430 9.67492   7
   9  -6  -8 9.23848 9.10571   5
   9   6   8-22.3515 10.1740   4
  -9   6  -8 0.27820 12.7077   4
   9  -6  -9 10.4353 9.96143   7
   9  -6  -9 21.1779 9.27994   5
   9   6   9-11.5235 10.1537   4
  -9   6  -9 3.37108 13.3259   4
   9  -6 -10 7.03665 9.87326   7
   9  -6 -10 5.82182 9.16241   5
   9   6  10-21.2000 10.4395   4
  -9   6 -10 4.62782 13.0391   4
   9  -6 -11 18.9038 10.1334   7
   9  -6 -11 1.71944 9.36686   5
   9   6  11 14.1294 10.7279   4
  -9   6 -11 19.6622 13.2743   4
   9  -6 -12 12.0831 10.0728   7
   9  -6 -12 0.25167 9.62326   5
   9   6  12 19.6022 10.9411   4
  -9   6 -12 15.1524 13.5631   4
   9  -6 -13 26.2839 10.2690   7
   9  -6 -13 0.25612 9.77069   5
   9   6  13 9.71754 11.0353   4
  -9   6 -13 3.02145 13.7394   4
   9  -6 -14 6.19925 9.95353   7
   9  -6 -14 6.63477 10.0879   5
  -9   6 -14 7.82528 14.0571   4
   9  -6 -15-3.86171 10.5064   7
   9  -6 -15 2.96893 10.3140   5
  -9   6 -15 8.66471 14.5119   4
   9  -6 -16-0.84547 10.3775   7
   9  -6 -16 6.94490 10.5008   5
  -9   6 -16 5.49815 15.3387   4
   9  -6 -17 1.69207 10.2577   5
  -9   6 -17-17.6952 15.5017   4
   9  -6 -18 0.28619 10.5347   5
  -9   6 -18 18.3821 15.5042   4
   9  -6 -19 0.28985 10.4938   5
  -9   6 -19 2.20930 16.0329   4
   9  -7  12 7.26509 10.0695   7
   9  -7  11 19.2413 9.95725   7
   9  -7  10 12.2163 9.78086   7
   9   7  -9 10.9065 11.2377   9
   9  -7   9 11.4745 9.72679   7
   9   7  -8 15.1062 10.9216   9
   9  -7   8 6.19040 9.55408   7
   9  -7   7 6.13042 10.5190   1
   9   7  -7 11.6402 11.1934   9
   9  -7   7 5.69429 9.38822   7
   9   7  -6 22.5004 11.0489   9
   9  -7   6 16.8743 10.5492   1
   9  -7   6 27.5153 9.90150   7
   9  -7   5 10.9149 10.2090   1
   9   7  -5 9.49960 10.7324   9
   9  -7   5 27.1132 9.48592   7
   9  -7   4 8.61309 10.3334   1
   9   7  -4 15.4957 10.3914   9
   9  -7   4 7.74613 9.28475   7
   9  -7   3 13.8379 10.7083   1
   9   7  -3 14.2498 10.4234   9
   9  -7   3 18.0375 9.63898   7
   9  -7   2 16.8798 10.0404   1
   9   7  -2 3.54428 10.3992   9
   9  -7   2-5.16334 9.82146   7
   9   7  -1 6.79545 9.30799   4
   9   7  -1-7.68369 10.6113   9
   9  -7   1 8.62621 11.5199   1
   9  -7   1 22.8505 9.95802   7
   9   7   0 18.3885 9.29305   4
   9  -7   0 34.7971 15.8040   1
   9   7   0-1.41159 10.4659   9
   9  -7   0 1.67806 9.29152   7
   9   7   1 9.99967 9.48788   4
   9  -7  -1 12.9687 9.62996   7
   9   7   2 0.19922 9.40624   4
   9  -7  -2-5.53264 9.26477   7
   9   7   3 12.4025 9.65155   4
   9  -7  -3 32.7518 9.47330   7
   9  -7  -4-7.44515 8.69492   7
   9   7   4 11.9809 9.57615   4
   9  -7  -5 17.8782 9.03510   7
   9   7   5 17.2984 10.0253   4
   9  -7  -6 13.0912 9.56784   7
   9   7   6 7.93075 9.89599   4
   9  -7  -7 17.4163 9.33864   7
   9   7   7-2.55909 9.97471   4
   9  -7  -8 11.5469 9.47457   7
   9  -7  -8 15.6791 9.37997   5
   9   7   8 20.0650 10.4455   4
   9  -7  -9 15.2540 9.83052   7
   9  -7  -9 4.88303 9.42813   5
   9   7   9-11.5816 10.4209   4
  -9   7  -9 3.87176 13.3764   4
   9  -7 -10 0.25023 9.72109   7
   9  -7 -10 0.99156 9.41630   5
   9   7  10 9.72179 10.3063   4
  -9   7 -10 14.0805 13.5705   4
   9  -7 -11 7.85289 9.44546   7
   9  -7 -11 1.74650 9.50006   5
   9   7  11-3.00993 10.6902   4
  -9   7 -11 11.4311 14.4705   4
   9  -7 -12 8.25252 10.0523   7
   9  -7 -12 6.75720 9.51419   5
   9   7  12 6.80883 10.5673   4
  -9   7 -12 14.0002 14.5225   4
   9  -7 -13-6.67321 10.1504   7
   9  -7 -13 7.61674 9.70231   5
   9   7  13 15.8687 10.9275   4
  -9   7 -13 29.7077 14.7090   4
   9  -7 -14 0.26306 10.0826   7
   9  -7 -14-4.13226 9.75313   5
   9   7  14 2.43509 10.7445   4
  -9   7 -14 10.0381 14.6152   4
   9  -7 -15 0.26164 9.56440   5
   9   7  15-4.24846 10.9205   4
  -9   7 -15 11.6419 14.2584   4
   9  -7 -16 1.34636 9.97865   5
   9   7  16-1.77097 11.2515   4
   9  -7 -17-0.27231 9.98023   5
   9   7  17 3.58020 10.9383   4
  -9   7 -17-2.06417 14.6162   4
   9  -8  11-18.9199 10.5343   7
   9  -8  10-0.79574 9.98859   7
   9   8  -9 8.42897 11.5513   9
   9  -8   9 0.26059 9.83003   7
   9   8  -8 5.21507 11.4362   9
   9  -8   8 9.24781 9.93909   7
   9   8  -7 34.9634 12.0148   9
   9  -8   7 5.00534 10.5562   7
   9  -8   6 4.47914 10.4137   1
   9   8  -6 8.09974 11.3173   9
   9  -8   6 3.54506 9.74658   7
   9   8  -5 13.9638 11.3618   9
   9  -8   5 12.9659 10.3086   1
   9  -8   5 19.0965 9.63654   7
   9   8  -4 2.12937 10.8854   9
   9  -8   4 0.24450 9.55413   7
   9  -8   4 3.11130 9.80993   1
   9  -8   3 21.1997 10.3028   1
   9   8  -3 17.5483 10.9145   9
   9  -8   3 12.6140 9.56944   7
   9  -8   2 0.54519 10.0788   1
   9   8  -2 6.37669 11.2061   9
   9  -8   2 9.73722 9.34529   7
   9   8  -1-7.02145 9.38773   4
   9  -8   1 10.6705 10.0972   1
   9   8  -1-14.4038 10.8797   9
   9  -8   1-4.29719 9.74861   7
   9   8   0 5.78664 9.73447   4
   9   8   0 2.30825 10.9788   9
   9  -8   0-8.01092 10.0623   1
   9  -8   0 13.8272 10.2061   7
   9  -8  -1 11.0204 11.1582   1
   9   8   1 2.96820 9.79668   4
   9   8   1 1.71791 10.9759   9
   9  -8  -1 11.3261 9.78639   7
   9   8   2 6.54430 9.93881   4
   9  -8  -2 7.22392 15.3748   1
   9  -8  -2-4.95947 9.52999   7
   9   8   3 24.1343 10.2120   4
   9  -8  -3 1.23147 9.53987   7
   9   8   4 8.55023 10.1386   4
   9  -8  -4 13.6225 9.52887   7
   9   8   5 10.8796 10.3287   4
   9  -8  -5-5.00820 9.27578   7
   9   8   6-2.93885 10.3215   4
   9  -8  -6 2.38442 9.12780   7
   9  -8  -7 10.7259 9.01253   7
   9   8   7-12.5853 10.3824   4
   9  -8  -8 7.97372 8.88991   7
   9   8   8 20.2700 10.5182   4
   9  -8  -9-0.23608 8.97384   7
   9   8   9-18.5737 10.5019   4
   9  -8 -10-9.35896 9.44290   7
   9   8  10 7.54496 10.6538   4
  -9   8 -10 4.69669 13.8861   4
   9  -8 -11 1.97318 9.33442   7
   9   8  11 6.35125 10.3889   4
  -9   8 -11 8.32696 13.5202   4
   9  -8 -12 0.24813 9.30304   7
   9   8  12-1.91724 10.8080   4
  -9   8 -12 14.5306 13.9435   4
   9   8  13 4.60470 10.7798   4
  -9   8 -13 0.68897 14.8806   4
   9   8  14 3.45258 10.7538   4
  -9   8 -14 2.84287 15.1663   4
   9  -8 -15 0.26675 9.68045   5
   9   8  15 3.98540 10.9124   4
  -9   8 -15 3.62830 15.7270   4
   9  -9  10-15.9825 10.6575   7
   9   9  -9-0.21869 11.8948   9
   9  -9   9-0.27575 10.1882   7
   9   9  -8 2.99431 11.8793   9
   9  -9   8 11.8738 10.2267   7
   9   9  -7 1.53810 11.9737   9
   9  -9   7 0.26915 10.2387   7
   9   9  -6 9.02277 12.0801   9
   9  -9   6 15.6037 10.4744   7
   9   9  -5 11.0174 11.4980   9
   9  -9   5 0.26685 10.2185   7
   9   9  -4 4.57504 11.4742   9
   9  -9   4 8.61216 9.83833   7
   9   9  -3 15.9617 11.4290   9
   9  -9   3-2.26760 9.56024   7
   9   9  -2 6.39354 11.4028   9
   9  -9   2-1.25800 9.57628   7
   9   9  -1 3.33874 11.4812   9
   9  -9   1 19.4541 9.66162   7
   9   9   0 5.91894 10.1338   4
   9   9   0-10.7609 11.7159   9
   9  -9   0 15.7539 9.76418   7
   9   9   1 1.54482 10.1955   4
   9   9   1 3.52201 11.5681   9
   9  -9  -1 3.99763 9.71272   7
   9   9   2-5.82550 10.1185   4
   9  -9  -2 12.8352 10.2432   7
   9   9   3 0.91681 10.4840   4
   9  -9  -3 17.1974 10.2302   7
   9   9   4 23.3402 10.9789   4
   9  -9  -4-16.7268 9.60811   7
   9   9   5 16.1173 10.9144   4
   9  -9  -5 17.4811 9.94142   7
   9   9   6 4.34383 10.7740   4
   9  -9  -6-4.02255 9.46394   7
   9   9   7 21.2631 10.9799   4
   9  -9  -7-5.71611 9.47643   7
   9   9   8-5.10546 10.7450   4
   9  -9  -8-0.24359 9.20516   7
   9   9   9 9.56824 10.8260   4
   9  -9  -9 0.24278 9.01257   7
   9   9  10 1.74318 11.0384   4
   9   9  11 7.29137 10.7802   4
  -9   9 -11 0.33924 14.2961   4
   9   9  12 9.63756 11.3115   4
  -9   9 -12 4.50716 14.6322   4
  -9   9 -13 9.43886 14.9036   4
   9  10  -9 0.23050 12.3968   9
   9  10  -8 0.45156 12.0069   9
   9 -10   8 0.28924 10.7895   7
   9  10  -7 0.23252 12.4839   9
   9 -10   7 0.28193 10.4012   7
   9  10  -6 0.45542 12.2574   9
   9 -10   6 2.49171 9.98459   7
   9  10  -5 2.91197 12.2154   9
   9 -10   5 0.55006 10.3998   7
   9  10  -4-0.22181 12.1113   9
   9 -10   4 4.66985 10.3700   7
   9  10  -3 3.24950 11.9849   9
   9 -10   3-4.62835 10.1390   7
   9  10  -2 0.21723 11.6225   9
   9 -10   2 0.26599 10.0741   7
   9  10  -1 1.21186 10.7814   4
   9  10  -1-1.33861 12.0812   9
   9 -10   1-0.25853 9.75754   7
   9  10   0 7.45093 10.7661   4
   9  10   0-0.22547 12.3226   9
   9 -10   0 2.83603 9.45534   7
   9  10   1 4.36253 10.8414   4
   9 -10  -1 6.36151 9.54244   7
   9  10   2 0.48064 10.4971   4
   9  10   2 0.66939 12.1814   9
   9 -10  -2 0.50521 9.48732   7
   9  10   3 6.00843 10.8123   4
   9 -10  -3 3.28292 9.46373   7
   9  10   4-0.96562 10.5746   4
   9 -10  -4 0.25202 9.55170   7
   9  10   5-1.22187 10.8110   4
   9 -10  -5 3.38735 9.56648   7
   9  10   6 4.24048 11.1123   4
   9 -10  -6 9.95630 10.0142   7
   9  10   7 6.35915 11.0071   4
   9 -10  -7 0.25835 9.77316   7
   9  10   8 25.5523 11.8447   4
   9  11  -1 0.26028 11.3047   4
   9  11   0-0.26474 11.5210   4
  10   0   0 25.2467 9.22922   7
  10   0   1 149.204 19.2244   7
  10   0  -1 154.580 19.3887   7
  10   0   2 9.24381 7.94148   7
  10   0  -2 7.36571 8.81829   7
  10   0  -3-3.03497 8.70818   7
  10   0   3-15.0253 18.0579   1
  10   0  -4-11.3465 9.12964   7
  10   0   4 27.7035 21.3077   1
  10   0   5-10.7845 17.0466   1
  10   0   6 7.19746 11.1547   1
 -10   0  -6 11.2623 11.7480   4
 -10   0  -7 16.8653 12.2415   4
  10   0   7 19.8376 9.80078   1
  10   0   8-0.75453 9.86313   1
 -10   0  -8 0.25688 12.3362   4
  10   0   9 7.80706 9.65290   1
 -10   0  -9 0.26406 12.4494   4
 -10   0 -10-7.07699 12.1629   4
  10   0  10 16.1136 9.31353   1
 -10   0 -11-12.1032 12.5636   4
  10   0  11 8.10958 9.59860   1
 -10   0 -12 7.44820 12.7956   4
 -10   0 -13 1.69698 13.0024   4
 -10   0 -14 21.4373 13.6165   4
 -10   0 -15 13.0524 13.6731   4
 -10   0 -16 3.03481 13.5634   4
 -10   0 -17-3.10189 14.1699   4
 -10   0 -18 10.4536 13.9589   4
 -10   0 -19 2.91092 14.2761   4
 -10   0 -20-2.73057 14.9524   4
 -10   0 -21 0.34783 14.6792   4
 -10  -1 -20 0.68729 15.2130   4
 -10  -1 -19 12.4787 14.7868   4
 -10  -1 -18-0.33859 15.2878   4
 -10  -1 -17 28.5286 15.2586   4
 -10  -1 -16 20.4711 14.7474   4
 -10  -1 -15 13.3578 14.4856   4
 -10  -1 -14-18.6614 14.4169   4
 -10  -1 -13 11.8519 13.9903   4
 -10  -1 -12-9.57426 13.4839   4
 -10  -1 -11 33.7046 14.2138   4
  10  -1  11 47.9841 11.4551   1
 -10  -1 -10 16.8666 13.1664   4
  10  -1  10 19.5938 10.0003   1
  10  -1   9 0.24831 9.74738   1
 -10  -1  -9 1.85308 12.3348   4
  10  -1   8 1.57253 10.2571   1
 -10  -1  -8 14.1823 12.2148   4
 -10  -1  -7 36.9362 12.7333   4
  10  -1   7 23.4397 10.4592   1
 -10  -1  -6 1.24475 12.0093   4
  10  -1   6 8.39834 10.8984   1
 -10  -1  -5 17.3299 12.0497   4
  10  -1   5-2.70915 15.2463   1
  10  -1   4-4.28775 7.60169   7
  10  -1   3 26.6892 8.17228   7
  10  -1   3-41.1721 18.8072   1
  10  -1   2 7.37068 8.00984   7
  10   1  -2 1.60188 8.25358   7
  10  -1   1-1.41755 8.13872   7
  10   1  -1 1.57045 7.91994   7
  10  -1   0 24.2492 8.71767   7
  10   1   0-3.31199 8.15473   7
  10  -1  -1 27.4299 9.53577   7
  10  -1  -2 20.3113 9.52109   7
  10  -1  -3 32.7307 9.44743   7
  10   1   3-31.5768 17.5077   1
  10  -1  -4-7.72236 9.35876   7
  10   1   4 17.4205 20.2812   1
  10  -1  -5 26.1831 10.1126   7
  10   1   5 33.1212 16.7241   1
  10  -1  -6 1.87109 9.04754   7
  10   1   6 8.48855 10.8133   1
 -10   1  -6-11.1110 11.4460   4
  10  -1  -7-7.98767 9.49534   7
 -10   1  -7 9.54569 12.2937   4
  10   1   7-4.45240 9.27175   1
 -10   1  -8 26.4039 12.9895   4
 -10   1  -9-0.26652 12.5528   4
 -10   1 -10 33.5159 13.6981   4
 -10   1 -11-0.28452 13.0741   4
 -10   1 -12 0.29220 13.4318   4
 -10   1 -13 17.6855 13.9992   4
 -10   1 -14 13.8321 13.8925   4
 -10   1 -15 15.7547 14.4533   4
 -10   1 -16 7.74438 14.6696   4
 -10   1 -17 38.8652 15.2596   4
 -10   1 -18-10.0150 14.6467   4
 -10   1 -19 25.5852 15.4977   4
 -10   1 -20-5.07000 14.9469   4
 -10  -2 -20 11.2500 15.2496   4
 -10  -2 -19 9.32881 15.0402   4
 -10  -2 -18-2.37494 15.1551   4
 -10  -2 -17-1.66566 14.9371   4
 -10  -2 -16 43.4388 15.7487   4
 -10  -2 -15 7.04345 14.5648   4
 -10  -2 -14 7.84031 14.4933   4
 -10  -2 -13 11.6642 14.0092   4
 -10  -2 -12-4.50587 13.7520   4
 -10  -2 -11-15.5940 13.6601   4
  10  -2  11 4.12618 10.5454   1
 -10  -2 -10-26.7479 13.5982   4
  10  -2  10 18.3805 9.95201   1
  10  -2   9 3.86534 10.0772   1
 -10  -2  -9 22.8212 13.1707   4
  10  -2   8 0.53447 10.3033   1
 -10  -2  -8 6.61653 12.3630   4
 -10  -2  -7 20.8626 12.4985   4
  10  -2   7-4.78195 10.3059   1
 -10  -2  -6 21.2933 12.3480   4
  10  -2   6-6.38328 10.3709   1
  10  -2   6 6.70543 7.92543   7
  10  -2   5 7.29414 7.73300   7
 -10  -2  -5 4.95792 11.6815   4
  10  -2   5 1.04868 13.2215   1
  10  -2   4 25.8845 8.64880   7
  10  -2   3 36.0467 9.21929   7
  10  -2   3 5.11571 22.0515   1
  10  -2   2 39.0784 9.35481   7
  10  -2   2 18.4317 19.3148   1
  10  -2   1 51.4224 10.4898   7
  10  -2   0 24.6448 9.33696   7
  10  -2  -1 27.7312 9.12035   7
  10  -2  -2 45.0709 9.63389   7
  10  -2  -2 21.8946 9.09982   5
  10  -2  -3 21.5805 9.31451   7
  10  -2  -3 6.60933 8.72661   5
  10  -2  -4 29.9578 9.92085   7
  10  -2  -4 3.39864 8.71728   5
  10  -2  -5-8.66213 9.63088   7
  10  -2  -5-1.29350 8.41129   5
  10  -2  -6 4.36709 9.69194   7
  10  -2  -6-4.67927 9.00509   5
  10  -2  -7 5.17165 10.0509   7
  10  -2  -7-7.58126 9.20738   5
 -10   2  -7 8.02174 12.1328   4
  10  -2  -8-12.2679 10.0684   7
 -10   2  -8 0.26698 12.5099   4
  10  -2  -9 3.07973 10.3469   7
 -10   2  -9 9.62598 12.5356   4
  10  -2 -10 4.75484 10.2742   7
 -10   2 -10-0.28324 12.9204   4
 -10   2 -11 0.29145 13.6855   4
 -10   2 -12 4.78823 13.7212   4
 -10   2 -13 17.2057 13.9871   4
 -10   2 -14-10.7198 14.3497   4
 -10   2 -15 3.23187 14.5770   4
 -10   2 -16 34.4409 15.8125   4
 -10   2 -17 9.45291 14.8469   4
 -10   2 -18 15.5364 15.3737   4
 -10   2 -19-6.92635 14.8548   4
 -10   2 -20-7.77535 14.9444   4
 -10  -3 -19-0.34351 15.3304   4
 -10  -3 -18 11.4878 15.0139   4
 -10  -3 -17 36.8602 15.3323   4
 -10  -3 -16 4.56566 14.7784   4
 -10  -3 -15 0.32029 14.5640   4
 -10  -3 -14 17.5502 14.2741   4
 -10  -3 -13 7.68310 13.9244   4
 -10  -3 -12 24.4089 14.0660   4
 -10  -3 -11 24.9430 14.3063   4
 -10  -3 -10 16.5681 13.7535   4
  10  -3  10 22.5604 11.0844   1
 -10  -3  -9-1.99030 13.0714   4
  10  -3   9 6.08404 9.90729   1
  10  -3   8 2.43583 10.3730   1
 -10  -3  -8-11.0557 12.5452   4
  10  -3   8 3.38548 8.36472   7
 -10  -3  -7 14.2198 12.3320   4
  10  -3   7 28.0945 11.1154   1
  10  -3   7 23.1790 9.13802   7
 -10  -3  -6 25.0569 12.4960   4
  10  -3   6 26.7868 11.2100   1
  10  -3   6 40.4434 9.61235   7
 -10  -3  -5 9.82731 11.7934   4
  10  -3   5-7.62447 11.7992   1
  10  -3   5 18.3974 8.52708   7
 -10  -3  -4 26.2835 11.6137   4
  10  -3   4 25.9586 8.80009   7
  10  -3   3 14.1022 8.07069   7
  10  -3   2 15.4700 8.86670   7
  10  -3   1 23.6953 8.93043   7
  10  -3   1-12.9637 19.9625   1
  10  -3   0 11.0533 9.20300   7
  10  -3  -1 31.2607 9.47959   7
  10  -3  -1 8.95593 8.06822   5
  10  -3  -2 28.9485 9.67537   7
  10  -3  -2 20.3784 8.58478   5
  10  -3  -3 6.94633 9.54751   7
  10  -3  -3 13.2048 8.27882   5
  10  -3  -4 5.42691 9.20108   7
  10  -3  -4 6.68064 8.54910   5
  10  -3  -5 23.5385 10.2796   7
  10  -3  -5 22.2833 9.69185   5
  10  -3  -6 26.1830 10.5151   7
  10  -3  -6 8.90692 9.47773   5
  10  -3  -7 35.8641 10.4203   7
  10  -3  -7-1.69442 9.79123   5
  10  -3  -8 3.91627 10.1412   7
  10  -3  -8 3.48290 9.92071   5
 -10   3  -8-2.44188 12.5361   4
  10  -3  -9-4.22538 10.5055   7
  10  -3  -9 3.82085 9.73718   5
 -10   3  -9 10.9067 12.9147   4
  10  -3 -10 1.60034 10.2141   7
  10  -3 -10 10.0287 10.2033   5
 -10   3 -10 19.8713 13.3815   4
  10  -3 -11-3.59453 10.7175   7
  10  -3 -11 1.06690 10.2488   5
 -10   3 -11 2.07434 13.6540   4
  10  -3 -12-4.13977 10.6609   7
  10  -3 -12 7.38581 10.4335   5
 -10   3 -12 10.9627 13.8814   4
  10  -3 -13-6.49739 10.6202   7
  10  -3 -13-3.33555 10.6003   5
 -10   3 -13 2.26942 14.6090   4
  10  -3 -14-1.16039 11.2084   7
  10  -3 -14-5.40819 10.9910   5
 -10   3 -14-15.9735 15.0240   4
  10  -3 -15-36.7093 11.3532   5
 -10   3 -15 7.50625 15.4316   4
  10  -3 -16 2.08327 11.0691   5
 -10   3 -16 0.33364 14.8045   4
  10  -3 -17 0.30406 11.6380   5
 -10   3 -17 22.5292 15.2649   4
  10  -3 -18 0.30996 11.3361   5
 -10   3 -18 8.72646 15.2089   4
  10  -3 -19 2.20882 11.5618   5
 -10   3 -19 10.7158 15.5204   4
  10  -3 -20-0.64191 11.6968   5
 -10   3 -20 2.18867 15.4288   4
 -10  -4 -19 0.66883 14.5340   4
 -10  -4 -18 6.26096 14.4100   4
 -10  -4 -17-0.32446 14.5166   4
 -10  -4 -16 7.66781 14.3693   4
 -10  -4 -15-7.53898 13.8514   4
 -10  -4 -14 2.47076 14.1188   4
 -10  -4 -13 17.2958 13.8598   4
 -10  -4 -12 17.2746 13.4180   4
 -10  -4 -11 9.10636 13.1757   4
 -10  -4 -10 8.10134 12.9487   4
  10  -4  10 13.9643 11.1986   1
  10  -4  10 26.0650 9.07296   7
 -10  -4  -9 16.6413 12.5985   4
  10  -4   9 7.02688 10.7919   1
  10  -4   9 8.13243 8.73688   7
  10  -4   8 23.3752 10.6530   1
 -10  -4  -8 19.3331 12.2307   4
  10  -4   8 21.3796 9.20329   7
  10  -4   7-4.50735 10.4732   1
 -10  -4  -7 4.03003 11.8111   4
  10  -4   7 17.8153 9.25137   7
 -10  -4  -6 27.6728 11.9453   4
  10  -4   6 19.5931 11.5037   1
  10  -4   6 28.9585 9.52568   7
 -10  -4  -5 5.09820 11.0949   4
  10  -4   5-5.32009 11.0020   1
  10  -4   5 10.5272 9.04149   7
  10  -4   4 25.5495 11.8910   1
 -10  -4  -4 6.55424 10.8264   4
  10  -4   4 19.2416 9.22835   7
  10  -4   3 3.87567 18.2192   1
  10  -4   3 19.7108 8.90489   7
  10  -4   2 1.69991 8.36193   7
  10  -4   1 11.6156 8.84222   7
  10  -4   0-2.24596 9.16734   7
  10  -4   0-5.09866 7.54123   5
  10  -4   0-17.8684 19.5749   1
  10  -4  -1 19.2085 9.41491   7
  10  -4  -1 17.6700 8.04099   5
  10  -4  -2 4.22776 9.26015   7
  10  -4  -2 9.73244 8.16072   5
  10  -4  -3 1.44412 9.66634   7
  10  -4  -3-10.5456 8.20311   5
  10   4   3-0.93809 9.02684   4
  10  -4  -4 31.9747 10.1368   7
  10  -4  -4 6.51856 8.75330   5
  10  -4  -5 17.9351 9.82784   7
  10  -4  -5 12.4120 9.07082   5
  10  -4  -6 2.23447 9.60248   7
  10  -4  -6 7.44321 9.07160   5
  10  -4  -7 19.7444 10.3866   7
  10  -4  -7 13.9827 9.78109   5
  10  -4  -8 29.8574 10.8693   7
  10  -4  -8 1.23479 9.85434   5
  10  -4  -9 4.92201 10.7636   7
  10  -4  -9-12.5053 9.82418   5
 -10   4  -9 0.26991 12.5128   4
  10  -4 -10 2.23521 10.9704   7
  10  -4 -10 4.06069 10.4138   5
 -10   4 -10-0.27793 12.5745   4
  10  -4 -11 3.64360 10.8729   7
  10  -4 -11 5.77659 10.4031   5
 -10   4 -11 11.4309 12.9386   4
  10  -4 -12 1.40969 10.9090   7
  10  -4 -12-4.50501 10.7795   5
 -10   4 -12-8.81434 13.3876   4
  10  -4 -13-11.7980 11.1518   7
  10  -4 -13 1.99989 10.9481   5
 -10   4 -13 16.7482 13.7036   4
  10  -4 -14-3.80380 11.1469   7
  10  -4 -14 21.5990 11.1615   5
 -10   4 -14-0.31228 13.8983   4
  10  -4 -15-5.60074 11.2266   7
  10  -4 -15 0.30191 11.3970   5
 -10   4 -15 0.64882 14.5898   4
  10  -4 -16 2.13039 11.1627   7
  10  -4 -16 0.30800 11.6112   5
 -10   4 -16 0.99640 14.9232   4
  10  -4 -17-7.71993 11.6035   7
  10  -4 -17-14.7501 11.7517   5
 -10   4 -17 0.34248 14.8575   4
  10  -4 -18 4.29371 11.2821   7
  10  -4 -18-1.59675 11.8029   5
 -10   4 -18 16.8042 15.1905   4
  10  -4 -19-0.31056 10.9391   7
  10  -4 -19 0.32454 11.5892   5
 -10   4 -19 0.36550 15.3704   4
 -10  -5 -17 9.15088 13.8579   4
 -10  -5 -16-1.83901 13.4013   4
 -10  -5 -15 19.0370 13.7773   4
 -10  -5 -14 16.9686 13.4701   4
 -10  -5 -13 34.3312 13.5991   4
 -10  -5 -12 6.52745 12.5691   4
  10  -5  12-1.42219 8.98315   7
 -10  -5 -11 22.6249 12.4610   4
  10  -5  11-5.80696 9.58237   7
 -10  -5 -10 28.9422 12.7852   4
  10  -5  10 22.6711 9.60426   7
 -10  -5  -9 16.1270 12.1497   4
  10  -5   9-11.9707 11.1910   1
  10  -5   9 2.72379 8.84630   7
 -10  -5  -8 8.26270 11.9208   4
  10  -5   8 23.2341 11.0932   1
  10  -5   8 16.1161 9.36966   7
  10  -5   7-17.6874 10.4800   1
  10  -5   7-15.3254 9.03504   7
  10  -5   6 10.5988 10.6092   1
  10  -5   6 7.63042 9.52679   7
  10  -5   5 4.27144 10.7848   1
  10  -5   5 2.89748 9.51817   7
  10  -5   4-7.40830 10.5411   1
  10  -5   4 14.4710 9.38003   7
  10  -5   3 7.93219 12.4635   1
  10  -5   3 11.7659 9.53604   7
  10  -5   2 14.3168 18.7665   1
  10  -5   2-2.05499 9.12190   7
  10  -5   1 21.7547 9.85167   7
  10  -5   0 67.1301 11.8690   7
  10  -5  -1 1.13545 8.84047   7
  10  -5  -1 7.28829 19.8281   1
  10  -5  -2 36.5204 10.0210   7
  10  -5  -2 21.1159 8.99835   5
  10   5   2 17.0136 9.40975   4
  10  -5  -3 18.5818 9.71545   7
  10  -5  -3 11.2242 8.48351   5
  10   5   3 11.2616 9.21770   4
  10  -5  -4 8.83437 9.56434   7
  10  -5  -4-2.60306 8.53846   5
  10   5   4 7.09367 9.20825   4
  10  -5  -5 13.3182 9.75498   7
  10  -5  -5-1.57655 8.66793   5
  10   5   5-5.16941 9.74004   4
  10  -5  -6 12.0565 9.91970   7
  10  -5  -6 1.62352 9.03564   5
  10   5   6 12.7902 10.0736   4
  10  -5  -7 5.20165 9.98216   7
  10  -5  -7 0.47685 9.21005   5
  10   5   7 0.21526 10.0482   4
  10  -5  -8 21.2046 10.4281   7
  10  -5  -8 16.3839 9.90436   5
  10  -5  -9 16.3984 10.1005   7
  10  -5  -9 1.79906 9.98745   5
  10  -5 -10 24.3245 10.5911   7
  10  -5 -10 6.30030 10.1593   5
 -10   5 -10 3.27518 13.6095   4
  10  -5 -11-1.68259 11.0624   7
  10  -5 -11 11.0448 10.4663   5
 -10   5 -11 17.6253 13.7723   4
  10  -5 -12-0.28729 11.0477   7
  10  -5 -12 2.76100 10.5708   5
 -10   5 -12 2.49631 14.3482   4
  10  -5 -13 8.23947 11.0902   7
  10  -5 -13 0.28160 10.6089   5
 -10   5 -13 11.8394 14.2986   4
  10  -5 -14-2.10100 11.3558   7
  10  -5 -14-15.6068 10.9079   5
 -10   5 -14 1.90767 13.9157   4
  10  -5 -15 6.38284 11.3097   7
  10  -5 -15 1.17784 11.1531   5
 -10   5 -15 4.23077 14.1450   4
  10  -5 -16-0.60778 11.4225   7
  10  -5 -16 1.49844 11.0232   5
 -10   5 -16 5.25966 14.5535   4
  10  -5 -17 0.92264 11.3234   7
  10  -5 -17 0.92208 11.2013   5
 -10   5 -17 14.4448 14.9360   4
  10  -5 -18 1.23195 11.4444   7
  10  -5 -18 1.87245 11.4315   5
 -10   5 -18 4.84004 14.5307   4
  10  -5 -19-0.31103 11.3947   7
 -10  -6 -16 8.48705 12.9900   4
 -10  -6 -15-0.29944 13.1557   4
 -10  -6 -14 0.59103 13.0222   4
 -10  -6 -13 6.41848 13.0383   4
  10  -6  13 0.51800 9.87851   7
  10  -6  12-1.75165 9.25592   7
  10  -6  11 1.98776 9.57241   7
  10  -6  10 0.25560 9.78134   7
  10  -6   9 20.7285 9.93746   7
  10  -6   8 12.1091 11.1987   1
  10  -6   8-17.9381 9.32839   7
  10  -6   7 15.5743 10.5907   1
  10  -6   7 5.51940 9.46177   7
  10  -6   6 6.71422 10.5604   1
  10  -6   6 6.94178 9.24926   7
  10  -6   5 8.84789 11.2325   1
  10  -6   5 30.8866 9.87356   7
  10  -6   4 9.81245 11.3089   1
  10  -6   4 26.4488 10.2473   7
  10  -6   3-7.21881 11.1857   1
  10  -6   3-9.53998 9.96175   7
  10  -6   2 11.9041 11.9909   1
  10  -6   2 4.71300 9.94224   7
  10  -6   1-3.03182 16.2688   1
  10  -6   1-3.91058 9.65075   7
  10  -6   0-0.47912 9.15820   7
  10  -6  -1-25.9694 23.4787   1
  10  -6  -1-6.71312 9.41804   7
  10  -6  -2 13.6529 9.47839   7
  10   6   2-4.49501 9.13611   4
  10  -6  -2-22.6068 20.3652   1
  10  -6  -3-18.8101 9.34727   7
  10   6   3 9.42592 9.11296   4
  10  -6  -4 19.9297 9.99067   7
  10  -6  -4 26.1805 9.01797   5
  10   6   4 3.44995 9.63331   4
  10  -6  -5 23.5574 9.92042   7
  10  -6  -5 8.46840 9.23197   5
  10   6   5 14.9647 9.78083   4
  10  -6  -6 18.3411 9.92142   7
  10  -6  -6 5.46833 8.96645   5
  10   6   6-14.5994 9.68523   4
  10  -6  -7-8.88662 10.1404   7
  10  -6  -7 2.39713 9.13408   5
  10   6   7-0.86921 10.0434   4
  10  -6  -8-6.62848 10.0441   7
  10  -6  -8 2.93816 9.28324   5
  10   6   8-8.92285 10.2895   4
  10  -6  -9 14.3287 10.7802   7
  10  -6  -9 10.8927 9.52046   5
  10   6   9 20.4331 10.5567   4
  10  -6 -10 3.92474 10.8011   7
  10  -6 -10 20.6466 10.2061   5
  10   6  10 7.56388 10.9441   4
 -10   6 -10 0.31683 14.2509   4
  10  -6 -11 11.9054 10.6660   7
  10  -6 -11-0.26620 9.87891   5
  10   6  11-1.21264 10.8594   4
 -10   6 -11-12.3651 14.6185   4
  10  -6 -12 4.17622 10.6573   7
  10  -6 -12 5.11730 10.0066   5
  10   6  12 0.24597 10.9064   4
 -10   6 -12-9.30756 14.8322   4
  10  -6 -13 19.0849 10.7464   7
  10  -6 -13-1.92956 10.3467   5
  10   6  13 1.48297 10.7884   4
 -10   6 -13 7.83520 14.9908   4
  10  -6 -14 5.43467 10.6128   7
  10  -6 -14 0.28036 10.3007   5
  10   6  14 9.01207 10.8912   4
 -10   6 -14 10.0015 14.8521   4
  10  -6 -15 0.29579 11.0445   7
  10  -6 -15-0.28469 10.3620   5
  10   6  15 4.81774 11.1482   4
 -10   6 -15-1.41066 15.4144   4
  10  -6 -16 12.8455 11.1221   7
  10  -6 -16 0.29448 10.7248   5
 -10   6 -16 4.96695 15.4339   4
  10  -6 -17 0.30459 10.8492   7
  10  -7  12 0.27221 10.0647   7
  10  -7  11-1.57685 9.79115   7
  10  -7  10 0.52145 10.0925   7
  10  -7   9 11.7898 10.4049   7
  10  -7   8 0.25850 9.89078   7
  10  -7   7 3.96225 11.5077   1
  10  -7   7 20.6841 10.1098   7
  10  -7   6 1.14186 10.6115   1
  10  -7   6 13.3972 9.73511   7
  10  -7   5 5.35756 10.7205   1
  10  -7   5 24.2003 9.63583   7
  10  -7   4-0.29262 11.0811   1
  10  -7   4 9.79254 9.82891   7
  10  -7   3 19.4852 11.2882   1
  10  -7   3 22.9944 10.4918   7
  10  -7   2-0.57498 10.6509   1
  10  -7   2 0.26411 10.2609   7
  10  -7   1-0.31624 11.8983   1
  10  -7   1 1.81425 10.2087   7
  10  -7   0 0.38223 14.0098   1
  10  -7   0 2.84166 10.2181   7
  10  -7  -1 11.6143 19.0910   1
  10  -7  -1 8.14577 9.82251   7
  10   7   2 14.3805 9.67773   4
  10  -7  -2 1.50092 9.59350   7
  10   7   3 5.31969 9.74899   4
  10  -7  -3 9.73622 9.73666   7
  10  -7  -4 7.26406 9.69525   7
  10   7   4 10.8357 10.0478   4
  10  -7  -4 25.7128 20.3344   1
  10  -7  -5 13.6447 9.44359   7
  10   7   5 11.2886 9.99518   4
  10  -7  -6 5.46705 9.56397   7
  10   7   6 3.70782 10.0083   4
  10  -7  -7 0.26000 9.72746   7
  10   7   7 12.0323 10.2679   4
  10  -7  -8 6.53195 10.1011   7
  10   7   8 14.5646 10.4139   4
  10  -7  -9 14.0580 10.2081   7
  10  -7  -9 4.39057 9.75531   5
  10   7   9 3.25173 10.5703   4
  10  -7 -10 0.80813 10.0702   7
  10  -7 -10 0.79629 10.0637   5
  10   7  10 11.2827 10.3589   4
  10  -7 -11 4.93347 10.3057   7
  10  -7 -11 1.60324 9.84859   5
  10   7  11 3.57391 10.7429   4
  10  -7 -12 8.04720 10.5566   7
  10  -7 -12 1.08497 10.1038   5
  10   7  12 9.00558 10.5055   4
 -10   7 -12 0.98365 14.3854   4
  10  -7 -13 2.54029 10.3932   7
  10  -7 -13 7.34082 9.94590   5
  10   7  13 0.24620 10.6563   4
 -10   7 -13 15.7741 14.8606   4
  10  -7 -14 0.28439 10.2202   7
  10  -7 -14 0.82734 10.1643   5
  10   7  14-6.28716 10.6053   4
 -10   7 -14 0.35830 15.3886   4
  10  -7 -15 0.29386 10.7348   7
 -10   7 -15 4.42026 15.5005   4
  10  -8  11 1.70457 10.6373   7
  10  -8  10 0.54833 10.1962   7
  10  -8   9 0.82276 10.4506   7
  10  -8   8 1.92319 10.1939   7
  10  -8   7 12.5744 10.6315   7
  10  -8   6-1.20630 10.9166   1
  10  -8   6 12.3212 9.96119   7
  10  -8   5 0.58342 10.7734   1
  10  -8   5 13.4935 9.87966   7
  10  -8   4-0.25993 10.1284   7
  10  -8   4-0.28064 10.4406   1
  10  -8   3 3.73519 10.4765   1
  10  -8   3-0.25885 9.90575   7
  10  -8   2 1.48108 10.9231   1
  10  -8   2 9.35840 9.97378   7
  10  -8   1 3.77053 10.8128   1
  10  -8   1 18.9224 10.4735   7
  10  -8   0 3.48998 10.9054   1
  10  -8   0 16.6548 10.8143   7
  10  -8  -1 0.32463 11.9071   1
  10  -8  -1 20.8092 10.8098   7
  10   8   2 6.56161 10.3087   4
  10  -8  -2 2.62398 16.0585   1
  10  -8  -2 0.53317 10.0807   7
  10   8   3 7.74011 10.3651   4
  10  -8  -3 23.3397 10.3270   7
  10   8   4 2.04841 10.1931   4
  10  -8  -4-2.36668 9.77955   7
  10   8   5 3.91697 10.4330   4
  10  -8  -5 2.31593 9.73506   7
  10   8   6 5.39104 10.7588   4
  10  -8  -6 16.2295 10.0066   7
  10  -8  -7 5.16378 9.80475   7
  10   8   7-7.82874 10.6157   4
  10  -8  -8 1.01224 9.40447   7
  10   8   8-8.49206 10.5428   4
  10  -8  -9 0.99022 9.17736   7
  10   8   9 23.5164 10.8338   4
  10  -8 -10-0.25659 9.42261   7
  10   8  10 5.35688 10.6091   4
  10  -8 -11 0.26797 9.61088   7
  10   8  11-2.18318 10.6469   4
  10  -8 -12 0.26823 9.73276   7
 -10   8 -13-2.42501 14.4285   4
  10   9  -8 0.65105 11.6524   9
  10   9  -7 0.21410 11.5200   9
  10  -9   7 4.19394 10.1240   7
  10   9  -6 0.21685 11.7370   9
  10  -9   6 1.14802 10.7008   7
  10  -9   5-0.29952 10.7898   1
  10   9  -5 0.21118 11.4084   9
  10  -9   5-0.28089 10.5005   7
  10   9  -4 0.20811 11.3743   9
  10  -9   4-0.30080 10.7038   1
  10  -9   4-0.26938 9.80435   7
  10   9  -3 3.33813 11.4029   9
  10  -9   3-5.59565 9.87566   7
  10   9  -2 6.29550 11.2240   9
  10  -9   2 0.53342 10.1039   7
  10   9  -1-24.1095 11.5922   9
  10  -9   1-7.15443 10.1787   7
  10   9   0-0.21077 11.4585   9
  10  -9   0 17.8398 10.1555   7
  10   9   1 0.21376 11.7087   9
  10  -9  -1 3.19673 9.74725   7
  10   9   2 7.60935 10.1113   4
  10   9   2 0.21214 11.6105   9
  10  -9  -2 1.14308 10.6666   7
  10   9   3 0.94424 10.3297   4
  10   9   3 0.21106 11.2469   9
  10  -9  -3-0.27879 10.4965   7
  10   9   4 15.4462 10.9171   4
  10  -9  -4 0.27590 10.1774   7
  10   9   5 14.1105 11.0364   4
  10  -9  -5 14.1371 10.3468   7
  10   9   6 14.3922 10.8711   4
  10  -9  -6-0.27009 9.86081   7
  10   9   7 13.6549 10.8682   4
  10  -9  -7-8.02101 9.77823   7
  10   9   8 9.98109 10.8111   4
  10  -9  -8 2.09679 9.75689   7
  10  -9  -9 0.26153 9.69109   7
  10  10   2-0.24527 10.6214   4
  11   0   0-7.28400 9.01652   7
  11   0  -1 8.72671 9.20077   7
  11   0  -2-0.23556 9.32039   7
  11   0   2 5.99726 19.1353   1
  11   0  -3-3.75717 9.38829   7
  11   0  -4-5.05895 9.57339   7
  11   0  -5 19.1155 10.1461   7
  11   0   5 17.1326 15.7882   1
  11   0  -6 15.2319 9.79850   7
  11   0   6 1.76813 11.3858   1
  11   0   7 1.88660 10.2913   1
  11   0   8-5.21651 10.4843   1
 -11   0  -8-22.2398 13.5156   4
  11   0   9-4.93162 9.87412   1
 -11   0  -9 3.80270 13.5035   4
 -11   0 -10-30.5153 14.0652   4
 -11   0 -11 27.6050 14.4021   4
 -11   0 -12 9.92725 13.9148   4
 -11   0 -13 15.1884 14.6653   4
 -11   0 -14 12.9266 14.8300   4
 -11   0 -15 38.2620 15.7487   4
 -11   0 -16 13.1164 15.1363   4
 -11   0 -17 21.6323 15.2169   4
 -11   0 -18 3.49452 14.8309   4
 -11  -1 -18 8.30886 14.6825   4
 -11  -1 -17 2.72443 14.8058   4
 -11  -1 -16-12.3735 14.6183   4
 -11  -1 -15-7.22439 14.3751   4
 -11  -1 -14 2.90073 14.6377   4
 -11  -1 -13 13.5819 14.5858   4
 -11  -1 -12-2.16611 13.9499   4
 -11  -1 -11 25.7580 14.2520   4
  11  -1  11 16.3756 11.1616   1
 -11  -1 -10-2.68072 13.7823   4
  11  -1  10 2.50443 10.4252   1
  11  -1   9-2.15979 10.0822   1
 -11  -1  -9-6.98536 13.4462   4
  11  -1   8 1.12303 10.5506   1
 -11  -1  -8 18.6475 13.3739   4
  11  -1   7 17.9033 10.7535   1
  11  -1   6 24.4374 12.1790   1
  11  -1   5 31.0337 14.3984   1
  11   1  -4 0.46364 9.30688   7
  11   1  -3 0.92009 9.15250   7
  11  -1   3 9.04104 23.1920   1
  11  -1   2 33.7540 9.01342   7
  11   1  -2 12.4720 9.21270   7
  11  -1   2-1.02428 19.3355   1
  11  -1   1 22.5625 9.09252   7
  11  -1   0 3.82843 8.87305   7
  11  -1  -1 1.83057 9.26084   7
  11  -1  -2 8.18139 9.70318   7
  11  -1  -3 11.3816 9.67531   7
  11   1   3-22.9073 18.9136   1
  11  -1  -4-7.09642 10.0151   7
  11  -1  -5 0.75701 9.70117   7
  11  -1  -6 14.4686 10.1283   7
  11  -1  -7 24.4681 10.5874   7
  11  -1  -8 22.3406 10.7613   7
  11  -1  -9 7.91700 10.5054   7
 -11   1  -9 1.58904 12.0153   4
 -11   1 -10 8.97068 12.5076   4
 -11   1 -11 29.3948 13.7600   4
 -11   1 -12 6.78646 13.1320   4
 -11   1 -13 16.0029 13.8790   4
 -11   1 -14-2.46896 13.7276   4
 -11   1 -15 0.94527 13.6219   4
 -11   1 -16-7.07617 14.4513   4
 -11   1 -17-0.31690 13.6358   4
 -11   1 -18 2.25953 13.8274   4
 -11  -2 -17-1.71245 14.9352   4
 -11  -2 -16 21.2341 15.3378   4
 -11  -2 -15-12.2612 14.9072   4
 -11  -2 -14-5.53469 14.2579   4
 -11  -2 -13-2.55770 14.5684   4
 -11  -2 -12-12.9845 14.0689   4
 -11  -2 -11 23.3511 13.8649   4
  11  -2  11 14.8649 11.5121   1
 -11  -2 -10 10.2048 13.6849   4
  11  -2  10-16.7217 10.8768   1
 -11  -2  -9 17.9123 13.5471   4
  11  -2   9-0.27741 10.3152   1
  11  -2   8 10.4505 11.0511   1
 -11  -2  -8 26.0623 13.3778   4
 -11  -2  -7 6.74922 13.2665   4
  11  -2   7 27.2604 11.1277   1
  11  -2   6 3.47409 10.9946   1
  11  -2   5 5.80620 12.0846   1
  11  -2   4 2.88140 8.13210   7
  11  -2   4 24.7705 16.7950   1
  11  -2   3 0.43504 8.64436   7
  11  -2   2 12.9560 9.00548   7
  11  -2   1-15.9204 20.1596   1
  11  -2   1 5.41920 8.88866   7
  11  -2   0 15.0754 9.15811   7
  11  -2  -1 8.28429 9.48131   7
  11  -2  -2 13.9231 9.53440   7
  11  -2  -3 4.41091 9.77067   7
  11  -2  -4 11.5872 10.0947   7
  11  -2  -4-3.43314 8.80938   5
  11  -2  -5-3.96966 10.2050   7
  11  -2  -5 4.54014 9.43156   5
  11  -2  -6 28.1713 10.7235   7
  11  -2  -6-6.87318 9.53227   5
  11  -2  -7 11.1587 10.5942   7
  11  -2  -7 2.23686 9.40062   5
  11  -2  -8-0.82583 10.5766   7
  11  -2  -8 4.91254 10.0214   5
  11  -2  -9-4.72877 10.3870   7
  11  -2  -9-3.69106 10.3412   5
  11  -2 -10 3.46158 11.1312   7
  11  -2 -10-16.7974 10.6410   5
 -11   2 -10 9.18581 13.3413   4
  11  -2 -11 0.28781 10.9549   7
 -11   2 -11 9.72803 13.7882   4
  11  -2 -12 11.4914 11.3009   7
 -11   2 -12 3.73833 13.8401   4
  11  -2 -13 0.60522 11.2489   7
 -11   2 -13 10.8401 14.2394   4
 -11   2 -14 9.45732 14.6265   4
 -11   2 -15 5.99865 14.7643   4
 -11   2 -16 0.34423 14.9229   4
 -11   2 -17 10.5358 15.3362   4
 -11  -3 -17 1.39135 14.6328   4
 -11  -3 -16-6.17122 14.6662   4
 -11  -3 -15 2.69941 14.8547   4
 -11  -3 -14 9.95671 14.8309   4
 -11  -3 -13 1.95748 14.5925   4
 -11  -3 -12 40.7291 15.3578   4
 -11  -3 -11 13.1291 13.7671   4
 -11  -3 -10 17.3681 13.7153   4
  11  -3  10 4.93367 11.6581   1
 -11  -3  -9 28.5430 13.2534   4
  11  -3   9 9.82681 11.3042   1
  11  -3   8 9.37650 11.0846   1
 -11  -3  -8 12.4788 12.7140   4
  11  -3   7 12.9868 11.4967   1
 -11  -3  -7-10.4828 12.5790   4
  11  -3   6 24.8370 11.5206   1
  11  -3   6 15.0364 9.41851   7
  11  -3   5 12.2618 11.7886   1
  11  -3   5 1.80450 8.70891   7
  11  -3   4 7.40880 14.4141   1
  11  -3   4 8.86408 8.86781   7
  11  -3   3-3.92439 8.48122   7
  11  -3   3-5.14897 19.9065   1
  11  -3   2 25.4537 9.31762   7
  11  -3   2 3.17570 23.7374   1
  11  -3   1 12.9671 9.25967   7
  11  -3   1-12.4058 20.4368   1
  11  -3   0 4.96136 9.41982   7
  11  -3  -1-6.80556 9.59846   7
  11  -3  -2 41.1818 10.8332   7
  11  -3  -3 9.62917 9.88342   7
  11  -3  -4-6.90095 10.0251   7
  11  -3  -4-5.51167 9.08404   5
  11  -3  -5-15.1264 10.1239   7
  11  -3  -5 7.84641 9.28720   5
  11  -3  -6 2.70840 10.0996   7
  11  -3  -6-2.81104 9.98231   5
  11  -3  -7 2.80996 10.8215   7
  11  -3  -7 7.81547 10.0892   5
  11  -3  -8 5.17232 11.1927   7
  11  -3  -8 6.63687 10.3216   5
  11  -3  -9-0.29196 11.1002   7
  11  -3  -9 5.17627 10.2595   5
  11  -3 -10 0.29307 11.0621   7
  11  -3 -10 1.98010 10.5850   5
  11  -3 -11-23.8951 11.2119   7
  11  -3 -11-22.8181 11.1685   5
 -11   3 -11 5.71488 14.2647   4
  11  -3 -12 7.23107 11.5292   7
  11  -3 -12 5.32613 10.8501   5
 -11   3 -12 3.58055 14.5366   4
  11  -3 -13 12.7517 11.6200   7
  11  -3 -13 0.29778 11.3495   5
 -11   3 -13 15.6688 14.6382   4
  11  -3 -14-16.6328 11.9362   7
  11  -3 -14 5.78180 11.3972   5
 -11   3 -14 4.09048 15.0168   4
  11  -3 -15-7.18033 11.6401   7
  11  -3 -15-2.79542 11.3520   5
 -11   3 -15 3.83020 15.1248   4
  11  -3 -16-28.1967 11.7445   7
  11  -3 -16-4.16145 11.9469   5
 -11   3 -16 7.82072 15.3614   4
  11  -3 -17 7.09931 11.7653   7
  11  -3 -17-0.32606 11.8186   5
 -11   3 -17 2.17443 15.3857   4
 -11  -4 -15 27.7745 14.1897   4
 -11  -4 -14 26.4327 14.2045   4
 -11  -4 -13 9.60675 13.8246   4
 -11  -4 -12 5.16597 13.7444   4
 -11  -4 -11 17.9357 13.5995   4
 -11  -4 -10 24.1072 13.2996   4
  11  -4  10 25.9737 12.1275   1
 -11  -4  -9 14.4339 12.8824   4
  11  -4   9 20.2827 11.4434   1
  11  -4   8 2.03880 11.1377   1
 -11  -4  -8 8.31946 12.2045   4
  11  -4   8 11.5524 8.81874   7
  11  -4   7 3.35069 11.4812   1
 -11  -4  -7 7.95965 11.7173   4
  11  -4   7 3.86805 9.42950   7
 -11  -4  -6-3.02884 11.5247   4
  11  -4   6 15.6785 11.5459   1
  11  -4   6-0.49087 9.52384   7
  11  -4   5 24.5654 11.5903   1
  11  -4   5 19.0330 9.89972   7
  11  -4   4 12.5109 12.8498   1
  11  -4   4 34.5334 9.63079   7
  11  -4   3-4.37996 14.7903   1
  11  -4   3 3.98162 9.32258   7
  11  -4   2-0.23510 9.15962   7
  11  -4   1 7.66192 8.82393   7
  11  -4   1 7.78860 25.0632   1
  11  -4   0-18.5425 9.68545   7
  11  -4   0 25.3567 21.1722   1
  11  -4  -1-2.45904 9.80383   7
  11  -4  -2 0.25038 9.72925   7
  11  -4  -3 8.75698 10.1220   7
  11  -4  -3 0.67072 8.77230   5
  11  -4  -4 19.5519 10.3843   7
  11  -4  -4-0.68422 8.86104   5
  11  -4  -5 27.1730 10.9853   7
  11  -4  -5-0.47940 9.22495   5
  11  -4  -6 0.27011 10.4299   7
  11  -4  -6-3.73775 9.59332   5
  11  -4  -7 15.8361 10.8765   7
  11  -4  -7 13.5996 10.0716   5
  11  -4  -8 0.55825 10.6845   7
  11  -4  -8-4.75212 10.0110   5
  11  -4  -9 15.0667 11.0602   7
  11  -4  -9-0.27214 10.2048   5
  11  -4 -10-0.89164 11.3460   7
  11  -4 -10 12.0808 10.8587   5
  11  -4 -11 0.30663 11.6661   7
  11  -4 -11 0.28731 10.7158   5
  11  -4 -12 8.40606 11.7424   7
  11  -4 -12-8.82611 11.3186   5
 -11   4 -12 3.66178 14.9232   4
  11  -4 -13 3.47049 11.5737   7
  11  -4 -13-0.93231 11.3430   5
 -11   4 -13-0.35308 15.3189   4
  11  -4 -14 7.57806 11.7807   7
  11  -4 -14-0.31466 11.7840   5
 -11   4 -14-12.6481 16.0058   4
  11  -4 -15-0.63338 11.4491   7
  11  -4 -15-6.73213 11.9279   5
 -11   4 -15 5.16605 15.5759   4
  11  -4 -16 0.32106 11.6699   7
  11  -4 -16 0.32645 11.5222   5
 -11   4 -16 1.43833 15.2452   4
 -11  -5 -14 9.22024 12.7991   4
 -11  -5 -13 7.04322 12.9289   4
 -11  -5 -12 24.3202 13.3997   4
 -11  -5 -11-5.15527 12.7176   4
 -11  -5 -10 10.6632 12.4152   4
  11  -5  10 13.8609 9.65889   7
 -11  -5  -9 9.11638 12.5109   4
  11  -5   9-2.24765 11.8863   1
  11  -5   9-0.24084 9.01966   7
 -11  -5  -8 26.8881 12.5229   4
  11  -5   8 11.4346 11.1443   1
  11  -5   8 3.86359 9.45826   7
  11  -5   7 11.3163 11.2166   1
  11  -5   7 2.92714 9.36146   7
  11  -5   6 0.30913 11.4969   1
  11  -5   6-1.78244 9.43774   7
  11  -5   5 16.8609 11.8842   1
  11  -5   5 5.93815 9.86332   7
  11  -5   4 0.60854 11.5674   1
  11  -5   4 15.2584 10.0243   7
  11  -5   3-4.35022 12.5951   1
  11  -5   3-9.34790 9.86347   7
  11  -5   2 20.8125 17.4260   1
  11  -5   2-4.18577 9.36896   7
  11  -5   1-1.23228 9.72681   7
  11  -5   0 4.59771 9.41744   7
  11  -5   0 19.1435 24.8811   1
  11  -5  -1 4.98516 9.30054   7
  11  -5  -1-0.56103 20.9145   1
  11  -5  -2 4.88089 9.92028   7
  11  -5  -2 12.4589 8.65969   5
  11  -5  -3 34.8734 10.5126   7
  11  -5  -3 11.8932 9.20552   5
  11  -5  -4 17.1087 10.3123   7
  11  -5  -4 13.6552 9.12382   5
  11  -5  -5 6.16300 10.4674   7
  11  -5  -5-0.23728 9.18272   5
  11   5   5 12.9007 9.80857   4
  11  -5  -6 3.29798 10.4885   7
  11  -5  -6-2.71092 9.12418   5
  11   5   6-5.11028 10.1377   4
  11  -5  -7 10.9403 10.6509   7
  11  -5  -7 1.27636 9.52065   5
  11   5   7 4.12044 10.4557   4
  11  -5  -8 0.87400 10.8823   7
  11  -5  -8-0.25940 9.58339   5
  11   5   8 3.46142 10.4124   4
  11  -5  -9-6.87286 10.8128   7
  11  -5  -9 3.73127 9.93578   5
  11  -5 -10 15.6203 11.1358   7
  11  -5 -10 0.27720 10.3510   5
  11  -5 -11 11.2168 11.1930   7
  11  -5 -11 0.28687 10.8317   5
  11  -5 -12 0.30576 11.5179   7
  11  -5 -12 2.92325 10.5003   5
 -11   5 -12-8.44028 14.2294   4
  11  -5 -13 1.85740 11.3160   7
  11  -5 -13 11.3775 10.9594   5
 -11   5 -13 12.9625 14.6253   4
  11  -5 -14 0.31660 11.5177   7
  11  -5 -14 0.30498 11.1619   5
 -11   5 -14 5.84892 14.8129   4
  11  -5 -15 0.32339 11.4296   7
 -11   5 -15 7.02556 15.0116   4
  11  -6  11 0.26070 9.63558   7
  11  -6  10 0.53806 10.1824   7
  11  -6   9-0.26017 9.71397   7
  11  -6   8 19.7746 12.1293   1
  11  -6   8 5.81714 9.71170   7
  11  -6   7 19.4431 11.4101   1
  11  -6   7 24.1448 10.0961   7
  11  -6   6 17.4383 11.3343   1
  11  -6   6 1.52542 9.88544   7
  11  -6   5 22.5024 11.9982   1
  11  -6   5 3.08178 10.1768   7
  11  -6   4 23.3591 11.9471   1
  11  -6   4 14.9320 10.7505   7
  11  -6   3-21.5284 11.4428   1
  11  -6   3 0.53597 10.2097   7
  11  -6   2 15.9084 12.7959   1
  11  -6   2 14.5875 10.3543   7
  11  -6   1-3.27702 15.1102   1
  11  -6   1 7.14302 10.1883   7
  11  -6   0 4.64106 9.87056   7
  11  -6   0 4.87017 20.1782   1
  11  -6  -1 3.60787 9.80260   7
  11  -6  -2 5.70118 9.82523   7
  11  -6  -3-2.97608 9.25931   7
  11  -6  -3-5.74282 21.0773   1
  11  -6  -4 0.25800 9.68106   7
  11  -6  -5 0.26939 10.4250   7
  11  -6  -5-0.98858 9.10097   5
  11   6   5-8.43081 9.82140   4
  11  -6  -6 1.08887 10.2513   7
  11  -6  -6-11.4849 9.58272   5
  11   6   6 5.75139 9.99389   4
  11  -6  -7 0.27696 10.5212   7
  11  -6  -7 12.1248 9.86775   5
  11   6   7 10.5695 10.1323   4
  11  -6  -8 31.5450 11.0818   7
  11  -6  -8-0.26019 9.75730   5
  11   6   8 17.7507 10.5615   4
  11  -6  -9 13.2621 10.8689   7
  11  -6  -9 6.90591 9.87841   5
  11   6   9-8.03533 10.6087   4
  11  -6 -10 16.1717 11.2697   7
  11  -6 -10 0.27483 10.0665   5
  11   6  10 4.12881 10.7112   4
  11  -6 -11 7.01052 11.3895   7
  11  -6 -11 2.51883 10.5494   5
  11   6  11-2.24421 11.0305   4
  11  -6 -12 0.30785 11.5397   7
  11  -6 -12 0.86461 10.3886   5
  11   6  12-7.32132 10.7445   4
  11  -6 -13-24.2862 11.5472   7
 -11   6 -14-0.34039 14.2943   4
  11  -7  11 0.27488 9.74086   7
  11  -7  10 0.27267 10.1131   7
  11  -7   9 5.33720 10.4391   7
  11  -7   8 5.97606 10.2416   7
  11  -7   7 10.0995 12.0142   1
  11  -7   7-0.26384 9.96934   7
  11  -7   6-0.30551 11.0604   1
  11  -7   6 0.80044 10.1178   7
  11  -7   5 2.11737 11.0814   1
  11  -7   5-1.31932 9.83774   7
  11  -7   4 9.73925 11.3026   1
  11  -7   4 1.86280 10.0948   7
  11  -7   3 0.31743 11.4802   1
  11  -7   3 13.8727 10.3689   7
  11  -7   2-16.4021 11.3816   1
  11  -7   2 0.86253 10.9353   7
  11  -7   1 7.82252 11.7466   1
  11  -7   1 28.7018 10.8436   7
  11  -7   0-10.1284 12.7716   1
  11  -7   0 9.09450 10.7005   7
  11  -7  -1-16.4972 17.3595   1
  11  -7  -1 9.33937 10.3636   7
  11  -7  -2 0.26749 10.1010   7
  11  -7  -3 8.77623 24.5951   1
  11  -7  -3 1.33942 10.2777   7
  11  -7  -4 2.14671 10.0092   7
  11  -7  -5 7.64481 9.99086   7
  11   7   5 2.02925 9.88551   4
  11  -7  -5-2.90367 21.3470   1
  11  -7  -6-2.06702 9.68854   7
  11   7   6 1.14841 10.2273   4
  11  -7  -7-1.34251 9.84888   7
  11   7   7-1.60700 9.95890   4
  11  -7  -8 2.24755 10.5252   7
  11   7   8 1.40437 10.2000   4
  11  -7  -9 13.8445 10.7912   7
  11  -7  -9 0.54559 10.0285   5
  11   7   9 7.87378 10.5246   4
  11  -7 -10 2.00698 10.4611   7
  11  -7 -10 3.33279 10.5125   5
  11   7  10 2.91565 10.5976   4
  11  -8   6 3.53433 11.7012   1
  11  -8   6 2.74958 10.2497   7
  11  -8   5 0.31142 10.8675   1
  11  -8   5 0.27277 9.82026   7
  11  -8   4 1.91521 10.1865   7
  11  -8   4-0.30008 10.9570   1
  11  -8   3 4.30968 10.9952   1
  11  -8   3 8.47059 10.3186   7
  11  -8   2 7.30808 11.6991   1
  11  -8   2-0.27474 10.1394   7
  11  -8   1 2.49212 11.2830   1
  11  -8   1 0.28625 10.6021   7
  11  -8   0 0.61714 11.0625   1
  11  -8   0 3.55627 10.7906   7
  11  -8  -1-10.5383 12.0925   1
  11  -8  -1 0.28699 10.5315   7
  11  -8  -2 0.82361 14.7117   1
  11  -8  -2 1.13958 10.6909   7
  11  -8  -3 1.08879 19.5774   1
  11  -8  -3-14.3998 10.5980   7
  11   8   4 0.70639 10.1912   4
  11  -8  -4 1.96231 10.1865   7
  11   8   5-0.47492 10.3760   4
  11  -8  -5 0.27563 10.1462   7
  11   8   6 1.20610 10.4589   4
  11  -8  -6 3.30838 10.1371   7
  11   8   7 7.31724 10.6498   4
  12   0  -3-8.06145 10.1544   7
  12   0  -4 0.79560 9.95799   7
  12   0   4 22.3572 19.3805   1
  12   0  -5 1.32220 10.1388   7
  12   0   5-0.32558 12.0603   1
  12   0  -6 6.77448 10.3307   7
  12   0   6 7.86036 10.8649   1
  12   0  -7 7.25873 10.3747   7
  12   0  -8 7.26049 10.5521   7
  12   0  -9 0.28651 10.4825   7
 -12   0 -11-6.27936 14.0661   4
 -12   0 -12 2.24288 14.0101   4
 -12   0 -13-1.33087 14.5656   4
 -12   0 -14 4.06656 14.7699   4
 -12   0 -15 7.23924 15.0037   4
 -12  -1 -14 22.4167 15.3211   4
 -12  -1 -13 16.9705 15.0349   4
 -12  -1 -12-12.3304 14.5654   4
 -12  -1 -11 1.96204 14.5024   4
  12  -1  11 0.30598 10.9248   1
  12  -1  10 1.48862 11.0253   1
  12  -1   9 18.3752 11.0257   1
  12  -1   8 0.30109 11.2336   1
  12   1  -7-10.0046 10.1805   7
  12  -1   7 11.2750 11.4509   1
  12   1  -6-0.26090 9.71673   7
  12  -1   6 0.59512 11.1079   1
  12   1  -5 28.6319 10.3375   7
  12  -1   5 7.74017 13.0123   1
  12  -1   4 0.45413 16.8798   1
  12  -1   1 2.78252 20.6834   1
  12  -1   0 2.18339 9.50742   7
  12  -1  -1 16.0551 9.98783   7
  12  -1  -2 17.1954 10.0003   7
  12  -1  -3 29.0326 10.6211   7
  12  -1  -4 6.45903 10.1758   7
  12  -1  -5 27.0326 11.2597   7
  12  -1  -6 6.24576 10.7880   7
  12  -1  -7 5.08438 10.4076   7
  12  -1  -8 0.28894 10.7998   7
  12  -1  -9 2.92031 10.9687   7
  12  -1 -10 0.90867 11.1585   7
  12  -1 -11-7.25002 11.0879   7
  12  -1 -12 0.30913 11.6283   7
 -12   1 -12 0.32796 14.3829   4
 -12   1 -13-3.98222 14.4826   4
 -12   1 -14 9.80490 14.6841   4
 -12   1 -15-1.37702 14.6042   4
 -12  -2 -14 7.15430 14.9328   4
 -12  -2 -13 12.3743 14.6135   4
 -12  -2 -12-0.32897 14.2253   4
 -12  -2 -11 12.9896 14.3753   4
 -12  -2 -10 18.4871 14.1751   4
  12  -2  10 9.88758 11.9045   1
  12  -2   9 0.59352 11.0424   1
  12  -2   8 22.5423 11.5472   1
  12  -2   7 16.9789 11.8073   1
  12  -2   6 7.05227 11.3289   1
  12  -2   5-10.4591 12.5989   1
  12  -2   4 0.40850 15.2165   1
  12  -2   3 0.53993 19.9633   1
  12  -2   2 7.09299 9.20276   7
  12  -2   1 12.4390 9.31925   7
  12  -2   1-4.53841 21.0985   1
  12  -2   0 9.11441 9.42668   7
  12  -2  -1 14.9418 9.90440   7
  12  -2  -2 27.1584 10.8423   7
  12  -2  -3 15.4902 10.3563   7
  12  -2  -4 15.6990 10.1640   7
  12  -2  -5 4.46337 10.3525   7
  12  -2  -6 19.4957 11.0325   7
  12  -2  -7 17.7798 11.3032   7
  12  -2  -7 0.27111 10.0543   5
  12  -2  -8 0.30132 10.9667   7
  12  -2  -8 0.55535 10.3490   5
  12  -2  -9 7.86235 11.3944   7
  12  -2  -9-30.0050 10.6562   5
  12  -2 -10 1.21818 11.4937   7
  12  -2 -10-30.5191 11.0457   5
  12  -2 -11-5.28579 11.5439   7
  12  -2 -11-0.29796 10.7272   5
  12  -2 -12 3.76079 11.6764   7
  12  -2 -12-25.0337 11.2567   5
  12  -2 -13-3.88816 11.5074   7
  12  -2 -13 0.30927 11.1799   5
 -12   2 -13 1.28617 13.7364   4
  12  -2 -14 0.32208 11.7312   7
  12  -2 -14 0.31593 11.5524   5
 -12   2 -14 0.98385 13.8654   4
 -12  -3 -13 9.10144 14.2598   4
 -12  -3 -12-0.32016 13.8741   4
 -12  -3 -11 13.3041 13.6388   4
 -12  -3 -10 21.2966 13.6619   4
  12  -3  10 12.4707 12.1398   1
  12  -3   9 0.30811 11.1715   1
  12  -3   8 0.30540 11.0228   1
  12  -3   7 0.31781 11.7936   1
  12  -3   6-0.96441 12.2056   1
  12  -3   5 22.2443 12.3632   1
  12  -3   4 6.73767 13.0775   1
  12  -3   4 6.66782 9.20816   7
  12  -3   3-1.43388 17.8350   1
  12  -3   3 3.58253 9.20152   7
  12  -3   2 1.60678 9.01349   7
  12  -3   1 9.46349 9.69151   7
  12  -3   1 15.7183 25.1692   1
  12  -3   0 13.5629 9.58517   7
  12  -3   0-2.32469 21.3376   1
  12  -3  -1 12.8319 10.1032   7
  12  -3  -2 2.37917 10.1145   7
  12  -3  -3 14.6701 10.5760   7
  12  -3  -4 15.2593 10.9189   7
  12  -3  -5 10.5830 10.7747   7
  12  -3  -6 11.2751 10.7828   7
  12  -3  -6 3.62313 9.87773   5
  12  -3  -7 0.28850 10.5771   7
  12  -3  -7-1.07979 10.1761   5
  12  -3  -8-9.98992 11.4685   7
  12  -3  -8 2.76950 10.1685   5
  12  -3  -9 0.31057 11.5900   7
  12  -3  -9 1.76547 10.9593   5
  12  -3 -10 16.8147 11.9184   7
  12  -3 -10 0.29928 11.0665   5
  12  -3 -11 10.9511 12.2450   7
  12  -3 -11 3.64564 11.2843   5
  12  -3 -12 2.90211 11.8513   7
  12  -3 -12-0.31076 11.3621   5
  12  -3 -13 0.32725 12.2228   7
  12  -3 -13 0.32126 11.5214   5
 -12   3 -14-0.34825 14.6987   4
 -12  -4 -12 20.7288 13.3420   4
 -12  -4 -11-3.00456 12.9845   4
 -12  -4 -10 13.6938 12.7790   4
  12  -4  10 1.99259 11.7665   1
 -12  -4  -9 2.23743 12.1727   4
  12  -4   9-1.93237 11.7481   1
  12  -4   8 11.4812 11.4458   1
  12  -4   7 8.59724 11.6523   1
  12  -4   6 18.7299 12.1010   1
  12  -4   6 4.42533 10.0825   7
  12  -4   5 15.1593 12.2034   1
  12  -4   5-2.57011 9.56915   7
  12  -4   4 3.88242 11.8394   1
  12  -4   4 3.32998 9.61134   7
  12  -4   3 6.14227 13.1038   1
  12  -4   3 6.25811 9.23571   7
  12  -4   2-32.6496 18.1063   1
  12  -4   2-3.51470 9.69764   7
  12  -4   1 0.74135 9.44740   7
  12  -4   0-18.9497 9.40633   7
  12  -4   0 9.76173 25.8174   1
  12  -4  -1 5.00548 10.0617   7
  12  -4  -1-42.1320 21.9362   1
  12  -4  -2 0.53167 9.99642   7
  12  -4  -3 10.5689 10.1267   7
  12  -4  -4 12.2753 10.3621   7
  12  -4  -5 4.25592 10.4648   7
  12  -4  -6 8.63049 11.3197   7
  12  -4  -6 16.9078 9.96577   5
  12  -4  -7 14.4349 10.9401   7
  12  -4  -7 5.08159 10.1147   5
  12  -4  -8-7.71918 11.1369   7
  12  -4  -8 0.27752 10.1113   5
  12  -4  -9 7.80037 11.5313   7
  12  -4  -9 0.28557 10.5222   5
  12  -4 -10 3.06496 11.4527   7
  12  -4 -10-0.29300 10.7490   5
  12  -4 -11-0.31781 11.6645   7
  12  -4 -11-0.29950 11.0270   5
  12  -4 -12 0.30772 11.0319   5
 -12  -5 -10 23.0424 12.7129   4
  12  -5   9 20.8337 12.3202   1
  12  -5   8 2.93270 11.8720   1
  12  -5   8 11.9680 9.59052   7
  12  -5   7 3.77066 11.4648   1
  12  -5   7 13.0344 9.66488   7
  12  -5   6-0.32269 11.8856   1
  12  -5   6 5.17521 9.57835   7
  12  -5   5-0.33326 12.4398   1
  12  -5   5 16.4984 10.6753   7
  12  -5   4 0.32711 12.1372   1
  12  -5   4 1.90298 10.2776   7
  12  -5   3 2.62681 12.1847   1
  12  -5   3 9.98219 10.3370   7
  12  -5   2-0.36666 13.3756   1
  12  -5   2-1.60193 9.95504   7
  12  -5   1-0.49450 17.6172   1
  12  -5   1 4.46265 9.97312   7
  12  -5   0 1.58469 9.72409   7
  12  -5  -1 12.4655 10.1049   7
  12  -5  -1 59.5116 26.3551   1
  12  -5  -2 0.52711 10.1026   7
  12  -5  -2 10.2479 21.7920   1
  12  -5  -3-14.6293 21.6922   1
  12  -5  -3 0.27642 10.4203   7
  12  -5  -4-28.1044 10.9528   7
  12  -5  -5 23.5689 10.6075   7
  12  -5  -5 0.49957 9.16157   5
  12  -5  -6-16.7643 10.7985   7
  12  -5  -6 1.53820 9.61660   5
  12  -5  -7 4.13057 10.6372   7
  12  -5  -7 0.53267 9.81801   5
  12  -5  -8 5.14622 11.4008   7
  12  -5  -8 1.37794 9.87035   5
  12   5   8 1.68064 10.4852   4
  12  -5  -9 10.0508 11.6013   7
  12  -5  -9 0.55954 10.2635   5
  12   5   9 6.90100 10.7682   4
  12  -5 -10 0.85637 10.3830   5
  12   5  10 14.6199 10.8759   4
  12   5  11-7.27921 11.0335   4
  12  -6   9 0.81409 9.98424   7
  12  -6   8 4.75853 9.69754   7
  12  -6   7 1.06449 9.58180   7
  12  -6   6 0.31674 11.2264   1
  12  -6   6 0.26682 9.87436   7
  12  -6   5 0.97656 11.5606   1
  12  -6   5 0.27004 10.0628   7
  12  -6   4-0.33614 11.9900   1
  12  -6   4 18.3000 10.6848   7
  12  -6   3 10.8946 11.9605   1
  12  -6   3 0.28569 10.7078   7
  12  -6   2 0.66267 11.9428   1
  12  -6   2 11.5460 10.7140   7
  12  -6   1 0.74048 13.2197   1
  12  -6   1 14.2809 10.7179   7
  12  -6   0 2.99757 17.6897   1
  12  -6   0-1.39377 10.5504   7
  12  -6  -1 6.30365 10.3371   7
  12  -6  -2 1.37746 10.3239   7
  12  -6  -3 12.9907 10.5078   7
  12  -6  -4 20.7165 10.3267   7
  12  -6  -4 0.61591 22.3592   1
  12  -6  -5 2.76570 10.1179   7
  12  -6  -6 19.3641 10.8841   7
  12  -6  -6 0.26469 9.88065   5
  12  -6  -7 0.27328 10.0468   5
  12  -6  -8 0.27643 10.2895   5
  12   6   8 0.23630 10.1042   4
  12  -7   0 0.36209 12.8237   1
  12  -7  -1 0.43866 15.3425   1
  12  -7  -2 1.16120 20.9998   1
  13   0   0-69.2154 22.4464   1
  13   0   3-0.53965 19.6078   1
  13   0  -5 0.57533 10.6052   7
  13   0  -6-11.7321 10.9229   7
  13   0  -7 0.29218 10.6563   7
  13   0  -8-0.29899 10.8654   7
  13   0  -9-12.9981 10.9786   7
  13   0 -10 0.31316 11.2790   7
  13   1 -10-0.30465 11.1588   7
  13   1  -9 0.29609 10.6824   7
  13   1  -8 1.47360 10.5516   7
  13  -1   8 0.30378 10.6273   1
  13  -1   7 0.32213 11.8034   1
  13  -1   6-0.31692 11.3702   1
  13  -1   5 1.59326 11.5726   1
  13  -1   4-1.42672 12.9212   1
  13  -1   3-12.5242 17.2545   1
  13  -1   0-33.2131 21.3805   1
  13  -1  -3-2.97256 10.1347   7
  13  -1  -4-0.27651 10.2443   7
  13  -1  -5 0.28800 10.6581   7
  13  -1  -6 0.29628 10.8280   7
  13  -1  -7 0.91958 11.3237   7
  13  -1  -8 8.10795 11.7031   7
  13  -1  -9 0.31310 11.2048   7
  13  -2  10-0.33501 11.8998   1
  13  -2   9 3.47045 11.4675   1
  13  -2   8-0.31319 10.9853   1
  13  -2   7 6.85947 11.7257   1
  13  -2   6 7.61282 11.9969   1
  13  -2   5-8.41420 11.6484   1
  13  -2   4 0.71410 12.9289   1
  13  -2   3 0.43298 15.6752   1
  13  -2   2-1.14623 20.5383   1
  13  -2  -1 0.79459 9.87770   7
  13  -2  -1-10.9987 22.0415   1
  13  -2  -2 8.18210 10.2799   7
  13  -2  -3 12.5757 10.5424   7
  13  -2  -4 1.99218 10.4013   7
  13  -2  -5 1.72484 10.7561   7
  13  -2  -6 4.11136 10.9840   7
  13  -2  -7 0.30521 10.9990   7
  13  -2  -8-2.19530 11.5110   7
  13  -2 -10 0.30759 11.0377   5
  13  -3   7 3.27964 11.7722   1
  13  -3   6 0.33942 12.1279   1
  13  -3   5 4.66938 12.0812   1
  13  -3   4 0.33521 11.9680   1
  13  -3   3 2.24981 13.6649   1
  13  -3   2-40.4934 18.9754   1
  13  -3   1 3.18802 9.20719   7
  13  -3   0 0.26634 10.1254   7
  13  -3   0 8.71574 25.9015   1
  13  -3  -1 8.87528 10.1834   7
  13  -3  -1-6.18421 22.1853   1
  13  -3  -2 1.37547 10.0096   7
  13  -3  -3 1.12317 10.1837   7
  13  -3  -4 5.48617 10.5268   7
  13  -3  -5 1.18226 10.7601   7
  13  -3  -6 1.20159 11.1300   7
  13  -3  -7 0.30307 10.7462   7
  13  -3  -9-0.29473 10.5021   5
  13  -4   3-0.37148 12.8622   1
  13  -4   3 0.54210 9.97417   7
  13  -4   2 0.45031 15.8593   1
  13  -4   2 1.32764 9.83810   7
  13  -4   1 1.54655 17.9826   1
  13  -4   1 0.26673 9.82785   7
  13  -4   0 0.26286 9.75273   7
  13  -4  -1 0.25896 9.46739   7
  13  -4  -1-0.74006 25.8047   1
  13  -4  -2 1.12371 10.2943   7
  13  -4  -2 0.63045 22.5620   1
  13  -4  -3 6.23361 10.2605   7
  13  -4  -3-49.7348 22.7288   1
  13  -4  -4 0.57879 10.1570   7
   0   0   0    0.00    0.00   0

TITL y6220F in P2(1)2(1)2(1)
REM P2(1)2(1)2(1) (#19 in standard setting)
CELL 0.71073   9.730078  10.166581  21.993824  90.0000  90.0000  90.0000
ZERR    4.00   0.002271   0.002226   0.005941   0.0000   0.0000   0.0000
LATT -1
SYMM -x+1/2,-y, z+1/2
SYMM -x, y+1/2,-z+1/2
SYMM  x+1/2,-y+1/2,-z
SFAC C H N O Br
UNIT 120.00 160.00 4.00 12.00 4.00
TREF
HKLF 4
END
;
_shelx_hkl_checksum              21344
_shelx_shelxl_version_number     2016/6
_olex2_submission_special_instructions 'No special instructions were received'
_oxdiff_exptl_absorpt_empirical_details
;
Empirical correction (ABSPACK) includes:
- Absorption correction using spherical harmonics
- Frame scaling
;
_oxdiff_exptl_absorpt_empirical_full_max 2.691
_oxdiff_exptl_absorpt_empirical_full_min 0.712
loop_
_space_group_symop_operation_xyz
'x, y, z'
'-x+1/2, -y, z+1/2'
'-x, y+1/2, -z+1/2'
'x+1/2, -y+1/2, -z'
loop_
_atom_site_label
_atom_site_type_symbol
_atom_site_fract_x
_atom_site_fract_y
_atom_site_fract_z
_atom_site_U_iso_or_equiv
_atom_site_adp_type
_atom_site_occupancy
_atom_site_site_symmetry_order
_atom_site_calc_flag
_atom_site_refinement_flags_posn
Br1 Br 0.22981(14) -0.17715(8) 0.39283(4) 0.0902(4) Uani 1 1 d .
S1 S 0.2304(2) 0.44169(16) 0.45188(7) 0.0465(4) Uani 1 1 d .
O1 O 0.3565(5) 0.4715(5) 0.4807(2) 0.0561(13) Uani 1 1 d .
O2 O 0.1038(6) 0.4764(5) 0.4804(2) 0.0634(15) Uani 1 1 d .
O3 O 0.2131(7) 1.1502(5) 0.1201(2) 0.0731(16) Uani 1 1 d .
N1 N 0.2320(6) 0.5105(5) 0.3858(2) 0.0438(12) Uani 1 1 d .
C2 C 0.3027(6) 0.5283(7) 0.2852(3) 0.0428(15) Uani 1 1 d .
C18 C 0.2248(8) 0.9782(7) 0.1908(3) 0.0514(16) Uani 1 1 d .
H18 H 0.204379 1.038853 0.221145 0.062 Uiso 1 1 calc R
C6 C 0.2273(7) 0.2704(6) 0.4383(3) 0.0441(15) Uani 1 1 d .
C16 C 0.2776(7) 0.7541(7) 0.1627(3) 0.0461(15) Uani 1 1 d .
C4 C 0.1060(8) 0.5045(7) 0.3480(3) 0.0483(18) Uani 1 1 d .
H4A H 0.057782 0.587940 0.348531 0.058 Uiso 1 1 calc R
H4B H 0.044542 0.436111 0.362390 0.058 Uiso 1 1 calc R
C17 C 0.2454(7) 0.8497(6) 0.2051(3) 0.0479(16) Uani 1 1 d .
H17 H 0.237382 0.824637 0.245641 0.057 Uiso 1 1 calc R
C14 C 0.3024(7) 0.6154(8) 0.1796(3) 0.0510(18) Uani 1 1 d .
C9 C 0.2301(10) 0.0065(7) 0.4108(3) 0.062(2) Uani 1 1 d .
C19 C 0.2343(8) 1.0189(6) 0.1304(3) 0.0536(17) Uani 1 1 d .
C21 C 0.2881(8) 0.7962(7) 0.1018(3) 0.0516(17) Uani 1 1 d .
H21 H 0.309561 0.735664 0.071545 0.062 Uiso 1 1 calc R
C10 C 0.3513(8) 0.0716(8) 0.4184(3) 0.057(2) Uani 1 1 d .
H10 H 0.433925 0.026767 0.413932 0.068 Uiso 1 1 calc R
C1 C 0.3568(7) 0.5062(7) 0.3479(3) 0.0521(19) Uani 1 1 d .
H1A H 0.402082 0.421445 0.351083 0.063 Uiso 1 1 calc R
H1B H 0.420971 0.574750 0.359476 0.063 Uiso 1 1 calc R
C3 C 0.1593(7) 0.4726(7) 0.2833(3) 0.0494(17) Uani 1 1 d .
H3 H 0.104205 0.519140 0.252873 0.059 Uiso 1 1 calc R
C20 C 0.2663(8) 0.9302(8) 0.0860(3) 0.0562(18) Uani 1 1 d .
H20 H 0.273817 0.957237 0.045787 0.067 Uiso 1 1 calc R
C11 C 0.3521(8) 0.2012(8) 0.4326(3) 0.0497(18) Uani 1 1 d .
H11 H 0.435151 0.244584 0.438561 0.060 Uiso 1 1 calc R
C7 C 0.1065(7) 0.2031(8) 0.4314(3) 0.0537(19) Uani 1 1 d .
H7 H 0.023305 0.246768 0.436457 0.064 Uiso 1 1 calc R
C12 C 0.3661(7) 0.5940(7) 0.2412(3) 0.0485(17) Uani 1 1 d .
C5 C 0.1549(8) 0.3241(7) 0.2714(3) 0.0602(19) Uani 1 1 d .
H5A H 0.191996 0.305989 0.231866 0.090 Uiso 1 1 calc GR
H5B H 0.061460 0.294014 0.273278 0.090 Uiso 1 1 calc GR
H5C H 0.208421 0.279341 0.301695 0.090 Uiso 1 1 calc GR
C8 C 0.1071(9) 0.0718(8) 0.4170(3) 0.060(2) Uani 1 1 d .
H8 H 0.024641 0.027112 0.411478 0.072 Uiso 1 1 calc R
C13 C 0.5057(9) 0.6605(9) 0.2489(4) 0.072(2) Uani 1 1 d .
H13A H 0.529303 0.663002 0.291268 0.108 Uiso 1 1 calc GR
H13B H 0.501283 0.748510 0.233263 0.108 Uiso 1 1 calc GR
H13C H 0.574200 0.611664 0.227058 0.108 Uiso 1 1 calc GR
C15 C 0.2823(10) 0.5138(8) 0.1425(3) 0.068(2) Uani 1 1 d .
H15A H 0.250693 0.527740 0.103156 0.082 Uiso 1 1 calc R
H15B H 0.299918 0.428719 0.156021 0.082 Uiso 1 1 calc R
C22 C 0.2129(12) 1.1941(8) 0.0578(4) 0.090(3) Uani 1 1 d .
H22A H 0.149350 1.142039 0.034729 0.135 Uiso 1 1 calc GR
H22B H 0.303498 1.184743 0.041076 0.135 Uiso 1 1 calc GR
H22C H 0.185834 1.284855 0.056219 0.135 Uiso 1 1 calc GR
loop_
_atom_site_aniso_label
_atom_site_aniso_U_11
_atom_site_aniso_U_22
_atom_site_aniso_U_33
_atom_site_aniso_U_23
_atom_site_aniso_U_13
_atom_site_aniso_U_12
Br1 0.1363(11) 0.0656(5) 0.0686(5) -0.0136(4) 0.0045(7) -0.0057(6)
S1 0.0503(10) 0.0565(9) 0.0328(6) -0.0014(6) 0.0010(9) 0.0026(8)
O1 0.061(3) 0.066(3) 0.041(3) -0.002(2) -0.014(3) -0.012(3)
O2 0.072(4) 0.070(4) 0.048(3) -0.007(3) 0.019(3) 0.012(3)
O3 0.104(5) 0.066(3) 0.050(3) 0.003(2) -0.013(3) -0.018(3)
N1 0.042(3) 0.049(3) 0.040(2) -0.002(2) 0.001(3) 0.002(2)
C2 0.034(4) 0.060(4) 0.035(3) 0.004(3) -0.006(3) 0.004(3)
C18 0.043(4) 0.066(4) 0.045(3) -0.005(3) -0.009(4) -0.005(4)
C6 0.040(4) 0.059(4) 0.033(3) 0.002(3) 0.003(3) -0.004(3)
C16 0.029(3) 0.073(4) 0.037(3) -0.001(3) 0.000(3) -0.012(3)
C4 0.049(4) 0.053(4) 0.043(4) 0.000(3) 0.002(3) 0.011(3)
C17 0.040(4) 0.069(4) 0.034(3) 0.003(3) -0.001(3) -0.004(3)
C14 0.035(4) 0.082(5) 0.036(3) 0.009(3) 0.005(3) 0.004(3)
C9 0.076(6) 0.065(4) 0.044(3) 0.001(3) 0.002(5) -0.006(5)
C19 0.054(5) 0.055(4) 0.051(3) 0.003(3) -0.005(4) -0.012(4)
C21 0.045(4) 0.071(4) 0.039(3) 0.004(3) -0.008(3) 0.005(3)
C10 0.047(5) 0.069(5) 0.054(5) 0.005(4) 0.003(4) 0.011(4)
C1 0.039(4) 0.070(5) 0.048(4) 0.007(4) -0.006(4) -0.005(3)
C3 0.043(4) 0.062(4) 0.044(4) -0.005(3) -0.002(3) 0.005(3)
C20 0.045(4) 0.089(5) 0.035(3) 0.007(3) -0.003(4) -0.005(4)
C11 0.042(4) 0.062(5) 0.045(4) 0.003(4) 0.004(3) 0.006(3)
C7 0.043(4) 0.069(5) 0.049(4) 0.012(4) 0.004(4) -0.005(3)
C12 0.038(4) 0.070(5) 0.037(3) 0.001(3) 0.001(3) 0.006(3)
C5 0.056(5) 0.059(4) 0.066(5) -0.012(4) 0.005(4) 0.003(4)
C8 0.059(5) 0.072(5) 0.049(4) 0.002(4) -0.002(4) -0.019(4)
C13 0.047(5) 0.105(7) 0.064(5) 0.023(4) -0.011(4) -0.013(5)
C15 0.083(6) 0.078(5) 0.043(4) 0.009(4) -0.004(5) 0.002(5)
C22 0.155(10) 0.056(5) 0.059(5) 0.004(4) -0.016(6) -0.011(6)
loop_
_atom_type_symbol
_atom_type_description
_atom_type_scat_dispersion_real
_atom_type_scat_dispersion_imag
_atom_type_scat_source
C C 0.0033 0.0016 'International Tables Vol C Tables 4.2.6.8 and 6.1.1.4'
H H 0.0000 0.0000 'International Tables Vol C Tables 4.2.6.8 and 6.1.1.4'
Br Br -0.2901 2.4595 'International Tables Vol C Tables 4.2.6.8 and 6.1.1.4'
N N 0.0061 0.0033 'International Tables Vol C Tables 4.2.6.8 and 6.1.1.4'
O O 0.0106 0.0060 'International Tables Vol C Tables 4.2.6.8 and 6.1.1.4'
S S 0.1246 0.1234 'International Tables Vol C Tables 4.2.6.8 and 6.1.1.4'
loop_
_geom_angle_atom_site_label_1
_geom_angle_atom_site_label_2
_geom_angle_atom_site_label_3
_geom_angle
O1 S1 O2 119.9(3)
O1 S1 N1 107.6(3)
O1 S1 C6 107.6(3)
O2 S1 N1 107.3(3)
O2 S1 C6 107.7(3)
N1 S1 C6 106.0(3)
C19 O3 C22 117.3(6)
C4 N1 S1 118.6(4)
C1 N1 S1 120.3(5)
C1 N1 C4 111.3(4)
C1 C2 C3 107.2(6)
C12 C2 C1 125.8(6)
C12 C2 C3 126.8(6)
C17 C18 H18 120.1
C17 C18 C19 119.8(6)
C19 C18 H18 120.1
C11 C6 S1 119.5(5)
C7 C6 S1 121.7(6)
C7 C6 C11 118.7(6)
C17 C16 C14 122.6(6)
C17 C16 C21 116.3(6)
C21 C16 C14 121.1(6)
N1 C4 H4A 110.9
N1 C4 H4B 110.9
N1 C4 C3 104.3(5)
H4A C4 H4B 108.9
C3 C4 H4A 110.9
C3 C4 H4B 110.9
C18 C17 C16 123.5(6)
C18 C17 H17 118.2
C16 C17 H17 118.2
C16 C14 C12 115.5(6)
C15 C14 C16 124.3(6)
C15 C14 C12 119.9(7)
C10 C9 Br1 120.2(7)
C10 C9 C8 120.4(7)
C8 C9 Br1 119.4(7)
O3 C19 C18 115.9(6)
C20 C19 O3 124.1(6)
C20 C19 C18 120.0(6)
C16 C21 H21 119.6
C16 C21 C20 120.8(6)
C20 C21 H21 119.6
C9 C10 H10 119.8
C11 C10 C9 120.5(7)
C11 C10 H10 119.8
N1 C1 C2 103.1(6)
N1 C1 H1A 111.1
N1 C1 H1B 111.1
C2 C1 H1A 111.1
C2 C1 H1B 111.1
H1A C1 H1B 109.1
C2 C3 C4 101.9(6)
C2 C3 H3 110.1
C2 C3 C5 113.7(6)
C4 C3 H3 110.1
C5 C3 C4 110.7(6)
C5 C3 H3 110.1
C19 C20 C21 119.6(6)
C19 C20 H20 120.2
C21 C20 H20 120.2
C6 C11 H11 120.0
C10 C11 C6 120.1(7)
C10 C11 H11 120.0
C6 C7 H7 119.7
C6 C7 C8 120.6(7)
C8 C7 H7 119.7
C2 C12 C14 122.5(7)
C2 C12 C13 123.7(6)
C14 C12 C13 113.8(6)
C3 C5 H5A 109.5
C3 C5 H5B 109.5
C3 C5 H5C 109.5
H5A C5 H5B 109.5
H5A C5 H5C 109.5
H5B C5 H5C 109.5
C9 C8 H8 120.1
C7 C8 C9 119.8(7)
C7 C8 H8 120.1
C12 C13 H13A 109.5
C12 C13 H13B 109.5
C12 C13 H13C 109.5
H13A C13 H13B 109.5
H13A C13 H13C 109.5
H13B C13 H13C 109.5
C14 C15 H15A 120.0
C14 C15 H15B 120.0
H15A C15 H15B 120.0
O3 C22 H22A 109.5
O3 C22 H22B 109.5
O3 C22 H22C 109.5
H22A C22 H22B 109.5
H22A C22 H22C 109.5
H22B C22 H22C 109.5
loop_
_geom_bond_atom_site_label_1
_geom_bond_atom_site_label_2
_geom_bond_distance
Br1 C9 1.908(7)
S1 O1 1.414(5)
S1 O2 1.427(6)
S1 N1 1.613(5)
S1 C6 1.767(7)
O3 C19 1.370(8)
O3 C22 1.440(9)
N1 C4 1.483(9)
N1 C1 1.473(9)
C2 C1 1.493(9)
C2 C3 1.507(9)
C2 C12 1.329(9)
C18 H18 0.9300
C18 C17 1.360(9)
C18 C19 1.394(9)
C6 C11 1.409(10)
C6 C7 1.369(10)
C16 C17 1.383(9)
C16 C14 1.477(10)
C16 C21 1.411(8)
C4 H4A 0.9700
C4 H4B 0.9700
C4 C3 1.548(9)
C17 H17 0.9300
C14 C12 1.506(9)
C14 C15 1.330(10)
C9 C10 1.363(11)
C9 C8 1.376(11)
C19 C20 1.365(10)
C21 H21 0.9300
C21 C20 1.421(10)
C10 H10 0.9300
C10 C11 1.354(11)
C1 H1A 0.9700
C1 H1B 0.9700
C3 H3 0.9800
C3 C5 1.532(10)
C20 H20 0.9300
C11 H11 0.9300
C7 H7 0.9300
C7 C8 1.372(11)
C12 C13 1.526(11)
C5 H5A 0.9600
C5 H5B 0.9600
C5 H5C 0.9600
C8 H8 0.9300
C13 H13A 0.9600
C13 H13B 0.9600
C13 H13C 0.9600
C15 H15A 0.9300
C15 H15B 0.9300
C22 H22A 0.9600
C22 H22B 0.9600
C22 H22C 0.9600
loop_
_geom_torsion_atom_site_label_1
_geom_torsion_atom_site_label_2
_geom_torsion_atom_site_label_3
_geom_torsion_atom_site_label_4
_geom_torsion
Br1 C9 C10 C11 -178.4(6)
Br1 C9 C8 C7 178.4(6)
S1 N1 C4 C3 -137.0(5)
S1 N1 C1 C2 158.0(4)
S1 C6 C11 C10 -175.9(6)
S1 C6 C7 C8 175.8(6)
O1 S1 N1 C4 -174.7(5)
O1 S1 N1 C1 42.4(6)
O1 S1 C6 C11 -25.4(6)
O1 S1 C6 C7 156.5(5)
O2 S1 N1 C4 -44.3(5)
O2 S1 N1 C1 172.7(5)
O2 S1 C6 C11 -156.0(5)
O2 S1 C6 C7 26.0(6)
O3 C19 C20 C21 179.1(7)
N1 S1 C6 C11 89.5(6)
N1 S1 C6 C7 -88.6(6)
N1 C4 C3 C2 -26.6(6)
N1 C4 C3 C5 94.6(7)
C18 C19 C20 C21 0.8(11)
C6 S1 N1 C4 70.5(5)
C6 S1 N1 C1 -72.5(5)
C6 C7 C8 C9 1.4(12)
C16 C14 C12 C2 117.8(8)
C16 C14 C12 C13 -59.2(9)
C16 C21 C20 C19 -0.3(11)
C4 N1 C1 C2 12.6(7)
C17 C18 C19 O3 -179.5(7)
C17 C18 C19 C20 -1.0(11)
C17 C16 C14 C12 -32.2(10)
C17 C16 C14 C15 153.3(8)
C17 C16 C21 C20 0.0(10)
C14 C16 C17 C18 178.7(7)
C14 C16 C21 C20 -179.0(6)
C9 C10 C11 C6 -1.3(12)
C19 C18 C17 C16 0.8(11)
C21 C16 C17 C18 -0.3(10)
C21 C16 C14 C12 146.7(6)
C21 C16 C14 C15 -27.7(11)
C10 C9 C8 C7 -0.4(11)
C1 N1 C4 C3 9.1(6)
C1 C2 C3 C4 35.7(7)
C1 C2 C3 C5 -83.5(7)
C1 C2 C12 C14 -178.1(7)
C1 C2 C12 C13 -1.4(12)
C3 C2 C1 N1 -30.3(7)
C3 C2 C12 C14 -3.7(12)
C3 C2 C12 C13 173.0(7)
C11 C6 C7 C8 -2.3(10)
C7 C6 C11 C10 2.2(10)
C12 C2 C1 N1 145.0(7)
C12 C2 C3 C4 -139.6(7)
C12 C2 C3 C5 101.2(8)
C8 C9 C10 C11 0.4(11)
C15 C14 C12 C2 -67.5(10)
C15 C14 C12 C13 115.5(8)
C22 O3 C19 C18 -175.9(7)
C22 O3 C19 C20 5.7(12)
