#------------------------------------------------------------------------------
#$Date: 2017-11-07 03:16:16 +0200 (Tue, 07 Nov 2017) $
#$Revision: 202799 $
#$URL: file:///home/coder/svn-repositories/cod/cif/1/54/71/1547131.cif $
#------------------------------------------------------------------------------
#
# This file is available in the Crystallography Open Database (COD),
# http://www.crystallography.net/
#
# All data on this site have been placed in the public domain by the
# contributors.
#
data_1547131
loop_
_publ_author_name
'Yang, Meng-Nan'
'Yan, Dong-Mei'
'Zhao, Quan-Qing'
'Chen, Jia-Rong'
'Xiao, Wen-Jing'
_publ_section_title
;
 Synthesis of Dihydropyrazoles via Ligand-Free Pd-Catalyzed Alkene
 Aminoarylation of Unsaturated Hydrazones with Diaryliodonium Salts.
;
_journal_issue                   19
_journal_name_full               'Organic letters'
_journal_page_first              5208
_journal_page_last               5211
_journal_paper_doi               10.1021/acs.orglett.7b02480
_journal_volume                  19
_journal_year                    2017
_chemical_formula_moiety         'C23 H22 N2 O2 S'
_chemical_formula_sum            'C23 H22 N2 O2 S'
_chemical_formula_weight         390.48
_chemical_name_systematic
;
 ? 
;
_space_group_crystal_system      monoclinic
_space_group_IT_number           15
_space_group_name_Hall           '-C 2yc'
_space_group_name_H-M_alt        'C 1 2/c 1'
_symmetry_space_group_name_Hall  '-C 2yc'
_symmetry_space_group_name_H-M   'C 1 2/c 1'
_atom_sites_solution_hydrogens   geom
_atom_sites_solution_primary     direct
_audit_creation_date             2017-08-10
_audit_creation_method
;
Olex2 1.2
(compiled 2017.07.20 svn.r3457 for OlexSys, GUI svn.r5370)
;
_cell_angle_alpha                90
_cell_angle_beta                 130.31
_cell_angle_gamma                90
_cell_formula_units_Z            8
_cell_length_a                   25.609(7)
_cell_length_b                   10.536(3)
_cell_length_c                   19.793(5)
_cell_measurement_reflns_used    6618
_cell_measurement_temperature    296(2)
_cell_measurement_theta_max      29.261
_cell_measurement_theta_min      2.196
_cell_volume                     4072.4(19)
_computing_cell_refinement       'SAINT v7.68A (Bruker, 2009)'
_computing_data_collection       'Bruker APEX2'
_computing_data_reduction        'SAINT v7.68A (Bruker, 2009)'
_computing_molecular_graphics    'Olex2 (Dolomanov et al., 2009)'
_computing_publication_material  'Olex2 (Dolomanov et al., 2009)'
_computing_structure_refinement  'ShelXL (Sheldrick, 2015)'
_computing_structure_solution    'ShelXS (Sheldrick, 2008)'
_diffrn_ambient_temperature      296.15
_diffrn_measured_fraction_theta_full 0.999
_diffrn_measured_fraction_theta_max 0.986
_diffrn_measurement_device_type  'Bruker APEX-II CCD'
_diffrn_measurement_method       '\f and \w scans'
_diffrn_radiation_type           MoK\a
_diffrn_radiation_wavelength     0.71073
_diffrn_reflns_av_R_equivalents  0.0955
_diffrn_reflns_av_unetI/netI     0.0568
_diffrn_reflns_Laue_measured_fraction_full 0.999
_diffrn_reflns_Laue_measured_fraction_max 0.986
_diffrn_reflns_limit_h_max       35
_diffrn_reflns_limit_h_min       -35
_diffrn_reflns_limit_k_max       14
_diffrn_reflns_limit_k_min       -14
_diffrn_reflns_limit_l_max       27
_diffrn_reflns_limit_l_min       -24
_diffrn_reflns_number            20357
_diffrn_reflns_point_group_measured_fraction_full 0.999
_diffrn_reflns_point_group_measured_fraction_max 0.986
_diffrn_reflns_theta_full        25.242
_diffrn_reflns_theta_max         29.980
_diffrn_reflns_theta_min         2.086
_exptl_absorpt_coefficient_mu    0.180
_exptl_absorpt_correction_T_max  0.9718
_exptl_absorpt_correction_T_min  0.9650
_exptl_absorpt_correction_type   multi-scan
_exptl_absorpt_process_details   SADABS
_exptl_crystal_colour            colorless
_exptl_crystal_density_diffrn    1.274
_exptl_crystal_density_method    'not measured'
_exptl_crystal_description       block
_exptl_crystal_F_000             1648
_exptl_crystal_size_max          0.2
_exptl_crystal_size_mid          0.2
_exptl_crystal_size_min          0.16
_refine_diff_density_max         0.577
_refine_diff_density_min         -0.389
_refine_diff_density_rms         0.057
_refine_ls_extinction_method     none
_refine_ls_goodness_of_fit_ref   1.063
_refine_ls_hydrogen_treatment    constr
_refine_ls_matrix_type           full
_refine_ls_number_parameters     254
_refine_ls_number_reflns         5859
_refine_ls_number_restraints     22
_refine_ls_restrained_S_all      1.126
_refine_ls_R_factor_all          0.0760
_refine_ls_R_factor_gt           0.0540
_refine_ls_shift/su_max          0.008
_refine_ls_shift/su_mean         0.000
_refine_ls_structure_factor_coef Fsqd
_refine_ls_weighting_details
'w=1/[\s^2^(Fo^2^)+(0.0883P)^2^+0.7254P] where P=(Fo^2^+2Fc^2^)/3'
_refine_ls_weighting_scheme      calc
_refine_ls_wR_factor_gt          0.1531
_refine_ls_wR_factor_ref         0.1693
_reflns_Friedel_coverage         0.000
_reflns_number_gt                4124
_reflns_number_total             5859
_reflns_threshold_expression     'I > 2\s(I)'
_iucr_refine_instructions_details
;
TITL T in C2/c
    t.res
    created by SHELXL-2017/1 at 09:06:43 on 10-Aug-2017
CELL 0.71073 25.6093 10.5365 19.7933 90 130.31 90
ZERR 8 0.007 0.0029 0.0054 0 0 0
LATT 7
SYMM -X,+Y,0.5-Z
SFAC C H N O S
UNIT 184 176 16 16 8
DELU C15 C16 C17
DELU C15 C16
DELU C14 C15
SIMU 0.005 0.01 2 C15 C16 C17
SIMU 0.001 0.002 2 C15 C16
SIMU 0.001 0.002 2 C14 C15

L.S. 10
PLAN  20
SIZE 0.2 0.2 0.16
TEMP 23
BOND $H
HTAB
CONF
fmap 2
acta
REM <olex2.extras>
REM <HklSrc "%.\\T.hkl">
REM </olex2.extras>

WGHT    0.088300    0.725400
FVAR       0.08958
C1    1    0.270101    1.016692    0.446938    11.00000    0.03748    0.04674 =
         0.03852   -0.00297    0.02446   -0.00011
C2    1    0.293043    0.963625    0.526053    11.00000    0.05413    0.04759 =
         0.04806   -0.00029    0.03564   -0.00649
AFIX  43
H2    2    0.282260    0.880085    0.527836    11.00000   -1.20000
AFIX   0
C3    1    0.331974    1.035940    0.601978    11.00000    0.05601    0.06027 =
         0.03974    0.00084    0.03134   -0.00265
AFIX  43
H3    2    0.346955    1.000798    0.655005    11.00000   -1.20000
AFIX   0
C4    1    0.349304    1.160321    0.600921    11.00000    0.04425    0.05093 =
         0.04201   -0.00457    0.02503    0.00140
C5    1    0.326524    1.210533    0.521070    11.00000    0.05463    0.04005 =
         0.05116   -0.00027    0.02958   -0.00074
AFIX  43
H5    2    0.338004    1.293547    0.519430    11.00000   -1.20000
AFIX   0
C6    1    0.287229    1.140055    0.444067    11.00000    0.04939    0.04583 =
         0.04062    0.00539    0.02547    0.00441
AFIX  43
H6    2    0.272472    1.174840    0.391061    11.00000   -1.20000
AFIX   0
C7    1    0.392252    1.237373    0.684497    11.00000    0.07295    0.06877 =
         0.04941   -0.01357    0.02992   -0.00443
AFIX 137
H7A   2    0.439558    1.214806    0.718645    11.00000   -1.50000
H7B   2    0.378301    1.220645    0.718466    11.00000   -1.50000
H7C   2    0.386377    1.325967    0.669853    11.00000   -1.50000
AFIX   0
C8    1    0.326910    0.772533    0.404711    11.00000    0.03951    0.04137 =
         0.03535    0.00265    0.02168    0.00440
AFIX  13
H8    2    0.343721    0.798764    0.463294    11.00000   -1.20000
AFIX   0
C9    1    0.382669    0.795123    0.399099    11.00000    0.04938    0.04494 =
         0.05652    0.00995    0.03584    0.01010
AFIX  23
H9A   2    0.427855    0.790721    0.457134    11.00000   -1.20000
H9B   2    0.379810    0.734116    0.360113    11.00000   -1.20000
AFIX   0
C10   1    0.366861    0.926707    0.361727    11.00000    0.04401    0.04284 =
         0.03679    0.00326    0.02574    0.00539
C11   1    0.302239    0.635791    0.387948    11.00000    0.04821    0.04516 =
         0.04406   -0.00078    0.02610   -0.00168
AFIX  23
H11A  2    0.264289    0.629338    0.387614    11.00000   -1.20000
H11B  2    0.286554    0.607964    0.330743    11.00000   -1.20000
AFIX   0
C12   1    0.360405    0.553606    0.459921    11.00000    0.05281    0.03954 =
         0.04652    0.00324    0.03046   -0.00361
C13   1    0.391381    0.469342    0.441697    11.00000    0.08030    0.06015 =
         0.06373    0.01666    0.04825    0.01828
AFIX  43
H13   2    0.373252    0.458233    0.383479    11.00000   -1.20000
AFIX   0
C14   1    0.448270    0.402174    0.508071    11.00000    0.08405    0.07660 =
         0.07889    0.02603    0.04307    0.02193
AFIX  43
H14   2    0.468370    0.345374    0.494891    11.00000   -1.20000
AFIX   0
C15   1    0.475254    0.418827    0.593292    11.00000    0.08756    0.07581 =
         0.07538    0.02685    0.03340    0.01400
AFIX  43
H15   2    0.514966    0.375704    0.638597    11.00000   -1.20000
AFIX   0
C16   1    0.444753    0.498038    0.613093    11.00000    0.09249    0.07308 =
         0.05821    0.02312    0.03160    0.00143
AFIX  43
H16   2    0.462962    0.506864    0.671495    11.00000   -1.20000
AFIX   0
C17   1    0.386617    0.565515    0.546344    11.00000    0.08179    0.04915 =
         0.04829    0.00217    0.03823   -0.00650
AFIX  43
H17   2    0.365372    0.618562    0.559720    11.00000   -1.20000
AFIX   0
C18   1    0.412940    1.004876    0.359626    11.00000    0.04501    0.04614 =
         0.03711    0.00182    0.02520    0.00217
C19   1    0.475901    0.955967    0.391513    11.00000    0.05550    0.05074 =
         0.07028    0.00250    0.04312    0.00427
AFIX  43
H19   2    0.488771    0.874654    0.415430    11.00000   -1.20000
AFIX   0
C20   1    0.519235    1.027240    0.387859    11.00000    0.05676    0.07326 =
         0.08951   -0.00815    0.05069   -0.00563
AFIX  43
H20   2    0.560914    0.993355    0.408913    11.00000   -1.20000
AFIX   0
C21   1    0.501413    1.146821    0.353651    11.00000    0.06136    0.07785 =
         0.06671    0.00153    0.03775   -0.01978
AFIX  43
H21   2    0.530382    1.193639    0.350156    11.00000   -1.20000
AFIX   0
C22   1    0.440560    1.198189    0.324308    11.00000    0.06138    0.06171 =
         0.06921    0.01695    0.03014   -0.00871
AFIX  43
H22   2    0.429181    1.280920    0.302864    11.00000   -1.20000
AFIX   0
C23   1    0.396159    1.127656    0.326469    11.00000    0.04771    0.05346 =
         0.05429    0.01271    0.02534    0.00366
AFIX  43
H23   2    0.354743    1.162754    0.305547    11.00000   -1.20000
AFIX   0
N1    3    0.274064    0.865399    0.336822    11.00000    0.03973    0.04321 =
         0.03796    0.00251    0.02325    0.00451
N2    3    0.306563    0.964141    0.327035    11.00000    0.04399    0.04563 =
         0.03804    0.00627    0.02586    0.00608
O1    4    0.195963    0.817275    0.365801    11.00000    0.05152    0.06166 =
         0.06617   -0.01751    0.04025   -0.01708
O2    4    0.174747    1.005242    0.276499    11.00000    0.04333    0.07319 =
         0.04467   -0.00142    0.01877    0.01648
S1    5    0.220880    0.924521    0.350274    11.00000    0.03614    0.05243 =
         0.04043   -0.00593    0.02199    0.00019
HKLF 4




REM  T in C2/c
REM R1 =  0.0540 for    4124 Fo > 4sig(Fo)  and  0.0760 for all    5859 data
REM    254 parameters refined using     22 restraints

END  
     
WGHT      0.0883      0.7261 

REM Instructions for potential hydrogen bonds
HTAB C11 O1

REM Highest difference peak  0.577,  deepest hole -0.389,  1-sigma level  0.057
Q1    1   0.4745  0.4716  0.6223  11.00000  0.05    0.58
Q2    1   0.4706  0.4379  0.5485  11.00000  0.05    0.45
Q3    1   0.4228  0.5257  0.6131  11.00000  0.05    0.33
Q4    1   0.4226  0.3690  0.4808  11.00000  0.05    0.29
Q5    1   0.2487  0.8898  0.3422  11.00000  0.05    0.23
Q6    1   0.4211  1.1797  0.7398  11.00000  0.05    0.22
Q7    1   0.3535  0.7771  0.3989  11.00000  0.05    0.22
Q8    1   0.3788  0.8757  0.3874  11.00000  0.05    0.21
Q9    1   0.4317  1.2846  0.6910  11.00000  0.05    0.21
Q10   1   0.3570  1.2892  0.6799  11.00000  0.05    0.20
Q11   1   0.3795  0.5360  0.4473  11.00000  0.05    0.20
Q12   1   0.1870  1.0714  0.2738  11.00000  0.05    0.18
Q13   1   0.3477  0.9551  0.3676  11.00000  0.05    0.18
Q14   1   0.1235  0.9402  0.2507  11.00000  0.05    0.18
Q15   1   0.1833  0.8849  0.3496  11.00000  0.05    0.17
Q16   1   0.3841  0.9496  0.3495  11.00000  0.05    0.17
Q17   1   0.2026  0.9856  0.3231  11.00000  0.05    0.17
Q18   1   0.1602  0.8148  0.3484  11.00000  0.05    0.17
Q19   1   0.4139  1.1446  0.3088  11.00000  0.05    0.17
Q20   1   0.4948  0.4194  0.4919  11.00000  0.05    0.17

  REM The information below was added by Olex2.
  REM
  REM R1 = 0.0540 for 4124 Fo > 4sig(Fo) and 0.0760 for all 20907 data
  REM n/a parameters refined using n/a restraints
  REM Highest difference peak 0.58, deepest hole -0.39
  REM Mean Shift 0, Max Shift 0.008.

  REM +++ Tabular Listing of Refinement Information +++
  REM R1_all = 0.0760
  REM R1_gt = 0.0540
  REM wR_ref = 0.1693
  REM GOOF = 1.063
  REM Shift_max = 0.008
  REM Shift_mean = 0
  REM Reflections_all = 20907
  REM Reflections_gt = 4124
  REM Parameters = n/a
  REM Hole = -0.39
  REM Peak = 0.58
  REM Flack = n/a

  
;
_cod_data_source_file            ol7b02480_si_003.cif
_cod_data_source_block           t
_cod_depositor_comments
;
The following automatic conversions were performed:

'_exptl_absorpt_correction_type' value 'Multi-scan' changed to
'multi-scan' according to
/home/data/users/saulius/crontab/automatic-downloads/rss-feeds/ACS/lib/dictionaries/cif_core.dic
dictionary named 'cif_core.dic' version 2.4.2 from 2011-04-26.

Automatic conversion script
Id: cif_fix_values 4973 2017-02-22 13:04:09Z antanas 

 Adding full bibliography for 1547130--1547132.cif.
;
_cod_original_cell_volume        4072.7(19)
_cod_database_code               1547131
_shelx_shelxl_version_number     2017/1
_shelx_space_group_comment
;
The symmetry employed for this shelxl refinement is uniquely defined
by the following loop, which should always be used as a source of
symmetry information in preference to the above space-group names.
They are only intended as comments.
;
_shelx_estimated_absorpt_t_max   0.972
_shelx_estimated_absorpt_t_min   0.965
_olex2_refinement_description
;
1. Fixed Uiso
 At 1.2 times of:
  All C(H) groups, All C(H,H) groups
 At 1.5 times of:
  All C(H,H,H) groups
2. Rigid bond restraints
 C15, C16, C17
 with sigma for 1-2 distances of 0.01 and sigma for 1-3 distances of 0.01
 C15, C16
 with sigma for 1-2 distances of 0.01 and sigma for 1-3 distances of 0.01
 C14, C15
 with sigma for 1-2 distances of 0.01 and sigma for 1-3 distances of 0.01
3. Uiso/Uaniso restraints and constraints
C15 \\sim C16 \\sim C17: within 2A with sigma of 0.005 and sigma for terminal
atoms of 0.01
C15 \\sim C16: within 2A with sigma of 0.001 and sigma for terminal atoms of
0.002
C14 \\sim C15: within 2A with sigma of 0.001 and sigma for terminal atoms of
0.002
4.a Ternary CH refined with riding coordinates:
 C8(H8)
4.b Secondary CH2 refined with riding coordinates:
 C9(H9A,H9B), C11(H11A,H11B)
4.c Aromatic/amide H refined with riding coordinates:
 C2(H2), C3(H3), C5(H5), C6(H6), C13(H13), C14(H14), C15(H15), C16(H16),
 C17(H17), C19(H19), C20(H20), C21(H21), C22(H22), C23(H23)
4.d Idealised Me refined as rotating group:
 C7(H7A,H7B,H7C)
;
_olex2_submission_special_instructions 'No special instructions were received'
loop_
_space_group_symop_operation_xyz
'x, y, z'
'-x, y, -z+1/2'
'x+1/2, y+1/2, z'
'-x+1/2, y+1/2, -z+1/2'
'-x, -y, -z'
'x, -y, z-1/2'
'-x+1/2, -y+1/2, -z'
'x+1/2, -y+1/2, z-1/2'
loop_
_atom_site_label
_atom_site_type_symbol
_atom_site_fract_x
_atom_site_fract_y
_atom_site_fract_z
_atom_site_U_iso_or_equiv
_atom_site_adp_type
_atom_site_occupancy
_atom_site_site_symmetry_order
_atom_site_calc_flag
_atom_site_refinement_flags_posn
_atom_site_refinement_flags_adp
C1 C 0.27010(8) 1.01669(16) 0.44694(10) 0.0410(3) Uani 1 1 d . .
C2 C 0.29304(9) 0.96363(17) 0.52605(12) 0.0480(4) Uani 1 1 d . .
H2 H 0.282260 0.880085 0.527836 0.058 Uiso 1 1 calc R .
C3 C 0.33197(10) 1.03594(19) 0.60198(12) 0.0517(4) Uani 1 1 d . .
H3 H 0.346955 1.000798 0.655005 0.062 Uiso 1 1 calc R .
C4 C 0.34930(9) 1.16032(17) 0.60092(11) 0.0479(4) Uani 1 1 d . .
C5 C 0.32652(9) 1.21053(17) 0.52107(12) 0.0520(4) Uani 1 1 d . .
H5 H 0.338004 1.293547 0.519430 0.062 Uiso 1 1 calc R .
C6 C 0.28723(9) 1.14005(16) 0.44407(11) 0.0480(4) Uani 1 1 d . .
H6 H 0.272472 1.174840 0.391061 0.058 Uiso 1 1 calc R .
C7 C 0.39225(12) 1.2374(2) 0.68450(14) 0.0709(6) Uani 1 1 d . .
H7A H 0.439558 1.214806 0.718645 0.106 Uiso 1 1 calc GR .
H7B H 0.378301 1.220645 0.718466 0.106 Uiso 1 1 calc GR .
H7C H 0.386377 1.325967 0.669853 0.106 Uiso 1 1 calc GR .
C8 C 0.32691(8) 0.77253(15) 0.40471(10) 0.0406(3) Uani 1 1 d . .
H8 H 0.343721 0.798764 0.463294 0.049 Uiso 1 1 calc R .
C9 C 0.38267(9) 0.79512(17) 0.39910(13) 0.0491(4) Uani 1 1 d . .
H9A H 0.427855 0.790721 0.457134 0.059 Uiso 1 1 calc R .
H9B H 0.379810 0.734116 0.360113 0.059 Uiso 1 1 calc R .
C10 C 0.36686(8) 0.92671(15) 0.36173(10) 0.0415(3) Uani 1 1 d . .
C11 C 0.30224(9) 0.63579(16) 0.38795(11) 0.0486(4) Uani 1 1 d . .
H11A H 0.264289 0.629338 0.387614 0.058 Uiso 1 1 calc R .
H11B H 0.286554 0.607964 0.330743 0.058 Uiso 1 1 calc R .
C12 C 0.36040(9) 0.55361(16) 0.45992(12) 0.0475(4) Uani 1 1 d . .
C13 C 0.39138(12) 0.4693(2) 0.44170(15) 0.0668(6) Uani 1 1 d . .
H13 H 0.373252 0.458233 0.383479 0.080 Uiso 1 1 calc R .
C14 C 0.44827(14) 0.4022(3) 0.50807(19) 0.0870(6) Uani 1 1 d . U
H14 H 0.468370 0.345374 0.494891 0.104 Uiso 1 1 calc R .
C15 C 0.47525(16) 0.4188(3) 0.59329(19) 0.0939(7) Uani 1 1 d . U
H15 H 0.514966 0.375704 0.638597 0.113 Uiso 1 1 calc R .
C16 C 0.44475(14) 0.4980(3) 0.61309(17) 0.0873(7) Uani 1 1 d . U
H16 H 0.462962 0.506864 0.671495 0.105 Uiso 1 1 calc R .
C17 C 0.38662(12) 0.56552(19) 0.54634(13) 0.0626(5) Uani 1 1 d . U
H17 H 0.365372 0.618562 0.559720 0.075 Uiso 1 1 calc R .
C18 C 0.41294(8) 1.00488(16) 0.35963(10) 0.0438(4) Uani 1 1 d . .
C19 C 0.47590(10) 0.95597(19) 0.39151(14) 0.0570(5) Uani 1 1 d . .
H19 H 0.488771 0.874654 0.415430 0.068 Uiso 1 1 calc R .
C20 C 0.51923(11) 1.0272(2) 0.38786(17) 0.0707(6) Uani 1 1 d . .
H20 H 0.560914 0.993355 0.408913 0.085 Uiso 1 1 calc R .
C21 C 0.50141(11) 1.1468(2) 0.35365(15) 0.0714(6) Uani 1 1 d . .
H21 H 0.530382 1.193639 0.350156 0.086 Uiso 1 1 calc R .
C22 C 0.44056(12) 1.1982(2) 0.32431(16) 0.0731(6) Uani 1 1 d . .
H22 H 0.429181 1.280920 0.302864 0.088 Uiso 1 1 calc R .
C23 C 0.39616(10) 1.12766(19) 0.32647(13) 0.0575(5) Uani 1 1 d . .
H23 H 0.354743 1.162754 0.305547 0.069 Uiso 1 1 calc R .
N1 N 0.27406(7) 0.86540(13) 0.33682(9) 0.0417(3) Uani 1 1 d . .
N2 N 0.30656(7) 0.96414(13) 0.32704(8) 0.0431(3) Uani 1 1 d . .
O1 O 0.19596(7) 0.81727(13) 0.36580(9) 0.0582(3) Uani 1 1 d . .
O2 O 0.17475(6) 1.00524(15) 0.27650(8) 0.0609(4) Uani 1 1 d . .
S1 S 0.22088(2) 0.92452(4) 0.35027(3) 0.04506(14) Uani 1 1 d . .
loop_
_atom_site_aniso_label
_atom_site_aniso_U_11
_atom_site_aniso_U_22
_atom_site_aniso_U_33
_atom_site_aniso_U_23
_atom_site_aniso_U_13
_atom_site_aniso_U_12
C1 0.0375(7) 0.0467(8) 0.0385(7) -0.0030(6) 0.0245(6) -0.0001(6)
C2 0.0541(10) 0.0476(9) 0.0481(9) -0.0003(7) 0.0356(8) -0.0065(7)
C3 0.0560(10) 0.0603(11) 0.0397(8) 0.0008(8) 0.0313(8) -0.0027(8)
C4 0.0442(8) 0.0509(9) 0.0420(8) -0.0046(7) 0.0250(7) 0.0014(7)
C5 0.0546(10) 0.0400(8) 0.0512(9) -0.0003(7) 0.0296(8) -0.0007(7)
C6 0.0494(9) 0.0458(9) 0.0406(8) 0.0054(7) 0.0255(7) 0.0044(7)
C7 0.0730(14) 0.0688(13) 0.0494(11) -0.0136(10) 0.0299(10) -0.0044(11)
C8 0.0395(7) 0.0414(8) 0.0354(7) 0.0027(6) 0.0217(6) 0.0044(6)
C9 0.0494(9) 0.0449(9) 0.0565(10) 0.0099(7) 0.0358(8) 0.0101(7)
C10 0.0440(8) 0.0428(8) 0.0368(7) 0.0033(6) 0.0257(7) 0.0054(6)
C11 0.0482(9) 0.0452(9) 0.0441(8) -0.0008(7) 0.0261(7) -0.0017(7)
C12 0.0528(9) 0.0395(8) 0.0465(9) 0.0032(7) 0.0305(8) -0.0036(7)
C13 0.0803(14) 0.0601(12) 0.0637(12) 0.0167(10) 0.0483(12) 0.0183(11)
C14 0.0841(12) 0.0766(11) 0.0789(11) 0.0260(10) 0.0431(10) 0.0219(10)
C15 0.0876(11) 0.0758(10) 0.0754(10) 0.0268(9) 0.0334(9) 0.0140(9)
C16 0.0925(12) 0.0731(11) 0.0582(10) 0.0231(9) 0.0316(9) 0.0014(9)
C17 0.0818(13) 0.0491(10) 0.0483(10) 0.0022(8) 0.0382(10) -0.0065(9)
C18 0.0450(8) 0.0461(8) 0.0371(8) 0.0018(6) 0.0252(7) 0.0022(7)
C19 0.0555(10) 0.0507(10) 0.0703(12) 0.0025(9) 0.0431(10) 0.0043(8)
C20 0.0568(11) 0.0733(14) 0.0895(16) -0.0082(12) 0.0507(12) -0.0056(10)
C21 0.0614(13) 0.0779(15) 0.0667(13) 0.0015(11) 0.0377(11) -0.0198(11)
C22 0.0614(12) 0.0617(12) 0.0692(13) 0.0170(11) 0.0301(11) -0.0087(10)
C23 0.0477(9) 0.0535(10) 0.0543(10) 0.0127(8) 0.0253(8) 0.0037(8)
N1 0.0397(7) 0.0432(7) 0.0380(6) 0.0025(5) 0.0232(6) 0.0045(5)
N2 0.0440(7) 0.0456(7) 0.0380(7) 0.0063(5) 0.0259(6) 0.0061(6)
O1 0.0515(7) 0.0617(8) 0.0662(8) -0.0175(7) 0.0402(7) -0.0171(6)
O2 0.0433(6) 0.0732(9) 0.0447(7) -0.0014(6) 0.0188(6) 0.0165(6)
S1 0.0361(2) 0.0524(3) 0.0404(2) -0.00593(17) 0.02199(18) 0.00019(16)
loop_
_atom_type_symbol
_atom_type_description
_atom_type_scat_dispersion_real
_atom_type_scat_dispersion_imag
_atom_type_scat_source
C C 0.0033 0.0016 'International Tables Vol C Tables 4.2.6.8 and 6.1.1.4'
H H 0.0000 0.0000 'International Tables Vol C Tables 4.2.6.8 and 6.1.1.4'
N N 0.0061 0.0033 'International Tables Vol C Tables 4.2.6.8 and 6.1.1.4'
O O 0.0106 0.0060 'International Tables Vol C Tables 4.2.6.8 and 6.1.1.4'
S S 0.1246 0.1234 'International Tables Vol C Tables 4.2.6.8 and 6.1.1.4'
loop_
_geom_angle_atom_site_label_1
_geom_angle_atom_site_label_2
_geom_angle_atom_site_label_3
_geom_angle
C2 C1 S1 119.33(13)
C6 C1 C2 120.75(15)
C6 C1 S1 119.90(13)
C1 C2 H2 120.4
C3 C2 C1 119.25(16)
C3 C2 H2 120.4
C2 C3 H3 119.4
C2 C3 C4 121.26(16)
C4 C3 H3 119.4
C3 C4 C7 120.51(17)
C5 C4 C3 118.31(16)
C5 C4 C7 121.18(18)
C4 C5 H5 119.3
C6 C5 C4 121.46(16)
C6 C5 H5 119.3
C1 C6 H6 120.5
C5 C6 C1 118.95(16)
C5 C6 H6 120.5
C4 C7 H7A 109.5
C4 C7 H7B 109.5
C4 C7 H7C 109.5
H7A C7 H7B 109.5
H7A C7 H7C 109.5
H7B C7 H7C 109.5
C9 C8 H8 109.1
C9 C8 C11 114.17(14)
C11 C8 H8 109.1
N1 C8 H8 109.1
N1 C8 C9 100.28(13)
N1 C8 C11 114.61(13)
C8 C9 H9A 111.3
C8 C9 H9B 111.3
H9A C9 H9B 109.2
C10 C9 C8 102.37(13)
C10 C9 H9A 111.3
C10 C9 H9B 111.3
C18 C10 C9 124.76(15)
N2 C10 C9 113.37(15)
N2 C10 C18 121.80(15)
C8 C11 H11A 109.9
C8 C11 H11B 109.9
H11A C11 H11B 108.3
C12 C11 C8 108.80(14)
C12 C11 H11A 109.9
C12 C11 H11B 109.9
C13 C12 C11 120.44(17)
C17 C12 C11 120.80(18)
C17 C12 C13 118.66(19)
C12 C13 H13 119.5
C14 C13 C12 121.0(2)
C14 C13 H13 119.5
C13 C14 H14 120.1
C15 C14 C13 119.7(3)
C15 C14 H14 120.1
C14 C15 H15 119.7
C14 C15 C16 120.7(3)
C16 C15 H15 119.7
C15 C16 H16 119.9
C15 C16 C17 120.1(3)
C17 C16 H16 119.9
C12 C17 C16 119.7(2)
C12 C17 H17 120.1
C16 C17 H17 120.1
C19 C18 C10 119.80(16)
C23 C18 C10 122.03(16)
C23 C18 C19 118.17(17)
C18 C19 H19 119.7
C20 C19 C18 120.56(19)
C20 C19 H19 119.7
C19 C20 H20 119.8
C21 C20 C19 120.5(2)
C21 C20 H20 119.8
C20 C21 H21 120.1
C20 C21 C22 119.9(2)
C22 C21 H21 120.1
C21 C22 H22 119.8
C21 C22 C23 120.4(2)
C23 C22 H22 119.8
C18 C23 H23 119.8
C22 C23 C18 120.46(19)
C22 C23 H23 119.8
C8 N1 S1 117.26(11)
N2 N1 C8 109.37(12)
N2 N1 S1 111.03(10)
C10 N2 N1 108.10(13)
N1 S1 C1 107.23(7)
O1 S1 C1 108.06(8)
O1 S1 N1 105.30(8)
O2 S1 C1 108.83(9)
O2 S1 N1 106.34(8)
O2 S1 O1 120.36(9)
loop_
_geom_bond_atom_site_label_1
_geom_bond_atom_site_label_2
_geom_bond_distance
C1 C2 1.386(2)
C1 C6 1.385(2)
C1 S1 1.7528(16)
C2 H2 0.9300
C2 C3 1.376(2)
C3 H3 0.9300
C3 C4 1.388(3)
C4 C5 1.388(3)
C4 C7 1.500(3)
C5 H5 0.9300
C5 C6 1.379(2)
C6 H6 0.9300
C7 H7A 0.9600
C7 H7B 0.9600
C7 H7C 0.9600
C8 H8 0.9800
C8 C9 1.521(2)
C8 C11 1.521(2)
C8 N1 1.497(2)
C9 H9A 0.9700
C9 H9B 0.9700
C9 C10 1.499(2)
C10 C18 1.462(2)
C10 N2 1.280(2)
C11 H11A 0.9700
C11 H11B 0.9700
C11 C12 1.501(2)
C12 C13 1.385(3)
C12 C17 1.381(3)
C13 H13 0.9300
C13 C14 1.369(3)
C14 H14 0.9300
C14 C15 1.358(4)
C15 H15 0.9300
C15 C16 1.363(4)
C16 H16 0.9300
C16 C17 1.387(3)
C17 H17 0.9300
C18 C19 1.395(3)
C18 C23 1.387(3)
C19 H19 0.9300
C19 C20 1.380(3)
C20 H20 0.9300
C20 C21 1.362(3)
C21 H21 0.9300
C21 C22 1.374(4)
C22 H22 0.9300
C22 C23 1.382(3)
C23 H23 0.9300
N1 N2 1.422(2)
N1 S1 1.6683(14)
O1 S1 1.4256(14)
O2 S1 1.4210(14)
loop_
_geom_torsion_atom_site_label_1
_geom_torsion_atom_site_label_2
_geom_torsion_atom_site_label_3
_geom_torsion_atom_site_label_4
_geom_torsion
C1 C2 C3 C4 -0.8(3)
C2 C1 C6 C5 -1.2(3)
C2 C1 S1 N1 -96.31(14)
C2 C1 S1 O1 16.75(16)
C2 C1 S1 O2 149.04(14)
C2 C3 C4 C5 -0.2(3)
C2 C3 C4 C7 -179.52(19)
C3 C4 C5 C6 0.4(3)
C4 C5 C6 C1 0.3(3)
C6 C1 C2 C3 1.5(3)
C6 C1 S1 N1 81.90(15)
C6 C1 S1 O1 -165.04(14)
C6 C1 S1 O2 -32.75(16)
C7 C4 C5 C6 179.77(19)
C8 C9 C10 C18 166.90(15)
C8 C9 C10 N2 -16.19(19)
C8 C11 C12 C13 -109.6(2)
C8 C11 C12 C17 66.7(2)
C8 N1 N2 C10 16.02(16)
C8 N1 S1 C1 65.84(13)
C8 N1 S1 O1 -49.08(13)
C8 N1 S1 O2 -177.85(11)
C9 C8 C11 C12 64.30(19)
C9 C8 N1 N2 -24.65(15)
C9 C8 N1 S1 -152.17(12)
C9 C10 C18 C19 2.1(3)
C9 C10 C18 C23 -178.03(18)
C9 C10 N2 N1 0.63(19)
C10 C18 C19 C20 178.27(19)
C10 C18 C23 C22 -179.04(19)
C11 C8 C9 C10 146.07(14)
C11 C8 N1 N2 -147.39(14)
C11 C8 N1 S1 85.10(16)
C11 C12 C13 C14 174.1(2)
C11 C12 C17 C16 -173.37(19)
C12 C13 C14 C15 -0.5(4)
C13 C12 C17 C16 3.0(3)
C13 C14 C15 C16 2.6(5)
C14 C15 C16 C17 -1.8(4)
C15 C16 C17 C12 -1.0(4)
C17 C12 C13 C14 -2.2(3)
C18 C10 N2 N1 177.64(14)
C18 C19 C20 C21 0.5(4)
C19 C18 C23 C22 0.8(3)
C19 C20 C21 C22 1.4(4)
C20 C21 C22 C23 -2.2(4)
C21 C22 C23 C18 1.1(4)
C23 C18 C19 C20 -1.6(3)
N1 C8 C9 C10 23.03(16)
N1 C8 C11 C12 179.18(14)
N2 C10 C18 C19 -174.56(17)
N2 C10 C18 C23 5.3(3)
N2 N1 S1 C1 -60.87(12)
N2 N1 S1 O1 -175.79(10)
N2 N1 S1 O2 55.44(12)
S1 C1 C2 C3 179.68(13)
S1 C1 C6 C5 -179.42(14)
S1 N1 N2 C10 146.96(11)
loop_
_refln_index_h
_refln_index_k
_refln_index_l
_refln_F_squared_meas
_refln_F_squared_sigma
0 0 1 0.08 0.01
0 0 1 0.96 0.03
0 0 -2 180.28 1.18
0 0 2 186.08 1.12
0 0 2 166.38 1.12
0 0 -3 0.2 0.03
0 0 3 0.14 0.03
0 0 3 0.15 0.03
0 0 -4 1220 15.09
0 0 4 1225 13.5
0 0 4 1110 14.31
0 0 -5 0.05 0.05
0 0 5 0.1 0.05
0 0 5 0.08 0.05
0 0 -6 100.38 0.64
0 0 6 102.65 0.62
0 0 6 79.22 0.59
0 0 -7 0.07 0.06
0 0 7 0.01 0.05
0 0 7 0.04 0.05
0 0 -8 14.65 0.29
0 0 8 14.85 0.29
0 0 8 15.59 0.32
0 0 -9 0.01 0.07
0 0 9 -0.02 0.06
0 0 9 0.04 0.07
0 0 -10 23.02 0.42
0 0 10 22.41 0.4
0 0 10 23.14 0.44
0 0 -11 0.19 0.11
0 0 11 0.04 0.09
0 0 11 0.02 0.1
0 0 -12 0.25 0.13
0 0 12 0.17 0.11
0 0 12 0.16 0.12
0 0 -13 0.07 0.12
0 0 13 -0.22 0.1
0 0 13 0.01 0.12
0 0 -14 3.78 0.26
0 0 14 3.5 0.24
0 0 14 3.63 0.27
0 0 -15 -0.1 0.13
0 0 15 0 0.11
0 0 15 -0.1 0.11
0 0 -16 9.09 0.39
0 0 16 8.25 0.35
0 0 16 8.95 0.4
0 0 -17 0.27 0.17
0 0 17 -0.07 0.13
0 0 18 2.07 0.27
0 0 19 -0.02 0.15
0 0 20 3.06 0.32
-2 0 1 0.03 0.01
-2 0 1 0.04 0.01
-2 0 2 35.01 0.17
2 0 -2 32.01 0.17
2 0 0 281.13 1.18
-2 0 -1 0.3 0.03
-2 0 3 0.06 0.02
-2 0 3 0.14 0.02
2 0 -3 0.13 0.02
2 0 1 0.05 0.02
2 0 1 0.16 0.03
-2 0 -2 42.12 0.33
-2 0 4 0.56 0.06
-2 0 4 0.63 0.05
2 0 -4 0.76 0.05
2 0 2 48.81 0.28
2 0 2 38.36 0.32
-2 0 -3 -0.03 0.04
-2 0 5 -0.01 0.04
-2 0 5 0 0.04
2 0 -5 0.05 0.04
2 0 3 0.12 0.04
2 0 3 0.07 0.04
-2 0 -4 0.06 0.05
-2 0 6 76.1 0.53
-2 0 6 82.04 0.53
2 0 -6 82 0.49
2 0 4 0.23 0.05
2 0 4 0.57 0.07
-2 0 -5 -0.06 0.05
-2 0 7 -0.01 0.05
-2 0 7 0.04 0.05
2 0 -7 0.03 0.05
2 0 5 -0.01 0.02
-2 0 -6 10.29 0.25
-2 0 8 37.17 0.44
2 0 -8 38.56 0.41
2 0 6 10.98 0.22
2 0 6 10.32 0.25
-2 0 -7 -0.04 0.07
-2 0 9 0.08 0.07
-2 0 9 0.06 0.06
2 0 -9 0.06 0.06
2 0 7 0.01 0.06
2 0 7 0.04 0.07
-2 0 -8 2.98 0.17
-2 0 10 6.87 0.23
-2 0 10 7.36 0.24
2 0 -10 7.4 0.22
2 0 8 2.96 0.16
2 0 8 3.22 0.18
-2 0 -9 -0.01 0.09
-2 0 11 0.02 0.07
-2 0 11 -0.03 0.07
2 0 -11 0 0.07
2 0 9 -0.03 0.07
2 0 9 0.3 0.1
-2 0 -10 106.3 0.96
-2 0 12 1.34 0.17
-2 0 12 1.33 0.16
2 0 -12 1.58 0.18
2 0 10 106.88 0.86
2 0 10 107.78 1
-2 0 -11 0.49 0.15
-2 0 13 -0.05 0.1
-2 0 13 0.05 0.11
2 0 -13 -0.03 0.11
2 0 11 0.07 0.11
2 0 11 0.17 0.13
-2 0 -12 0.07 0.15
-2 0 14 8.87 0.33
-2 0 14 10.08 0.36
2 0 -14 9.86 0.34
2 0 12 0.01 0.11
2 0 12 -0.03 0.12
-2 0 -13 -0.05 0.13
-2 0 15 -0.03 0.09
-2 0 15 0.03 0.11
2 0 -15 0.04 0.11
2 0 13 -0.02 0.11
2 0 13 0.02 0.12
-2 0 -14 -0.11 0.13
-2 0 16 3.67 0.26
-2 0 16 4.39 0.28
2 0 -16 4.21 0.27
2 0 14 -0.03 0.1
2 0 14 -0.08 0.12
-2 0 -15 -0.05 0.14
-2 0 17 -0.01 0.11
-2 0 17 0.03 0.12
2 0 -17 0.11 0.13
2 0 15 0.05 0.14
-2 0 -16 7.09 0.37
-2 0 18 0.15 0.13
-2 0 18 -0.02 0.13
2 0 16 7.21 0.38
-2 0 -17 0.08 0.17
-2 0 19 -0.11 0.13
2 0 17 -0.03 0.15
-2 0 20 1.37 0.23
2 0 18 0.66 0.21
2 0 19 0.08 0.17
2 0 20 0.27 0.19
-4 0 2 6.47 0.11
-4 0 2 6.35 0.1
-4 0 1 0.05 0.02
-4 0 1 0.02 0.02
-4 0 3 0.09 0.03
-4 0 3 0.08 0.02
-4 0 0 0.78 0.06
-4 0 4 374.47 2.01
4 0 -4 354.9 5.13
4 0 0 0.18 0.03
4 0 0 0.01 0.01
-4 0 -1 0.09 0.03
-4 0 5 0.01 0.03
-4 0 5 0.03 0.03
4 0 -5 0.02 0.03
4 0 1 0.03 0.03
4 0 1 0.02 0.03
-4 0 -2 23.65 0.31
-4 0 6 20 0.28
-4 0 6 22.05 0.25
4 0 -6 23.23 0.22
4 0 2 27.26 0.25
4 0 2 21.77 0.29
-4 0 -3 0 0.05
-4 0 7 0 0.04
-4 0 7 0.05 0.04
4 0 -7 0.02 0.04
4 0 3 0.07 0.04
4 0 3 0 0.03
-4 0 -4 0.73 0.09
-4 0 8 114.2 0.75
-4 0 8 124.19 0.71
4 0 -8 126.07 0.64
4 0 4 0.65 0.08
4 0 4 0.64 0.08
-4 0 -5 -0.04 0.06
-4 0 9 -0.04 0.05
-4 0 9 0 0.02
4 0 -9 0.02 0.05
4 0 5 0.03 0.05
4 0 5 0.02 0.06
-4 0 -6 29.69 0.45
-4 0 10 8.96 0.26
-4 0 10 9.85 0.25
4 0 -10 9.82 0.23
4 0 6 32.73 0.39
4 0 6 28.22 0.45
-4 0 -7 -0.04 0.08
-4 0 11 0.02 0.07
-4 0 11 0.04 0.07
4 0 -11 0.02 0.06
4 0 7 -0.06 0.07
4 0 7 0.01 0.08
-4 0 -8 0.22 0.11
-4 0 12 2.53 0.18
-4 0 12 2.7 0.19
4 0 -12 2.8 0.17
4 0 8 0.32 0.09
4 0 8 0.27 0.1
-4 0 -9 0.15 0.12
-4 0 13 -0.09 0.09
-4 0 13 -0.08 0.08
4 0 -13 0.08 0.09
4 0 9 0.06 0.09
4 0 9 0.18 0.12
-4 0 -10 45.1 0.69
-4 0 14 34.18 0.59
-4 0 14 37.98 0.6
4 0 -14 38.17 0.56
4 0 10 46.11 0.6
4 0 10 46.42 0.72
-4 0 -11 0.22 0.16
-4 0 15 0.05 0.11
-4 0 15 0.06 0.11
4 0 -15 -0.11 0.12
4 0 11 0.1 0.12
4 0 11 0.22 0.14
-4 0 -12 13.74 0.45
-4 0 16 6.61 0.31
-4 0 16 7.75 0.33
4 0 -16 7.37 0.3
4 0 12 14.35 0.38
4 0 12 13.69 0.44
-4 0 -13 -0.04 0.14
-4 0 17 0.04 0.11
-4 0 17 -0.12 0.1
4 0 -17 0.09 0.12
4 0 13 0.07 0.13
-4 0 -14 0.09 0.16
-4 0 18 -0.09 0.11
-4 0 18 -0.04 0.11
4 0 14 0.2 0.14
-4 0 -15 -0.08 0.15
-4 0 19 -0.03 0.11
-4 0 19 -0.08 0.12
4 0 15 0.05 0.14
-4 0 -16 7.23 0.4
-4 0 20 -0.02 0.13
-4 0 20 -0.14 0.13
4 0 16 7.91 0.42
-4 0 -17 0.03 0.17
4 0 17 0.04 0.16
4 0 18 0.92 0.24
4 0 19 -0.02 0.18
-6 0 3 0.18 0.04
-6 0 3 0.19 0.04
-6 0 2 39.13 0.3
-6 0 2 38.8 0.33
-6 0 4 35.94 0.32
-6 0 4 34.83 0.29
-6 0 1 0.04 0.04
-6 0 5 0.07 0.04
-6 0 5 0.08 0.04
6 0 -5 0.01 0.03
6 0 -1 0.05 0.03
-6 0 0 55.2 0.46
-6 0 6 0.01 0.01
-6 0 6 2.58 0.1
6 0 -6 3.17 0.09
6 0 0 63.25 0.37
-6 0 -1 0 0.01
-6 0 7 0 0.04
-6 0 7 0.01 0.04
6 0 -7 0.03 0.04
6 0 1 0.02 0.03
6 0 1 0 0.01
-6 0 -2 101.75 0.73
-6 0 8 23.8 0.35
-6 0 8 25.72 0.31
6 0 -8 28.77 0.27
6 0 2 113.31 0.56
-6 0 -3 -0.02 0.06
-6 0 9 0.01 0.05
-6 0 9 -0.03 0.04
6 0 -9 -0.01 0.05
6 0 3 0.02 0.04
6 0 3 0.1 0.06
-6 0 -4 0.66 0.11
-6 0 10 1.6 0.13
-6 0 10 0.03 0.02
6 0 -10 2.03 0.11
6 0 4 0.88 0.1
6 0 4 0.67 0.1
-6 0 -5 0.2 0.09
-6 0 11 0.05 0.07
-6 0 11 -0.05 0.05
6 0 -11 0.06 0.06
6 0 5 0.13 0.06
6 0 5 -0.02 0.07
-6 0 -6 144.63 1.1
-6 0 12 9.02 0.29
-6 0 12 10.22 0.27
6 0 -12 10.16 0.24
6 0 6 162.18 0.89
6 0 6 139.08 1.08
-6 0 -7 0.11 0.11
-6 0 13 -0.01 0.07
-6 0 13 -0.02 0.07
6 0 -13 0.02 0.07
6 0 7 0.06 0.08
6 0 7 -0.03 0.09
-6 0 -8 43.57 0.67
-6 0 14 25.02 0.5
-6 0 14 28.81 0.5
6 0 -14 28.83 0.44
6 0 8 48.38 0.56
6 0 8 44.2 0.69
-6 0 -9 0.24 0.15
-6 0 15 0.01 0.11
-6 0 15 -0.02 0.1
6 0 -15 0.14 0.11
6 0 9 0.24 0.12
6 0 9 0.04 0.12
-6 0 -10 68.81 0.91
-6 0 16 61.76 0.83
-6 0 16 69.25 0.83
6 0 -16 68.69 0.74
6 0 10 75.87 0.77
6 0 10 71.89 0.95
-6 0 -11 0.16 0.15
-6 0 17 0.09 0.11
-6 0 17 0.1 0.11
6 0 11 0.16 0.14
-6 0 -12 6.94 0.37
-6 0 18 2.18 0.22
-6 0 18 3.12 0.25
6 0 12 7.58 0.37
-6 0 -13 0.01 0.16
-6 0 19 -0.02 0.12
-6 0 19 0.07 0.11
6 0 13 0.09 0.15
-6 0 -14 -0.06 0.16
-6 0 20 0.25 0.14
-6 0 20 0.53 0.16
6 0 14 -0.07 0.14
-6 0 -15 -0.13 0.17
-6 0 21 -0.09 0.13
6 0 15 0.06 0.16
-6 0 -16 1.02 0.24
6 0 16 1.11 0.24
6 0 17 0.1 0.19
-8 0 4 141.53 0.96
-8 0 4 145.17 0.69
-8 0 3 -0.01 0.04
-8 0 3 0.02 0.04
-8 0 5 0.05 0.04
-8 0 5 0.06 0.04
-8 0 2 32.66 0.37
-8 0 6 24.95 0.33
-8 0 6 26.48 0.29
8 0 -6 24.4 0.25
8 0 -2 28.43 0.29
-8 0 1 0.02 0.03
-8 0 7 0.01 0.02
-8 0 7 0.01 0.04
8 0 -7 0.06 0.04
8 0 -1 0 0.03
-8 0 8 0 0.01
-8 0 8 5.76 0.15
8 0 -8 5.97 0.13
8 0 0 9.02 0.17
8 0 0 5.18 0.17
-8 0 -1 0 0.01
-8 0 9 0.03 0.05
-8 0 9 0.04 0.04
8 0 -9 0 0.04
8 0 1 0.02 0.04
8 0 1 -0.01 0.01
-8 0 -2 48.52 0.57
-8 0 10 18.68 0.36
-8 0 10 16.17 0.27
8 0 -10 22.23 0.27
8 0 2 55.2 0.44
8 0 2 45.62 0.56
-8 0 -3 -0.07 0.07
-8 0 11 0.07 0.07
-8 0 11 0.04 0.03
8 0 -11 0.15 0.06
8 0 3 0.01 0.06
8 0 3 0.03 0.07
-8 0 -4 0.82 0.13
-8 0 12 18.64 0.39
-8 0 12 20.2 0.35
8 0 -12 21.87 0.31
8 0 4 1.04 0.12
8 0 4 0.82 0.12
-8 0 -5 -0.03 0.1
-8 0 13 0.04 0.08
-8 0 13 0.03 0.06
8 0 -13 -0.03 0.06
8 0 5 -0.01 0.07
8 0 5 0.1 0.1
-8 0 -6 1.81 0.19
-8 0 14 1.46 0.17
-8 0 14 1.7 0.16
8 0 -14 2.02 0.14
8 0 6 1.87 0.15
8 0 6 1.81 0.19
-8 0 -7 -0.06 0.13
-8 0 15 0.03 0.11
-8 0 15 -0.13 0.08
8 0 -15 0.02 0.09
8 0 7 0.13 0.09
8 0 7 -0.01 0.11
-8 0 -8 32.16 0.64
-8 0 16 20.25 0.49
-8 0 16 23.37 0.48
8 0 -16 23.85 0.42
8 0 8 36.69 0.51
8 0 8 31.1 0.62
-8 0 -9 0.11 0.15
-8 0 17 0.09 0.12
-8 0 17 0.02 0.1
8 0 9 0.04 0.13
-8 0 -10 7.5 0.37
-8 0 18 6.36 0.32
-8 0 18 6.68 0.3
8 0 10 7.55 0.36
-8 0 -11 0.12 0.15
-8 0 19 0.03 0.12
-8 0 19 -0.02 0.11
8 0 11 0.13 0.14
-8 0 -12 1.02 0.22
-8 0 20 0.13 0.14
8 0 12 0.95 0.21
-8 0 -13 -0.06 0.17
-8 0 21 -0.06 0.12
8 0 13 0.02 0.15
-8 0 -14 -0.22 0.17
-8 0 22 0.36 0.17
8 0 14 -0.07 0.15
-8 0 -15 -0.03 0.18
-8 0 23 0.09 0.15
8 0 15 0.06 0.17
-8 0 -16 1.79 0.29
8 0 16 1.73 0.29
-10 0 5 0.12 0.05
-10 0 5 -0.04 0.05
-10 0 4 2.85 0.12
-10 0 6 160.64 0.8
-10 0 3 0.01 0.02
-10 0 7 -0.02 0.03
-10 0 7 0.02 0.04
-10 0 2 10.09 0.25
-10 0 8 65.49 0.6
-10 0 8 65.27 0.51
10 0 -8 64.34 0.44
10 0 -2 8.85 0.19
-10 0 1 0.01 0.06
-10 0 9 0.02 0.05
-10 0 9 0.01 0.04
10 0 -9 0.03 0.05
10 0 -1 0.04 0.04
10 0 -1 0.06 0.06
-10 0 0 82.65 0.75
-10 0 10 9.95 0.22
10 0 -10 13.09 0.21
10 0 0 82.02 0.55
10 0 0 71.39 0.7
-10 0 -1 -0.01 0.03
-10 0 11 0.31 0.09
-10 0 11 0 0.02
10 0 -11 -0.01 0.05
10 0 1 0.15 0.06
10 0 1 0 0.02
-10 0 -2 2.23 0.17
-10 0 12 0.01 0.06
-10 0 12 0.04 0.05
10 0 -12 -0.01 0.06
10 0 2 3.17 0.15
10 0 2 1.88 0.15
-10 0 -3 0.04 0.09
-10 0 13 0.03 0.08
-10 0 13 0.11 0.07
10 0 -13 -0.04 0.06
10 0 3 0.03 0.07
10 0 3 0.03 0.09
-10 0 -4 45.68 0.68
-10 0 14 0.74 0.13
-10 0 14 0.9 0.11
10 0 -14 0.99 0.11
10 0 4 55.98 0.53
10 0 4 43.49 0.66
-10 0 -5 0.15 0.12
-10 0 15 0.06 0.09
-10 0 15 -0.07 0.07
10 0 -15 -0.01 0.07
10 0 5 0 0.08
10 0 5 0.04 0.11
-10 0 -6 -0.04 0.12
-10 0 16 5.84 0.28
-10 0 16 6.3 0.26
10 0 -16 7.4 0.24
10 0 6 0.13 0.09
10 0 6 0.18 0.12
-10 0 -7 0.05 0.14
-10 0 17 0.13 0.12
-10 0 17 0.01 0.09
10 0 7 -0.02 0.12
-10 0 -8 3.24 0.28
-10 0 18 1.79 0.22
-10 0 18 2.1 0.19
10 0 8 2.65 0.26
-10 0 -9 -0.15 0.14
-10 0 19 -0.1 0.11
-10 0 19 0.01 0.1
10 0 9 -0.14 0.13
-10 0 -10 9.25 0.43
-10 0 20 0.86 0.19
10 0 10 7.91 0.4
-10 0 -11 -0.01 0.16
-10 0 21 -0.01 0.13
10 0 11 0.05 0.15
-10 0 -12 -0.17 0.16
-10 0 22 0.36 0.16
10 0 12 0.08 0.16
-10 0 -13 -0.15 0.17
-10 0 23 0.01 0.14
10 0 13 0.03 0.17
-10 0 -14 0.86 0.25
-10 0 24 -0.08 0.14
10 0 14 0.93 0.24
-10 0 -15 0.07 0.2
-10 0 25 0.09 0.16
10 0 15 -0.08 0.18
-12 0 6 160.53 0.91
-12 0 5 0.01 0.02
-12 0 7 0.16 0.07
-12 0 7 0 0.02
-12 0 4 8.11 0.23
-12 0 8 3.45 0.17
-12 0 3 0.01 0.06
-12 0 9 0.07 0.07
-12 0 9 0.01 0.03
12 0 -9 0.01 0.05
12 0 -3 0.02 0.05
-12 0 2 1.54 0.14
-12 0 10 9.6 0.28
12 0 -10 9.69 0.2
12 0 -2 1.33 0.11
12 0 -2 1.19 0.13
-12 0 1 -0.01 0.07
-12 0 11 0 0.06
-12 0 11 0 0.03
12 0 -11 0 0.05
12 0 -1 0.08 0.05
12 0 -1 0.02 0.06
-12 0 0 36.08 0.56
-12 0 12 12.18 0.27
12 0 -12 14.3 0.24
12 0 0 37.12 0.41
12 0 0 33.71 0.54
-12 0 -1 0 0.06
-12 0 13 0.11 0.08
-12 0 13 -0.01 0.06
12 0 -13 0.04 0.07
12 0 1 0.02 0.07
12 0 1 0.03 0.05
-12 0 14 19.93 0.45
-12 0 14 20.17 0.37
12 0 -14 24 0.33
12 0 2 15.38 0.3
12 0 2 0 0.02
-12 0 -3 -0.01 0.09
-12 0 15 -0.02 0.09
-12 0 15 0 0.06
12 0 -15 0.03 0.07
12 0 3 0.11 0.08
12 0 3 0.01 0.03
-12 0 -4 12.4 0.4
-12 0 16 0.82 0.16
-12 0 16 0.85 0.13
12 0 4 14.7 0.31
12 0 4 11.79 0.4
-12 0 -5 0 0.13
-12 0 17 -0.17 0.1
-12 0 17 -0.1 0.08
12 0 5 0.11 0.13
-12 0 -6 1.91 0.24
-12 0 18 4.14 0.28
-12 0 18 4.79 0.25
12 0 6 1.9 0.22
-12 0 -7 0.1 0.15
-12 0 19 -0.13 0.11
-12 0 19 0.07 0.1
12 0 7 0 0.14
-12 0 -8 0.4 0.18
-12 0 20 0.7 0.17
12 0 8 0.37 0.16
-12 0 -9 0 0.15
-12 0 21 0.05 0.13
12 0 9 -0.14 0.12
-12 0 -10 5.66 0.38
-12 0 22 3.99 0.31
12 0 10 5.01 0.36
-12 0 -11 0.19 0.19
-12 0 23 0.03 0.14
12 0 11 -0.04 0.16
-12 0 -12 -0.12 0.17
-12 0 24 0.86 0.2
12 0 12 -0.07 0.17
-12 0 -13 -0.06 0.19
-12 0 25 0.15 0.16
12 0 13 -0.2 0.16
-12 0 26 2.23 0.3
-14 0 7 0.22 0.07
-14 0 7 0.19 0.08
-14 0 6 107.35 0.79
-14 0 8 27.79 0.43
-14 0 8 28.91 0.42
-14 0 5 0.14 0.07
-14 0 9 0.05 0.06
-14 0 9 -0.1 0.05
-14 0 4 4.94 0.21
-14 0 10 82.12 0.79
-14 0 10 83.25 0.68
14 0 -10 77.44 0.6
14 0 -4 4.38 0.17
-14 0 3 0.03 0.08
-14 0 11 0.02 0.08
-14 0 11 0.07 0.07
14 0 -11 0.01 0.07
14 0 -3 -0.01 0.05
-14 0 2 6.07 0.25
-14 0 12 15.29 0.38
-14 0 12 15.14 0.31
14 0 -12 15.82 0.27
14 0 -2 5.95 0.19
14 0 -2 5.36 0.24
-14 0 1 -0.05 0.08
-14 0 13 0.07 0.07
-14 0 13 -0.01 0.06
14 0 -13 0.06 0.07
14 0 -1 0.03 0.07
14 0 -1 0.02 0.08
-14 0 0 2.8 0.2
-14 0 14 0.01 0.02
-14 0 14 1.75 0.15
14 0 -14 2.05 0.14
14 0 0 4.02 0.18
14 0 0 1.5 0.15
-14 0 -1 -0.01 0.02
-14 0 15 -0.02 0.03
-14 0 15 -0.03 0.07
14 0 -15 -0.01 0.08
14 0 1 0.03 0.08
14 0 1 0 0.02
-14 0 -2 4.03 0.25
-14 0 16 0.44 0.12
-14 0 16 0.45 0.1
14 0 2 9.51 0.26
14 0 2 5.66 0.28
-14 0 -3 0.08 0.12
-14 0 17 -0.12 0.09
-14 0 17 -0.14 0.07
14 0 3 -0.11 0.11
-14 0 -4 14.23 0.47
-14 0 18 1.06 0.18
-14 0 18 1.19 0.15
14 0 4 14.25 0.47
-14 0 -5 -0.04 0.16
-14 0 19 -0.02 0.12
-14 0 19 0.05 0.1
14 0 5 0.07 0.12
-14 0 -6 2.11 0.26
-14 0 20 2.7 0.24
14 0 6 2.03 0.25
-14 0 -7 -0.05 0.16
-14 0 21 -0.05 0.13
14 0 7 0.01 0.14
-14 0 -8 0.05 0.17
-14 0 22 3.24 0.29
14 0 8 -0.09 0.14
-14 0 -9 0.23 0.18
-14 0 23 0.27 0.15
14 0 9 -0.1 0.15
-14 0 -10 6.78 0.43
-14 0 24 -0.08 0.14
14 0 10 6.7 0.41
-14 0 -11 0.11 0.21
-14 0 25 0.02 0.16
14 0 11 0.14 0.19
-14 0 -12 0.08 0.2
-14 0 26 3.15 0.33
14 0 12 -0.17 0.18
-16 0 8 4.53 0.21
-16 0 7 0.02 0.07
-16 0 9 0.16 0.08
-16 0 9 0.02 0.08
-16 0 10 63.26 0.72
-16 0 10 65.75 0.66
-16 0 11 0.14 0.09
-16 0 11 0.01 0.08
16 0 -11 0.09 0.07
16 0 -5 0.07 0.07
-16 0 4 0.37 0.11
-16 0 12 6.2 0.26
-16 0 12 6.15 0.23
16 0 -12 6.2 0.21
16 0 -4 0.41 0.09
-16 0 3 -0.02 0.09
-16 0 13 0.03 0.08
-16 0 13 0.03 0.07
16 0 -13 -0.06 0.07
16 0 -3 0.01 0.06
16 0 -3 -0.04 0.07
-16 0 2 0.31 0.12
-16 0 14 1.95 0.19
-16 0 14 2.54 0.17
16 0 -14 2.4 0.15
16 0 -2 0.4 0.09
16 0 -2 0.36 0.12
-16 0 1 0.05 0.1
-16 0 15 0.02 0.04
-16 0 15 0.12 0.08
16 0 -15 -0.03 0.08
16 0 -1 -0.03 0.07
16 0 -1 -0.06 0.09
-16 0 0 10.02 0.37
-16 0 16 10.97 0.38
-16 0 16 11.3 0.31
16 0 0 10.63 0.28
16 0 0 9.12 0.36
-16 0 -1 -0.04 0.12
-16 0 17 0.01 0.11
-16 0 17 0.01 0.08
16 0 1 0.05 0.12
-16 0 -2 0.44 0.16
-16 0 18 -0.08 0.1
-16 0 18 -0.04 0.08
16 0 2 0.47 0.15
-16 0 -3 0.01 0.14
-16 0 19 -0.04 0.12
16 0 3 -0.08 0.12
-16 0 -4 7.86 0.4
-16 0 20 12.79 0.47
16 0 4 6.92 0.36
-16 0 -5 0.06 0.17
-16 0 21 -0.07 0.13
16 0 5 0.1 0.15
-16 0 -6 1.52 0.25
-16 0 22 2.48 0.26
16 0 6 1.35 0.24
-16 0 -7 0.01 0.16
-16 0 23 0.23 0.16
16 0 7 -0.11 0.15
-16 0 -8 0.22 0.19
-16 0 24 1.42 0.24
16 0 8 0.19 0.18
-16 0 -9 0.14 0.19
-16 0 25 0.11 0.17
16 0 9 -0.05 0.17
-16 0 -10 -0.35 0.18
-16 0 26 1.06 0.23
16 0 10 -0.2 0.18
-18 0 9 0.02 0.08
-18 0 8 4.55 0.22
-18 0 10 16.7 0.39
-18 0 10 16.82 0.38
-18 0 11 0.06 0.09
-18 0 11 -0.1 0.09
-18 0 12 45.45 0.67
-18 0 12 46.23 0.59
18 0 -12 42.82 0.53
18 0 -6 0.5 0.1
-18 0 13 0.06 0.09
-18 0 13 0.07 0.09
18 0 -13 0.19 0.09
18 0 -5 0.03 0.07
-18 0 4 0.54 0.13
-18 0 14 11.1 0.37
-18 0 14 11.43 0.32
18 0 -14 11.61 0.28
18 0 -4 0.63 0.11
18 0 -4 0.49 0.13
-18 0 3 0.05 0.11
-18 0 15 -0.01 0.1
-18 0 15 0 0.09
18 0 -15 0.11 0.09
18 0 -3 -0.03 0.08
18 0 -3 0.02 0.1
-18 0 2 0.68 0.16
-18 0 16 10.27 0.38
-18 0 16 10.19 0.31
18 0 -2 1.09 0.13
18 0 -2 0.8 0.16
-18 0 1 -0.01 0.12
-18 0 17 0.01 0.11
-18 0 17 0.1 0.09
18 0 -1 -0.01 0.12
-18 0 0 19.97 0.55
-18 0 18 0.09 0.13
-18 0 18 0.27 0.1
18 0 0 19.14 0.53
-18 0 -1 0.03 0.13
-18 0 19 -0.12 0.11
18 0 1 0 0.13
-18 0 -2 3.07 0.28
-18 0 20 7.81 0.37
18 0 2 2.54 0.25
-18 0 -3 -0.07 0.15
-18 0 21 -0.01 0.13
18 0 3 0.13 0.15
-18 0 -4 0.59 0.2
-18 0 22 0.06 0.14
18 0 4 0.36 0.17
-18 0 -5 0.07 0.17
-18 0 23 -0.15 0.12
18 0 5 -0.01 0.16
-18 0 -6 3.24 0.34
-18 0 24 2.03 0.28
18 0 6 2.86 0.32
-18 0 -7 -0.09 0.17
-18 0 25 -0.08 0.15
18 0 7 -0.05 0.17
-18 0 -8 0.29 0.21
-18 0 26 0.19 0.17
18 0 8 0.63 0.23
-18 0 27 0 0.17
18 0 9 0 0.18
-20 0 10 0.83 0.14
-20 0 9 0.07 0.09
-20 0 11 0.01 0.09
-20 0 12 0.28 0.11
-20 0 12 0.21 0.1
-20 0 13 0.07 0.09
-20 0 13 0 0.09
20 0 -13 -0.03 0.09
20 0 -7 0.01 0.09
-20 0 14 10.61 0.37
-20 0 14 10.54 0.32
20 0 -14 10.37 0.3
20 0 -6 4.22 0.23
-20 0 15 -0.02 0.1
-20 0 15 -0.01 0.09
20 0 -15 0.09 0.1
20 0 -5 -0.04 0.09
20 0 -5 0.06 0.11
-20 0 16 12.67 0.43
-20 0 16 12.93 0.35
20 0 -4 6.82 0.27
20 0 -4 6.87 0.33
-20 0 3 0.03 0.13
-20 0 17 0.13 0.13
-20 0 17 0.04 0.1
20 0 -3 -0.02 0.09
20 0 -3 -0.04 0.11
-20 0 2 5.89 0.34
-20 0 18 1.36 0.2
-20 0 18 1.36 0.16
20 0 -2 5.79 0.33
-20 0 1 0.01 0.15
-20 0 19 0.14 0.13
20 0 -1 0.1 0.15
-20 0 0 8.87 0.42
-20 0 20 2.62 0.27
20 0 0 8.32 0.39
-20 0 -1 -0.07 0.16
-20 0 21 0.01 0.13
20 0 1 -0.12 0.13
-20 0 -2 5.19 0.36
-20 0 22 0.02 0.12
20 0 2 4.92 0.34
-20 0 -3 -0.09 0.16
-20 0 23 -0.14 0.12
20 0 3 0.07 0.16
-20 0 -4 -0.02 0.18
-20 0 24 1.82 0.26
20 0 4 0.18 0.18
-20 0 -5 -0.06 0.17
-20 0 25 0.01 0.17
20 0 5 -0.13 0.16
-20 0 -6 0.18 0.2
-20 0 26 0.12 0.18
20 0 6 0.08 0.19
-20 0 -7 -0.16 0.19
-20 0 27 -0.22 0.16
20 0 7 0.11 0.19
-22 0 11 0.15 0.12
-22 0 10 48.78 0.71
-22 0 12 0.1 0.12
-22 0 13 0.14 0.12
22 0 -13 0.15 0.12
22 0 -9 0.1 0.12
-22 0 14 61.96 0.86
-22 0 14 66.31 0.8
22 0 -14 58.77 0.71
22 0 -8 10.86 0.36
-22 0 15 0.13 0.12
-22 0 15 0.09 0.11
22 0 -15 0.03 0.12
22 0 -7 0.22 0.11
-22 0 16 8.58 0.37
-22 0 16 9 0.32
22 0 -6 30.97 0.54
22 0 -6 28.68 0.63
-22 0 17 0.16 0.13
-22 0 17 0.07 0.11
22 0 -5 0.01 0.1
22 0 -5 -0.03 0.13
-22 0 18 3.76 0.28
22 0 -4 6.05 0.34
-22 0 19 -0.07 0.13
22 0 -3 -0.03 0.13
-22 0 20 6.27 0.36
22 0 -2 -0.06 0.12
-22 0 1 0.05 0.16
-22 0 21 -0.01 0.12
22 0 -1 -0.12 0.14
-22 0 0 1.54 0.26
-22 0 22 0.49 0.17
22 0 0 1.24 0.23
-22 0 -1 0.04 0.17
-22 0 23 -0.03 0.15
22 0 1 0.04 0.14
-22 0 -2 2.77 0.32
-22 0 24 0.44 0.17
22 0 2 2.55 0.29
-22 0 -3 0.02 0.19
-22 0 25 -0.12 0.15
22 0 3 -0.06 0.15
-22 0 -4 0.75 0.23
-22 0 26 0.13 0.17
22 0 4 0.4 0.2
-22 0 -5 -0.18 0.19
-22 0 27 0.05 0.17
22 0 5 -0.01 0.19
-24 0 12 0.2 0.12
-24 0 11 0.17 0.12
-24 0 13 -0.03 0.1
-24 0 14 0.35 0.13
24 0 -14 0.22 0.12
24 0 -10 -0.04 0.1
-24 0 15 -0.06 0.1
24 0 -15 -0.04 0.1
24 0 -9 -0.01 0.1
-24 0 16 0.34 0.14
-24 0 16 0.41 0.14
24 0 -8 1.07 0.15
24 0 -8 1.11 0.18
-24 0 17 -0.05 0.11
-24 0 17 -0.03 0.11
24 0 -7 0.03 0.1
24 0 -7 -0.06 0.12
-24 0 18 3.28 0.28
24 0 -6 0.15 0.14
-24 0 19 0.05 0.14
24 0 -5 0.02 0.12
-24 0 20 6.39 0.36
24 0 -4 8.16 0.4
-24 0 21 0.07 0.13
24 0 -3 0.05 0.14
-24 0 22 1.14 0.23
24 0 -2 0.11 0.14
-24 0 23 0.04 0.14
24 0 -1 -0.02 0.15
-24 0 24 0.21 0.17
24 0 0 1.62 0.26
-24 0 25 -0.01 0.16
24 0 1 -0.17 0.16
-24 0 26 0.07 0.18
24 0 2 1.21 0.26
-24 0 27 -0.13 0.17
24 0 3 -0.03 0.16
-26 0 13 -0.08 0.11
-26 0 14 0.93 0.18
-26 0 15 0.12 0.13
26 0 -11 0.02 0.11
-26 0 16 8.36 0.38
26 0 -10 0.72 0.15
-26 0 17 0.07 0.13
26 0 -9 -0.05 0.11
26 0 -9 -0.03 0.11
-26 0 18 0.39 0.15
26 0 -8 -0.1 0.11
-26 0 19 -0.11 0.11
26 0 -7 0.03 0.13
-26 0 20 0.01 0.13
26 0 -6 1.57 0.23
-26 0 21 0.08 0.15
26 0 -5 0.12 0.15
-26 0 22 2.73 0.3
26 0 -4 3.34 0.31
-26 0 23 0.01 0.15
26 0 -3 -0.06 0.15
-26 0 24 0.01 0.16
26 0 -2 0.8 0.22
-26 0 25 0.05 0.16
26 0 -1 -0.13 0.16
-26 0 26 1.02 0.24
26 0 0 0.07 0.17
-26 0 27 0.24 0.18
26 0 1 -0.2 0.17
-28 0 14 0.9 0.18
-28 0 15 -0.02 0.14
28 0 -13 0.13 0.14
-28 0 16 7.13 0.37
28 0 -12 5.13 0.32
-28 0 17 -0.05 0.13
28 0 -11 0.1 0.12
28 0 -11 0.03 0.12
-28 0 18 0.7 0.19
28 0 -10 0.62 0.17
-28 0 19 0.03 0.14
28 0 -9 0.08 0.14
-28 0 20 2.61 0.29
28 0 -8 4.45 0.33
-28 0 21 0 0.15
28 0 -7 -0.04 0.14
-28 0 22 1.73 0.26
28 0 -6 2.72 0.3
-28 0 23 0.02 0.16
28 0 -5 0.04 0.16
-28 0 24 0.13 0.16
28 0 -4 1.75 0.27
-28 0 25 0.04 0.16
28 0 -3 0.02 0.18
-28 0 26 0.7 0.22
28 0 -2 1.27 0.27
-28 0 27 0 0.18
28 0 -1 -0.13 0.18
-30 0 16 5.6 0.35
30 0 -14 0.88 0.19
-30 0 17 0.05 0.15
30 0 -13 0.05 0.13
-30 0 18 2.63 0.29
30 0 -12 3.7 0.3
-30 0 19 0.19 0.17
30 0 -11 -0.03 0.13
-30 0 20 5.05 0.37
30 0 -10 0.02 0.14
-30 0 21 0.06 0.16
30 0 -9 -0.09 0.14
-30 0 22 2.63 0.31
30 0 -8 -0.13 0.14
-30 0 23 0 0.15
30 0 -7 0.05 0.16
-30 0 24 0.42 0.19
30 0 -6 1.01 0.24
-30 0 25 -0.15 0.16
30 0 -5 -0.17 0.16
-30 0 26 0.37 0.19
30 0 -4 0.56 0.23
32 0 -16 2.88 0.29
-32 0 18 0.11 0.16
32 0 -14 3.24 0.3
-32 0 19 0.11 0.16
32 0 -13 0.13 0.16
-32 0 20 3 0.32
32 0 -12 2.08 0.28
-32 0 21 0.03 0.16
32 0 -11 0 0.16
-32 0 22 2.7 0.32
32 0 -10 2.9 0.32
-32 0 23 0.09 0.17
32 0 -9 -0.1 0.17
-32 0 24 0.08 0.18
32 0 -8 0.15 0.2
-32 0 25 0.13 0.17
32 0 -7 0.09 0.2
34 0 -18 0.62 0.21
34 0 -15 0 0.16
-34 0 20 0.15 0.17
34 0 -14 1.49 0.26
-34 0 21 -0.04 0.16
34 0 -13 0.02 0.16
-34 0 22 -0.09 0.15
34 0 -12 0.61 0.22
-34 0 23 -0.09 0.16
34 0 -11 -0.07 0.17
-1 1 0 14.56 0.13
-1 1 0 17.82 0.15
-1 1 1 29.01 0.15
1 1 -1 29.05 0.11
1 1 0 17.94 0.14
1 1 0 13.13 0.13
-1 -1 0 16.52 0.1
-1 -1 1 34.78 0.2
1 -1 -1 25.02 0.17
1 -1 0 7.86 0.1
-1 1 2 141.12 0.92
1 1 -2 139.04 0.98
1 1 1 64.65 0.32
-1 -1 2 128.42 1.35
1 -1 1 53.11 0.39
-1 1 3 334.99 1.83
-1 1 3 394.77 2.41
1 1 -3 409.13 2.25
1 1 2 617.86 6.06
-1 -1 -2 645.01 9.15
-1 -1 3 337.3 2.18
-1 -1 3 339.57 1.65
1 -1 -3 354.86 1.59
1 -1 2 807.51 9.11
1 -1 2 610.97 7.3
-1 1 -3 29.22 0.3
-1 1 4 805.31 9.82
-1 1 4 929.4 12.34
1 1 -4 970.57 13.75
1 1 3 25.33 0.19
1 1 3 27.57 0.3
-1 -1 -3 25.17 0.25
-1 -1 4 950.97 13.98
-1 -1 4 824.75 9.13
1 -1 -4 874.22 8.56
1 -1 3 30.89 0.3
1 -1 3 23 0.24
-1 1 -4 9.25 0.2
-1 1 5 194.37 1.3
-1 1 5 221.89 1.88
1 1 -5 225.05 1.76
1 1 4 8.7 0.14
1 1 4 9.67 0.2
-1 -1 -4 8.52 0.17
-1 -1 5 228.14 1.58
-1 -1 5 194.13 1.41
1 -1 -5 204.07 3.91
1 -1 4 10.18 0.2
1 -1 4 8.34 0.17
-1 1 -5 13.86 0.26
-1 1 6 4.89 0.14
-1 1 6 2.66 0.12
1 1 -6 5.12 0.17
1 1 5 13.04 0.19
-1 -1 -5 13.63 0.23
-1 -1 6 5.14 0.16
-1 -1 6 4.83 0.15
1 -1 -6 5 0.14
1 -1 5 15.42 0.26
1 -1 5 12.72 0.23
-1 1 -6 21.06 0.34
-1 1 7 152.11 0.78
-1 1 7 175.44 0.96
1 1 -7 178.7 0.93
1 1 6 19.83 0.26
1 1 6 21.66 0.35
-1 -1 -6 20.37 0.31
-1 -1 7 178.88 1.27
-1 -1 7 168.95 0.84
1 -1 -7 162.96 0.78
1 -1 6 22.68 0.33
-1 1 -7 3.58 0.19
-1 1 8 95.05 0.66
-1 1 8 108.24 0.82
1 1 -8 106.02 0.77
1 1 7 3.71 0.14
1 1 7 4.05 0.19
-1 -1 -7 3.57 0.16
-1 -1 8 108.01 0.79
1 -1 -8 100.25 0.67
1 -1 7 4.08 0.18
1 -1 7 3.42 0.16
-1 1 -8 30.74 0.46
-1 1 9 7.05 0.21
-1 1 9 7.65 0.25
1 1 -9 7.41 0.24
1 1 8 27.63 0.37
1 1 8 29.81 0.47
-1 -1 -8 27.94 0.41
-1 -1 9 7.61 0.24
-1 -1 9 7.29 0.22
1 -1 -9 7 0.21
1 -1 8 31.03 0.44
1 -1 8 27.82 0.43
-1 1 -9 5.43 0.23
-1 1 10 0.91 0.11
-1 1 10 0.99 0.13
1 1 -10 1 0.13
1 1 9 4.97 0.19
1 1 9 5.7 0.25
-1 -1 -9 5.03 0.21
-1 -1 10 0.93 0.12
-1 -1 10 1.08 0.12
1 -1 -10 0.82 0.11
1 -1 9 5.32 0.22
1 -1 9 5.17 0.22
-1 1 -10 6.05 0.27
-1 1 11 33.68 0.49
-1 1 11 36.52 0.57
1 1 -11 37.68 0.56
1 1 10 5.52 0.22
1 1 10 6.14 0.27
-1 -1 -10 5.58 0.24
-1 -1 11 36.11 0.55
-1 -1 11 37.5 0.54
1 -1 -11 35.72 0.5
1 -1 10 5.78 0.25
1 -1 10 5.78 0.25
-1 1 -11 0.3 0.13
-1 1 12 39.57 0.55
-1 1 12 45.21 0.67
1 1 -12 45.74 0.65
1 1 11 0.11 0.1
1 1 11 0.21 0.13
-1 -1 -11 0.2 0.12
-1 -1 12 43.87 0.63
-1 -1 12 46.35 0.64
1 -1 -12 43.31 0.58
1 -1 11 0.21 0.11
1 -1 11 0.26 0.11
-1 1 -12 60.96 0.8
-1 1 13 0.5 0.12
-1 1 13 0.72 0.15
1 1 -13 0.74 0.16
1 1 12 56.89 0.67
1 1 12 64.67 0.86
-1 -1 -12 61.11 0.76
-1 -1 13 0.67 0.15
-1 -1 13 0.65 0.14
1 -1 -13 0.59 0.14
1 -1 12 62.66 0.77
1 -1 12 63.47 0.8
-1 1 -13 11.25 0.4
-1 1 14 0.2 0.11
-1 1 14 0.19 0.13
1 1 -14 0.24 0.14
1 1 13 10.15 0.33
1 1 13 11.52 0.42
-1 -1 -13 11.75 0.38
-1 -1 14 0.1 0.12
-1 -1 14 0.31 0.12
1 -1 -14 0.25 0.13
1 -1 13 10.6 0.36
1 -1 13 11.12 0.39
-1 1 -14 1.66 0.22
-1 1 15 0.48 0.13
-1 1 15 0.52 0.15
1 1 -15 0.44 0.15
1 1 14 1.77 0.19
1 1 14 1.74 0.22
-1 -1 -14 2.09 0.22
-1 -1 15 0.4 0.13
-1 -1 15 0.47 0.14
1 -1 -15 0.48 0.14
1 -1 14 1.54 0.2
1 -1 14 1.98 0.22
-1 1 -15 0.3 0.17
-1 1 16 0.11 0.12
-1 1 16 -0.05 0.12
1 1 -16 0.02 0.14
1 1 15 0.36 0.16
-1 -1 -15 0.4 0.15
-1 -1 16 0.01 0.12
-1 -1 16 -0.02 0.12
1 -1 -16 0.02 0.13
1 -1 15 0.29 0.14
1 -1 15 0.28 0.14
-1 1 -16 0.04 0.15
-1 1 17 1.04 0.2
1 1 -17 1.21 0.22
1 1 16 0.12 0.14
-1 -1 -16 0.17 0.15
-1 -1 17 1.39 0.21
-1 -1 17 1.34 0.2
1 -1 16 0.2 0.14
1 -1 16 0.05 0.14
-1 1 -17 2.43 0.29
-1 1 18 2.77 0.3
1 1 -18 2.67 0.28
1 1 17 2.39 0.26
-1 -1 18 2.71 0.26
-1 -1 18 2.81 0.27
1 -1 17 2.35 0.27
-1 1 -18 -0.09 0.16
-1 1 19 0.89 0.22
1 1 18 0.05 0.16
1 -1 18 -0.05 0.15
-1 1 20 0.02 0.16
1 1 19 -0.12 0.15
-1 1 21 0.18 0.18
1 1 20 0.04 0.18
-3 1 1 1.7 0.06
-3 1 2 62.9 0.35
-3 1 2 85.95 0.54
3 1 -2 70.35 0.41
3 1 -2 63.8 0.34
3 1 -1 1.67 0.05
-3 -1 1 1.77 0.05
-3 -1 2 83.92 0.65
3 -1 -1 0.88 0.04
-3 1 0 0.51 0.05
-3 1 0 0.61 0.05
-3 1 3 540.06 2.78
-3 1 3 549.17 9.18
3 1 -3 541.03 8.34
3 1 0 0.56 0.05
-3 -1 3 572.3 9.28
-3 -1 3 499.78 3.22
3 -1 0 0.52 0.04
-3 1 -1 187.57 1.61
-3 1 4 3.07 0.1
-3 1 4 3.45 0.1
3 1 -4 3.46 0.1
3 1 1 208.23 1.65
-3 -1 -1 217.3 1.72
-3 -1 4 3.44 0.06
3 -1 1 227.63 1.47
-3 1 -2 6.32 0.15
-3 1 5 127.85 0.62
-3 1 5 146.68 1.08
3 1 -5 153.16 0.89
3 1 2 17.62 0.13
-3 -1 -2 15.95 0.23
-3 -1 5 127.31 0.94
-3 -1 5 149.53 0.97
3 -1 -5 141.68 1.34
3 -1 2 18.17 0.23
3 -1 2 13.42 0.21
-3 1 -3 112.63 0.69
-3 1 6 59.62 0.46
-3 1 6 69.56 0.52
3 1 -6 73.6 0.49
3 1 3 109.37 1.59
-3 -1 -3 101.38 0.62
-3 -1 6 68.72 0.53
-3 -1 6 69.47 0.4
3 -1 -6 66.59 0.34
3 -1 3 119.66 0.71
3 -1 3 88.45 0.58
-3 1 -4 1.44 0.11
-3 1 7 64.26 0.51
-3 1 7 48.07 0.47
3 1 -7 79.34 0.56
3 1 4 1.52 0.08
3 1 4 0.01 0.02
-3 -1 -4 1.29 0.1
-3 -1 7 73.9 0.6
-3 -1 7 75.17 0.48
3 -1 -7 72.13 0.42
3 -1 4 1.78 0.11
3 -1 4 0.77 0.08
-3 1 -5 20.14 0.35
-3 1 8 3.51 0.15
-3 1 8 4.03 0.17
3 1 -8 4.08 0.16
3 1 5 20.53 0.25
3 1 5 20.21 0.35
-3 -1 -5 19.46 0.32
-3 -1 8 3.86 0.17
-3 -1 8 4.04 0.15
3 -1 -8 3.76 0.13
3 -1 5 22.74 0.33
3 -1 5 16.96 0.3
-3 1 -6 0.8 0.11
-3 1 9 0.4 0.08
-3 1 9 0.41 0.09
3 1 -9 0.35 0.09
3 1 6 0.92 0.09
3 1 6 0.97 0.12
-3 -1 -6 1.01 0.12
-3 -1 9 0.21 0.08
-3 -1 9 0.03 0.03
3 -1 -9 0.4 0.07
3 -1 6 0.98 0.11
3 -1 6 0.7 0.1
-3 1 -7 10.42 0.29
-3 1 10 0.17 0.07
-3 1 10 0.11 0.07
3 1 -10 0.09 0.08
3 1 7 10.22 0.22
3 1 7 10.01 0.29
-3 -1 -7 9.4 0.26
-3 -1 10 0.1 0.08
-3 -1 10 0.23 0.07
3 -1 -10 0.09 0.06
3 -1 7 10.96 0.27
3 -1 7 9.56 0.27
-3 1 -8 30.57 0.51
-3 1 11 0.11 0.07
-3 1 11 0.08 0.07
3 1 -11 0.13 0.09
3 1 8 29.13 0.38
3 1 8 30.28 0.52
-3 -1 -8 28.14 0.46
-3 -1 11 0.02 0.08
-3 -1 11 0.07 0.07
3 -1 -11 -0.05 0.06
3 -1 8 33.09 0.47
3 -1 8 28.89 0.48
-3 1 -9 13.19 0.37
-3 1 12 4.88 0.23
-3 1 12 5.33 0.25
3 1 -12 6.08 0.25
3 1 9 12.73 0.29
3 1 9 12.95 0.37
-3 -1 -9 12.64 0.35
-3 -1 12 5.7 0.26
-3 -1 12 5.62 0.24
3 -1 -12 5.74 0.22
3 -1 9 13.98 0.34
3 -1 9 12.66 0.35
-3 1 -10 31.34 0.58
-3 1 13 7.61 0.29
-3 1 13 8.15 0.32
3 1 -13 8.27 0.3
3 1 10 29.54 0.45
3 1 10 32.2 0.6
-3 -1 -10 30.5 0.55
-3 -1 13 8.01 0.31
-3 -1 13 8.74 0.3
3 -1 -13 8.16 0.27
3 -1 10 32.56 0.53
3 -1 10 31.46 0.56
-3 1 -11 14.97 0.44
-3 1 14 3 0.22
-3 1 14 3.5 0.25
3 1 -14 3.25 0.24
3 1 11 13.99 0.35
3 1 11 14.42 0.44
-3 -1 -11 13.78 0.41
-3 -1 14 3.46 0.25
-3 -1 14 3.51 0.24
3 -1 -14 2.98 0.22
3 -1 11 15.81 0.41
3 -1 11 14.85 0.42
-3 1 -12 32.49 0.64
-3 1 15 0.56 0.13
-3 1 15 0.66 0.15
3 1 -15 0.51 0.15
3 1 12 29.86 0.5
3 1 12 33.12 0.67
-3 -1 -12 31.89 0.61
-3 -1 15 0.49 0.14
-3 -1 15 0.73 0.14
3 -1 -15 0.33 0.13
3 -1 12 33.18 0.59
3 -1 12 32.83 0.63
-3 1 -13 14.84 0.47
-3 1 16 0.25 0.12
-3 1 16 0.47 0.15
3 1 -16 0.19 0.13
3 1 13 14.39 0.47
-3 -1 -13 13.64 0.43
-3 -1 16 0.28 0.13
-3 -1 16 0.37 0.12
3 -1 13 14.31 0.41
3 -1 13 15.09 0.46
-3 1 -14 6.59 0.36
-3 1 17 0.37 0.13
-3 1 17 0.77 0.17
3 1 -17 0.8 0.18
3 1 14 6.71 0.37
-3 -1 -14 6.9 0.35
-3 -1 17 0.62 0.16
-3 -1 17 0.76 0.16
3 -1 14 6.57 0.32
3 -1 14 7.14 0.36
-3 1 -15 0.44 0.18
-3 1 18 1.65 0.21
-3 1 18 2.17 0.25
3 1 -18 2.02 0.24
3 1 15 0.41 0.17
-3 -1 -15 0.52 0.18
-3 -1 18 2.06 0.24
-3 -1 18 2.29 0.25
3 -1 15 0.61 0.18
-3 1 -16 0.8 0.21
-3 1 19 0.16 0.14
3 1 16 1.03 0.22
-3 -1 -16 0.51 0.18
-3 -1 19 -0.07 0.12
3 -1 16 0.46 0.18
-3 1 20 0.24 0.16
3 1 17 0.45 0.19
-3 -1 20 0.1 0.14
3 -1 17 0.42 0.19
-3 1 -18 0.73 0.23
-3 1 21 0.08 0.17
3 1 18 0.96 0.23
3 -1 18 0.62 0.21
3 1 19 0.28 0.19
-5 1 2 968.39 13.7
-5 1 2 1053 11.06
-5 1 3 3.26 0.11
-5 1 3 3.18 0.11
-5 1 3 4.19 0.09
5 1 -3 3 0.1
5 1 -2 837.89 10.87
-5 -1 2 921.45 10.55
-5 -1 3 3.51 0.1
5 -1 -2 895.55 4.02
-5 1 1 6.33 0.14
-5 1 4 250.43 1.61
5 1 -4 237.28 1.55
5 1 -1 5.48 0.13
-5 -1 1 5.43 0.09
-5 -1 4 271.9 1.94
-5 -1 4 248.75 2.33
5 -1 -1 5.23 0.13
-5 1 0 26.79 0.3
-5 1 5 20.34 0.27
-5 1 5 21.53 0.26
5 1 -5 21.54 0.24
5 1 0 23.3 0.15
5 1 0 24.02 0.28
-5 -1 5 22.49 0.28
-5 -1 5 21.05 0.17
5 -1 0 23.46 0.26
-5 1 -1 15.68 0.25
-5 1 6 83.14 0.56
-5 1 6 91.79 0.57
5 1 -6 97.19 0.53
5 1 1 28.26 0.17
5 1 1 24.06 0.32
-5 -1 -1 24.56 0.32
-5 -1 6 0.01 0.01
-5 -1 6 92.3 0.4
5 -1 1 24.63 0.28
-5 1 -2 0.01 0.01
-5 1 7 13.46 0.25
-5 1 7 15.72 0.26
5 1 -7 16.6 0.24
5 1 2 0.68 0.05
5 1 2 0 0.01
-5 -1 -2 0.43 0.07
-5 -1 7 8.08 0.2
5 -1 -7 16.17 0.15
5 -1 2 0.6 0.07
5 -1 2 0.3 0.06
-5 1 -3 10.52 0.25
-5 1 8 22.06 0.33
5 1 -8 27.58 0.33
5 1 3 11.95 0.16
5 1 3 0.01 0.02
-5 -1 -3 9.84 0.24
-5 -1 8 24.5 0.37
-5 -1 8 26.31 0.28
5 -1 -8 26.06 0.23
5 -1 3 11.66 0.22
5 -1 3 7.8 0.21
-5 1 -4 0.85 0.11
-5 1 9 23.69 0.37
-5 1 9 27.47 0.39
5 1 -9 28.6 0.36
5 1 4 1.07 0.08
5 1 4 1.08 0.12
-5 -1 -4 0.88 0.11
-5 -1 9 25.52 0.4
-5 -1 9 28.05 0.33
5 -1 -9 27.2 0.27
5 -1 4 1.22 0.11
5 -1 4 0.84 0.1
-5 1 -5 17.08 0.36
-5 1 10 0.94 0.11
-5 1 10 0.98 0.12
5 1 -10 1.23 0.12
5 1 5 18.39 0.25
5 1 5 16.35 0.36
-5 -1 -5 16.86 0.34
-5 -1 10 1.63 0.14
-5 -1 10 0.81 0.09
5 -1 -10 1.01 0.09
5 -1 5 19.6 0.33
5 -1 5 15.04 0.33
-5 1 -6 0.05 0.09
-5 1 11 3.06 0.17
-5 1 11 3.37 0.18
5 1 -11 3.61 0.18
5 1 6 0.07 0.06
5 1 6 0.03 0.07
-5 -1 -6 -0.05 0.08
-5 -1 11 3.37 0.19
-5 -1 11 3.05 0.14
5 -1 -11 3.41 0.14
5 -1 6 0.09 0.07
5 -1 6 0.08 0.08
-5 1 -7 3.56 0.22
-5 1 12 0.06 0.07
-5 1 12 0.03 0.07
5 1 -12 0.05 0.08
5 1 7 3.9 0.16
5 1 7 3.69 0.23
-5 -1 -7 3.55 0.21
-5 -1 12 -0.01 0.08
-5 -1 12 0.17 0.08
5 -1 -12 0.07 0.06
5 -1 7 4.47 0.21
5 -1 7 3.78 0.21
-5 1 -8 47.88 0.69
-5 1 13 10.81 0.32
-5 1 13 12.59 0.35
5 1 -13 12.6 0.32
5 1 8 47.09 0.49
5 1 8 48.41 0.7
-5 -1 -8 44.99 0.64
-5 -1 13 11.96 0.36
-5 -1 13 12.47 0.32
5 -1 -13 12.02 0.27
5 -1 8 52.52 0.61
5 -1 8 44.83 0.65
-5 1 -9 7.45 0.34
-5 1 14 22.68 0.47
-5 1 14 27.46 0.53
5 1 -14 26.22 0.48
5 1 9 7.32 0.25
5 1 9 7.12 0.34
-5 -1 -9 6.85 0.31
-5 -1 14 24.48 0.51
-5 -1 14 27.49 0.48
5 -1 -14 25.78 0.42
5 -1 9 8.02 0.3
5 -1 9 7.41 0.32
-5 1 -10 2.69 0.27
-5 1 15 0.08 0.11
-5 1 15 -0.04 0.11
5 1 -15 0.11 0.13
5 1 10 2.46 0.19
5 1 10 2.58 0.26
-5 -1 -10 2.21 0.23
-5 -1 15 0.17 0.12
-5 -1 15 0.13 0.1
5 -1 -15 -0.1 0.11
5 -1 10 2.88 0.22
5 -1 10 2.5 0.22
-5 1 -11 0.53 0.18
-5 1 16 0.06 0.11
-5 1 16 0.14 0.11
5 1 -16 0.13 0.12
5 1 11 0.77 0.18
-5 -1 -11 0.38 0.17
-5 -1 16 0.05 0.11
-5 -1 16 0.14 0.11
5 -1 11 0.77 0.15
5 -1 11 0.71 0.17
-5 1 -12 0.4 0.18
-5 1 17 0.19 0.12
-5 1 17 0.44 0.14
5 1 -17 0.17 0.12
5 1 12 0.39 0.16
-5 -1 -12 0.44 0.17
-5 -1 17 0.34 0.14
-5 -1 17 0.29 0.12
5 -1 12 0.43 0.14
5 -1 12 0.34 0.15
-5 1 -13 6.86 0.36
-5 1 18 0.26 0.13
-5 1 18 0 0.12
5 1 13 6.78 0.37
-5 -1 -13 6.55 0.35
-5 -1 18 -0.07 0.12
-5 -1 18 -0.18 0.09
5 -1 13 7.5 0.37
-5 1 -14 7.34 0.4
-5 1 19 0.93 0.18
-5 1 19 1.35 0.2
5 1 14 8.43 0.42
-5 -1 -14 7.44 0.39
-5 -1 19 0.98 0.19
5 -1 14 7.66 0.39
-5 1 -15 0.38 0.2
-5 1 20 0.07 0.14
5 1 15 0.71 0.19
-5 -1 -15 0.53 0.2
-5 -1 20 -0.02 0.13
5 -1 15 0.47 0.18
-5 1 -16 1.62 0.27
-5 1 21 0.1 0.15
5 1 16 1.7 0.26
-5 -1 -16 1.61 0.27
-5 -1 21 0.11 0.14
5 -1 16 1.77 0.27
-5 1 -17 0.67 0.23
5 1 17 0.84 0.23
5 -1 17 0.66 0.21
5 1 18 3.38 0.36
5 -1 18 3.63 0.35
-7 1 3 313.93 2.33
-7 1 3 318.02 2.09
-7 1 3 339.33 2.21
-7 1 4 425.14 2.73
-7 1 4 413.76 2.66
-7 1 4 446.71 2.46
-7 -1 3 313.88 2
-7 -1 4 430.14 5.7
-7 1 2 86.91 0.58
-7 1 2 91.82 0.56
-7 1 5 3.53 0.13
-7 1 5 4.29 0.14
7 1 -5 3.94 0.13
7 1 -2 78.42 0.51
-7 -1 2 84.35 0.41
-7 -1 5 4.43 0.14
-7 -1 5 4.65 0.11
7 -1 -2 78.45 0.51
-7 1 1 80.38 0.57
-7 1 6 37.73 0.38
7 1 -6 36.47 0.34
7 1 -1 67.55 0.34
7 1 -1 69.68 0.52
-7 -1 6 38.45 0.4
-7 -1 6 36.58 0.27
7 -1 -6 33.92 0.2
7 -1 -1 65.28 0.47
-7 1 7 0.96 0.09
-7 1 7 0.86 0.08
7 1 -7 0.94 0.09
7 1 0 8.89 0.12
7 1 0 8.96 0.21
-7 -1 0 0.01 0.01
-7 -1 7 -0.01 0.01
-7 -1 7 0.87 0.06
7 -1 -7 0.94 0.05
7 -1 0 8.94 0.19
-7 1 8 43.43 0.47
-7 1 8 43.49 0.44
7 1 -8 52.85 0.44
7 1 1 18.28 0.18
7 1 1 16.01 0.3
-7 -1 -1 16.57 0.31
-7 -1 8 0.01 0.01
-7 -1 8 49.15 0.35
7 -1 -8 56.85 0.26
7 -1 1 16.27 0.26
-7 1 -2 0.03 0.02
-7 1 9 9.28 0.24
7 1 -9 11.67 0.23
7 1 2 3.32 0.1
7 1 2 1.49 0.11
-7 -1 -2 2.45 0.14
-7 -1 9 9.73 0.25
-7 -1 9 10.67 0.19
7 -1 -9 11.74 0.15
7 -1 2 2.86 0.14
7 -1 2 2.42 0.15
-7 1 -3 0.49 0.1
-7 1 10 13.51 0.3
-7 1 10 14.88 0.3
7 1 -10 16.35 0.28
7 1 3 0.69 0.08
7 1 3 0.11 0.04
-7 -1 -3 0.56 0.1
-7 -1 10 14.21 0.32
-7 -1 10 15.34 0.25
7 -1 -10 15.98 0.19
7 -1 3 0.66 0.09
7 -1 3 0.56 0.09
-7 1 -4 71.25 0.75
-7 1 11 0.19 0.08
-7 1 11 0.19 0.07
7 1 -11 0.19 0.07
7 1 4 80.81 0.49
7 1 4 68.06 0.73
-7 -1 -4 69.03 0.72
-7 -1 11 0.12 0.07
-7 -1 11 0.16 0.06
7 -1 -11 0.22 0.05
7 -1 4 83.74 0.66
7 -1 4 63.27 0.69
-7 1 -5 2.42 0.19
-7 1 12 1.23 0.14
-7 1 12 1.6 0.14
7 1 -12 1.57 0.14
7 1 5 2.69 0.13
7 1 5 2.17 0.19
-7 -1 -5 1.8 0.18
-7 -1 12 1.3 0.15
-7 -1 12 1.21 0.1
7 -1 -12 1.69 0.11
7 -1 5 2.98 0.18
7 -1 5 2.24 0.17
-7 1 -6 2.88 0.21
-7 1 13 1.1 0.14
-7 1 13 1.17 0.13
7 1 -13 1.33 0.14
7 1 6 3.1 0.14
7 1 6 3 0.22
-7 -1 -6 2.86 0.2
-7 -1 13 1.26 0.15
-7 -1 13 1.2 0.13
7 -1 -13 1.31 0.11
7 -1 6 3.35 0.19
7 -1 6 2.8 0.2
-7 1 -7 0.64 0.14
-7 1 14 11.15 0.34
-7 1 14 12.07 0.34
7 1 -14 13.45 0.33
7 1 7 0.68 0.09
7 1 7 0.5 0.14
-7 -1 -7 0.39 0.14
-7 -1 14 11.27 0.35
-7 -1 14 12.95 0.32
7 -1 -14 12.27 0.26
7 -1 7 0.73 0.12
7 -1 7 0.7 0.13
-7 1 -8 67.76 0.88
-7 1 15 0.04 0.11
-7 1 15 -0.01 0.1
7 1 -15 -0.09 0.1
7 1 8 69.1 0.61
7 1 8 66.97 0.88
-7 -1 -8 65.74 0.85
-7 -1 15 0.02 0.1
-7 -1 15 0.07 0.09
7 -1 -15 0.1 0.09
7 -1 8 75.8 0.76
7 -1 8 62.07 0.83
-7 1 -9 0.93 0.19
-7 1 16 3.75 0.25
-7 1 16 4.67 0.27
7 1 -16 5.04 0.26
7 1 9 0.49 0.17
-7 -1 -9 0.26 0.17
-7 -1 16 4.5 0.26
-7 -1 16 4.97 0.25
7 -1 9 0.75 0.14
7 -1 9 0.55 0.16
-7 1 -10 0.13 0.15
-7 1 17 1.21 0.17
-7 1 17 1.41 0.18
7 1 -17 1.47 0.18
7 1 10 0.15 0.14
-7 -1 -10 0.11 0.15
-7 -1 17 1.04 0.18
-7 -1 17 1.37 0.16
7 -1 10 0.19 0.12
7 -1 10 0.11 0.14
-7 1 -11 -0.04 0.15
-7 1 18 1.13 0.18
-7 1 18 1.31 0.19
7 1 11 0.18 0.15
-7 -1 -11 1.22 0.23
-7 -1 18 1.22 0.19
-7 -1 18 1.33 0.17
7 -1 11 0.15 0.12
7 -1 11 0.03 0.13
-7 1 -12 0.06 0.17
-7 1 19 0.3 0.14
-7 1 19 0.38 0.14
7 1 12 0.1 0.14
-7 -1 -12 0.14 0.16
-7 -1 19 0.25 0.14
7 -1 12 0.13 0.13
-7 1 -13 0.68 0.21
-7 1 20 4.98 0.31
-7 1 20 5.57 0.34
7 1 13 0.62 0.18
-7 -1 -13 0.74 0.21
-7 -1 20 4.93 0.32
7 -1 13 0.59 0.17
-7 1 -14 0.81 0.23
-7 1 21 0.04 0.12
-7 1 21 0.01 0.13
7 1 14 1.19 0.22
-7 -1 -14 1.13 0.24
-7 -1 21 -0.06 0.13
7 -1 14 0.76 0.2
-7 1 -15 0.35 0.2
7 1 15 0.5 0.21
-7 -1 -15 0.36 0.21
-7 -1 22 2.3 0.27
7 -1 15 0.58 0.2
-7 1 -16 0.32 0.21
7 1 16 0.15 0.19
-7 -1 -16 0.29 0.2
-7 -1 23 0.31 0.17
7 -1 16 0.19 0.19
7 1 17 -0.07 0.18
7 -1 17 0.3 0.21
-9 1 4 195.49 1
-9 1 4 158.56 0.95
-9 1 4 203.34 1.54
-9 1 5 79.74 0.6
-9 1 5 105.42 0.68
-9 1 5 110.22 0.57
-9 -1 4 188.11 1.33
-9 -1 5 107.62 0.63
-9 1 3 111.35 0.68
-9 1 6 0 0.02
-9 1 6 0.04 0.05
9 1 -6 0.03 0.04
-9 -1 3 100.25 0.54
-9 -1 6 0.13 0.05
-9 -1 6 0.02 0.04
9 -1 -3 96.05 0.63
-9 1 7 -0.01 0.01
-9 1 7 1.29 0.1
9 1 -7 1.19 0.1
9 1 -2 13.32 0.25
-9 -1 2 14.99 0.2
-9 -1 7 1.3 0.08
9 -1 -2 13.39 0.24
-9 1 1 0.31 0.07
-9 1 8 1.93 0.11
9 1 -8 3.48 0.13
9 1 -1 0.03 0.03
9 1 -1 0.02 0.05
-9 -1 1 0.03 0.04
-9 -1 8 3.46 0.15
-9 -1 8 3.45 0.11
9 -1 -8 3.48 0.09
9 -1 -1 0.03 0.05
-9 1 0 7.63 0.23
-9 1 9 4.24 0.18
9 1 -9 4.61 0.15
9 1 0 7.38 0.14
9 1 0 6.74 0.22
-9 -1 9 4.06 0.17
-9 -1 9 4.2 0.13
9 -1 -9 4.99 0.1
9 -1 0 7.11 0.19
-9 1 -1 5.81 0.22
-9 1 10 13.97 0.31
-9 1 10 14.82 0.29
9 1 -10 16.52 0.28
9 1 1 6.42 0.14
9 1 1 5.53 0.22
-9 -1 -1 5.5 0.21
-9 -1 10 15.64 0.24
9 -1 -10 17.91 0.18
9 -1 1 5.71 0.19
9 -1 1 5.1 0.21
-9 1 11 0.28 0.08
-9 1 11 0.4 0.08
9 1 -11 0.38 0.08
9 1 2 2.39 0.11
9 1 2 1.49 0.13
-9 -1 -2 1.97 0.16
-9 -1 11 0.27 0.08
-9 -1 11 0.47 0.07
9 -1 -11 0.44 0.05
9 -1 2 2.22 0.14
9 -1 2 1.67 0.15
-9 1 -3 9.95 0.31
-9 1 12 1.02 0.13
-9 1 12 1 0.11
9 1 -12 1.07 0.13
9 1 3 12.86 0.21
-9 -1 -3 10.15 0.31
-9 -1 12 0.95 0.12
-9 -1 12 0.7 0.08
9 -1 -12 1.1 0.08
9 -1 3 12.42 0.28
9 -1 3 9.63 0.3
-9 1 -4 0.15 0.1
-9 1 13 1.28 0.15
-9 1 13 1.35 0.14
9 1 -13 1.39 0.14
9 1 4 0.27 0.06
9 1 4 0.15 0.08
-9 -1 -4 0.15 0.11
-9 -1 13 1.03 0.13
-9 -1 13 0.95 0.1
9 -1 -13 1.16 0.09
9 -1 4 0.28 0.09
9 -1 4 0.25 0.1
-9 1 -5 1.18 0.16
-9 1 14 1.36 0.16
-9 1 14 1.35 0.15
9 1 -14 1.69 0.15
9 1 5 0.98 0.11
9 1 5 0.29 0.1
-9 -1 -5 0.94 0.15
-9 -1 14 1.25 0.16
-9 -1 14 1.34 0.14
9 -1 -14 1.42 0.11
9 -1 5 1.09 0.13
9 -1 5 0.85 0.14
-9 1 -6 0.31 0.13
-9 1 15 6.12 0.28
-9 1 15 7.01 0.28
9 1 -15 8.16 0.27
9 1 6 0.37 0.08
9 1 6 0.44 0.13
-9 -1 -6 0.24 0.13
-9 -1 15 6.48 0.29
-9 -1 15 6.81 0.24
9 -1 6 0.47 0.11
9 -1 6 0.13 0.11
-9 1 -7 0.55 0.17
-9 1 16 6.06 0.29
-9 1 16 7.38 0.3
9 1 -16 8.2 0.29
9 1 7 0.22 0.12
-9 -1 -7 -0.09 0.14
-9 -1 16 7.14 0.33
-9 -1 16 7.25 0.26
9 -1 7 0.14 0.11
9 -1 7 0.19 0.13
-9 1 -8 0.44 0.18
-9 1 17 0.04 0.12
-9 1 17 0.06 0.11
9 1 -17 0.17 0.12
9 1 8 0.44 0.15
-9 -1 -8 0.48 0.17
-9 -1 17 0.13 0.11
-9 -1 17 0.12 0.09
9 -1 8 0.76 0.14
9 -1 8 0.49 0.15
-9 1 -9 9.29 0.42
-9 1 18 1.89 0.21
-9 1 18 2.58 0.22
9 1 9 9.86 0.42
-9 -1 -9 8.84 0.39
-9 -1 18 2.27 0.23
9 -1 9 10.58 0.34
9 -1 9 9.13 0.39
-9 1 -10 0.47 0.18
-9 1 19 1.66 0.21
-9 1 19 1.94 0.21
9 1 10 0.44 0.16
-9 -1 -10 0.3 0.17
-9 -1 19 1.58 0.21
9 -1 10 0.53 0.17
-9 1 -11 0 0.16
-9 1 20 3.23 0.27
-9 1 20 4.06 0.28
9 1 11 -0.11 0.14
-9 -1 -11 -0.15 0.13
-9 -1 20 3.34 0.28
9 -1 11 -0.15 0.13
-9 1 -12 2.05 0.27
-9 1 21 0.82 0.18
-9 1 21 1.27 0.2
9 1 12 1.95 0.27
-9 -1 -12 1.93 0.26
-9 -1 21 0.91 0.2
9 -1 12 2.05 0.27
-9 1 -13 0.09 0.18
-9 1 22 0.43 0.17
9 1 13 0.26 0.18
-9 -1 -13 0.05 0.16
-9 -1 22 0.39 0.17
9 -1 13 0.07 0.16
-9 1 -14 0.03 0.18
-9 1 23 0.64 0.18
9 1 14 0.23 0.18
-9 -1 -14 0.14 0.19
-9 -1 23 0.66 0.21
9 -1 14 0.13 0.18
-9 1 -15 0.47 0.22
9 1 15 0.29 0.2
-9 -1 -15 0.33 0.21
-9 -1 24 0.08 0.17
-9 -1 25 -0.03 0.16
-11 1 5 33.76 0.42
-11 1 5 53.99 0.54
-11 1 5 61.81 0.52
-11 1 6 20.24 0.34
-11 1 6 12.34 0.26
-11 -1 5 58.72 0.5
-11 1 4 55.95 0.57
-11 1 7 32.95 0.44
-11 1 7 15.01 0.28
11 1 -7 30.43 0.38
-11 -1 4 55.48 0.46
-11 -1 7 22.84 0.35
-11 -1 7 33.87 0.36
11 -1 -4 50.86 0.51
-11 1 3 24.26 0.37
-11 1 8 26.19 0.4
-11 1 8 14.37 0.28
11 1 -8 24.18 0.34
11 1 -3 21.21 0.34
-11 -1 3 23.66 0.29
-11 -1 8 25.27 0.39
-11 -1 8 26.67 0.31
11 -1 -3 20.39 0.32
-11 1 2 42.84 0.52
-11 1 9 45.54 0.5
11 1 -9 51.64 0.48
11 1 -2 37.83 0.35
11 1 -2 40.12 0.5
-11 -1 9 52.15 0.58
-11 -1 9 52.45 0.43
11 -1 -9 50.77 0.35
11 -1 -2 37.89 0.43
-11 1 1 30.25 0.46
-11 1 10 37.22 0.46
11 1 -10 40.19 0.43
11 1 -1 27.16 0.29
11 1 -1 27.37 0.44
-11 -1 1 29.23 0.46
-11 -1 10 37.01 0.51
-11 -1 10 37.85 0.38
11 -1 -10 40.78 0.3
11 -1 -1 28.6 0.39
-11 1 0 14.9 0.35
-11 1 11 3.81 0.19
-11 1 11 4.17 0.18
11 1 -11 4.31 0.17
11 1 0 15.04 0.22
11 1 0 14.9 0.35
-11 -1 11 3.55 0.19
-11 -1 11 3.93 0.14
11 -1 -11 4.62 0.12
11 -1 0 15.18 0.3
11 -1 0 7.87 0.26
-11 1 -1 16.9 0.39
-11 1 12 7.58 0.27
-11 1 12 7.48 0.24
11 1 -12 8.93 0.23
11 1 1 18.26 0.25
11 1 1 15.82 0.38
-11 -1 -1 14.69 0.36
-11 -1 12 7.64 0.2
11 -1 -12 9.01 0.15
11 -1 1 17.69 0.33
11 -1 1 14.22 0.35
-11 1 -2 5.98 0.25
-11 1 13 3.42 0.2
-11 1 13 3.63 0.18
11 1 -13 4.28 0.19
11 1 2 17.86 0.25
11 1 2 14.12 0.37
-11 -1 -2 14.84 0.39
-11 -1 13 3.25 0.19
11 -1 -13 4.15 0.12
11 -1 2 16.68 0.33
11 -1 2 13.67 0.37
-11 1 -3 0 0.02
-11 1 14 2.3 0.19
-11 1 14 2.14 0.17
11 1 -14 2.64 0.17
11 1 3 3.65 0.15
11 1 3 -0.02 0.02
-11 -1 -3 2.81 0.22
-11 -1 14 2.15 0.19
-11 -1 14 2.29 0.14
11 -1 -14 2.45 0.11
11 -1 3 3.46 0.2
11 -1 3 2.68 0.21
-11 1 -4 6.35 0.29
-11 1 15 1.74 0.19
-11 1 15 1.83 0.18
11 1 -15 2.39 0.17
11 1 4 10.96 0.23
11 1 4 -0.02 0.03
-11 -1 -4 9.59 0.35
-11 -1 15 1.68 0.19
-11 -1 15 1.75 0.14
11 -1 4 11.01 0.3
11 -1 4 8.79 0.34
-11 1 -5 0.18 0.13
-11 1 16 9.48 0.34
-11 1 16 10.54 0.33
11 1 -16 12.64 0.32
11 1 5 0.03 0.11
-11 -1 -5 -0.04 0.11
-11 -1 16 9.78 0.36
-11 -1 16 10.23 0.28
11 -1 5 0.17 0.1
11 -1 5 0.16 0.12
-11 1 -6 22.61 0.56
-11 1 17 0.76 0.16
-11 1 17 0.72 0.14
11 1 -17 0.77 0.14
11 1 6 22.99 0.57
-11 -1 -6 22.51 0.55
-11 -1 17 0.75 0.16
-11 -1 17 0.91 0.13
11 -1 6 27.84 0.48
11 -1 6 21.03 0.53
-11 1 -7 5.35 0.33
-11 1 18 15.11 0.46
-11 1 18 15.55 0.43
11 1 7 5.34 0.33
-11 -1 -7 5.38 0.34
-11 -1 18 14.97 0.47
11 -1 7 5.98 0.27
11 -1 7 5.13 0.31
-11 1 -8 0.03 0.15
-11 1 19 0.65 0.15
-11 1 19 0.76 0.15
11 1 8 -0.11 0.12
-11 -1 -8 0.17 0.15
-11 -1 19 0.46 0.14
11 -1 8 -0.02 0.12
-11 1 -9 1.07 0.21
-11 1 20 0.89 0.18
-11 1 20 1.03 0.17
11 1 9 0.79 0.2
-11 -1 -9 0.67 0.19
-11 -1 20 1.01 0.19
11 -1 9 0.58 0.18
-11 1 -10 -0.01 0.16
-11 1 21 0.61 0.17
-11 1 21 0.54 0.15
11 1 10 -0.02 0.15
-11 -1 -10 0.01 0.16
-11 -1 21 0.48 0.17
11 -1 10 -0.11 0.14
-11 1 -11 0.2 0.19
-11 1 22 0.3 0.15
11 1 11 0.02 0.16
-11 -1 -11 -0.1 0.16
-11 -1 22 0.2 0.15
11 -1 11 -0.06 0.15
-11 1 -12 0.62 0.22
-11 1 23 1.15 0.21
11 1 12 0.81 0.22
-11 -1 -12 0.47 0.21
-11 -1 23 1.21 0.23
11 -1 12 0.57 0.2
-11 1 -13 -0.19 0.19
-11 1 24 -0.06 0.14
11 1 13 0.2 0.19
-11 -1 -13 -0.01 0.18
-11 -1 24 0.03 0.16
11 -1 13 0.13 0.18
-11 1 -14 0.08 0.21
-11 1 25 0.05 0.15
11 1 14 -0.06 0.18
-11 -1 -14 0.07 0.2
-11 -1 25 -0.1 0.15
11 -1 14 -0.27 0.17
-13 1 6 1.25 0.13
-13 1 6 1.22 0.14
-13 1 6 0.16 0.04
-13 1 7 41.71 0.52
-13 1 7 42.04 0.51
-13 -1 6 0.52 0.07
-13 -1 7 41.98 0.49
-13 1 5 16.06 0.31
-13 1 8 16.68 0.35
-13 1 8 16.74 0.33
13 1 -8 15.31 0.3
-13 -1 5 7.12 0.19
-13 -1 8 16.75 0.33
-13 -1 8 14.28 0.26
13 -1 -5 14.52 0.31
-13 1 4 1.07 0.13
-13 1 9 0.03 0.07
-13 1 9 0.08 0.06
13 1 -9 0.06 0.06
13 1 -4 1.11 0.13
-13 -1 4 1.06 0.1
-13 -1 9 -0.02 0.06
-13 -1 9 0.03 0.05
13 -1 -4 0.95 0.11
-13 1 3 3.87 0.19
-13 1 10 3.22 0.18
-13 1 10 2.97 0.16
13 1 -10 2.81 0.15
13 1 -3 3.16 0.13
13 1 -3 3.36 0.18
-13 -1 10 2.83 0.16
-13 -1 10 3.09 0.14
13 -1 -10 2.93 0.12
13 -1 -3 3.4 0.16
-13 1 2 -0.03 0.07
-13 1 11 7.67 0.26
-13 1 11 9.23 0.26
13 1 -11 9.9 0.24
13 1 -2 0.02 0.04
13 1 -2 0.07 0.07
-13 -1 11 9.19 0.29
-13 -1 11 9.11 0.21
13 -1 -11 9.56 0.18
13 -1 -2 0.07 0.06
-13 1 1 0.12 0.08
-13 1 12 0.1 0.05
-13 1 12 0.32 0.08
13 1 -12 0.48 0.09
13 1 -1 0.14 0.06
13 1 -1 0.16 0.08
-13 -1 1 0.04 0.09
-13 -1 12 0.39 0.1
-13 -1 12 0.25 0.06
13 -1 -12 0.38 0.06
13 -1 -1 0.14 0.07
-13 1 0 5.05 0.25
-13 1 13 0.03 0.08
-13 1 13 0.1 0.07
13 1 -13 -0.05 0.07
13 1 0 5.68 0.17
13 1 0 5.12 0.25
-13 -1 0 1.62 0.14
-13 -1 13 0.03 0.08
-13 -1 13 0.02 0.03
13 -1 -13 0.07 0.05
13 -1 0 5.36 0.2
-13 1 -1 4.79 0.24
-13 1 14 1.81 0.18
-13 1 14 1.95 0.16
13 1 -14 2.27 0.16
13 1 1 7.95 0.2
13 1 1 6.95 0.29
-13 -1 -1 0.04 0.03
-13 -1 14 0.02 0.02
-13 -1 14 1.52 0.12
13 -1 1 7.2 0.25
-13 1 -2 -0.01 0.03
-13 1 15 0.51 0.12
-13 1 15 0.36 0.1
13 1 -15 0.44 0.11
13 1 2 30.47 0.35
-13 -1 -2 15.14 0.42
-13 -1 15 0.02 0.02
-13 -1 15 0.3 0.08
13 -1 2 30.6 0.46
13 -1 2 21.81 0.5
-13 1 -3 1.29 0.18
-13 1 16 0.41 0.13
-13 1 16 0.21 0.1
13 1 -16 0.42 0.11
13 1 3 1.4 0.19
-13 -1 -3 1.73 0.21
-13 -1 16 0.22 0.11
-13 -1 16 0.34 0.09
13 -1 3 2.06 0.19
13 -1 3 1.62 0.19
-13 1 -4 0.28 0.14
-13 1 17 2.21 0.22
-13 1 17 2.44 0.2
13 1 4 0.17 0.12
-13 -1 -4 0.28 0.14
-13 -1 17 2.49 0.22
-13 -1 17 2.76 0.18
13 -1 4 0.21 0.11
13 -1 4 0.2 0.13
-13 1 -5 0.1 0.14
-13 1 18 6.26 0.32
-13 1 18 6.79 0.3
13 1 5 0.08 0.12
-13 -1 -5 0.21 0.15
-13 -1 18 6.4 0.33
13 -1 5 0.17 0.11
13 -1 5 0.04 0.12
-13 1 -6 21.26 0.59
-13 1 19 0.26 0.14
-13 1 19 0.27 0.12
13 1 6 21.24 0.58
-13 -1 -6 21 0.57
-13 -1 19 0.26 0.13
13 -1 6 19.51 0.55
-13 1 -7 2.46 0.29
-13 1 20 0.21 0.13
-13 1 20 0.05 0.11
13 1 7 2.31 0.27
-13 -1 -7 2.68 0.29
-13 -1 20 0.11 0.12
13 -1 7 2.48 0.26
-13 1 -8 2.26 0.28
-13 1 21 1.16 0.21
-13 1 21 1.45 0.19
13 1 8 2.63 0.29
-13 -1 -8 2.43 0.29
-13 -1 21 1.26 0.21
13 -1 8 2.16 0.27
-13 1 -9 0.03 0.17
-13 1 22 1.9 0.25
13 1 9 0.01 0.15
-13 -1 -9 0.26 0.19
-13 -1 22 2.04 0.25
13 -1 9 0.06 0.15
-13 1 -10 -0.1 0.17
-13 1 23 1.08 0.21
13 1 10 0.12 0.17
-13 -1 -10 0.05 0.17
-13 -1 23 1.12 0.22
13 -1 10 0.08 0.17
-13 1 -11 0.38 0.22
-13 1 24 0.18 0.16
13 1 11 0.09 0.17
-13 -1 -11 0.45 0.21
-13 -1 24 0.14 0.16
13 -1 11 0.19 0.19
-13 1 -12 1.91 0.3
-13 1 25 0.44 0.18
13 1 12 1.94 0.3
-13 -1 -12 1.8 0.3
-13 -1 25 0.71 0.21
13 -1 12 1.86 0.3
-13 1 26 0 0.16
13 1 13 0.02 0.2
-13 -1 26 0.08 0.17
13 -1 13 -0.2 0.17
-15 1 7 23.58 0.42
-15 1 7 24.24 0.43
-15 1 8 9.83 0.28
-15 1 8 9.79 0.28
-15 -1 7 23.09 0.38
-15 -1 8 10.3 0.27
-15 1 6 1.81 0.15
-15 1 9 11.92 0.32
-15 1 9 11.83 0.3
-15 -1 6 1.85 0.14
-15 -1 9 12.02 0.3
15 -1 -6 1.65 0.15
-15 1 5 26.35 0.45
-15 1 10 39.83 0.58
-15 1 10 38.69 0.52
15 1 -10 37.11 0.48
-15 -1 5 15.14 0.29
-15 -1 10 39.3 0.55
-15 -1 10 23.47 0.36
15 -1 -5 22.79 0.4
-15 1 4 0.94 0.13
-15 1 11 0.2 0.09
-15 1 11 0.02 0.07
15 1 -11 0.06 0.08
15 1 -4 0.62 0.08
15 1 -4 0.71 0.11
-15 -1 11 0.2 0.09
-15 -1 11 -0.03 0.04
15 -1 -11 0.06 0.06
15 -1 -4 0.67 0.1
-15 1 3 -0.09 0.07
-15 1 12 25.76 0.49
-15 1 12 25.98 0.44
15 1 -12 26.6 0.4
15 1 -3 -0.07 0.05
15 1 -3 0 0.08
-15 -1 12 26.31 0.49
15 -1 -12 26.28 0.32
15 -1 -3 -0.01 0.06
-15 1 2 -0.07 0.08
-15 1 13 0.03 0.03
-15 1 13 15.26 0.35
15 1 -13 16.19 0.32
15 1 -2 0.01 0.06
15 1 -2 -0.01 0.08
-15 -1 13 14.51 0.38
-15 -1 13 9.36 0.23
15 -1 -13 16.62 0.24
15 -1 -2 -0.01 0.07
-15 1 1 2.97 0.23
-15 1 14 0 0.02
-15 1 14 15.51 0.36
15 1 -14 16.9 0.33
15 1 -1 2.91 0.15
15 1 -1 2.76 0.2
-15 -1 1 1.47 0.15
-15 -1 14 15.19 0.41
-15 -1 14 14.48 0.29
15 -1 -1 3.01 0.19
15 -1 -1 0 0.02
-15 1 0 0.23 0.12
-15 1 15 1.07 0.15
-15 1 15 1.61 0.17
15 1 -15 1.7 0.17
15 1 0 0.1 0.07
15 1 0 0.11 0.11
-15 -1 0 0.02 0.03
-15 -1 15 0.27 0.08
-15 -1 15 1.55 0.14
15 -1 0 0.03 0.09
15 -1 0 0.03 0.03
-15 1 -1 1.33 0.19
-15 1 16 4.71 0.27
-15 1 16 4.35 0.22
15 1 -16 5.78 0.23
15 1 1 1.25 0.17
-15 -1 -1 1.17 0.17
-15 -1 16 4.21 0.25
-15 -1 16 4.46 0.19
15 -1 1 1.55 0.18
15 -1 1 1.07 0.16
-15 1 -2 13.87 0.45
-15 1 17 0.01 0.09
-15 1 17 0.01 0.09
15 1 2 13.17 0.43
-15 -1 -2 13.7 0.44
-15 -1 17 -0.01 0.1
15 -1 2 15.5 0.37
15 -1 2 11.74 0.41
-15 1 -3 3.44 0.28
-15 1 18 13.18 0.44
-15 1 18 13.95 0.39
15 1 3 3.88 0.27
-15 -1 -3 3.83 0.29
-15 -1 18 12.85 0.44
15 -1 3 4.94 0.26
15 -1 3 3.49 0.28
-15 1 19 0.84 0.18
-15 1 19 0.83 0.15
15 1 4 2.26 0.25
-15 -1 -4 1.8 0.25
-15 -1 19 0.71 0.17
15 -1 4 1.58 0.22
-15 1 -5 4.8 0.34
-15 1 20 0.53 0.16
-15 1 20 0.47 0.13
15 1 5 4.75 0.33
-15 -1 -5 4.48 0.34
-15 -1 20 0.53 0.17
15 -1 5 4.03 0.31
-15 1 -6 7.26 0.4
-15 1 21 1.04 0.2
15 1 6 7.36 0.39
-15 -1 -6 7.67 0.4
-15 -1 21 0.87 0.19
15 -1 6 7.41 0.4
-15 1 -7 2 0.27
-15 1 22 4.88 0.32
15 1 7 1.83 0.26
-15 -1 -7 1.82 0.27
-15 -1 22 5.2 0.34
15 -1 7 1.4 0.24
-15 1 -8 1.8 0.27
-15 1 23 0.11 0.15
15 1 8 2.3 0.3
-15 -1 -8 2.29 0.3
-15 -1 23 0.21 0.17
15 -1 8 2.25 0.29
-15 1 -9 0.39 0.2
-15 1 24 0.72 0.2
15 1 9 0.45 0.19
-15 -1 -9 0.12 0.2
-15 -1 24 0.93 0.21
15 -1 9 0.27 0.18
-15 1 -10 0.06 0.18
-15 1 25 0.4 0.19
15 1 10 0.05 0.18
-15 -1 -10 0.27 0.2
-15 -1 25 0.47 0.19
15 -1 10 -0.15 0.17
-15 1 -11 0.02 0.2
-15 1 26 0.19 0.17
15 1 11 0.33 0.2
-15 -1 -11 0.3 0.21
-15 -1 26 0.04 0.17
15 -1 11 0.07 0.2
-17 1 8 41.73 0.59
-17 1 8 41.66 0.6
-17 1 9 1.53 0.17
-17 1 9 1.56 0.17
-17 -1 8 40.29 0.54
-17 -1 9 1.42 0.15
-17 1 10 0.77 0.12
-17 1 10 0.79 0.12
-17 -1 7 0.12 0.08
-17 -1 10 0.95 0.13
17 -1 -7 0.07 0.08
-17 1 6 0 0.09
-17 1 11 1.12 0.15
-17 1 11 1.34 0.16
17 1 -11 0.92 0.12
-17 -1 6 0 0.07
-17 -1 11 1.21 0.15
-17 -1 11 1.27 0.14
17 -1 -6 0.02 0.08
-17 1 5 2.22 0.19
-17 1 12 25.52 0.5
-17 1 12 25.6 0.46
17 1 -12 24.85 0.43
17 1 -5 2 0.14
17 1 -5 2.05 0.18
-17 -1 12 26.04 0.5
-17 -1 12 26.91 0.42
17 -1 -12 24.47 0.36
17 -1 -5 2.09 0.17
-17 1 4 -0.1 0.08
-17 1 13 19.87 0.47
-17 1 13 18.85 0.4
17 1 -13 19.94 0.38
17 1 -4 0 0.06
17 1 -4 0 0.08
-17 -1 13 18.55 0.44
-17 -1 13 19.46 0.35
17 -1 -13 19.28 0.3
17 -1 -4 0.07 0.08
-17 1 3 0.18 0.12
-17 1 14 2.5 0.19
-17 1 14 4.1 0.22
17 1 -14 3.97 0.21
17 1 -3 0.26 0.08
17 1 -3 0.19 0.1
-17 -1 14 4.13 0.25
-17 -1 14 3.87 0.18
17 -1 -3 0.21 0.09
-17 1 2 4 0.25
-17 1 15 -0.03 0.07
-17 1 15 0 0.09
17 1 -15 0.06 0.1
17 1 -2 4.04 0.18
17 1 -2 4.03 0.25
-17 -1 15 0.02 0.09
-17 -1 15 -0.01 0.07
17 -1 -2 4.14 0.22
17 -1 -2 3.62 0.25
-17 1 1 1.11 0.18
-17 1 16 0.02 0.11
-17 1 16 0.16 0.1
17 1 -16 -0.02 0.1
17 1 -1 1.11 0.17
-17 -1 16 0.07 0.11
-17 -1 16 0.08 0.08
17 -1 -1 1.3 0.15
17 -1 -1 1.02 0.17
-17 1 0 2.73 0.25
-17 1 17 3.11 0.24
-17 1 17 3.14 0.21
17 1 0 2.49 0.24
-17 -1 0 2.49 0.25
-17 -1 17 2.97 0.24
17 -1 0 2.92 0.21
17 -1 0 2.19 0.23
-17 1 -1 1.61 0.22
-17 1 18 5.37 0.3
-17 1 18 5.56 0.27
17 1 1 1.08 0.18
-17 -1 -1 1.62 0.22
-17 -1 18 5.08 0.3
17 -1 1 1.62 0.17
17 -1 1 1.07 0.18
-17 1 -2 6.4 0.35
-17 1 19 1.39 0.21
-17 1 19 1.2 0.17
17 1 2 5.49 0.32
-17 -1 -2 6.06 0.34
-17 -1 19 1.08 0.2
17 -1 2 5.5 0.33
-17 1 -3 0.68 0.2
-17 1 20 -0.12 0.12
-17 1 20 0.02 0.1
17 1 3 0.46 0.17
-17 -1 -3 0.56 0.19
-17 -1 20 -0.08 0.11
17 -1 3 0.61 0.18
-17 1 -4 0.98 0.23
-17 1 21 0.02 0.13
17 1 4 1.05 0.21
-17 -1 -4 1.08 0.23
-17 -1 21 0.09 0.14
17 -1 4 0.92 0.2
-17 1 -5 0.18 0.17
-17 1 22 0.93 0.2
17 1 5 -0.02 0.14
-17 -1 -5 0.08 0.17
-17 -1 22 0.93 0.2
17 -1 5 -0.04 0.14
-17 1 -6 -0.05 0.17
-17 1 23 0.01 0.15
17 1 6 0.04 0.16
-17 -1 -6 -0.01 0.18
-17 -1 23 0.29 0.17
17 -1 6 -0.19 0.15
-17 1 -7 0.05 0.18
-17 1 24 3.68 0.33
17 1 7 0.02 0.17
-17 -1 -7 0.23 0.2
-17 -1 24 3.57 0.33
17 -1 7 0.18 0.17
-17 1 -8 0.48 0.23
-17 1 25 0.74 0.21
17 1 8 0.74 0.22
-17 -1 -8 0.88 0.24
-17 -1 25 0.88 0.21
17 -1 8 0.57 0.21
-17 1 -9 0.12 0.2
-17 1 26 0.08 0.17
17 1 9 0.16 0.2
-17 -1 -9 -0.04 0.18
-17 -1 26 0.06 0.17
17 -1 9 -0.06 0.19
-17 1 27 0.03 0.17
17 1 10 -0.01 0.18
-17 -1 27 0.25 0.19
17 -1 10 -0.06 0.19
-19 1 9 1.01 0.14
-19 1 10 7.47 0.29
-19 1 10 7.37 0.29
-19 -1 9 1.08 0.14
-19 -1 10 7.28 0.28
-19 1 11 0.04 0.1
-19 1 11 0.14 0.1
19 1 -11 0.05 0.09
-19 -1 8 0.58 0.11
-19 -1 11 0.06 0.09
19 -1 -8 0.5 0.12
-19 1 12 8.81 0.33
-19 1 12 8.98 0.31
19 1 -12 7.81 0.28
-19 -1 7 2.14 0.18
-19 -1 12 8.39 0.31
19 -1 -7 2.06 0.19
-19 1 6 0.05 0.1
-19 1 13 2.86 0.23
-19 1 13 2.89 0.2
19 1 -13 3.03 0.2
19 1 -6 0.2 0.08
19 1 -6 0.02 0.1
-19 -1 13 2.88 0.22
-19 -1 13 2.82 0.18
19 -1 -13 2.76 0.18
19 -1 -6 0.04 0.09
-19 1 5 6.42 0.31
-19 1 14 0.1 0.11
-19 1 14 0.19 0.11
19 1 -14 0.02 0.1
19 1 -5 6.14 0.23
19 1 -5 6.02 0.28
-19 -1 14 0.05 0.1
-19 -1 14 0.09 0.08
19 -1 -14 0.06 0.08
19 -1 -5 6.47 0.27
-19 1 4 5.18 0.29
-19 1 15 2.69 0.22
-19 1 15 2.63 0.2
19 1 -15 2.86 0.2
19 1 -4 4.87 0.21
19 1 -4 4.93 0.28
-19 -1 15 2.93 0.24
-19 -1 15 2.7 0.18
19 -1 -4 5.18 0.25
-19 1 3 0.57 0.16
-19 1 16 4.78 0.29
-19 1 16 5.02 0.26
19 1 -16 5.59 0.25
19 1 -3 0.57 0.15
-19 -1 16 4.91 0.29
-19 -1 16 5.08 0.22
19 -1 -3 0.48 0.12
19 -1 -3 0.39 0.13
-19 1 2 6.97 0.34
-19 1 17 5.82 0.32
-19 1 17 6.43 0.28
19 1 -2 6.35 0.32
-19 -1 17 5.68 0.32
19 -1 -2 7.03 0.29
19 -1 -2 5.64 0.31
-19 1 1 3.83 0.29
-19 1 18 15.59 0.48
-19 1 18 16.29 0.42
19 1 -1 3.33 0.27
-19 -1 18 16.08 0.5
19 -1 -1 3.75 0.24
19 -1 -1 3.03 0.27
-19 1 0 0.89 0.19
-19 1 19 4.8 0.3
-19 1 19 5.2 0.28
19 1 0 0.95 0.19
-19 -1 19 4.74 0.32
19 -1 0 0.83 0.19
-19 1 -1 0.4 0.17
-19 1 20 0.76 0.18
-19 1 20 0.7 0.15
19 1 1 0.33 0.16
-19 -1 20 0.73 0.18
19 -1 1 0.33 0.15
-19 1 -2 4.28 0.33
-19 1 21 2.27 0.26
19 1 2 3.61 0.3
-19 -1 -2 3.99 0.32
-19 -1 21 1.96 0.24
19 -1 2 3.42 0.31
-19 1 -3 2.16 0.28
-19 1 22 0.64 0.19
19 1 3 2.42 0.27
-19 -1 -3 2.68 0.31
-19 -1 22 0.65 0.18
19 -1 3 2.26 0.28
-19 1 -4 1.6 0.26
-19 1 23 0.17 0.15
19 1 4 1.76 0.26
-19 -1 -4 1.84 0.28
-19 -1 23 0.19 0.16
19 -1 4 1.61 0.25
-19 1 -5 0.08 0.19
-19 1 24 0.7 0.21
19 1 5 0 0.17
-19 -1 -5 0.38 0.19
-19 -1 24 0.37 0.17
19 -1 5 -0.2 0.16
-19 1 -6 0.13 0.19
-19 1 25 -0.09 0.15
19 1 6 0.38 0.19
-19 -1 25 0.05 0.15
19 -1 6 0.43 0.21
-19 1 -7 0.13 0.19
-19 1 26 0.07 0.17
19 1 7 0.02 0.19
-19 -1 26 0.06 0.16
19 -1 7 0.17 0.18
-19 1 -8 0.55 0.25
-19 1 27 -0.12 0.17
19 1 8 0.72 0.24
-19 -1 27 -0.07 0.17
19 -1 8 0.73 0.24
-21 1 10 38.32 0.64
-21 1 11 0.33 0.13
-21 1 11 0.3 0.12
-21 -1 10 38.2 0.6
-21 1 12 38.94 0.66
-21 1 12 39.9 0.65
21 1 -12 38.85 0.62
-21 -1 9 3.63 0.23
-21 -1 12 39.14 0.64
21 -1 -9 3.16 0.24
-21 1 13 0.6 0.15
-21 1 13 0.42 0.14
21 1 -13 0.27 0.13
21 1 -8 11.04 0.37
-21 -1 13 0.6 0.14
21 -1 -8 10.64 0.36
-21 1 14 5.96 0.3
-21 1 14 5.86 0.28
21 1 -14 5.81 0.29
21 1 -7 3.33 0.21
21 1 -7 2.8 0.24
-21 -1 14 5.92 0.3
21 -1 -14 6.16 0.25
21 -1 -7 3.26 0.23
-21 1 15 3.17 0.24
-21 1 15 3.19 0.23
21 1 -15 2.77 0.23
21 1 -6 18.7 0.4
21 1 -6 17.85 0.48
-21 -1 15 3.43 0.25
-21 -1 15 3.41 0.21
21 -1 -6 18.85 0.45
-21 1 5 0.9 0.19
-21 1 16 4.73 0.29
-21 1 16 4.64 0.27
21 1 -16 5.28 0.26
21 1 -5 0.7 0.17
-21 -1 16 5.04 0.3
21 -1 -5 0.71 0.15
-21 1 4 0.05 0.14
-21 1 17 0.77 0.17
-21 1 17 0.79 0.15
21 1 -4 -0.27 0.11
-21 -1 17 0.54 0.16
21 -1 -4 0.06 0.12
21 -1 -4 0.04 0.13
-21 1 3 7.53 0.38
-21 1 18 1.22 0.21
-21 1 18 1.49 0.18
21 1 -3 6.76 0.34
-21 -1 18 1.27 0.19
21 -1 -3 7.64 0.31
21 -1 -3 6.11 0.33
-21 1 2 29.59 0.69
-21 1 19 1.58 0.22
-21 1 19 1.84 0.21
21 1 -2 28.81 0.67
-21 -1 19 1.93 0.23
21 -1 -2 25.7 0.64
-21 1 1 0.44 0.19
-21 1 20 -0.07 0.11
21 1 -1 0.74 0.19
-21 -1 20 0.07 0.14
21 -1 -1 0.56 0.17
-21 1 0 0.7 0.21
-21 1 21 1.74 0.24
21 1 0 0.87 0.21
-21 -1 21 1.96 0.25
21 -1 0 0.74 0.18
-21 1 -1 0.37 0.21
-21 1 22 0.78 0.2
21 1 1 0.73 0.2
-21 -1 22 0.87 0.19
21 -1 1 0.41 0.18
-21 1 -2 0.93 0.24
-21 1 23 0.05 0.14
21 1 2 0.69 0.21
-21 -1 23 -0.02 0.14
21 -1 2 0.71 0.21
-21 1 -3 1.82 0.29
-21 1 24 0.07 0.16
21 1 3 1.59 0.26
-21 -1 24 0.04 0.14
21 -1 3 1.3 0.25
-21 1 -4 0.85 0.24
-21 1 25 0.13 0.18
21 1 4 0.88 0.23
-21 -1 25 0.21 0.18
21 -1 4 1.12 0.24
-21 1 -5 -0.16 0.19
-21 1 26 0.7 0.21
21 1 5 -0.01 0.18
-21 -1 26 0.69 0.2
21 -1 5 0.02 0.18
-21 1 -6 0.2 0.21
-21 1 27 0.05 0.17
21 1 6 0.09 0.2
-21 -1 27 0.07 0.16
21 -1 6 0.03 0.2
-23 1 12 6.94 0.33
-23 -1 11 4.4 0.25
-23 -1 12 6.91 0.31
-23 1 13 1.07 0.18
-23 1 13 1.08 0.17
23 1 -13 0.82 0.16
-23 -1 10 0.35 0.12
-23 -1 13 1.17 0.17
23 -1 -10 0.33 0.13
-23 1 14 6.3 0.33
-23 1 14 6.84 0.31
23 1 -14 6.59 0.31
23 1 -9 2.39 0.21
23 1 -9 2.61 0.22
-23 -1 14 6.28 0.31
23 -1 -9 2.88 0.24
-23 1 15 0.21 0.14
-23 1 15 0.11 0.12
23 1 -15 0.38 0.14
23 1 -8 4.5 0.25
23 1 -8 4.82 0.28
-23 -1 15 0.13 0.11
23 -1 -8 4.88 0.28
-23 1 16 6.6 0.35
-23 1 16 7.49 0.33
23 1 -16 7.83 0.31
23 1 -7 0.14 0.1
23 1 -7 0.18 0.13
-23 -1 16 7.17 0.35
23 -1 -7 0.2 0.11
-23 1 17 3.41 0.28
-23 1 17 3.81 0.26
23 1 -6 2.17 0.22
-23 -1 17 3.81 0.28
23 -1 -6 2.49 0.23
23 -1 -6 1.68 0.23
-23 1 5 0.23 0.15
-23 1 18 2.6 0.25
-23 1 18 3.07 0.24
23 1 -5 0.06 0.13
-23 -1 18 2.89 0.26
23 -1 -5 0.31 0.13
23 -1 -5 0.15 0.15
-23 1 4 0.73 0.19
-23 1 19 0.16 0.15
-23 1 19 0.01 0.11
23 1 -4 0.73 0.18
-23 -1 19 0.15 0.13
23 -1 -4 0.5 0.17
-23 1 3 0.08 0.15
-23 1 20 0.43 0.16
23 1 -3 -0.04 0.14
-23 -1 20 0.55 0.16
23 -1 -3 -0.03 0.13
-23 1 2 7.85 0.41
-23 1 21 1.42 0.23
23 1 -2 7.93 0.41
-23 -1 21 1.4 0.23
23 -1 -2 7.09 0.38
-23 1 1 0.29 0.18
-23 1 22 2.02 0.26
23 1 -1 0.21 0.17
-23 -1 22 1.81 0.25
23 -1 -1 0.29 0.17
-23 1 0 1.57 0.27
-23 1 23 -0.03 0.15
23 1 0 1.58 0.26
-23 -1 23 0.04 0.14
23 -1 0 1.49 0.24
-23 1 -1 0.03 0.18
-23 1 24 -0.07 0.15
23 1 1 0.05 0.16
-23 -1 24 -0.03 0.15
23 -1 1 0.2 0.18
-23 1 -2 0.06 0.2
-23 1 25 0.35 0.19
23 1 2 0.03 0.18
-23 -1 25 0.49 0.2
23 -1 2 0.06 0.17
-23 1 -3 0.2 0.2
-23 1 26 1.87 0.29
23 1 3 0.15 0.19
-23 -1 26 1.78 0.28
23 -1 3 0.02 0.17
-23 1 -4 0.37 0.23
-23 1 27 0.01 0.18
23 1 4 0.19 0.19
-23 -1 27 0.12 0.19
23 -1 4 0.27 0.2
-25 1 13 0.47 0.13
-25 -1 12 0.67 0.14
-25 -1 13 0.62 0.14
25 -1 -12 0.43 0.14
-25 1 14 2.31 0.24
25 1 -14 2.29 0.25
-25 -1 11 2.35 0.23
-25 -1 14 2.2 0.22
25 -1 -11 2.04 0.23
-25 1 15 -0.06 0.11
-25 1 15 -0.05 0.11
25 1 -15 0.1 0.12
25 1 -10 3.35 0.24
25 1 -10 3.23 0.25
-25 -1 15 -0.06 0.1
25 -1 -10 3.01 0.24
-25 1 16 0.92 0.18
-25 1 16 0.87 0.17
25 1 -16 0.85 0.16
25 1 -9 0.76 0.14
25 1 -9 0.64 0.15
-25 -1 16 0.73 0.15
25 -1 -9 0.79 0.16
-25 1 17 0.17 0.14
-25 1 17 0.1 0.12
25 1 -8 0.76 0.17
-25 -1 17 0.19 0.13
25 -1 -8 1.15 0.17
-25 1 18 0.64 0.17
-25 1 18 0.58 0.15
25 1 -7 0.69 0.17
-25 -1 18 0.74 0.17
25 -1 -7 0.71 0.16
25 -1 -7 0.48 0.15
-25 1 19 0.39 0.16
-25 1 19 0.21 0.13
25 1 -6 1.39 0.21
-25 -1 19 0.1 0.14
25 -1 -6 0.92 0.2
-25 1 20 0.4 0.16
25 1 -5 0.06 0.14
-25 -1 20 0.32 0.16
25 -1 -5 0.12 0.15
-25 1 21 0.06 0.15
25 1 -4 0.08 0.15
-25 -1 21 0.09 0.14
25 -1 -4 0.22 0.15
-25 1 22 0.52 0.18
25 1 -3 0.21 0.17
-25 -1 22 0.42 0.18
25 -1 -3 0.15 0.16
-25 1 2 0.96 0.25
-25 1 23 0.06 0.15
25 1 -2 0.99 0.22
-25 -1 23 0.18 0.16
25 -1 -2 0.92 0.21
-25 1 1 0.52 0.21
-25 1 24 0.29 0.16
25 1 -1 0.3 0.18
-25 -1 24 0.24 0.17
25 -1 -1 0.19 0.17
-25 1 0 1.22 0.27
-25 1 25 0.18 0.18
25 1 0 1.18 0.25
-25 -1 25 0.22 0.16
25 -1 0 1.26 0.26
-25 1 -1 0.12 0.19
-25 1 26 0.11 0.17
25 1 1 -0.05 0.16
-25 -1 26 0.13 0.16
25 -1 1 -0.06 0.17
-25 1 -2 0.07 0.2
-25 1 27 0.05 0.18
25 1 2 -0.11 0.19
-25 -1 27 0.02 0.16
25 -1 2 -0.17 0.18
27 1 -14 2.47 0.26
-27 -1 13 1.52 0.2
-27 -1 14 2.57 0.24
27 -1 -13 1.85 0.23
-27 1 15 1.72 0.23
27 1 -15 1.56 0.21
27 1 -12 0.54 0.16
-27 -1 15 1.75 0.22
27 -1 -12 0.66 0.16
-27 1 16 1.13 0.19
27 1 -11 0.4 0.13
27 1 -11 0.35 0.14
-27 -1 16 1.1 0.2
27 -1 -11 0.55 0.16
-27 1 17 1.62 0.22
-27 1 17 1.89 0.23
27 1 -10 1.65 0.21
-27 -1 17 1.58 0.22
27 -1 -10 1.76 0.21
-27 1 18 1.64 0.23
-27 1 18 1.67 0.22
27 1 -9 0.58 0.16
-27 -1 18 1.27 0.21
27 -1 -9 0.61 0.16
-27 1 19 1.02 0.2
27 1 -8 0.02 0.12
-27 -1 19 0.98 0.2
27 -1 -8 -0.02 0.12
-27 1 20 3.58 0.31
27 1 -7 0.06 0.14
-27 -1 20 3.14 0.3
27 -1 -7 0.22 0.15
-27 1 21 -0.03 0.13
27 1 -6 0.1 0.16
-27 -1 21 0.06 0.13
27 -1 -6 0.1 0.15
-27 1 22 0.08 0.16
27 1 -5 0.02 0.15
-27 -1 22 0.07 0.14
27 -1 -5 0.05 0.14
-27 1 23 0.39 0.19
27 1 -4 3.23 0.32
-27 -1 23 0.17 0.17
27 -1 -4 3.19 0.32
-27 1 24 4 0.34
27 1 -3 0.06 0.17
-27 -1 24 3.48 0.32
27 -1 -3 0.01 0.16
-27 1 25 0.52 0.2
27 1 -2 -0.08 0.16
-27 -1 25 0.38 0.18
27 -1 -2 -0.07 0.17
-27 1 26 0.06 0.16
27 1 -1 0.25 0.21
-27 -1 26 0.13 0.18
27 -1 -1 0.13 0.19
-27 1 27 0.15 0.19
27 1 0 1.11 0.26
-27 -1 27 0.11 0.18
27 -1 0 1.08 0.27
29 1 -15 1.47 0.22
-29 -1 14 5.39 0.32
-29 -1 15 1.68 0.22
29 -1 -15 1.76 0.24
29 -1 -14 4.96 0.33
-29 1 16 0.28 0.17
29 1 -13 1.42 0.22
-29 -1 16 0.39 0.16
29 -1 -13 1.56 0.23
-29 1 17 2.3 0.28
29 1 -12 0.01 0.13
-29 -1 17 1.84 0.24
29 -1 -12 0.1 0.14
-29 1 18 7.04 0.4
29 1 -11 0.21 0.15
-29 -1 18 6.86 0.38
29 -1 -11 -0.01 0.13
-29 1 19 1.65 0.25
29 1 -10 0.44 0.17
-29 -1 19 1.65 0.24
29 -1 -10 0.38 0.17
-29 1 20 1.28 0.24
29 1 -9 1.06 0.21
-29 -1 20 0.97 0.21
29 -1 -9 1.11 0.22
-29 1 21 0.43 0.18
29 1 -8 0.3 0.17
-29 -1 21 0.12 0.16
29 -1 -8 0.2 0.17
-29 1 22 0.03 0.16
29 1 -7 -0.08 0.15
-29 -1 22 0.06 0.15
29 -1 -7 -0.06 0.15
-29 1 23 0.31 0.19
29 1 -6 0.46 0.2
-29 -1 23 0.57 0.21
29 -1 -6 0.54 0.2
-29 1 24 3.69 0.36
29 1 -5 0.22 0.18
-29 -1 24 3.33 0.32
29 -1 -5 -0.08 0.17
-29 1 25 0.47 0.21
29 1 -4 0.27 0.19
-29 -1 25 0.16 0.18
29 -1 -4 0.45 0.21
-29 1 26 0.09 0.18
29 1 -3 -0.09 0.18
-29 -1 26 0.03 0.17
29 -1 -3 -0.11 0.17
31 1 -15 0.87 0.21
-31 -1 16 -0.07 0.13
31 -1 -16 -0.01 0.15
31 -1 -15 0.81 0.2
31 1 -14 1.23 0.21
-31 -1 17 0.3 0.17
31 -1 -14 1.13 0.22
-31 1 18 5.67 0.38
31 1 -13 -0.01 0.14
-31 -1 18 5.75 0.37
31 -1 -13 0.02 0.14
-31 1 19 1.57 0.26
31 1 -12 0.28 0.17
-31 -1 19 1.88 0.26
-31 1 20 0.43 0.19
31 1 -11 0 0.15
-31 -1 20 0.5 0.19
31 -1 -11 0.06 0.15
-31 1 21 0.09 0.17
31 1 -10 0.09 0.16
-31 -1 21 0.06 0.16
31 -1 -10 0.08 0.15
-31 1 22 -0.01 0.15
31 1 -9 0.27 0.18
-31 -1 22 0.06 0.15
31 -1 -9 0.49 0.19
-31 1 23 1.87 0.29
31 1 -8 3.16 0.33
-31 -1 23 1.89 0.29
31 -1 -8 3.22 0.33
-31 1 24 2.27 0.31
31 1 -7 0.46 0.21
-31 -1 24 2.36 0.32
31 -1 -7 0.27 0.2
-31 1 25 0 0.16
31 1 -6 0.17 0.21
-31 -1 25 -0.02 0.17
31 -1 -6 0.49 0.21
-31 -1 26 0.13 0.17
33 -1 -17 0.2 0.16
33 -1 -16 0.08 0.16
-33 -1 18 1.95 0.27
33 -1 -18 1.72 0.26
33 -1 -15 0.21 0.16
-33 -1 19 -0.02 0.15
-33 1 20 0.19 0.18
33 1 -13 0.79 0.22
-33 -1 20 0.18 0.16
33 -1 -13 0.51 0.2
-33 1 21 -0.03 0.17
33 1 -12 0.8 0.22
-33 -1 21 -0.05 0.15
33 -1 -12 0.7 0.22
-33 1 22 -0.26 0.14
33 1 -11 0.81 0.23
-33 -1 22 -0.02 0.15
33 -1 -11 0.92 0.24
-33 1 23 0.46 0.2
33 1 -10 0.2 0.2
-33 -1 23 0.49 0.2
33 -1 -10 0.28 0.2
-33 1 24 1.38 0.27
33 1 -9 0.2 0.2
-33 -1 24 0.96 0.23
33 -1 -9 0.18 0.2
35 -1 -18 0.24 0.18
35 -1 -19 0.07 0.18
35 -1 -20 0.52 0.21
35 -1 -15 -0.07 0.16
-35 -1 21 0.4 0.19
35 -1 -14 0.6 0.22
0 2 0 619.24 8.53
0 2 0 630.9 2.97
0 -2 0 597.91 8.14
0 2 -1 56.65 0.29
0 2 -1 64.42 0.4
0 2 1 65.87 0.38
0 2 1 53.45 0.32
0 -2 -1 55.82 0.31
0 -2 1 65.1 0.39
0 2 -2 28.83 0.22
0 2 -2 16.46 0.22
0 2 2 34.33 0.31
0 2 2 25.13 0.22
0 -2 -2 26.28 0.21
0 -2 2 27.07 0.28
0 2 -3 16.3 0.24
0 2 3 21.25 0.2
0 2 3 12.56 0.21
0 -2 3 12.65 0.21
0 2 -4 23.65 0.32
0 2 4 19.17 0.21
0 -2 4 24.15 0.32
0 -2 4 17.47 0.21
0 2 -5 98.42 0.68
0 2 5 81.53 0.46
0 2 5 -0.01 0.02
0 -2 -5 85.2 0.51
0 -2 5 105.09 0.7
0 -2 5 81.76 0.5
0 2 -6 3.35 0.17
0 2 6 2.56 0.11
0 2 6 2.98 0.16
0 -2 -6 8.1 0.19
0 -2 6 2.62 0.16
0 -2 6 2.54 0.12
0 2 -7 5.8 0.22
0 2 7 5.36 0.16
0 2 7 6.36 0.22
0 -2 -7 5.36 0.18
0 -2 7 6.52 0.23
0 -2 7 2.93 0.14
0 2 -8 3.68 0.19
0 2 8 3.35 0.14
0 2 8 3.5 0.2
0 -2 -8 3.35 0.15
0 -2 8 3.8 0.19
0 -2 8 3.33 0.15
0 2 -9 13.5 0.34
0 2 9 10.76 0.24
0 2 9 13.03 0.35
0 -2 -9 11.78 0.27
0 -2 9 13.19 0.34
0 -2 9 12.16 0.29
0 2 -10 37.46 0.58
0 2 10 32.59 0.44
0 2 10 38.59 0.61
0 -2 -10 35.58 0.48
0 -2 10 39.66 0.58
0 -2 10 36.59 0.51
0 2 -11 7.22 0.31
0 2 11 5.69 0.22
0 2 11 6.74 0.31
0 -2 -11 6.44 0.25
0 -2 11 7.25 0.3
0 -2 11 7.38 0.27
0 2 -12 7 0.32
0 2 12 6.06 0.25
0 2 12 7.44 0.34
0 -2 -12 6.5 0.27
0 -2 12 7.52 0.32
0 -2 12 7.56 0.3
0 2 -13 0.09 0.13
0 2 13 0.14 0.1
0 2 13 -0.1 0.11
0 -2 -13 0.18 0.12
0 -2 13 0.18 0.12
0 -2 13 0.19 0.11
0 2 -14 1.72 0.21
0 2 14 1.28 0.16
0 2 14 1.43 0.21
0 -2 -14 1.71 0.2
0 -2 14 1.66 0.2
0 -2 14 1.64 0.2
0 2 -15 7.8 0.36
0 2 15 7.63 0.38
0 -2 -15 7.44 0.32
0 -2 15 7.23 0.34
0 -2 15 7.61 0.33
0 2 -16 1.26 0.21
0 2 16 1.18 0.2
0 -2 16 1 0.19
0 -2 16 1.17 0.19
0 2 -17 0.5 0.19
0 2 17 0.36 0.17
0 -2 17 0.32 0.16
0 -2 17 0.4 0.15
0 2 -18 1.02 0.23
0 2 18 0.97 0.22
0 -2 18 0.77 0.19
0 2 19 1.63 0.26
0 2 20 0.46 0.2
-2 2 1 63.87 0.39
-2 2 1 73.54 0.37
2 2 -1 73.86 0.32
2 2 -1 60.33 0.39
-2 -2 1 76.58 0.52
2 -2 -1 60.46 0.38
-2 2 0 1.96 0.08
-2 2 0 2.52 0.09
-2 2 2 52 0.37
-2 2 2 54.94 0.29
2 2 -2 51.32 0.21
2 2 -2 51.33 0.21
2 2 0 2.31 0.08
2 2 0 1.8 0.08
-2 -2 0 2.29 0.07
-2 -2 2 62.01 0.38
2 -2 -2 46.22 0.33
2 -2 0 1.77 0.09
-2 2 -1 444.96 2.59
-2 2 -1 516.32 4.76
-2 2 3 45.63 0.33
-2 2 3 41.48 0.23
2 2 -3 40.8 0.36
2 2 1 514.08 2.96
-2 -2 -1 426.03 3.67
-2 -2 3 56.91 0.41
-2 2 -2 57.5 0.46
-2 2 4 146.88 1.07
-2 2 4 103.93 0.8
2 2 -4 177.09 0.79
2 2 2 84.79 0.55
-2 -2 -2 65.57 0.28
-2 -2 4 105.68 1.1
-2 -2 4 139.1 0.79
2 -2 2 83.63 0.54
-2 2 5 300.15 2.04
-2 2 5 257.68 2.32
2 2 -5 366.68 2.77
2 2 3 4.45 0.08
2 2 3 3.27 0.13
-2 -2 5 324.93 1.75
2 -2 3 5.24 0.16
-2 2 -4 23.28 0.35
-2 2 6 35.03 0.35
2 2 -6 42.41 0.45
2 2 4 19.09 0.19
2 2 4 -0.01 0.01
-2 -2 -4 20.08 0.29
-2 -2 6 44.78 0.47
-2 -2 6 38.9 0.31
2 -2 4 24.65 0.35
2 -2 4 18.68 0.27
-2 2 -5 240.18 1.74
-2 2 7 11.43 0.23
-2 2 7 13.79 0.29
2 2 -7 14.27 0.29
2 2 5 211.81 1.16
2 2 5 170.71 1.57
-2 -2 -5 220.68 1.4
-2 -2 7 14.46 0.3
-2 -2 7 13.08 0.22
2 -2 -7 12.2 0.2
2 -2 5 260.42 2.11
2 -2 5 144.26 1.21
-2 2 -6 62.29 0.64
-2 2 8 201.73 1.23
-2 2 8 241.4 1.24
2 2 -8 243.03 1.32
2 2 6 54.69 0.4
2 2 6 62.72 0.65
-2 -2 -6 56.97 0.54
-2 -2 8 244.04 1.98
-2 -2 8 226.11 3.28
2 -2 -8 215.49 1.24
2 -2 6 70.24 0.65
2 -2 6 45.17 0.49
-2 2 -7 5.27 0.23
-2 2 9 38.02 0.44
-2 2 9 45.11 0.58
2 2 -9 45.9 0.56
2 2 7 4.42 0.14
2 2 7 5.2 0.23
-2 -2 -7 4.34 0.18
-2 -2 9 45.18 0.57
2 -2 -9 39.85 0.41
2 -2 7 5.78 0.22
2 -2 7 4.66 0.19
-2 2 -8 1.72 0.17
-2 2 10 18.48 0.34
-2 2 10 21.6 0.43
2 2 -10 22.7 0.43
2 2 8 1.49 0.11
2 2 8 1.87 0.17
-2 -2 -8 1.74 0.15
-2 -2 10 22.07 0.43
-2 -2 10 21.06 0.35
2 -2 -10 19.44 0.32
2 -2 8 1.8 0.17
2 -2 8 1.62 0.14
-2 2 -9 1.99 0.2
-2 2 11 9.75 0.27
-2 2 11 11.49 0.35
2 2 -11 11.95 0.34
2 2 9 1.78 0.13
2 2 9 2.29 0.19
-2 -2 -9 2.03 0.17
-2 -2 11 12.29 0.35
-2 -2 11 11.49 0.29
2 -2 -11 10.74 0.27
2 -2 9 2.14 0.19
2 -2 9 2.01 0.17
-2 2 -10 27.95 0.54
-2 2 12 8.02 0.27
-2 2 12 9 0.32
2 2 -12 9.77 0.33
2 2 10 24.61 0.38
2 2 10 28.59 0.56
-2 -2 -10 27.27 0.48
-2 -2 12 9.26 0.33
-2 -2 12 9.3 0.28
2 -2 -12 8.58 0.26
2 -2 10 31.36 0.54
2 -2 10 27.73 0.5
-2 2 -11 20.03 0.49
-2 2 13 5.61 0.24
-2 2 13 6.5 0.32
2 2 -13 6.49 0.31
2 2 11 18.49 0.36
2 2 11 21.67 0.53
-2 -2 -11 19.37 0.44
-2 -2 13 6.78 0.29
-2 -2 13 7.15 0.27
2 -2 -13 6.62 0.25
2 -2 11 22.27 0.48
2 -2 11 20.66 0.46
-2 2 -12 0.16 0.14
-2 2 14 12.42 0.35
-2 2 14 13.98 0.43
2 2 -14 14.84 0.43
2 2 12 0.05 0.09
2 2 12 0.13 0.13
-2 -2 -12 0.03 0.12
-2 -2 14 13.94 0.42
-2 -2 14 15.29 0.4
2 -2 -14 13.22 0.35
2 -2 12 0.24 0.13
2 -2 12 0.28 0.13
-2 2 -13 0.11 0.14
-2 2 15 17.56 0.43
-2 2 15 20.51 0.54
2 2 -15 20.47 0.52
2 2 13 0.09 0.14
-2 -2 -13 0.21 0.14
-2 -2 15 19.39 0.51
-2 -2 15 20.81 0.48
2 -2 -15 19.03 0.43
2 -2 13 -0.09 0.12
2 -2 13 0.17 0.12
-2 2 -14 0.65 0.18
-2 2 16 6.57 0.29
-2 2 16 7.29 0.36
2 2 -16 7.5 0.36
2 2 14 0.54 0.17
-2 -2 -14 0.85 0.17
-2 -2 16 7.34 0.35
-2 -2 16 7.44 0.32
2 -2 14 0.62 0.16
2 -2 14 0.72 0.16
-2 2 -15 4.04 0.32
-2 2 17 0.46 0.16
2 2 -17 0.71 0.18
2 2 15 4.02 0.32
-2 -2 -15 4.24 0.3
-2 -2 17 0.54 0.16
-2 -2 17 0.69 0.15
2 -2 15 4 0.3
2 -2 15 4.28 0.29
-2 2 -16 -0.11 0.16
-2 2 18 1.41 0.23
2 2 -18 1.26 0.22
2 2 16 0.04 0.15
-2 -2 18 1.35 0.22
2 -2 16 0.06 0.14
2 -2 16 0.02 0.13
-2 2 -17 0.23 0.2
-2 2 19 3.62 0.32
2 2 17 0.21 0.18
-2 -2 19 3.28 0.29
2 -2 17 -0.08 0.14
-2 2 -18 1.53 0.27
-2 2 20 0.9 0.22
2 2 18 1.53 0.26
-2 -2 20 0.95 0.21
-2 2 21 0.03 0.16
2 2 19 -0.02 0.18
-4 2 2 0.05 0.04
-4 2 2 0.08 0.03
4 2 -2 0.1 0.03
4 2 -2 0 0.01
-4 -2 2 0.25 0.04
4 -2 -2 0.07 0.04
-4 2 1 243.52 1.56
-4 2 1 290.28 2.04
-4 2 3 224.51 1.27
4 2 -3 224.23 0.95
4 2 -3 169.69 1.15
4 2 -1 274.73 1.75
-4 -2 1 287.65 1.5
-4 -2 3 220.61 1.72
4 -2 -3 169.76 0.89
-4 2 0 77.08 0.5
-4 2 0 91 0.55
-4 2 4 53.28 0.42
-4 2 4 51.6 0.43
-4 2 4 63.79 0.25
4 2 -4 55.23 0.43
4 2 0 86.78 0.51
-4 -2 0 88.97 0.76
-4 -2 4 62.09 0.45
4 -2 0 77.39 0.52
-4 2 -1 151.54 1.04
-4 2 5 1.62 0.1
-4 2 5 1.46 0.1
4 2 -5 1.65 0.1
4 2 1 145.49 0.74
-4 -2 5 1.69 0.11
4 -2 1 135.15 0.71
-4 2 -2 0 0.02
-4 2 6 0.25 0.05
-4 2 6 0.12 0.05
4 2 -6 0.24 0.07
4 2 2 0.14 0.05
-4 -2 6 0.01 0.01
-4 -2 6 0.3 0.03
4 -2 2 0.18 0.06
-4 2 7 8.19 0.2
-4 2 7 5.99 0.19
4 2 -7 10.42 0.23
4 2 3 66.21 0.24
4 2 3 67.12 0.6
-4 -2 7 5.28 0.17
-4 -2 7 9.61 0.15
4 -2 3 81.05 0.61
-4 2 -4 9.26 0.26
-4 2 8 14.3 0.27
-4 2 8 16.51 0.32
4 2 -8 17.42 0.31
4 2 4 8.22 0.12
-4 -2 -4 8.22 0.23
-4 -2 8 17.32 0.33
-4 -2 8 17.13 0.22
4 -2 -8 15.3 0.18
4 -2 4 9.93 0.25
4 -2 4 6.55 0.2
-4 2 -5 179.12 1.11
-4 2 9 9.62 0.24
-4 2 9 10.98 0.29
4 2 -9 12.22 0.29
4 2 5 158.07 0.66
4 2 5 148.43 1.01
-4 -2 -5 161.79 0.98
-4 -2 9 11.46 0.3
-4 -2 9 11.55 0.22
4 -2 -9 10.63 0.18
4 -2 5 196.31 1.06
4 -2 5 148.85 0.94
-4 2 -6 0.28 0.1
-4 2 10 46.14 0.53
-4 2 10 52.1 0.62
4 2 -10 55.36 0.6
4 2 6 0.29 0.05
4 2 6 0.38 0.1
-4 -2 -6 0.32 0.09
-4 -2 10 54.43 0.65
-4 -2 10 53.28 0.48
4 -2 -10 48.42 0.41
4 -2 6 0.3 0.09
4 -2 6 0.23 0.08
-4 2 -7 40.61 0.6
-4 2 11 1.47 0.14
-4 2 11 1.85 0.17
4 2 -11 2.06 0.18
4 2 7 35.96 0.36
4 2 7 40.42 0.6
-4 -2 -7 37.18 0.53
-4 -2 11 1.45 0.16
-4 -2 11 1.25 0.11
4 -2 -11 1.73 0.12
4 -2 7 45.74 0.58
4 -2 7 36.13 0.52
-4 2 -8 7.08 0.29
-4 2 12 0.25 0.09
-4 2 12 0.27 0.11
4 2 -12 0.24 0.11
4 2 8 6.54 0.19
4 2 8 7.83 0.3
-4 -2 -8 6.29 0.25
-4 -2 12 0.38 0.11
-4 -2 12 0.33 0.09
4 -2 -12 0.25 0.08
4 -2 8 8.12 0.28
4 -2 8 6.99 0.27
-4 2 -9 13.54 0.4
-4 2 13 -0.01 0.09
-4 2 13 0.09 0.11
4 2 -13 0.17 0.12
4 2 9 11.99 0.26
4 2 9 14.23 0.42
-4 -2 -9 12.4 0.37
-4 -2 13 0.12 0.1
-4 -2 13 0.13 0.09
4 -2 -13 0.21 0.09
4 -2 9 15.31 0.39
4 -2 9 11.61 0.35
-4 2 -10 1.15 0.19
-4 2 14 -0.05 0.1
-4 2 14 0.07 0.11
4 2 -14 0.04 0.13
4 2 10 1.09 0.12
4 2 10 0.95 0.18
-4 -2 -10 0.9 0.17
-4 -2 14 0.03 0.11
-4 -2 14 0.09 0.09
4 -2 -14 -0.05 0.09
4 -2 10 1.09 0.16
4 -2 10 1.31 0.17
-4 2 -11 15.72 0.47
-4 2 15 0.27 0.11
-4 2 15 0.3 0.14
4 2 -15 0.4 0.15
4 2 11 16.35 0.49
-4 -2 -11 15.56 0.44
-4 -2 15 0.47 0.13
-4 -2 15 0.27 0.11
4 -2 11 18.17 0.46
4 -2 11 15.84 0.44
-4 2 -12 12.01 0.44
-4 2 16 0.09 0.1
-4 2 16 0.17 0.13
4 2 -16 0.01 0.13
4 2 12 12.03 0.45
-4 -2 -12 11.46 0.4
-4 -2 16 0.01 0.12
-4 -2 16 0.14 0.11
4 -2 12 12.96 0.42
4 -2 12 11.59 0.41
-4 2 -13 0.71 0.19
-4 2 17 0 0.11
-4 2 17 0.12 0.13
4 2 -17 0.15 0.15
4 2 13 0.65 0.18
-4 -2 -13 0.71 0.18
-4 -2 17 0.12 0.13
4 -2 13 0.57 0.16
4 -2 13 0.8 0.17
-4 2 -14 4.56 0.34
-4 2 18 1.85 0.22
-4 2 18 2.3 0.26
4 2 -18 2.23 0.25
4 2 14 4.7 0.32
-4 -2 -14 4.49 0.31
-4 -2 18 2.29 0.25
4 -2 14 4.89 0.32
4 -2 14 4.74 0.31
-4 2 -15 2 0.28
-4 2 19 2 0.25
4 2 15 2.16 0.28
-4 -2 -15 2.42 0.28
-4 -2 19 1.89 0.24
4 -2 15 2.01 0.26
-4 2 -16 1.66 0.28
-4 2 20 0.19 0.16
4 2 16 1.79 0.28
-4 -2 20 -0.01 0.14
4 -2 16 1.66 0.25
-4 2 -17 0.9 0.25
-4 2 21 0.72 0.21
4 2 17 0.75 0.22
-4 -2 21 0.82 0.2
4 -2 17 0.49 0.2
-4 2 -18 0.9 0.26
-4 2 22 0.25 0.18
4 2 18 1.31 0.27
-6 2 3 73.7 0.42
6 2 -3 67.65 0.37
6 2 -3 57.05 0.47
-6 -2 3 69.81 0.42
-6 2 2 195.95 1.82
-6 2 2 433.31 2.72
-6 2 4 10.31 0.21
-6 2 4 12.15 0.15
6 2 -4 10.7 0.12
6 2 -4 10.17 0.21
6 2 -2 394.99 2.41
-6 -2 2 395.08 2.03
-6 -2 4 12.22 0.2
6 -2 -2 358.16 2.69
-6 2 1 0.96 0.09
-6 2 1 1.4 0.1
-6 2 5 35.59 0.39
-6 2 5 35.47 0.39
-6 2 5 39.84 0.2
6 2 -5 34.14 0.16
6 2 -5 33.32 0.36
6 2 -1 1.02 0.09
-6 -2 1 1.03 0.05
-6 -2 5 39.68 0.39
6 -2 -1 0.92 0.09
-6 2 0 0.52 0.07
-6 2 6 11.04 0.23
-6 2 6 8.29 0.2
6 2 -6 11.49 0.23
6 2 0 -0.01 0.04
-6 -2 6 8.36 0.2
6 -2 0 0.08 0.05
-6 2 7 6.55 0.19
6 2 -7 7.13 0.19
6 2 1 2.38 0.13
-6 -2 7 6.8 0.1
6 -2 1 2.09 0.13
-6 2 -2 0.93 0.1
-6 2 8 21.25 0.34
-6 2 8 24.49 0.37
6 2 -8 26.25 0.36
6 2 2 1.26 0.11
-6 -2 8 24.67 0.21
6 -2 2 1.4 0.12
-6 2 9 16.9 0.32
-6 2 9 18.6 0.34
6 2 -9 20.62 0.34
6 2 3 48.58 0.57
-6 -2 -3 45.76 0.53
-6 -2 9 13.72 0.31
-6 -2 9 20.32 0.23
6 -2 3 52.31 0.54
6 -2 3 40.43 0.5
-6 2 -4 0.65 0.12
-6 2 10 9.67 0.26
-6 2 10 10.9 0.29
6 2 -10 12.4 0.29
6 2 4 0.63 0.06
6 2 4 0.16 0.06
-6 -2 -4 0.55 0.11
-6 -2 10 11.03 0.3
-6 -2 10 11.77 0.21
6 -2 -10 10.68 0.15
6 -2 4 0.58 0.1
6 -2 4 0.54 0.1
-6 2 -5 33.02 0.53
-6 2 11 8.24 0.25
-6 2 11 8.74 0.27
6 2 -11 9.87 0.28
6 2 5 29.85 0.26
-6 -2 -5 30.35 0.48
-6 -2 11 8.99 0.29
-6 -2 11 9.4 0.21
6 -2 -11 8.6 0.16
6 -2 5 36.96 0.5
6 -2 5 27.07 0.46
-6 2 -6 1.5 0.18
-6 2 12 1.52 0.15
-6 2 12 1.67 0.16
6 2 -12 2.02 0.17
6 2 6 1.55 0.09
6 2 6 1.48 0.17
-6 -2 -6 1.4 0.15
-6 -2 12 1.66 0.18
-6 -2 12 0.02 0.02
6 -2 -12 1.72 0.1
6 -2 6 2.06 0.18
6 -2 6 1.56 0.16
-6 2 -7 14.59 0.41
-6 2 13 17.2 0.39
-6 2 13 19.14 0.44
6 2 -13 21.42 0.43
6 2 7 12.94 0.22
6 2 7 13.39 0.38
-6 -2 -7 13.16 0.37
-6 -2 13 18.7 0.44
-6 -2 13 21.43 0.36
6 -2 -13 18.81 0.29
6 -2 7 16.83 0.38
6 -2 7 13.09 0.36
-6 2 -8 0.29 0.13
-6 2 14 15.09 0.39
-6 2 14 17.52 0.44
6 2 -14 18.64 0.42
6 2 8 0.28 0.13
-6 -2 -8 0.01 0.12
-6 -2 14 16.9 0.45
-6 -2 14 18.19 0.36
6 -2 -14 16.55 0.3
6 -2 8 0.31 0.12
6 -2 8 0.29 0.11
-6 2 -9 1.32 0.19
-6 2 15 2.36 0.2
-6 2 15 3.33 0.25
6 2 -15 2.96 0.23
6 2 9 1.26 0.19
-6 -2 -9 1.09 0.18
-6 -2 15 2.71 0.24
-6 -2 15 2.9 0.2
6 -2 9 1.53 0.18
6 -2 9 1.14 0.16
-6 2 -10 9.46 0.39
-6 2 16 1.2 0.16
-6 2 16 1.45 0.19
6 2 -16 1.44 0.18
6 2 10 9.01 0.38
-6 -2 -10 8.86 0.37
-6 -2 16 1.25 0.19
-6 -2 16 1.44 0.17
6 -2 10 9.92 0.35
6 -2 10 9.34 0.36
-6 2 -11 17.11 0.53
-6 2 17 0.48 0.13
-6 2 17 0.42 0.14
6 2 -17 0.29 0.14
6 2 11 17.58 0.54
-6 -2 -11 16.11 0.48
-6 -2 17 0.56 0.15
6 -2 11 18.8 0.48
6 -2 11 16.12 0.48
-6 2 -12 0.06 0.15
-6 2 18 4.19 0.26
-6 2 18 5.09 0.31
6 2 -18 5.3 0.31
6 2 12 0.09 0.13
-6 -2 -12 -0.05 0.14
-6 -2 18 4.6 0.3
6 -2 12 -0.01 0.12
6 -2 12 0.02 0.13
-6 2 -13 0.05 0.17
-6 2 19 1.26 0.19
-6 2 19 1.41 0.21
6 2 13 0.02 0.15
-6 -2 -13 -0.03 0.15
-6 -2 19 1.21 0.21
6 -2 13 0.02 0.13
6 -2 13 0.04 0.14
-6 2 -14 0.19 0.18
-6 2 20 1.13 0.21
6 2 14 0.13 0.16
-6 -2 -14 0.01 0.16
-6 -2 20 1.04 0.21
6 -2 14 0.09 0.15
-6 2 -15 3.85 0.37
-6 2 21 0.19 0.15
6 2 15 4.66 0.38
-6 -2 -15 4.43 0.34
-6 -2 21 0.31 0.17
6 -2 15 4.25 0.34
-6 2 -16 0.2 0.21
-6 2 22 0.22 0.16
6 2 16 0.6 0.22
-6 -2 22 0.1 0.16
6 -2 16 0.41 0.19
-6 2 -17 0.36 0.23
6 2 17 0.68 0.23
-6 -2 23 0.38 0.18
6 -2 17 0.63 0.23
-8 2 4 -0.01 0.02
-8 2 4 0.31 0.05
8 2 -4 0.3 0.05
8 2 -4 0.17 0.06
-8 -2 4 0.21 0.05
8 -2 -4 0.19 0.06
-8 2 3 -0.01 0.01
-8 2 3 86.27 0.56
-8 2 5 -0.01 0.01
-8 2 5 60.03 0.37
8 2 -5 49.86 0.32
8 2 -5 48.74 0.47
8 2 -3 75.33 0.5
-8 -2 3 78.39 0.45
-8 -2 5 55.92 0.46
8 -2 -3 71.55 0.57
-8 2 2 0.02 0.01
-8 2 2 16.34 0.27
-8 2 6 1.62 0.06
8 2 -6 1.38 0.11
8 2 -2 14.89 0.25
-8 -2 2 14.38 0.17
-8 -2 6 1.34 0.09
8 -2 -2 13.84 0.26
-8 2 7 30.24 0.4
-8 2 7 14.22 0.27
8 2 -7 31.12 0.38
8 2 -1 44.34 0.46
-8 -2 1 44.26 0.25
-8 -2 7 18.21 0.31
-8 -2 7 31.74 0.21
8 -2 -1 42.37 0.45
-8 2 0 2.26 0.14
-8 2 8 39.67 0.48
-8 2 8 42.18 0.48
8 2 -8 42.49 0.45
8 2 0 2.11 0.14
-8 -2 8 44.27 0.5
-8 -2 8 40.68 0.25
8 -2 0 2.05 0.13
-8 2 -1 37.36 0.5
-8 2 9 0.07 0.06
-8 2 9 0.13 0.07
8 2 -9 0.02 0.07
8 2 1 36.64 0.48
-8 -2 9 0.01 0.06
-8 -2 9 0.09 0.03
8 -2 1 37.09 0.45
-8 2 -2 69.59 0.71
-8 2 10 8.34 0.25
-8 2 10 9.13 0.26
8 2 -10 10 0.25
8 2 2 68.72 0.7
-8 -2 -2 63.71 0.67
-8 -2 10 4.45 0.19
-8 -2 10 8.81 0.16
8 -2 2 72.54 0.65
-8 2 11 21.6 0.4
-8 2 11 23.11 0.41
8 2 -11 25.16 0.4
8 2 3 10.75 0.12
8 2 3 10.43 0.3
-8 -2 -3 9.71 0.29
-8 -2 11 17.39 0.38
-8 -2 11 22.77 0.28
8 -2 3 11.91 0.3
8 -2 3 8.24 0.27
-8 2 -4 0.73 0.12
-8 2 12 7.56 0.26
-8 2 12 8.63 0.28
8 2 -12 9.41 0.27
8 2 4 0.68 0.06
8 2 4 0.45 0.1
-8 -2 -4 0.49 0.12
-8 -2 12 8.43 0.29
-8 -2 12 8.36 0.2
8 -2 -12 8.09 0.13
8 -2 4 0.8 0.12
8 -2 4 0.35 0.09
-8 2 -5 0.1 0.1
-8 2 13 5.29 0.23
-8 2 13 6.09 0.25
8 2 -13 6.55 0.25
8 2 5 0.17 0.04
8 2 5 0 0.02
-8 -2 -5 0.04 0.1
-8 -2 13 5.73 0.27
-8 -2 13 2.74 0.13
8 -2 -13 5.73 0.13
8 -2 5 0.18 0.09
8 -2 5 0.12 0.09
-8 2 -6 0.07 0.11
-8 2 14 9.41 0.32
-8 2 14 10.01 0.33
8 2 -14 11.84 0.34
8 2 6 -0.01 0.03
-8 -2 -6 -0.02 0.1
-8 -2 14 9.98 0.34
-8 -2 14 10.58 0.26
8 -2 6 0.02 0.1
8 -2 6 -0.01 0.09
-8 2 -7 3.07 0.24
-8 2 15 9.21 0.33
-8 2 15 10.03 0.35
8 2 -15 11.84 0.35
8 2 7 3.21 0.24
-8 -2 -7 2.01 0.24
-8 -2 15 9.97 0.36
-8 -2 15 10.56 0.28
8 -2 7 3.77 0.23
8 -2 7 2.8 0.22
-8 2 -8 12.91 0.45
-8 2 16 6.11 0.29
-8 2 16 6.77 0.31
8 2 -16 7.67 0.31
8 2 8 12.7 0.44
-8 -2 -8 11.89 0.4
-8 -2 16 6.95 0.33
-8 -2 16 7.45 0.26
8 -2 8 14.55 0.39
8 -2 8 12.28 0.4
-8 2 -9 2.35 0.26
-8 2 17 -0.1 0.09
-8 2 17 -0.15 0.09
8 2 -17 -0.06 0.12
8 2 9 2.28 0.26
-8 -2 -9 1.91 0.24
-8 -2 17 -0.04 0.11
8 -2 9 2.35 0.23
8 -2 9 1.99 0.23
-8 2 -10 3.3 0.29
-8 2 18 4.97 0.28
-8 2 18 5.58 0.31
8 2 -18 5.86 0.3
8 2 10 3.29 0.29
-8 -2 -10 3.8 0.29
-8 -2 18 5.49 0.32
8 -2 10 3.6 0.27
8 -2 10 3.47 0.27
-8 2 -11 1.9 0.25
-8 2 19 0.39 0.14
-8 2 19 0.38 0.15
8 2 11 1.94 0.24
-8 -2 -11 2.09 0.25
-8 -2 19 0.41 0.15
8 -2 11 2.22 0.24
8 -2 11 1.95 0.24
-8 2 -12 0.12 0.18
-8 2 20 1.55 0.21
-8 2 20 2.02 0.25
8 2 12 0.11 0.15
-8 -2 -12 -0.09 0.15
-8 -2 20 1.4 0.22
8 -2 12 0.11 0.15
-8 2 -13 0.68 0.23
-8 2 21 0.54 0.17
-8 2 21 0.73 0.18
8 2 13 0.79 0.22
-8 -2 -13 0.37 0.19
-8 -2 21 0.68 0.19
8 -2 13 0.67 0.19
-8 2 -14 0.38 0.21
-8 2 22 0.14 0.16
8 2 14 0.28 0.2
-8 -2 -14 0.34 0.19
-8 -2 22 -0.02 0.15
8 -2 14 0.12 0.17
-8 2 -15 0.18 0.22
-8 2 23 0.2 0.17
8 2 15 0.46 0.2
-8 -2 -15 0.45 0.21
-8 -2 23 0.13 0.16
8 -2 15 0.18 0.19
-8 2 -16 -0.07 0.19
8 2 16 0.13 0.2
-8 -2 24 0.63 0.2
8 -2 16 0.17 0.19
-10 2 5 22.67 0.37
-10 2 5 25.24 0.31
10 2 -5 21.91 0.28
-10 -2 5 23.81 0.31
10 -2 -5 20.6 0.34
-10 2 4 23.09 0.37
-10 2 4 27.37 0.35
-10 2 6 76.74 0.66
-10 2 6 76.15 0.65
-10 2 6 83.98 0.49
10 2 -6 69.56 0.6
10 2 -4 23.25 0.31
-10 -2 4 24.19 0.29
-10 -2 6 55.67 0.5
10 -2 -4 22.38 0.36
-10 2 3 0.27 0.06
-10 2 3 0 0.02
-10 2 7 7.06 0.22
10 2 -7 6.89 0.21
10 2 -3 0.57 0.08
-10 -2 3 0.63 0.07
-10 -2 7 5.33 0.18
10 -2 -3 0.45 0.08
-10 2 2 0.01 0.06
-10 2 8 89.13 0.74
-10 2 8 168.77 0.99
10 2 -8 171.25 0.93
10 2 -2 0.05 0.06
-10 -2 2 0.07 0.04
-10 -2 8 175.13 1
-10 -2 8 181.14 0.77
10 -2 -2 0.09 0.06
-10 2 1 5.2 0.2
-10 2 9 24.69 0.41
-10 2 9 24.41 0.39
10 2 -9 24.8 0.37
10 2 -1 4.42 0.1
10 2 -1 4.97 0.19
-10 -2 9 26.42 0.42
-10 -2 9 25.06 0.24
10 -2 -1 4.83 0.19
-10 2 0 1.24 0.13
-10 2 10 7.8 0.25
-10 2 10 7.77 0.24
10 2 -10 8.65 0.24
10 2 0 1.23 0.07
10 2 0 1.15 0.14
-10 -2 10 8.17 0.26
-10 -2 10 7.85 0.15
10 -2 0 1.19 0.13
-10 2 -1 0.34 0.1
-10 2 11 33.6 0.51
-10 2 11 34.56 0.5
10 2 -11 39.31 0.48
10 2 1 0.47 0.06
10 2 1 0.34 0.09
-10 -2 11 35.68 0.54
-10 -2 11 33.38 0.31
10 -2 1 0.31 0.09
-10 2 -2 0.11 0.09
-10 2 12 6.93 0.26
-10 2 12 7.52 0.26
10 2 -12 8.71 0.26
10 2 2 0.24 0.04
10 2 2 0.16 0.08
-10 -2 -2 0.1 0.09
-10 -2 12 7.21 0.17
10 -2 2 0.17 0.09
10 -2 2 0.47 0.1
-10 2 -3 0.05 0.04
-10 2 13 0.11 0.08
-10 2 13 0 0.07
10 2 -13 -0.04 0.08
10 2 3 2.93 0.09
10 2 3 2.8 0.21
-10 -2 -3 2.62 0.2
-10 -2 13 0.01 0.04
-10 -2 13 0.09 0.05
10 -2 3 3.13 0.21
10 -2 3 2.36 0.18
-10 2 -4 0.01 0.03
-10 2 14 4.56 0.24
-10 2 14 4.96 0.24
10 2 -14 5.88 0.25
10 2 4 -0.02 0.02
-10 -2 -4 0.34 0.12
-10 -2 14 3.65 0.22
-10 -2 14 3.05 0.14
10 -2 4 0.36 0.12
10 -2 4 0.45 0.12
-10 2 -5 1.44 0.19
-10 2 15 2.43 0.21
-10 2 15 2.85 0.22
10 2 -15 3.33 0.23
10 2 5 0.43 0.1
-10 -2 -5 1.36 0.18
-10 -2 15 2.63 0.23
-10 -2 15 2.43 0.14
10 -2 5 1.95 0.2
10 -2 5 1.35 0.17
-10 2 -6 0.86 0.17
-10 2 16 16.69 0.45
-10 2 16 18.87 0.46
10 2 -16 21.37 0.44
10 2 6 1.03 0.18
-10 -2 -6 0.65 0.16
-10 -2 16 17.27 0.47
10 -2 6 0.99 0.15
10 -2 6 0.95 0.17
-10 2 -7 0.76 0.18
-10 2 17 -0.09 0.1
-10 2 17 -0.06 0.09
10 2 -17 -0.19 0.12
10 2 7 0.73 0.17
-10 -2 -7 0.67 0.17
-10 -2 17 -0.15 0.1
10 -2 7 0.84 0.16
10 -2 7 0.63 0.16
-10 2 -8 6.49 0.37
-10 2 18 -0.03 0.11
-10 2 18 0.12 0.11
10 2 -18 0.02 0.12
10 2 8 6.71 0.36
-10 -2 -8 6.02 0.33
-10 -2 18 -0.07 0.12
10 -2 8 7.8 0.33
10 -2 8 5.68 0.32
-10 2 -9 4.75 0.33
-10 2 19 0.19 0.12
-10 2 19 0.27 0.13
10 2 9 5.32 0.35
-10 -2 -9 5.08 0.33
-10 -2 19 0.03 0.13
10 -2 9 6.24 0.31
10 -2 9 4.64 0.31
-10 2 -10 0.28 0.19
-10 2 20 0.27 0.14
-10 2 20 0.25 0.14
10 2 10 0.53 0.18
-10 -2 -10 0.43 0.18
-10 -2 20 0.31 0.15
10 -2 10 0.35 0.16
-10 2 -11 0.46 0.21
-10 2 21 0.54 0.16
-10 2 21 0.55 0.16
10 2 11 0.78 0.21
-10 -2 -11 0.84 0.21
-10 -2 21 0.29 0.16
10 -2 11 0.49 0.18
-10 2 -12 -0.09 0.18
-10 2 22 0.05 0.14
-10 2 22 0.15 0.14
10 2 12 0.13 0.18
-10 -2 -12 0.11 0.17
-10 -2 22 0.05 0.15
10 -2 12 0.11 0.17
-10 2 -13 0.68 0.24
-10 2 23 0.17 0.16
10 2 13 0.8 0.23
-10 -2 -13 0.81 0.23
-10 -2 23 0.27 0.18
10 -2 13 0.88 0.23
-10 2 -14 0.29 0.23
10 2 14 0.38 0.22
-10 -2 -14 0.63 0.22
-10 -2 24 0.61 0.21
10 -2 14 0.37 0.21
10 2 15 0.16 0.2
-10 -2 25 0.11 0.18
10 -2 15 -0.13 0.17
-12 2 6 52.15 0.59
-12 2 6 58.31 0.51
12 2 -6 49.12 0.46
-12 2 5 174.39 1.08
-12 2 7 11.8 0.29
-12 2 7 10.93 0.28
-12 2 7 12.63 0.23
12 2 -7 10.9 0.28
12 2 -5 165.8 0.89
-12 -2 5 174.49 0.85
-12 -2 7 11.3 0.26
12 -2 -5 159.72 1
-12 2 4 96.62 0.82
-12 2 4 105.33 0.78
-12 2 8 74.1 0.71
-12 2 8 73.32 0.69
12 2 -8 70.41 0.65
12 2 -4 94.14 0.72
-12 -2 4 96.14 0.59
-12 -2 8 75.9 0.67
12 -2 -4 92.61 0.76
-12 2 3 3.59 0.19
-12 2 9 13.31 0.32
-12 2 9 20.25 0.38
12 2 -9 20.8 0.36
12 2 -3 3.28 0.17
-12 -2 3 3.36 0.13
-12 -2 9 21.12 0.38
12 -2 -3 3.36 0.18
-12 2 2 1.34 0.14
-12 2 10 1.79 0.14
-12 2 10 2.49 0.17
12 2 -10 2.58 0.16
12 2 -2 1.19 0.08
12 2 -2 1.39 0.14
-12 -2 10 2.49 0.17
-12 -2 10 2.59 0.11
12 -2 -10 2.57 0.08
12 -2 -2 1.5 0.14
-12 2 1 31.92 0.51
-12 2 11 21.46 0.42
-12 2 11 21.97 0.4
12 2 -11 24.41 0.39
12 2 -1 29.01 0.26
12 2 -1 31.23 0.49
-12 -2 11 21.92 0.42
-12 -2 11 21.91 0.26
12 -2 -1 30.17 0.45
-12 2 0 4.35 0.23
-12 2 12 1.61 0.16
-12 2 12 2.06 0.17
12 2 -12 1.86 0.16
12 2 0 4.61 0.12
12 2 0 4.33 0.22
-12 -2 12 1.84 0.17
-12 -2 12 1.63 0.1
12 -2 0 4.62 0.21
-12 2 -1 0.1 0.1
-12 2 13 8.26 0.29
-12 2 13 8.66 0.28
12 2 -13 9.94 0.28
12 2 1 0.26 0.05
12 2 1 0.25 0.1
-12 -2 13 7.27 0.28
-12 -2 13 8.08 0.19
12 -2 1 0.37 0.1
12 -2 1 0.22 0.09
-12 2 -2 15.25 0.41
-12 2 14 5.53 0.26
-12 2 14 5.46 0.24
12 2 -14 6.83 0.25
12 2 2 31.39 0.58
-12 -2 14 0.01 0.02
-12 -2 14 5.46 0.17
12 -2 2 34.82 0.52
12 -2 2 27.78 0.54
-12 2 -3 -0.01 0.03
-12 2 15 1.48 0.17
-12 2 15 1.46 0.17
12 2 -15 1.78 0.19
12 2 3 0.27 0.12
-12 -2 -3 0.2 0.13
-12 -2 15 0.27 0.07
12 -2 3 0.3 0.11
12 -2 3 0.16 0.11
-12 2 -4 13.56 0.43
-12 2 16 6.96 0.31
-12 2 16 7.38 0.3
12 2 -16 9.3 0.31
12 2 4 13.56 0.42
-12 -2 -4 13.35 0.42
-12 -2 16 6.82 0.31
12 -2 4 16.27 0.4
12 -2 4 11.65 0.4
-12 2 -5 4.5 0.3
-12 2 17 1.23 0.18
-12 2 17 1.47 0.18
12 2 -17 1.61 0.18
12 2 5 4.85 0.3
-12 -2 -5 4.15 0.29
-12 -2 17 1.32 0.19
12 -2 5 5.17 0.28
12 -2 5 3.94 0.28
-12 2 -6 0.18 0.15
-12 2 18 6.37 0.32
-12 2 18 7.59 0.33
12 2 -18 8.16 0.32
12 2 6 0.07 0.14
-12 -2 -6 0.21 0.16
-12 -2 18 7.19 0.34
12 -2 6 0.1 0.13
12 -2 6 0.09 0.13
-12 2 -7 0.74 0.19
-12 2 19 0.1 0.12
-12 2 19 0.08 0.11
12 2 7 0.49 0.18
-12 -2 -7 0.57 0.19
-12 -2 19 -0.14 0.12
12 -2 7 0.66 0.16
12 -2 7 0.4 0.15
-12 2 -8 3.84 0.32
-12 2 20 0.19 0.12
-12 2 20 0.24 0.13
12 2 8 3.82 0.31
-12 -2 -8 3.92 0.3
-12 -2 20 0.22 0.14
12 -2 8 3.5 0.3
-12 2 -9 2.37 0.29
-12 2 21 1.13 0.2
-12 2 21 1.36 0.2
12 2 9 2.25 0.26
-12 -2 -9 2.14 0.27
-12 -2 21 0.94 0.2
12 -2 9 1.99 0.26
-12 2 -10 1.84 0.28
-12 2 22 0.55 0.17
-12 2 22 0.51 0.16
12 2 10 2.23 0.27
-12 -2 -10 1.83 0.27
-12 -2 22 0.48 0.18
12 -2 10 1.9 0.26
-12 2 -11 0.58 0.21
-12 2 23 0.38 0.16
12 2 11 0.82 0.21
-12 -2 -11 0.86 0.22
-12 -2 23 0.29 0.17
12 -2 11 0.75 0.21
-12 2 -12 0.07 0.19
-12 2 24 0.46 0.18
12 2 12 0.18 0.18
-12 -2 24 0.4 0.19
12 -2 12 -0.12 0.16
-12 2 -13 0.86 0.26
12 2 13 0.85 0.24
-12 -2 25 0.36 0.19
12 -2 13 1.03 0.25
-14 2 7 0.01 0.08
-14 2 7 0.02 0.03
-14 -2 7 0.06 0.06
-14 2 6 61.54 0.69
-14 2 6 65.75 0.62
-14 2 8 5.01 0.22
-14 2 8 4.88 0.22
14 2 -8 4.69 0.22
14 2 -6 58.96 0.58
-14 -2 8 5.13 0.2
14 -2 -6 58.92 0.66
-14 2 5 24.39 0.46
-14 2 5 25.92 0.42
-14 2 9 0.58 0.11
-14 2 9 0.56 0.1
14 2 -9 0.47 0.1
14 2 -5 23.88 0.4
-14 -2 5 18.32 0.3
-14 -2 9 0.5 0.1
14 -2 -5 23.55 0.42
-14 2 4 4.03 0.2
-14 2 10 0.32 0.09
-14 2 10 0.32 0.09
14 2 -10 0.28 0.09
14 2 -4 3.97 0.19
-14 -2 4 3.93 0.15
-14 -2 10 0.36 0.09
14 -2 -4 3.98 0.2
-14 2 3 1.01 0.13
-14 2 11 4.32 0.21
-14 2 11 7.76 0.27
14 2 -11 8.36 0.26
14 2 -3 0.77 0.09
14 2 -3 0.8 0.12
-14 -2 11 8.06 0.28
-14 -2 11 8.06 0.19
14 -2 -11 7.59 0.15
14 -2 -3 0.91 0.12
-14 2 2 -0.04 0.09
-14 2 12 4.18 0.21
-14 2 12 7.15 0.26
14 2 -12 8.3 0.26
14 2 -2 -0.02 0.05
14 2 -2 0.1 0.08
-14 -2 12 7.29 0.27
-14 -2 12 7.39 0.18
14 -2 -12 8.27 0.13
14 -2 -2 0.04 0.07
-14 2 1 6.51 0.28
-14 2 13 6.68 0.27
-14 2 13 7.48 0.27
14 2 -13 8.54 0.27
14 2 -1 6.17 0.15
14 2 -1 6.25 0.27
-14 -2 13 7.74 0.3
-14 -2 13 7.64 0.19
14 -2 -1 6.28 0.25
-14 2 0 2.6 0.22
-14 2 14 1.61 0.17
-14 2 14 1.38 0.16
14 2 -14 1.64 0.18
14 2 0 2.82 0.22
-14 -2 14 1.44 0.17
-14 -2 14 1.47 0.11
14 -2 0 2.82 0.21
14 -2 0 1.31 0.15
-14 2 -1 2.67 0.23
-14 2 15 11.83 0.37
-14 2 15 12.15 0.35
14 2 -15 14.8 0.36
14 2 1 2.79 0.21
-14 -2 15 8.02 0.31
14 -2 1 3.28 0.23
14 -2 1 2.5 0.22
-14 2 -2 7.42 0.35
-14 2 16 4.37 0.27
-14 2 16 3.76 0.24
14 2 -16 5.11 0.25
14 2 2 7.03 0.33
-14 -2 16 3.72 0.26
14 -2 2 8.06 0.3
14 -2 2 6.15 0.3
-14 2 -3 0.53 0.16
-14 2 17 3.01 0.25
-14 2 17 3.12 0.23
14 2 -17 3.55 0.24
14 2 3 0.31 0.14
-14 -2 17 2.79 0.25
14 -2 3 0.5 0.14
14 -2 3 0.31 0.14
-14 2 -4 9.99 0.41
-14 2 18 7.71 0.35
-14 2 18 7.88 0.33
14 2 -18 9.86 0.34
14 2 4 10.18 0.4
-14 -2 -4 9.73 0.4
-14 -2 18 7.12 0.34
14 -2 4 12 0.38
14 -2 4 8.97 0.39
-14 2 -5 15.34 0.51
-14 2 19 0.36 0.15
-14 2 19 0.29 0.13
14 2 5 15.52 0.51
-14 -2 -5 14.88 0.5
-14 -2 19 0.18 0.13
14 -2 5 18.79 0.46
14 -2 5 13.92 0.47
-14 2 -6 0.99 0.21
-14 2 20 0.99 0.18
-14 2 20 1.13 0.18
14 2 6 0.84 0.2
-14 -2 -6 1.22 0.23
-14 -2 20 1.06 0.19
14 -2 6 0.64 0.19
-14 2 -7 0.68 0.21
-14 2 21 1.79 0.22
-14 2 21 2.02 0.23
14 2 7 0.59 0.19
-14 -2 -7 0.51 0.18
-14 -2 21 1.54 0.23
14 -2 7 0.47 0.18
-14 2 -8 0.12 0.19
-14 2 22 0.15 0.15
-14 2 22 0.22 0.14
14 2 8 0.15 0.16
-14 -2 -8 0.22 0.17
-14 -2 22 0.13 0.14
14 -2 8 0 0.16
-14 2 -9 0.57 0.22
-14 2 23 0.38 0.17
14 2 9 0.58 0.2
-14 -2 23 0.42 0.17
14 -2 9 0.53 0.2
-14 2 -10 0.79 0.24
-14 2 24 0.35 0.17
14 2 10 0.82 0.23
-14 -2 24 0.36 0.18
14 -2 10 0.61 0.2
-14 2 -11 0.28 0.22
-14 2 25 1.38 0.24
14 2 11 0.46 0.22
-14 -2 25 1.93 0.29
14 -2 11 0.18 0.2
-14 2 26 0.06 0.16
14 2 12 -0.08 0.19
-14 -2 26 -0.08 0.16
14 -2 12 -0.13 0.18
-16 2 8 29.6 0.51
-16 2 8 31.83 0.44
-16 -2 8 29.45 0.45
-16 2 7 0.23 0.1
-16 2 7 0.29 0.1
-16 2 9 1.22 0.15
-16 2 9 1.47 0.16
16 2 -9 1.09 0.14
16 2 -7 0.22 0.08
-16 -2 7 0.18 0.08
-16 -2 9 1.31 0.14
16 -2 -7 0.24 0.1
-16 2 6 31.76 0.54
-16 2 6 33.04 0.5
-16 2 10 15.18 0.39
-16 2 10 14.4 0.36
16 2 -10 13.62 0.34
16 2 -6 30.23 0.47
-16 -2 6 30.12 0.41
-16 -2 10 14.05 0.34
16 -2 -6 29.73 0.5
-16 2 5 12.64 0.33
-16 2 11 2.18 0.18
-16 2 11 2.1 0.18
16 2 -11 2.14 0.18
16 2 -5 11.1 0.31
-16 -2 11 1.94 0.17
16 -2 -5 11.52 0.33
-16 2 4 3.83 0.22
-16 2 12 0.12 0.08
-16 2 12 0.36 0.11
16 2 -12 0.25 0.1
16 2 -4 3.32 0.15
16 2 -4 3.92 0.22
-16 -2 12 0.21 0.1
-16 -2 12 0.14 0.06
16 -2 -12 0.3 0.06
16 -2 -4 4.02 0.22
-16 2 3 0.42 0.13
-16 2 13 0 0.02
-16 2 13 1.09 0.14
16 2 -13 1.25 0.15
16 2 -3 0.38 0.07
16 2 -3 0.42 0.11
-16 -2 13 1.17 0.15
-16 -2 13 1.12 0.11
16 -2 -3 0.53 0.11
-16 2 2 10.48 0.36
-16 2 14 0.02 0.03
-16 2 14 0.34 0.11
16 2 -14 0.44 0.12
16 2 -2 9.92 0.34
-16 -2 14 0.38 0.12
-16 -2 14 0.35 0.08
16 -2 -2 9.93 0.31
-16 2 1 4.81 0.28
-16 2 15 7.96 0.33
-16 2 15 7.68 0.3
16 2 -15 9.29 0.3
16 2 -1 5.54 0.27
-16 -2 15 8.24 0.34
16 -2 -1 4.95 0.25
16 -2 -1 2.29 0.2
-16 2 0 13.04 0.43
-16 2 16 0.47 0.13
-16 2 16 0.4 0.13
16 2 -16 0.45 0.13
16 2 0 12.15 0.4
-16 -2 16 0.16 0.11
16 -2 0 13.78 0.38
16 -2 0 10.76 0.38
-16 2 -1 5.18 0.31
-16 2 17 8.37 0.36
-16 2 17 8.52 0.33
16 2 -17 10.99 0.34
16 2 1 5.05 0.29
-16 -2 17 8.4 0.37
16 -2 1 5.38 0.27
16 -2 1 4.8 0.3
-16 2 -2 6.94 0.36
-16 2 18 1.8 0.21
-16 2 18 2.07 0.21
16 2 2 7.32 0.36
-16 -2 18 1.98 0.22
16 -2 2 7.94 0.31
16 -2 2 5.88 0.33
-16 2 -3 0.83 0.19
-16 2 19 5.55 0.33
-16 2 19 6.1 0.31
16 2 3 0.63 0.18
-16 -2 19 5.62 0.32
16 -2 3 0.73 0.16
16 -2 3 0.73 0.17
-16 2 -4 7.92 0.42
-16 2 20 9.05 0.4
-16 2 20 10.22 0.39
16 2 4 7.62 0.39
-16 -2 20 10.14 0.43
16 -2 4 7.08 0.38
-16 2 -5 8.54 0.43
-16 2 21 3.65 0.28
-16 2 21 4.16 0.28
16 2 5 8.5 0.42
-16 -2 21 4.03 0.32
16 -2 5 8.15 0.41
-16 2 -6 0.49 0.2
-16 2 22 0.25 0.15
-16 2 22 0.36 0.15
16 2 6 0.32 0.18
-16 -2 22 0.23 0.16
16 -2 6 0.35 0.18
-16 2 -7 0.08 0.18
-16 2 23 0 0.15
16 2 7 0.25 0.18
-16 -2 23 0.25 0.16
16 -2 7 0.21 0.17
-16 2 -8 0.02 0.19
-16 2 24 3.49 0.32
16 2 8 -0.02 0.17
-16 -2 24 3.49 0.34
16 -2 8 -0.15 0.16
-16 2 -9 1.13 0.27
-16 2 25 2.82 0.31
16 2 9 1.16 0.25
-16 -2 25 2.83 0.33
16 -2 9 0.87 0.23
-16 2 -10 -0.12 0.19
-16 2 26 0.11 0.19
16 2 10 -0.1 0.19
-16 -2 26 0.23 0.19
16 -2 10 -0.24 0.18
-18 2 9 1.54 0.17
-18 -2 9 1.27 0.15
-18 2 8 24.99 0.5
-18 2 8 25.88 0.45
-18 2 10 10.62 0.34
-18 2 10 10.31 0.34
18 2 -10 9.5 0.32
18 2 -8 22.89 0.43
-18 -2 8 25.04 0.43
-18 -2 10 9.97 0.31
18 -2 -8 23.79 0.49
-18 2 7 -0.02 0.08
-18 2 11 1.94 0.2
-18 2 11 1.89 0.19
18 2 -11 1.86 0.2
18 2 -7 0.05 0.08
-18 -2 7 0 0.07
-18 -2 11 1.86 0.18
18 -2 -7 0.05 0.09
-18 2 6 0.83 0.14
-18 2 12 3.42 0.23
-18 2 12 3.45 0.22
18 2 -12 3.69 0.23
18 2 -6 0.89 0.13
-18 -2 6 0.88 0.11
-18 -2 12 3.52 0.21
18 -2 -6 0.85 0.14
-18 2 5 1.97 0.2
-18 2 13 0.69 0.14
-18 2 13 0.6 0.12
18 2 -13 0.36 0.12
18 2 -5 1.98 0.15
18 2 -5 1.76 0.18
-18 -2 13 0.48 0.13
18 -2 -5 1.95 0.19
-18 2 4 1.44 0.19
-18 2 14 10.32 0.37
-18 2 14 10.74 0.35
18 2 -14 11.84 0.34
18 2 -4 1.48 0.14
18 2 -4 1.55 0.19
-18 -2 14 11.32 0.37
-18 -2 14 8.35 0.23
18 -2 -4 1.42 0.16
-18 2 3 20.16 0.5
-18 2 15 7.83 0.33
-18 2 15 7.91 0.31
18 2 -15 8.62 0.3
18 2 -3 18.94 0.47
-18 -2 15 7.99 0.34
18 -2 -3 19.3 0.44
-18 2 2 3.47 0.27
-18 2 16 1.15 0.18
-18 2 16 1.02 0.16
18 2 -16 1.34 0.17
18 2 -2 3.04 0.25
-18 -2 16 1.09 0.18
18 -2 -2 3.09 0.23
18 -2 -2 2.76 0.23
-18 2 1 0.01 0.13
-18 2 17 11.17 0.41
-18 2 17 10.6 0.37
18 2 -17 13.32 0.37
18 2 -1 -0.05 0.12
-18 -2 17 10.2 0.4
18 -2 -1 0 0.12
18 -2 -1 0.01 0.11
-18 2 0 0.13 0.14
-18 2 18 3.05 0.25
-18 2 18 2.94 0.25
18 2 0 0.1 0.13
-18 -2 18 3.13 0.27
18 -2 0 0.1 0.13
18 -2 0 -0.08 0.11
-18 2 -1 7.37 0.38
-18 2 19 8.02 0.37
-18 2 19 7.91 0.34
18 2 1 6.84 0.35
-18 -2 19 7.9 0.37
18 -2 1 8.02 0.34
18 -2 1 6.24 0.34
-18 2 -2 0.06 0.16
-18 2 20 4.61 0.32
-18 2 20 4.44 0.28
18 2 2 0.09 0.15
-18 -2 20 4.44 0.31
18 -2 2 0.07 0.15
-18 2 -3 0.04 0.16
-18 2 21 1.15 0.21
-18 2 21 1.44 0.2
18 2 3 0.16 0.16
-18 -2 21 1.11 0.21
18 -2 3 0.28 0.17
-18 2 -4 0.25 0.2
-18 2 22 0.57 0.19
-18 2 22 0.75 0.18
18 2 4 0.13 0.17
-18 -2 22 0.76 0.2
18 -2 4 0 0.16
-18 2 -5 2.04 0.29
-18 2 23 0.11 0.14
18 2 5 1.83 0.27
-18 -2 23 -0.05 0.15
18 -2 5 1.83 0.27
-18 2 -6 0.37 0.21
-18 2 24 1.01 0.23
18 2 6 0.29 0.18
-18 -2 24 1.05 0.23
18 -2 6 0.15 0.18
-18 2 -7 0.12 0.19
-18 2 25 0.24 0.18
18 2 7 0.04 0.17
-18 -2 25 0.4 0.19
18 -2 7 0.04 0.16
-18 2 -8 0.57 0.24
-18 2 26 0.66 0.21
18 2 8 0.36 0.22
-18 -2 26 0.63 0.22
18 -2 8 0.45 0.22
-18 2 27 0.32 0.2
18 2 9 0.45 0.24
-18 -2 27 0.38 0.21
18 -2 9 0.32 0.21
-20 2 10 0.01 0.12
-20 -2 10 0.08 0.1
20 -2 -10 -0.01 0.11
-20 2 9 31.86 0.61
-20 2 11 1.05 0.17
-20 2 11 1.37 0.18
20 2 -11 1.17 0.17
20 2 -9 28.95 0.51
-20 -2 9 30.13 0.5
-20 -2 11 1.34 0.16
20 -2 -9 28.22 0.56
-20 2 8 16.93 0.42
-20 2 12 4.8 0.28
-20 2 12 4.41 0.26
20 2 -12 3.88 0.26
20 2 -8 15.48 0.41
-20 -2 8 16.01 0.37
-20 -2 12 4.34 0.25
20 -2 -8 14.77 0.42
-20 2 7 1.7 0.19
-20 2 13 0.22 0.12
-20 2 13 0.24 0.12
20 2 -13 0.2 0.13
20 2 -7 1.74 0.21
-20 -2 7 1.42 0.17
-20 -2 13 0.13 0.11
20 -2 -7 1.67 0.19
-20 2 6 2.92 0.23
-20 2 14 7.33 0.32
-20 2 14 7.17 0.31
20 2 -14 7.36 0.31
20 2 -6 2.4 0.18
20 2 -6 2.53 0.22
-20 -2 14 7.68 0.32
20 -2 -6 2.4 0.24
-20 2 5 19.34 0.5
-20 2 15 4.84 0.28
-20 2 15 4.81 0.26
20 2 -15 5.02 0.27
20 2 -5 17.19 0.46
-20 -2 15 4.87 0.28
20 -2 -5 17.48 0.45
-20 2 4 5.4 0.32
-20 2 16 0.37 0.14
-20 2 16 0.44 0.13
20 2 -16 0.32 0.13
20 2 -4 5.01 0.3
-20 -2 16 0.46 0.14
20 -2 -4 5.33 0.28
-20 2 3 8.79 0.39
-20 2 17 2.14 0.24
-20 2 17 1.78 0.2
20 2 -17 2.3 0.22
20 2 -3 7.68 0.36
-20 -2 17 1.95 0.21
20 -2 -3 8.49 0.34
20 -2 -3 7.73 0.37
-20 2 2 4.8 0.32
-20 2 18 1.09 0.2
-20 2 18 0.98 0.17
20 2 -2 4.28 0.3
-20 -2 18 1.08 0.18
20 -2 -2 5.1 0.28
20 -2 -2 4.35 0.31
-20 2 1 4.5 0.32
-20 2 19 1.89 0.24
-20 2 19 1.74 0.21
20 2 -1 3.53 0.28
-20 -2 19 1.56 0.22
20 -2 -1 4.57 0.29
20 -2 -1 3.59 0.28
-20 2 0 5.47 0.35
-20 2 20 0.39 0.16
-20 2 20 0.36 0.14
20 2 0 5.17 0.34
-20 -2 20 0.62 0.17
20 -2 0 4.36 0.32
-20 2 -1 7.45 0.42
-20 2 21 0.57 0.17
-20 2 21 0.61 0.16
20 2 1 6.74 0.39
-20 -2 21 0.72 0.19
20 -2 1 6.69 0.39
-20 2 -2 12.82 0.52
-20 2 22 0.95 0.2
20 2 2 12.24 0.51
-20 -2 22 0.79 0.2
20 -2 2 11.38 0.49
-20 2 -3 0.55 0.22
-20 2 23 -0.08 0.15
20 2 3 0.24 0.17
-20 -2 23 -0.02 0.14
20 -2 3 0.34 0.19
-20 2 -4 1.21 0.27
-20 2 24 -0.06 0.14
20 2 4 0.97 0.24
-20 -2 24 -0.08 0.15
20 -2 4 0.94 0.22
-20 2 -5 1.46 0.29
-20 2 25 0.02 0.16
20 2 5 1.47 0.27
-20 -2 25 0.13 0.18
20 -2 5 1.35 0.26
-20 2 -6 0.27 0.21
-20 2 26 -0.15 0.15
20 2 6 0.19 0.19
-20 -2 26 0.16 0.18
20 -2 6 0.02 0.19
-20 2 -7 0.56 0.25
-20 2 27 -0.1 0.16
20 2 7 0.84 0.24
-20 -2 27 -0.07 0.17
20 -2 7 0.77 0.26
-22 2 11 0.41 0.15
-22 -2 11 0.39 0.12
22 -2 -11 0.17 0.12
-22 2 12 1.9 0.22
-22 2 12 2.17 0.22
22 2 -12 1.78 0.21
22 2 -10 10.63 0.35
-22 -2 10 11.55 0.35
-22 -2 12 2.23 0.21
22 -2 -10 10.82 0.38
-22 2 13 5.59 0.31
-22 2 13 5.4 0.3
22 2 -13 5.56 0.3
22 2 -9 8.93 0.33
-22 -2 9 9.57 0.31
-22 -2 13 5.57 0.29
22 -2 -9 8.41 0.35
-22 2 14 13.3 0.44
-22 2 14 13.11 0.41
22 2 -14 12.9 0.4
22 2 -8 0.02 0.12
-22 -2 14 13.33 0.42
22 -2 -8 0.09 0.12
-22 2 7 -0.04 0.11
-22 2 15 0.91 0.18
-22 2 15 0.78 0.16
22 2 -15 0.8 0.16
22 2 -7 0.08 0.11
-22 -2 15 0.58 0.15
22 -2 -7 0.08 0.11
-22 2 6 1.95 0.22
-22 2 16 1.47 0.2
-22 2 16 1.5 0.19
22 2 -16 1.72 0.21
22 2 -6 2.12 0.22
-22 -2 16 1.42 0.2
22 -2 -6 1.88 0.22
-22 2 5 9.68 0.39
-22 2 17 1.13 0.19
-22 2 17 1.35 0.19
22 2 -17 1.39 0.19
22 2 -5 9.34 0.38
-22 -2 17 1.05 0.18
22 -2 -5 9.64 0.36
-22 2 4 0.8 0.18
-22 2 18 5.1 0.33
-22 2 18 5.4 0.3
22 2 -4 0.77 0.18
-22 -2 18 5.12 0.3
22 -2 -4 0.89 0.16
22 -2 -4 0.6 0.18
-22 2 3 0.05 0.14
-22 2 19 0.85 0.18
-22 2 19 1.05 0.18
22 2 -3 0.16 0.14
-22 -2 19 0.74 0.17
22 -2 -3 0.02 0.11
22 -2 -3 -0.08 0.12
-22 2 2 2.15 0.27
-22 2 20 0.93 0.2
-22 2 20 0.74 0.17
22 2 -2 2.23 0.26
-22 -2 20 0.62 0.18
22 -2 -2 1.57 0.23
-22 2 1 0.92 0.21
-22 2 21 0 0.14
-22 2 21 0.03 0.12
22 2 -1 0.97 0.21
-22 -2 21 0.21 0.15
22 -2 -1 0.79 0.19
-22 2 0 2.03 0.28
-22 2 22 5.2 0.36
22 2 0 1.73 0.26
-22 -2 22 4.91 0.34
22 -2 0 1.44 0.23
-22 2 -1 1.34 0.26
-22 2 23 0.28 0.16
22 2 1 1.11 0.23
-22 -2 23 0.45 0.18
22 -2 1 1.13 0.22
-22 2 -2 3.72 0.35
-22 2 24 0.1 0.17
22 2 2 4.12 0.36
-22 -2 24 0.16 0.16
22 -2 2 4.03 0.36
-22 2 -3 -0.11 0.18
-22 2 25 0.1 0.15
22 2 3 0.09 0.19
-22 -2 25 0.07 0.15
22 -2 3 0.17 0.18
-22 2 -4 0.14 0.21
-22 2 26 -0.04 0.17
22 2 4 0.08 0.17
-22 -2 26 -0.15 0.15
22 -2 4 -0.09 0.18
-22 2 -5 0.16 0.21
-22 2 27 -0.08 0.17
22 2 5 0.32 0.21
-22 -2 27 0.05 0.17
22 -2 5 0.4 0.21
24 2 -12 2.66 0.22
24 2 -12 2.63 0.26
-24 -2 12 3 0.22
24 -2 -12 2.23 0.24
-24 2 13 3.38 0.26
24 2 -13 3.21 0.27
24 2 -11 0.62 0.14
-24 -2 11 0.6 0.14
-24 -2 13 3.52 0.24
24 -2 -11 0.65 0.16
-24 2 14 0.27 0.14
-24 2 14 0.15 0.13
24 2 -14 0.2 0.14
24 2 -10 1.63 0.19
-24 -2 10 1.66 0.19
-24 -2 14 0.21 0.12
24 -2 -10 1.41 0.19
-24 2 15 2.56 0.24
-24 2 15 3.13 0.25
24 2 -15 3.14 0.27
24 2 -9 10.11 0.38
-24 -2 15 2.95 0.23
24 -2 -9 10.31 0.39
-24 2 16 0.12 0.13
-24 2 16 -0.08 0.11
24 2 -16 0.06 0.13
24 2 -8 0.22 0.13
-24 -2 16 0.09 0.12
24 -2 -8 0.33 0.14
-24 2 7 0 0.14
-24 2 17 0.76 0.18
-24 2 17 0.73 0.16
24 2 -17 0.97 0.17
24 2 -7 0.06 0.12
-24 -2 17 0.77 0.17
24 -2 -7 0 0.12
-24 2 6 2.35 0.26
-24 2 18 2 0.24
-24 2 18 1.8 0.22
24 2 -6 2.35 0.25
-24 -2 18 1.88 0.23
24 -2 -6 2.58 0.26
-24 2 5 2.5 0.27
-24 2 19 0.92 0.2
-24 2 19 0.8 0.17
24 2 -5 2.5 0.24
-24 -2 19 0.78 0.18
24 -2 -5 2.68 0.26
24 -2 -5 2.48 0.27
-24 2 4 4.14 0.32
-24 2 20 3.31 0.28
-24 2 20 2.94 0.25
24 2 -4 4.29 0.31
-24 -2 20 3.02 0.28
24 -2 -4 3.81 0.31
-24 2 3 1.13 0.23
-24 2 21 0.18 0.16
-24 2 21 0.32 0.15
24 2 -3 0.94 0.2
-24 -2 21 0.32 0.15
24 -2 -3 0.9 0.21
-24 2 2 5.12 0.38
-24 2 22 0.13 0.14
24 2 -2 4.88 0.35
-24 -2 22 0.02 0.15
24 -2 -2 4.33 0.34
-24 2 1 0.09 0.18
-24 2 23 1.07 0.22
24 2 -1 -0.07 0.16
-24 -2 23 0.8 0.19
24 -2 -1 0.09 0.16
-24 2 0 0.27 0.2
-24 2 24 0.13 0.17
24 2 0 0.22 0.19
-24 -2 24 0.15 0.16
24 -2 0 0.45 0.2
-24 2 -1 0.62 0.23
-24 2 25 0.02 0.16
24 2 1 0.79 0.24
-24 -2 25 -0.04 0.15
24 -2 1 0.6 0.21
-24 2 -2 0.1 0.21
-24 2 26 -0.04 0.17
24 2 2 0.08 0.2
-24 -2 26 0.13 0.17
24 -2 2 0.51 0.22
-24 2 -3 -0.34 0.19
-24 2 27 0.23 0.2
24 2 3 -0.19 0.18
-24 -2 27 0.45 0.21
24 -2 3 -0.08 0.17
26 2 -13 0.38 0.13
26 2 -13 0.4 0.16
-26 -2 13 0.44 0.14
26 -2 -13 0.48 0.16
26 2 -14 0.33 0.15
26 2 -12 2.2 0.21
-26 -2 12 2.25 0.22
-26 -2 14 0.37 0.14
26 -2 -14 0.26 0.15
26 -2 -12 1.99 0.23
-26 2 15 0.98 0.19
-26 2 15 0.86 0.18
26 2 -15 1 0.19
26 2 -11 0.21 0.12
-26 -2 15 0.74 0.16
26 -2 -11 0.2 0.13
-26 2 16 7.98 0.39
-26 2 16 7.55 0.36
26 2 -16 8 0.36
26 2 -10 0.72 0.17
-26 -2 16 7.34 0.35
26 -2 -10 0.64 0.16
-26 2 17 0.77 0.19
-26 2 17 0.64 0.16
26 2 -17 0.79 0.18
26 2 -9 0.97 0.18
-26 -2 17 0.8 0.16
26 -2 -9 1.02 0.18
-26 2 18 0.12 0.14
-26 2 18 -0.12 0.11
26 2 -8 0.18 0.14
-26 -2 18 0.06 0.13
26 -2 -8 0.11 0.13
-26 2 19 0.1 0.14
-26 2 19 0.01 0.12
26 2 -7 0.5 0.17
-26 -2 19 0.1 0.13
26 -2 -7 0.35 0.15
-26 2 20 0.33 0.16
-26 2 20 0.34 0.15
26 2 -6 0.26 0.15
-26 -2 20 0.27 0.15
26 -2 -6 0.27 0.16
-26 2 5 0.01 0.17
-26 2 21 1.61 0.25
26 2 -5 0.1 0.16
-26 -2 21 1.65 0.24
26 -2 -5 0.02 0.13
-26 2 4 0.44 0.19
-26 2 22 0.36 0.17
26 2 -4 0.43 0.18
-26 -2 22 0.57 0.18
26 -2 -4 0.26 0.17
-26 2 3 1.59 0.27
-26 2 23 0.13 0.15
26 2 -3 1.37 0.25
-26 -2 23 0.12 0.15
26 -2 -3 1.05 0.23
-26 2 2 1.18 0.25
-26 2 24 0.46 0.19
26 2 -2 1.28 0.25
-26 -2 24 0.44 0.18
26 -2 -2 1 0.23
-26 2 1 0.1 0.18
-26 2 25 0.72 0.22
26 2 -1 0.14 0.19
-26 -2 25 0.55 0.2
26 -2 -1 0.06 0.17
-26 2 0 0.13 0.19
-26 2 26 0.32 0.2
26 2 0 0.29 0.21
-26 -2 26 0.47 0.2
26 -2 0 0.18 0.2
-26 2 27 0.51 0.22
26 2 1 0.72 0.23
-26 -2 27 0.37 0.2
26 -2 1 0.69 0.24
28 2 -14 1 0.2
-28 -2 14 0.95 0.18
28 -2 -14 0.92 0.2
28 2 -15 1.37 0.22
28 2 -13 0.92 0.18
28 2 -13 1.14 0.2
-28 -2 15 1.24 0.2
28 -2 -15 1.51 0.23
28 -2 -13 0.87 0.19
28 2 -16 2.37 0.27
28 2 -12 0.57 0.16
-28 -2 16 2.27 0.25
28 -2 -12 0.47 0.17
-28 2 17 3.63 0.3
-28 2 17 3.28 0.29
28 2 -11 0.75 0.17
-28 -2 17 3.55 0.28
28 -2 -11 0.57 0.17
-28 2 18 0.2 0.16
-28 2 18 0.16 0.14
28 2 -10 1.19 0.2
-28 -2 18 0.2 0.14
28 -2 -10 1.18 0.2
-28 2 19 0.13 0.16
-28 2 19 0.02 0.14
28 2 -9 -0.06 0.13
-28 -2 19 -0.06 0.13
28 -2 -9 -0.07 0.14
-28 2 20 0.11 0.15
-28 2 20 0.01 0.13
28 2 -8 0.93 0.2
-28 -2 20 0.12 0.15
28 -2 -8 0.81 0.19
-28 2 21 4.49 0.34
28 2 -7 0.16 0.16
-28 -2 21 4.97 0.35
28 -2 -7 0.07 0.16
-28 2 22 0.62 0.21
28 2 -6 0.94 0.21
-28 -2 22 0.7 0.2
28 -2 -6 0.9 0.22
-28 2 23 0.45 0.2
28 2 -5 0.63 0.2
-28 -2 23 0.44 0.19
28 -2 -5 0.45 0.19
-28 2 24 0.96 0.24
28 2 -4 0.57 0.21
-28 -2 24 0.82 0.21
28 -2 -4 0.38 0.2
-28 2 25 0.96 0.23
28 2 -3 0.15 0.2
-28 -2 25 1.19 0.24
28 -2 -3 0.12 0.18
-28 2 26 0.69 0.22
28 2 -2 0.18 0.21
-28 -2 26 0.48 0.21
28 -2 -2 0.09 0.19
30 2 -15 1.75 0.26
30 -2 -15 1.91 0.26
30 2 -16 0.43 0.19
30 2 -14 0.89 0.22
-30 -2 16 0.43 0.16
30 -2 -16 0.33 0.17
30 -2 -14 1.02 0.21
-30 -2 17 5.99 0.36
30 -2 -17 5.55 0.37
30 -2 -13 1.52 0.24
30 2 -12 0.08 0.15
-30 -2 18 0.31 0.16
30 -2 -12 0.04 0.14
-30 2 19 0.84 0.22
-30 2 19 1.22 0.22
30 2 -11 1.56 0.24
-30 -2 19 0.92 0.2
30 -2 -11 1.44 0.23
-30 2 20 0.31 0.18
30 2 -10 -0.02 0.15
-30 -2 20 -0.05 0.14
-30 2 21 3.22 0.33
30 2 -9 0.3 0.17
-30 -2 21 3.28 0.31
30 -2 -9 -0.06 0.15
-30 2 22 0.41 0.2
30 2 -8 0.29 0.17
-30 -2 22 0.57 0.2
30 -2 -8 0.13 0.18
-30 2 23 0.38 0.2
30 2 -7 0.42 0.2
-30 -2 23 0.37 0.19
30 -2 -7 0.43 0.2
-30 2 24 0.74 0.22
30 2 -6 0.43 0.2
-30 -2 24 0.63 0.22
30 -2 -6 0.64 0.22
-30 2 25 1.3 0.26
30 2 -5 0.56 0.22
-30 -2 25 1.34 0.25
30 -2 -5 0.49 0.2
-30 2 26 0.33 0.21
30 2 -4 -0.12 0.18
-30 -2 26 0.33 0.18
30 -2 -4 0.17 0.17
32 -2 -16 1.23 0.23
32 2 -15 0.33 0.2
32 -2 -17 0.44 0.19
32 -2 -15 0.36 0.18
32 2 -14 0.01 0.17
-32 -2 18 0.09 0.16
32 -2 -18 0.19 0.17
32 -2 -14 0.17 0.16
-32 -2 19 0.08 0.15
32 -2 -19 0.09 0.17
32 -2 -13 0.07 0.16
32 2 -12 0.98 0.22
-32 -2 20 0.04 0.15
-32 2 21 0.31 0.19
32 2 -11 0.2 0.18
-32 -2 21 0.49 0.18
32 -2 -11 0.41 0.19
-32 2 22 0.02 0.17
32 2 -10 0 0.17
-32 -2 22 0.11 0.17
32 -2 -10 -0.04 0.17
32 2 -9 1.64 0.27
-32 -2 23 0.37 0.19
32 -2 -9 1.5 0.28
-32 2 24 0.24 0.18
32 2 -8 -0.16 0.16
-32 -2 24 0.08 0.17
32 -2 -8 0.1 0.18
-32 2 25 0.57 0.22
32 2 -7 0.08 0.2
-32 -2 25 0.41 0.2
32 -2 -7 0.24 0.2
34 -2 -17 0.03 0.17
34 -2 -18 0.27 0.18
34 -2 -16 0.65 0.21
34 2 -15 2.45 0.32
34 -2 -19 1.23 0.25
34 2 -14 0.57 0.22
34 -2 -20 0.17 0.19
-34 -2 21 0.11 0.16
34 -2 -21 0.05 0.17
34 -2 -13 0.55 0.22
-34 -2 22 0.04 0.16
34 -2 -12 0.23 0.2
-34 2 23 -0.05 0.18
-34 -2 23 -0.04 0.16
-1 3 0 74.95 0.46
-1 3 0 83.56 0.52
-1 3 1 93.49 0.54
-1 3 1 95.29 0.52
1 3 -1 94.62 0.46
1 3 -1 92.35 0.57
1 3 0 84.29 0.48
1 3 0 72.67 0.49
-1 -3 0 81.45 0.47
-1 -3 1 102.9 0.56
1 -3 -1 87.93 0.52
1 -3 0 77.38 0.51
-1 3 -1 50.86 0.37
-1 3 -1 60.82 0.48
-1 3 2 0.85 0.08
-1 3 2 0.73 0.07
1 3 -2 0.77 0.06
1 3 -2 0.81 0.09
1 3 1 59.97 0.44
1 3 1 47.69 0.39
-1 -3 -1 52.45 0.35
-1 -3 2 0.85 0.09
1 -3 -2 0.79 0.08
1 -3 1 56.03 0.46
-1 3 -2 15.77 0.21
-1 3 -2 17.92 0.28
-1 3 3 101.74 0.64
-1 3 3 83.65 0.46
1 3 -3 90.25 0.41
1 3 2 18.28 0.27
1 3 2 13.87 0.22
-1 -3 -2 15.58 0.19
-1 -3 3 109.51 0.67
1 -3 -3 83.38 0.49
-1 3 -3 0 0.02
-1 3 4 36.72 0.42
-1 3 4 32.3 0.3
1 3 3 63.7 0.54
-1 -3 -3 50.07 0.33
-1 -3 4 -0.01 0.01
1 -3 -4 32.08 0.31
-1 3 5 100.83 0.56
1 3 -5 118.85 0.8
1 3 4 1.36 0.12
-1 -3 5 94.09 0.48
1 -3 4 1.4 0.13
-1 3 -5 47.18 0.54
-1 3 6 2.06 0.11
1 3 -6 2.43 0.17
1 3 5 38.81 0.32
1 3 5 26.66 0.41
-1 -3 6 2.41 0.15
-1 -3 6 2.03 0.1
1 -3 5 48.35 0.54
1 -3 5 35.5 0.38
-1 3 -6 0.02 0.08
-1 3 7 164.15 0.88
-1 3 7 198.69 1.16
1 3 -7 207.78 1.17
1 3 6 0.04 0.04
1 3 6 0 0.04
-1 -3 7 212.81 1.5
-1 -3 7 172.7 1.11
1 -3 6 0.16 0.09
1 -3 6 0.11 0.06
-1 3 -7 34.38 0.52
-1 3 8 0.54 0.08
-1 3 8 0.59 0.1
1 3 -8 0.64 0.12
1 3 7 27.78 0.31
1 3 7 34.72 0.53
-1 -3 8 0.59 0.11
-1 -3 8 0.44 0.07
1 -3 7 35.74 0.51
1 -3 7 19.97 0.32
-1 3 -8 39.11 0.58
-1 3 9 29.88 0.39
-1 3 9 36.59 0.57
1 3 -9 36.2 0.55
1 3 8 32.2 0.36
1 3 8 39.15 0.59
-1 -3 9 36.24 0.55
-1 -3 9 23.39 0.35
1 -3 8 43.07 0.6
1 -3 8 34.54 0.45
-1 3 -9 28.65 0.53
-1 3 10 5.14 0.19
-1 3 10 8.59 0.31
1 3 -10 6.93 0.28
1 3 9 23.18 0.33
1 3 9 29.12 0.54
-1 -3 10 6.69 0.28
-1 -3 10 5.92 0.21
1 -3 9 29.16 0.52
1 -3 9 24.78 0.41
-1 3 -10 2.41 0.21
-1 3 11 15.07 0.32
-1 3 11 18.17 0.45
1 3 -11 18.58 0.45
1 3 10 1.83 0.14
1 3 10 2.41 0.22
-1 -3 -10 1.98 0.18
-1 -3 11 18.6 0.44
-1 -3 11 19.31 0.38
1 -3 -11 16.39 0.34
1 -3 10 2.64 0.22
1 -3 10 2.49 0.17
-1 3 -11 4.06 0.28
-1 3 12 0.57 0.11
-1 3 12 0.72 0.16
1 3 -12 0.59 0.16
1 3 11 3.31 0.18
1 3 11 4.12 0.28
-1 -3 -11 3.7 0.21
-1 -3 12 0.9 0.15
-1 -3 12 0.82 0.13
1 -3 -12 0.66 0.12
1 -3 11 4.53 0.27
1 -3 11 4.48 0.23
-1 3 -12 -0.11 0.12
-1 3 13 1.57 0.16
-1 3 13 1.91 0.23
1 3 -13 1.89 0.22
1 3 12 -0.06 0.11
-1 -3 -12 -0.02 0.11
-1 -3 13 2.01 0.21
-1 -3 13 1.99 0.19
1 -3 -13 1.8 0.18
1 -3 12 0.09 0.12
1 -3 12 0.05 0.09
-1 3 -13 4.23 0.29
-1 3 14 1.43 0.21
1 3 -14 1.68 0.22
1 3 13 4.21 0.3
-1 -3 -13 3.32 0.23
-1 -3 14 1.89 0.22
-1 -3 14 1.59 0.18
1 -3 -14 1.63 0.18
1 -3 13 4.34 0.28
1 -3 13 4.25 0.25
-1 3 -14 0.8 0.19
-1 3 15 0.28 0.14
1 3 -15 0.22 0.16
1 3 14 0.81 0.18
-1 -3 -14 0.79 0.16
-1 -3 15 0.41 0.15
-1 -3 15 0.39 0.13
1 -3 14 0.84 0.17
1 -3 14 0.69 0.15
-1 3 -15 0.15 0.16
-1 3 16 -0.02 0.14
1 3 -16 -0.08 0.15
1 3 15 0.08 0.14
-1 -3 16 0 0.14
1 -3 15 0.11 0.14
1 -3 15 0.21 0.13
-1 3 -16 0.6 0.2
-1 3 17 2.9 0.29
1 3 -17 2.49 0.28
1 3 16 0.27 0.16
-1 -3 17 2.61 0.27
1 -3 16 0.33 0.16
-1 3 -17 3.31 0.33
-1 3 18 0.16 0.16
1 3 -18 0.18 0.19
1 3 17 3.18 0.32
-1 -3 18 0.27 0.16
1 -3 17 2.93 0.3
-1 3 -18 0.45 0.22
-1 3 19 0.07 0.15
1 3 -19 -0.04 0.18
1 3 18 0.7 0.21
-1 -3 19 0 0.15
1 -3 18 0.63 0.19
-1 3 -19 0.06 0.19
-1 3 20 0.02 0.16
1 3 19 0.26 0.19
-1 -3 20 -0.06 0.15
-1 3 21 0.05 0.17
1 3 20 -0.04 0.17
-3 3 1 70.15 0.5
-3 3 1 84.19 0.52
-3 3 2 14.2 0.23
-3 3 2 16.39 0.21
3 3 -2 15.53 0.17
3 3 -2 13.15 0.24
3 3 -1 84.79 0.46
3 3 -1 65.78 0.5
-3 -3 1 87.94 0.53
-3 -3 2 17.19 0.24
3 -3 -2 13.89 0.23
3 -3 -1 69.85 0.52
-3 3 0 13.53 0.22
-3 3 0 16.5 0.26
-3 3 3 2.42 0.12
-3 3 3 2.71 0.1
3 3 -3 2.5 0.07
3 3 0 17.02 0.24
3 3 0 12.82 0.23
-3 -3 0 16.79 0.19
-3 -3 3 2.97 0.13
3 -3 -3 2.22 0.11
3 -3 0 7.15 0.18
-3 3 -1 2.19 0.11
-3 3 -1 3.36 0.14
-3 3 4 34.79 0.4
-3 3 4 46.36 0.31
3 3 -4 45.1 0.21
3 3 -4 29.02 0.36
3 3 1 2.88 0.13
-3 -3 -1 2.84 0.08
-3 -3 4 56.11 0.49
3 -3 -4 41.19 0.39
3 -3 1 -0.01 0.01
-3 3 -2 -0.01 0.02
-3 3 5 21.98 0.29
-3 3 5 0.01 0.01
-3 3 5 20.31 0.2
3 3 -5 24.88 0.36
3 3 2 2.35 0.13
-3 -3 -2 2.17 0.07
-3 -3 5 0.01 0.02
-3 -3 5 19.95 0.15
3 -3 2 2.05 0.14
-3 3 6 172.19 1.08
-3 3 6 157.31 0.81
3 3 -6 204.72 1.05
3 3 3 100.25 0.74
-3 -3 -3 80.22 0.33
-3 -3 6 174.33 0.91
3 -3 3 100.08 0.73
-3 3 7 93.01 0.64
-3 3 7 109.13 0.83
3 3 -7 114 0.82
3 3 4 53.42 0.58
-3 -3 7 101.58 0.48
3 -3 4 54.43 0.57
-3 3 -5 9.51 0.29
-3 3 8 0.53 0.08
-3 3 8 0.5 0.1
3 3 -8 0.58 0.11
3 3 5 7.64 0.13
3 3 5 8.27 0.26
-3 -3 8 0.54 0.11
-3 -3 8 0.71 0.08
3 -3 5 9.85 0.28
3 -3 5 6.88 0.21
-3 3 -6 0.44 0.11
-3 3 9 0.84 0.1
-3 3 9 1 0.13
3 3 -9 1.12 0.14
3 3 6 0.45 0.05
3 3 6 0 0.02
-3 -3 9 1.07 0.13
-3 -3 9 0.96 0.1
3 -3 6 0.55 0.1
3 -3 6 0.45 0.08
-3 3 -7 14.77 0.38
-3 3 10 31.44 0.43
-3 3 10 36.88 0.57
3 3 -10 40.49 0.58
3 3 7 11.78 0.2
3 3 7 13.83 0.36
-3 -3 10 39.02 0.59
-3 -3 10 26 0.35
3 -3 7 16.29 0.38
3 -3 7 12.08 0.3
-3 3 -8 3.02 0.23
-3 3 11 0.29 0.09
-3 3 11 0.47 0.12
3 3 -11 0.35 0.13
3 3 8 2.81 0.12
3 3 8 2.55 0.19
-3 -3 11 0.52 0.13
-3 -3 11 0.36 0.08
3 -3 8 3.6 0.22
3 -3 8 2.98 0.18
-3 3 -9 0.27 0.12
-3 3 12 0.36 0.1
-3 3 12 0.28 0.12
3 3 -12 0.24 0.13
3 3 9 0.26 0.07
3 3 9 0.35 0.12
-3 -3 -9 0.08 0.11
-3 -3 12 0.39 0.13
-3 -3 12 0.36 0.09
3 -3 9 0.32 0.12
3 -3 9 0.36 0.1
-3 3 -10 1.14 0.18
-3 3 13 24.94 0.45
-3 3 13 30.06 0.6
3 3 -13 30.78 0.59
3 3 10 1.32 0.19
-3 -3 -10 0.97 0.16
-3 -3 13 29.95 0.59
-3 -3 13 30 0.47
3 -3 10 1.34 0.18
3 -3 10 1.24 0.16
-3 3 -11 0.96 0.18
-3 3 14 -0.01 0.1
-3 3 14 0.09 0.12
3 3 -14 -0.05 0.14
3 3 11 0.93 0.18
-3 -3 -11 0.78 0.16
-3 -3 14 0.16 0.13
-3 -3 14 0.16 0.1
3 -3 11 0.97 0.16
3 -3 11 0.67 0.14
-3 3 -12 0.27 0.15
-3 3 15 0.42 0.12
-3 3 15 0.11 0.13
3 3 -15 0.04 0.14
3 3 12 0.51 0.17
-3 -3 -12 0.38 0.15
-3 -3 15 0.52 0.15
3 -3 12 0.63 0.16
3 -3 12 0.47 0.13
-3 3 -13 3.16 0.28
-3 3 16 0.03 0.13
3 3 -16 -0.09 0.14
3 3 13 3.09 0.27
-3 -3 -13 3.13 0.25
-3 -3 16 0.06 0.13
3 -3 13 3.88 0.29
3 -3 13 3.48 0.25
-3 3 -14 0.25 0.17
-3 3 17 3.01 0.27
3 3 -17 3.41 0.3
3 3 14 0.11 0.15
-3 -3 17 3.18 0.28
3 -3 14 0.17 0.14
3 -3 14 0.15 0.13
-3 3 -15 3.74 0.33
-3 3 18 0.49 0.18
3 3 -18 0.37 0.18
3 3 15 3.93 0.33
-3 -3 18 0.46 0.17
3 -3 15 3.74 0.3
3 -3 15 3.86 0.3
-3 3 -16 3.51 0.34
-3 3 19 -0.05 0.15
3 3 -19 -0.09 0.17
3 3 16 3.79 0.34
-3 -3 19 0.08 0.15
3 -3 16 3.59 0.31
-3 3 -17 1.16 0.26
-3 3 20 0.08 0.17
3 3 17 1.12 0.25
-3 -3 20 0.06 0.16
-3 3 -18 0.01 0.2
-3 3 21 0.14 0.17
3 3 18 0.15 0.18
-3 -3 21 0.11 0.17
-3 3 22 0 0.17
3 3 19 1.12 0.26
-5 3 2 61.48 0.52
-5 3 2 75.55 0.5
-5 3 3 188.54 1.09
-5 3 3 232.85 1.57
5 3 -3 233.12 1.28
5 3 -3 0.01 0.01
5 3 -2 74.16 0.43
-5 -3 2 76.01 0.44
-5 -3 3 230.69 4.51
5 -3 -3 148.1 1.18
-5 3 1 27.3 0.35
-5 3 1 33.42 0.37
-5 3 4 0.02 0.03
-5 3 4 0.02 0.03
5 3 -1 32.45 0.33
5 3 -1 9.92 0.22
-5 -3 1 34.69 0.26
-5 -3 4 0.02 0.04
5 -3 -4 -0.01 0.05
5 -3 -1 -0.01 0.01
-5 3 0 65.11 0.54
-5 3 0 61.89 0.53
-5 3 5 0.01 0.01
-5 3 5 48.4 0.28
5 3 -5 42.36 0.46
5 3 0 75.36 0.55
-5 -3 0 80.91 0.32
-5 -3 5 26.55 0.35
5 -3 0 62.07 0.55
-5 3 -1 11.74 0.25
-5 3 -1 8.92 0.23
-5 3 6 36.34 0.41
-5 3 6 42.69 0.23
5 3 -6 40.15 0.46
5 3 1 13.59 0.27
-5 -3 6 33.26 0.42
5 -3 1 12.35 0.27
-5 3 -2 3.81 0.18
-5 3 7 11.94 0.25
-5 3 7 12.1 0.28
-5 3 7 11.73 0.12
5 3 -7 13.27 0.29
5 3 2 3.96 0.17
-5 -3 7 13.46 0.29
5 -3 2 3.75 0.17
-5 3 -3 88.41 0.77
-5 3 8 -0.01 0.05
-5 3 8 -0.04 0.06
-5 3 8 0.01 0.03
5 3 -8 0.06 0.08
5 3 3 90.49 0.77
-5 -3 8 0.06 0.06
-5 -3 8 0.01 0.03
5 -3 3 92.81 0.76
-5 3 9 62.94 0.6
-5 3 9 70.53 0.71
5 3 -9 77.21 0.72
5 3 4 65.56 0.7
-5 -3 9 26.71 0.44
-5 -3 9 73.3 0.41
5 -3 4 72.11 0.7
5 -3 4 50.91 0.56
-5 3 -5 5.47 0.24
-5 3 10 17.69 0.34
-5 3 10 20.37 0.42
5 3 -10 22.13 0.42
5 3 5 4.72 0.09
5 3 5 5.61 0.24
-5 -3 10 21.39 0.43
-5 -3 10 20.82 0.26
5 -3 5 6.36 0.25
5 -3 5 4.57 0.2
-5 3 -6 1.2 0.15
-5 3 11 0.04 0.07
-5 3 11 -0.04 0.08
5 3 -11 -0.06 0.1
5 3 6 1.13 0.07
-5 -3 11 0.02 0.08
-5 -3 11 0.12 0.06
5 -3 6 1.53 0.16
5 -3 6 1.08 0.13
-5 3 -7 0.47 0.13
-5 3 12 1.27 0.15
-5 3 12 1.49 0.17
5 3 -12 1.8 0.2
5 3 7 0.37 0.06
5 3 7 -0.01 0.02
-5 -3 12 1.53 0.18
5 -3 7 0.53 0.12
5 -3 7 0.47 0.1
-5 3 -8 0.66 0.15
-5 3 13 0.14 0.09
-5 3 13 0.1 0.11
5 3 -13 0.16 0.13
5 3 8 0.46 0.11
-5 -3 13 0.07 0.1
-5 -3 13 0.24 0.08
5 -3 8 0.69 0.14
5 -3 8 0.53 0.12
-5 3 -9 17.85 0.49
-5 3 14 35.82 0.57
-5 3 14 42.28 0.71
5 3 -14 44.08 0.68
5 3 9 17.87 0.48
-5 -3 -9 15.15 0.41
-5 -3 14 42.38 0.71
-5 -3 14 42.18 0.53
5 -3 9 19.74 0.47
5 -3 9 16.55 0.42
-5 3 -10 1.79 0.23
-5 3 15 6.66 0.29
-5 3 15 7.98 0.36
5 3 -15 8.2 0.35
5 3 10 1.83 0.22
-5 -3 -10 1.76 0.21
-5 -3 15 8.04 0.36
5 -3 10 2.43 0.23
5 -3 10 1.78 0.2
-5 3 -11 4.81 0.32
-5 3 16 1.16 0.16
-5 3 16 1.18 0.2
5 3 -16 1.15 0.2
5 3 11 4.61 0.32
-5 -3 -11 4.08 0.28
-5 -3 16 1.26 0.19
5 -3 11 4.71 0.29
5 -3 11 4.07 0.26
-5 3 -12 0.15 0.16
-5 3 17 0.23 0.11
-5 3 17 0.31 0.14
5 3 -17 0.21 0.16
5 3 12 0.03 0.13
-5 -3 17 0.4 0.16
5 -3 12 0.18 0.14
5 -3 12 0.15 0.13
-5 3 -13 6.52 0.38
-5 3 18 -0.03 0.13
5 3 -18 0.06 0.16
5 3 13 6.87 0.38
-5 -3 18 0.11 0.14
5 -3 13 6.82 0.35
5 -3 13 6.8 0.35
-5 3 -14 1.32 0.25
-5 3 19 0.3 0.16
5 3 -19 0.52 0.19
5 3 14 1.07 0.23
-5 -3 19 0.43 0.16
5 -3 14 1.2 0.22
5 -3 14 1.12 0.2
-5 3 -15 9.73 0.48
-5 3 20 0.22 0.18
5 3 15 10.02 0.49
-5 -3 20 0.33 0.17
5 -3 15 10.2 0.45
5 -3 15 9.48 0.44
-5 3 -16 0.58 0.24
-5 3 21 0.63 0.2
5 3 16 0.61 0.22
-5 -3 21 0.59 0.19
-5 3 -17 0.39 0.22
-5 3 22 0.01 0.16
5 3 17 0.72 0.23
-5 -3 22 0.06 0.16
-5 -3 23 0.26 0.18
-7 3 3 14.01 0.27
-7 3 3 18.08 0.26
-7 3 4 9.43 0.17
7 3 -4 9.56 0.15
7 3 -4 6.72 0.2
7 3 -3 17.58 0.23
-7 -3 3 17.49 0.23
-7 -3 4 9.39 0.19
7 -3 -4 0 0.02
7 -3 -3 0.02 0.01
-7 3 2 0.88 0.11
-7 3 2 0.87 0.09
-7 3 5 0.02 0.02
-7 3 5 2.44 0.09
7 3 -5 2.41 0.07
7 3 -5 1.89 0.13
7 3 -2 0.98 0.09
-7 -3 2 0.97 0.07
-7 -3 5 2.3 0.12
7 -3 -5 0.75 0.08
7 -3 -2 0.78 0.1
-7 3 1 23.36 0.36
-7 3 6 15.05 0.29
-7 3 6 9.6 0.24
-7 3 6 17.12 0.16
7 3 -6 14.45 0.29
7 3 -1 25.95 0.34
-7 -3 1 25.06 0.2
7 -3 -1 23.67 0.37
-7 3 0 32.33 0.43
-7 3 0 35.87 0.46
-7 3 7 3.04 0.15
-7 3 7 2.91 0.15
7 3 -7 3.06 0.16
7 3 0 35.37 0.43
-7 -3 7 3.32 0.15
7 -3 0 31.89 0.43
-7 3 -1 0.21 0.08
-7 3 8 32.87 0.44
-7 3 8 34.86 0.48
7 3 -8 37.17 0.47
7 3 1 0.14 0.07
-7 -3 8 37.07 0.49
7 -3 1 0.09 0.08
-7 3 -2 20.49 0.39
-7 3 9 40.08 0.51
-7 3 9 42.06 0.55
7 3 -9 46.32 0.55
7 3 2 21.14 0.39
-7 -3 9 44.91 0.57
7 -3 2 21.45 0.39
-7 3 -3 21.39 0.42
-7 3 10 0.07 0.07
-7 3 10 0.12 0.08
7 3 -10 -0.03 0.09
7 3 3 21.38 0.42
-7 -3 10 0.02 0.07
-7 -3 10 0.07 0.04
7 -3 3 21.65 0.4
-7 3 11 9.15 0.27
-7 3 11 9.37 0.3
7 3 -11 10.6 0.31
7 3 4 4.63 0.22
-7 -3 11 4.42 0.21
7 -3 4 4.73 0.22
7 -3 4 3.33 0.19
-7 3 -5 0.08 0.07
-7 3 12 14.41 0.35
-7 3 12 15.98 0.4
7 3 -12 17.15 0.39
7 3 5 0.1 0.09
-7 -3 12 14.76 0.39
-7 -3 12 16.16 0.25
7 -3 5 0.13 0.1
7 -3 5 0.07 0.08
-7 3 -6 1.38 0.17
-7 3 13 2.85 0.2
-7 3 13 3.48 0.23
7 3 -13 3.8 0.24
7 3 6 0 0.02
-7 -3 13 3.51 0.24
-7 -3 13 3.51 0.15
7 -3 6 1.81 0.19
7 -3 6 1.4 0.16
-7 3 -7 0.66 0.15
-7 3 14 2.69 0.2
-7 3 14 3.37 0.25
7 3 -14 3.72 0.25
7 3 7 0.44 0.11
-7 -3 14 3.09 0.23
7 -3 7 0.75 0.14
7 -3 7 0.56 0.13
-7 3 -8 0.13 0.13
-7 3 15 6.9 0.29
-7 3 15 8.48 0.35
7 3 -15 9.12 0.35
7 3 8 -0.06 0.1
-7 -3 15 7.85 0.34
7 -3 8 0.04 0.11
7 -3 8 0.02 0.1
-7 3 -9 9.66 0.4
-7 3 16 3.14 0.24
-7 3 16 3.53 0.27
7 3 -16 3.85 0.27
7 3 9 9.08 0.39
-7 -3 16 3.16 0.25
7 -3 9 10.59 0.37
7 -3 9 8.11 0.34
-7 3 -10 0.08 0.15
-7 3 17 3 0.23
-7 3 17 3.19 0.27
7 3 -17 3.07 0.27
7 3 10 -0.12 0.13
-7 -3 17 3.09 0.26
7 -3 10 0.01 0.13
7 -3 10 0.1 0.12
-7 3 -11 0.95 0.22
-7 3 18 3.88 0.27
-7 3 18 4.43 0.31
7 3 -18 4.97 0.31
7 3 11 0.93 0.2
-7 -3 18 4.22 0.31
7 -3 11 1.08 0.19
7 -3 11 0.94 0.18
-7 3 -12 0.06 0.16
-7 3 19 2.93 0.25
-7 3 19 3.21 0.29
7 3 -19 3.13 0.28
7 3 12 0.25 0.16
-7 -3 19 3.05 0.29
7 -3 12 0.06 0.14
7 -3 12 0.08 0.14
-7 3 -13 3.58 0.34
-7 3 20 1.93 0.26
7 3 13 3.85 0.32
-7 -3 20 1.91 0.25
7 -3 13 4.2 0.31
7 -3 13 3.68 0.3
-7 3 -14 0.96 0.25
-7 3 21 6.65 0.41
7 3 14 1.01 0.23
-7 -3 21 5.6 0.38
7 -3 14 0.47 0.19
-7 3 -15 1.68 0.29
-7 3 22 2.05 0.28
7 3 15 1.84 0.29
-7 -3 22 1.95 0.27
7 -3 15 1.68 0.27
-7 3 -16 0.97 0.26
-7 3 23 0.98 0.24
7 3 16 0.88 0.25
-7 -3 23 0.88 0.22
-9 3 4 87.01 0.59
-9 3 5 17.39 0.32
-9 3 5 47.11 0.39
9 3 -5 44.17 0.34
9 3 -5 37.9 0.48
9 3 -4 81.4 0.52
9 3 -4 67.92 0.64
-9 -3 4 79.75 0.53
-9 -3 5 45.07 0.43
9 -3 -5 0.02 0.01
9 -3 -4 69.56 0.64
-9 3 3 8.74 0.24
-9 3 3 6.46 0.18
-9 3 6 22.59 0.38
-9 3 6 26.92 0.26
9 3 -6 25.35 0.22
9 3 -6 21.82 0.37
9 3 -3 10.65 0.22
-9 -3 3 10.37 0.18
9 -3 -6 20.86 0.36
9 -3 -3 9.29 0.25
-9 3 2 0.3 0.09
-9 3 2 0.45 0.08
-9 3 7 46.76 0.54
-9 3 7 46.14 0.54
-9 3 7 50.54 0.29
9 3 -7 49.64 0.24
9 3 -7 44.22 0.52
9 3 -2 0.37 0.07
-9 -3 2 0.41 0.05
-9 -3 7 49.53 0.52
9 -3 -2 0.3 0.08
-9 3 1 76.01 0.71
-9 3 1 84.79 0.72
-9 3 8 15.77 0.33
-9 3 8 15.82 0.33
9 3 -8 16.65 0.34
9 3 -1 83.45 0.69
-9 -3 1 74.16 0.31
-9 -3 8 17.55 0.34
9 -3 -1 75.46 0.69
-9 3 0 0.05 0.07
-9 3 9 10.28 0.28
-9 3 9 10.14 0.28
9 3 -9 11.03 0.28
9 3 0 0.14 0.07
-9 -3 9 11.27 0.29
9 -3 0 0.05 0.07
-9 3 -1 38.37 0.55
-9 3 10 16.95 0.36
-9 3 10 17.46 0.37
9 3 -10 19.41 0.37
9 3 1 37.85 0.53
-9 -3 10 18.18 0.38
9 -3 1 36.4 0.51
-9 3 -2 0.08 0.09
-9 3 11 59.4 0.68
-9 3 11 60.4 0.7
9 3 -11 70.58 0.71
9 3 2 0.25 0.1
-9 -3 11 65.25 0.75
-9 -3 11 59.12 0.31
9 -3 2 0.02 0.08
-9 3 -3 9.95 0.33
-9 3 12 12.4 0.34
-9 3 12 13.39 0.35
9 3 -12 14.77 0.36
9 3 3 10.67 0.34
-9 -3 12 4.27 0.22
-9 -3 12 12.8 0.19
9 -3 3 10.64 0.32
9 -3 3 8.21 0.29
-9 3 -4 0.01 0.02
-9 3 13 4.87 0.24
-9 3 13 5.01 0.25
9 3 -13 5.92 0.26
9 3 4 -0.04 0.1
-9 -3 13 0.01 0.02
9 -3 4 -0.04 0.09
9 -3 4 0.05 0.08
-9 3 -5 0.01 0.03
-9 3 14 3.24 0.22
-9 3 14 3.69 0.24
9 3 -14 4.4 0.26
9 3 5 1.57 0.17
-9 -3 14 2.99 0.21
9 -3 5 2.37 0.21
9 -3 5 1.73 0.17
-9 3 -6 2.12 0.22
-9 3 15 1.7 0.19
-9 3 15 1.7 0.19
9 3 -15 2.08 0.24
9 3 6 1.89 0.2
-9 -3 15 1.92 0.21
9 -3 6 2.63 0.24
9 -3 6 1.89 0.2
-9 3 -7 5.01 0.31
-9 3 16 0.42 0.13
-9 3 16 0.41 0.13
9 3 -16 0.55 0.15
9 3 7 4.76 0.29
-9 -3 16 0.6 0.15
9 -3 7 5.47 0.29
9 -3 7 4.18 0.26
-9 3 -8 2.34 0.25
-9 3 17 2.18 0.21
-9 3 17 2.65 0.24
9 3 -17 2.8 0.25
9 3 8 1.88 0.23
-9 -3 17 2.28 0.25
9 -3 8 1.79 0.22
9 -3 8 1.51 0.2
-9 3 -9 2.02 0.26
-9 3 18 0.37 0.13
-9 3 18 0.59 0.16
9 3 -18 0.38 0.16
9 3 9 1.9 0.24
-9 -3 18 0.46 0.15
9 -3 9 2.31 0.24
9 -3 9 1.84 0.23
-9 3 -10 1.63 0.25
-9 3 19 1.3 0.19
-9 3 19 1.36 0.21
9 3 -19 1.25 0.2
9 3 10 1.56 0.23
-9 -3 19 1.15 0.2
9 -3 10 1.63 0.21
9 -3 10 1.7 0.22
-9 3 -11 0.24 0.19
-9 3 20 1.6 0.21
-9 3 20 1.84 0.24
9 3 11 -0.01 0.16
-9 -3 20 1.59 0.24
9 -3 11 0.16 0.15
9 -3 11 -0.08 0.14
-9 3 -12 1.37 0.26
-9 3 21 4.05 0.3
-9 3 21 5.04 0.36
9 3 12 1.39 0.25
-9 -3 21 4.27 0.34
9 -3 12 1.24 0.22
-9 3 -13 0.25 0.21
-9 3 22 0.63 0.19
9 3 13 0.36 0.19
-9 -3 22 0.73 0.21
9 -3 13 0.33 0.18
-9 3 -14 -0.25 0.19
-9 3 23 2.46 0.3
9 3 14 -0.13 0.18
-9 -3 23 1.99 0.28
9 -3 14 -0.11 0.17
-9 3 -15 -0.15 0.2
-9 3 24 0.07 0.16
9 3 15 0.02 0.18
-9 -3 24 0.16 0.18
9 -3 15 -0.24 0.15
-11 3 5 5.05 0.22
-11 3 5 5.92 0.18
-11 3 6 7.89 0.25
-11 3 6 9.11 0.2
11 3 -6 8.58 0.18
11 3 -6 7.58 0.25
11 3 -5 5.56 0.17
11 3 -5 4.95 0.22
-11 -3 5 5.58 0.17
11 -3 -6 7.72 0.25
11 -3 -5 5.1 0.22
-11 3 4 92.55 0.7
-11 3 7 21.41 0.4
-11 3 7 23.44 0.27
11 3 -7 21.74 0.25
11 3 -7 20.01 0.38
11 3 -4 158.1 0.86
-11 -3 4 152.93 0.73
-11 -3 7 22.37 0.36
11 -3 -4 148.02 1
-11 3 3 2.45 0.16
-11 3 3 4.48 0.19
-11 3 8 4.53 0.19
-11 3 8 5.47 0.22
-11 3 8 5.86 0.13
11 3 -8 5.44 0.12
11 3 -8 5.43 0.22
11 3 -3 4.19 0.18
-11 -3 3 4.06 0.12
-11 -3 8 6 0.21
11 -3 -3 3.76 0.19
-11 3 2 14.63 0.35
-11 3 2 15.45 0.34
-11 3 9 0.18 0.08
-11 3 9 0.16 0.08
11 3 -9 0.19 0.03
11 3 -9 0.23 0.09
11 3 -2 14.72 0.32
-11 -3 2 13.98 0.18
-11 -3 9 0.16 0.07
11 -3 -2 14.2 0.33
-11 3 1 5.94 0.23
-11 3 10 14.73 0.35
-11 3 10 13.91 0.34
11 3 -10 15.68 0.35
11 3 -1 5.07 0.09
11 3 -1 5.99 0.23
-11 -3 10 14.56 0.34
11 -3 -1 5.13 0.22
-11 3 0 8.88 0.29
-11 3 11 9.63 0.3
-11 3 11 9.88 0.3
11 3 -11 10.72 0.3
11 3 0 8.14 0.27
-11 -3 11 10.18 0.31
-11 -3 11 9.47 0.12
11 -3 0 8.76 0.29
-11 3 -1 12.78 0.36
-11 3 12 7.99 0.29
-11 3 12 7.93 0.28
11 3 -12 9.3 0.3
11 3 1 12.71 0.36
-11 -3 12 8.17 0.29
-11 -3 12 7.63 0.13
11 -3 1 13.26 0.35
-11 3 -2 1.64 0.19
-11 3 13 2.98 0.21
-11 3 13 3 0.21
11 3 -13 3.49 0.22
11 3 2 1.78 0.19
-11 -3 13 1.61 0.16
11 -3 2 1.89 0.2
-11 3 -3 2.63 0.2
-11 3 14 2.77 0.2
-11 3 14 2.88 0.2
11 3 -14 3.23 0.23
11 3 3 5.13 0.27
-11 -3 14 0.03 0.02
11 -3 3 5.75 0.27
11 -3 3 4.18 0.25
-11 3 -4 4.73 0.27
-11 3 15 8.72 0.33
-11 3 15 9.28 0.33
11 3 -15 11.13 0.35
11 3 4 6.29 0.31
-11 -3 15 8.84 0.34
11 -3 4 7.26 0.32
11 -3 4 5.11 0.26
-11 3 -5 3.56 0.27
-11 3 16 1.09 0.17
-11 3 16 1.27 0.18
11 3 -16 1.45 0.2
11 3 5 3.88 0.26
-11 -3 16 1.36 0.19
11 -3 5 3.78 0.27
11 -3 5 2.92 0.22
-11 3 -6 3.21 0.29
-11 3 17 0.04 0.11
-11 3 17 0.01 0.11
11 3 -17 -0.21 0.13
11 3 6 2.6 0.26
-11 -3 17 -0.02 0.11
11 -3 6 3.22 0.26
11 -3 6 2.75 0.24
-11 3 -7 1.84 0.24
-11 3 18 0.04 0.11
-11 3 18 0.07 0.12
11 3 -18 -0.15 0.13
11 3 7 1.39 0.21
-11 -3 18 -0.01 0.12
11 -3 7 1.93 0.23
11 -3 7 1.48 0.2
-11 3 -8 -0.07 0.16
-11 3 19 1.33 0.2
-11 3 19 1.71 0.22
11 3 -19 1.8 0.22
11 3 8 -0.1 0.14
-11 -3 19 1.69 0.22
11 -3 8 -0.09 0.14
11 -3 8 0.17 0.14
-11 3 -9 0.41 0.19
-11 3 20 0.08 0.13
-11 3 20 0.12 0.13
11 3 9 0.6 0.18
-11 -3 20 0.1 0.15
11 -3 9 0.35 0.16
11 -3 9 0.42 0.17
-11 3 -10 0.16 0.18
-11 3 21 0.37 0.16
-11 3 21 0.21 0.15
11 3 10 0.35 0.19
-11 -3 21 0.48 0.17
11 -3 10 0.02 0.15
-11 3 -11 1.63 0.28
-11 3 22 0.59 0.17
-11 3 22 0.76 0.19
11 3 11 1.5 0.25
-11 -3 22 0.45 0.19
11 -3 11 1.4 0.24
-11 3 -12 0.06 0.19
-11 3 23 0.26 0.17
-11 3 23 0.46 0.18
11 3 12 0.05 0.19
-11 -3 23 0.27 0.18
11 -3 12 -0.02 0.16
-11 3 -13 0.36 0.23
-11 3 24 -0.08 0.15
11 3 13 0.28 0.19
-11 -3 24 0.1 0.17
11 -3 13 0.22 0.2
11 3 14 0.19 0.2
-11 -3 25 0.31 0.2
11 -3 14 -0.07 0.18
-13 3 6 1.75 0.16
-13 3 7 16.82 0.38
-13 3 7 18.46 0.3
13 3 -7 17.06 0.27
13 3 -7 15.66 0.36
13 3 -6 1.98 0.13
13 3 -6 1.68 0.17
-13 -3 7 17.39 0.32
13 -3 -7 16.49 0.37
13 -3 -6 1.77 0.16
-13 3 5 13.66 0.35
-13 3 5 15.29 0.32
-13 3 8 0.15 0.08
-13 3 8 0.03 0.05
13 3 -8 0.05 0.05
13 3 -8 0.02 0.08
13 3 -5 14 0.29
-13 -3 5 13.91 0.26
-13 -3 8 0.02 0.06
13 -3 -5 12.88 0.33
-13 3 4 12.39 0.31
-13 3 9 55.58 0.67
13 3 -9 54.68 0.4
13 3 -9 55.83 0.64
13 3 -4 11.93 0.29
-13 -3 4 10.99 0.21
-13 -3 9 59 0.64
13 -3 -4 11.07 0.31
-13 3 3 44.78 0.59
-13 3 10 9.65 0.3
-13 3 10 9 0.29
13 3 -10 10.2 0.3
13 3 -3 41.87 0.54
-13 -3 3 39.42 0.35
-13 -3 10 10.05 0.3
13 -3 -3 40.89 0.57
-13 3 2 5.91 0.25
-13 3 11 0.03 0.08
-13 3 11 -0.05 0.07
13 3 -11 0.03 0.09
13 3 -2 5.24 0.12
13 3 -2 6.01 0.24
-13 -3 11 1.96 0.16
13 -3 -2 5.65 0.25
-13 3 1 1.8 0.18
-13 3 12 16.43 0.4
-13 3 12 16.45 0.4
13 3 -12 19.26 0.4
13 3 -1 1.78 0.17
-13 -3 12 17.1 0.41
13 -3 -1 1.71 0.18
-13 3 0 8.71 0.33
-13 3 13 20.82 0.47
-13 3 13 20.28 0.45
13 3 -13 23.98 0.45
13 3 0 8.57 0.31
-13 -3 13 21.35 0.48
13 -3 0 8.42 0.3
-13 3 -1 24.82 0.53
-13 3 14 0.85 0.15
-13 3 14 0.6 0.13
13 3 -14 1.04 0.16
13 3 1 24.95 0.53
-13 -3 14 0.72 0.14
13 -3 1 26.54 0.5
-13 3 -2 1.13 0.18
-13 3 15 21.66 0.5
-13 3 15 22.02 0.49
13 3 -15 27.28 0.51
13 3 2 1.06 0.17
-13 -3 15 21.17 0.51
13 -3 2 0.88 0.15
13 -3 2 0.93 0.15
-13 3 -3 10.11 0.39
-13 3 16 5.74 0.3
-13 3 16 5.75 0.28
13 3 -16 7.43 0.31
13 3 3 10.03 0.38
-13 -3 16 6.28 0.32
13 -3 3 10.92 0.37
13 -3 3 8.21 0.35
-13 3 -4 6.28 0.34
-13 3 17 13.78 0.44
-13 3 17 14.81 0.44
13 3 -17 17.92 0.45
13 3 4 6.47 0.33
-13 -3 17 14.76 0.47
13 -3 4 7.25 0.32
13 -3 4 5.69 0.3
-13 3 -5 7.84 0.38
-13 3 18 0.65 0.15
-13 3 18 0.6 0.15
13 3 -18 0.52 0.17
13 3 5 7.94 0.38
-13 -3 18 0.58 0.17
13 -3 5 9.29 0.36
13 -3 5 6.72 0.34
-13 3 -6 11.59 0.47
-13 3 19 0.94 0.17
-13 3 19 0.92 0.18
13 3 -19 0.94 0.19
13 3 6 11.82 0.47
-13 -3 19 0.6 0.17
13 -3 6 13.95 0.44
13 -3 6 9.99 0.42
-13 3 -7 1.48 0.24
-13 3 20 -0.05 0.12
-13 3 20 -0.1 0.11
13 3 7 1.5 0.23
-13 -3 20 0.01 0.13
13 -3 7 1.46 0.21
13 -3 7 1.22 0.21
-13 3 -8 1.82 0.27
-13 3 21 0.4 0.16
-13 3 21 0.31 0.15
13 3 8 2.38 0.29
-13 -3 21 0.26 0.15
13 -3 8 2.02 0.26
-13 3 -9 0.18 0.19
-13 3 22 0.01 0.13
-13 3 22 0.16 0.14
13 3 9 0.12 0.17
-13 -3 22 -0.04 0.14
13 -3 9 0.01 0.14
-13 3 -10 0.59 0.23
-13 3 23 0.22 0.16
-13 3 23 0.09 0.16
13 3 10 0.57 0.21
-13 -3 23 0.25 0.18
13 -3 10 0.5 0.19
-13 3 -11 1.05 0.26
-13 3 24 0.29 0.17
-13 3 24 0.08 0.17
13 3 11 1.08 0.25
-13 -3 24 0.04 0.16
13 -3 11 1.09 0.24
-13 3 -12 -0.03 0.19
13 3 12 0.1 0.19
-13 -3 25 0.01 0.18
13 -3 12 -0.1 0.18
-15 3 7 1.96 0.18
-15 3 7 2.28 0.16
-15 3 8 -0.05 0.07
-15 3 8 -0.02 0.03
15 3 -8 0.02 0.06
15 3 -8 0.02 0.09
15 3 -7 2.13 0.14
15 3 -7 1.87 0.19
-15 -3 7 1.98 0.14
-15 -3 8 0 0.06
15 -3 -8 0.39 0.1
15 -3 -7 2.11 0.19
-15 3 6 2.24 0.18
-15 3 6 2.09 0.16
-15 3 9 1.07 0.14
-15 3 9 1.36 0.11
15 3 -9 1.32 0.11
15 3 -9 1.1 0.14
15 3 -6 1.93 0.15
-15 -3 9 1.29 0.15
15 -3 -6 1.74 0.18
-15 3 5 0.78 0.14
-15 3 5 0.65 0.12
-15 3 10 1.74 0.18
-15 3 10 1.8 0.16
15 3 -10 1.75 0.11
15 3 -10 1.56 0.18
15 3 -5 0.66 0.11
-15 -3 5 0.62 0.08
-15 -3 10 1.67 0.15
15 -3 -5 0.75 0.13
-15 3 4 0.28 0.11
-15 3 11 -0.01 0.01
-15 3 11 -0.02 0.08
15 3 -11 0 0.09
15 3 -4 0.24 0.09
-15 -3 4 0.13 0.06
-15 -3 11 -0.03 0.07
15 -3 -4 0.23 0.1
-15 3 3 24.87 0.49
-15 3 12 0.01 0.03
-15 3 12 0.8 0.14
15 3 -12 1.06 0.14
15 3 -3 21.19 0.27
15 3 -3 24.56 0.47
-15 -3 12 0.93 0.14
15 -3 -3 22.6 0.45
-15 3 2 0.19 0.11
-15 3 13 16.15 0.43
-15 3 13 17.61 0.43
15 3 -13 19.17 0.42
15 3 -2 0.16 0.1
-15 -3 13 17.5 0.43
15 -3 -2 0.35 0.12
-15 3 1 0.03 0.13
-15 3 14 0.01 0.09
-15 3 14 -0.08 0.09
15 3 -14 0 0.11
15 3 -1 0.02 0.11
-15 -3 14 0.01 0.09
15 -3 -1 0.01 0.1
-15 3 0 6.21 0.32
-15 3 15 0.59 0.14
-15 3 15 0.71 0.15
15 3 -15 0.82 0.15
15 3 0 6.11 0.31
-15 -3 15 0.57 0.14
15 -3 0 6.55 0.31
-15 3 -1 27.9 0.62
-15 3 16 0.18 0.12
-15 3 16 0.28 0.13
15 3 -16 0.34 0.15
15 3 1 27.79 0.6
-15 -3 16 0.26 0.13
15 -3 1 30.77 0.58
15 -3 1 23.57 0.56
-15 3 -2 5.73 0.33
-15 3 17 11.26 0.41
-15 3 17 10.87 0.38
15 3 -17 14.06 0.41
15 3 2 5.78 0.33
-15 -3 17 10.76 0.4
15 -3 2 6.39 0.31
15 -3 2 4.89 0.3
-15 3 -3 3.05 0.28
-15 3 18 1.24 0.2
-15 3 18 1.29 0.19
15 3 -18 1.93 0.23
15 3 3 2.88 0.27
-15 -3 18 1.27 0.2
15 -3 3 3.51 0.27
15 -3 3 2.38 0.25
-15 3 -4 -0.03 0.16
-15 3 19 5.47 0.33
-15 3 19 5.66 0.31
15 3 -19 7.33 0.34
15 3 4 0.11 0.15
-15 -3 19 5.46 0.32
15 -3 4 0.12 0.14
15 -3 4 0.14 0.14
-15 3 -5 3.31 0.31
-15 3 20 8.29 0.39
-15 3 20 8.42 0.38
15 3 5 3.41 0.31
-15 -3 20 7.81 0.39
15 -3 5 4.39 0.31
15 -3 5 2.98 0.29
-15 3 -6 6.4 0.4
-15 3 21 1.84 0.24
-15 3 21 2.13 0.24
15 3 6 6.6 0.38
-15 -3 21 1.84 0.25
15 -3 6 5.66 0.36
-15 3 -7 6.8 0.41
-15 3 22 0.61 0.18
-15 3 22 0.7 0.18
15 3 7 6.8 0.41
-15 -3 22 0.76 0.2
15 -3 7 5.78 0.38
-15 3 -8 0.57 0.22
-15 3 23 5.01 0.35
-15 3 23 5.62 0.35
15 3 8 0.35 0.2
-15 -3 23 4.99 0.36
15 -3 8 0.27 0.18
-15 3 -9 -0.06 0.19
-15 3 24 0.53 0.19
-15 3 24 0.55 0.18
15 3 9 0.04 0.18
-15 -3 24 0.63 0.2
15 -3 9 0.11 0.18
-15 3 -10 0.52 0.23
-15 3 25 0.02 0.16
15 3 10 0.19 0.19
-15 -3 25 0.15 0.18
15 -3 10 -0.08 0.18
-15 3 26 0.09 0.17
15 3 11 0.55 0.24
-15 -3 26 0.26 0.2
15 -3 11 0.32 0.22
-17 3 8 10.35 0.35
-17 3 8 11.43 0.3
-17 3 9 4.9 0.26
-17 3 9 5.53 0.21
17 3 -9 4.66 0.19
17 3 -9 4.54 0.25
17 3 -8 10.07 0.28
17 3 -8 9.08 0.33
-17 -3 8 9.95 0.27
-17 -3 9 4.97 0.22
17 -3 -9 4.26 0.24
17 -3 -8 9.71 0.34
-17 3 7 18.19 0.45
-17 3 7 18.76 0.39
-17 3 10 10.8 0.35
17 3 -10 10.33 0.25
17 3 -10 10.69 0.34
17 3 -7 18.08 0.38
-17 -3 7 17.47 0.34
-17 -3 10 11 0.31
17 -3 -7 17.29 0.43
-17 3 6 2.93 0.23
-17 3 6 2.7 0.19
-17 3 11 10.67 0.35
-17 3 11 10.14 0.34
17 3 -11 9.32 0.23
17 3 -11 9.97 0.33
17 3 -6 2.63 0.19
-17 -3 6 2.02 0.14
-17 -3 11 10.1 0.31
17 -3 -6 2.39 0.21
-17 3 5 0.8 0.14
-17 3 12 2.67 0.21
17 3 -12 2.64 0.22
17 3 -5 1.11 0.14
-17 -3 5 0.32 0.07
-17 -3 12 2.67 0.19
17 -3 -5 0.93 0.15
-17 3 4 1.8 0.2
-17 3 13 13.15 0.39
17 3 -13 14.35 0.38
17 3 -4 1.8 0.19
-17 -3 13 13.56 0.39
17 -3 -4 1.46 0.17
-17 3 3 28.39 0.57
-17 3 14 1.05 0.16
-17 3 14 1.19 0.17
17 3 -14 1.44 0.18
17 3 -3 28.07 0.55
-17 -3 14 1.22 0.17
17 -3 -3 26.72 0.53
-17 3 2 6.33 0.33
-17 3 15 1.59 0.19
-17 3 15 1.78 0.2
17 3 -15 1.76 0.21
17 3 -2 6.09 0.31
-17 -3 15 1.72 0.19
17 -3 -2 6.26 0.3
-17 3 1 2.9 0.26
-17 3 16 -0.03 0.11
-17 3 16 -0.06 0.1
17 3 -16 0.09 0.13
17 3 -1 2.78 0.23
-17 -3 16 -0.01 0.11
17 -3 -1 3.02 0.25
-17 3 0 14.17 0.47
-17 3 17 4.33 0.29
-17 3 17 4.43 0.27
17 3 -17 5.89 0.3
17 3 0 14.27 0.46
-17 -3 17 4.22 0.28
17 -3 0 14.16 0.42
17 -3 0 11.52 0.42
-17 3 -1 1.18 0.21
-17 3 18 1.25 0.2
-17 3 18 1.33 0.19
17 3 -18 1.67 0.21
17 3 1 1.3 0.21
-17 -3 18 1.16 0.2
17 -3 1 1.33 0.19
17 -3 1 0.69 0.16
-17 3 -2 0.15 0.16
-17 3 19 1.9 0.23
-17 3 19 2.17 0.23
17 3 2 0.23 0.15
-17 -3 19 1.7 0.23
17 -3 2 0.21 0.15
17 -3 2 0.29 0.15
-17 3 -3 0.01 0.16
-17 3 20 6.5 0.36
-17 3 20 6.32 0.34
17 3 3 -0.08 0.13
-17 -3 20 6.67 0.37
17 -3 3 -0.18 0.14
17 -3 3 -0.02 0.12
-17 3 -4 1.6 0.27
-17 3 21 -0.01 0.15
-17 3 21 0.16 0.14
17 3 4 1.47 0.24
-17 -3 21 0.1 0.14
17 -3 4 1.29 0.22
-17 3 -5 0.32 0.19
-17 3 22 0.08 0.15
-17 3 22 0.1 0.13
17 3 5 0.41 0.2
-17 -3 22 -0.03 0.13
17 -3 5 0.42 0.17
-17 3 -6 0.28 0.2
-17 3 23 3.77 0.32
-17 3 23 4.15 0.31
17 3 6 0.29 0.19
-17 -3 23 4.11 0.34
17 -3 6 0.28 0.18
-17 3 -7 0.58 0.23
-17 3 24 0.43 0.19
17 3 7 0.77 0.23
-17 -3 24 0.45 0.19
17 -3 7 0.7 0.22
-17 3 -8 0.12 0.22
-17 3 25 0.16 0.18
17 3 8 0.76 0.23
-17 -3 25 0.09 0.18
17 -3 8 0.33 0.2
-17 3 -9 0.39 0.23
-17 3 26 -0.07 0.17
17 3 9 0.21 0.2
-17 -3 26 -0.17 0.17
17 -3 9 0.26 0.19
-19 3 9 1.07 0.18
-19 3 9 1.55 0.18
-19 3 10 20.45 0.5
19 3 -10 19.43 0.38
19 3 -10 18.63 0.46
19 3 -9 1.06 0.13
19 3 -9 0.98 0.17
-19 -3 9 1.18 0.14
-19 -3 10 20.4 0.42
19 -3 -10 18.85 0.48
19 -3 -9 0.98 0.17
-19 3 8 9.24 0.35
-19 3 8 10.13 0.33
-19 3 11 15.88 0.44
19 3 -11 15.55 0.33
19 3 -11 16.78 0.45
19 3 -8 9.7 0.31
-19 -3 8 9.39 0.28
-19 -3 11 16.46 0.4
19 -3 -8 8.04 0.32
-19 3 7 43.36 0.64
-19 3 12 10.56 0.38
-19 3 12 9.57 0.35
19 3 -12 9.61 0.25
19 3 -12 9.67 0.34
19 3 -7 38.55 0.59
-19 -3 7 39.15 0.5
-19 -3 12 10.21 0.33
19 -3 -7 36.8 0.63
-19 3 6 8.69 0.34
-19 3 13 6.92 0.33
-19 3 13 6.93 0.31
19 3 -13 7.05 0.31
19 3 -6 8.08 0.31
-19 -3 13 6.77 0.3
19 -3 -6 7.68 0.34
-19 3 5 0.21 0.13
-19 3 14 1.08 0.18
-19 3 14 0.9 0.16
19 3 -14 0.89 0.16
19 3 -5 0.27 0.12
-19 -3 14 1.18 0.17
19 -3 -5 0.28 0.13
-19 3 4 8.3 0.35
-19 3 15 2.81 0.23
-19 3 15 2.41 0.22
19 3 -15 2.47 0.24
19 3 -4 8.6 0.35
-19 -3 15 2.47 0.23
19 -3 -4 8.29 0.34
-19 3 3 3.46 0.27
-19 3 16 0.14 0.12
-19 3 16 0.28 0.13
19 3 -16 0.33 0.14
19 3 -3 3.41 0.24
-19 -3 16 0.28 0.13
19 -3 -3 3.75 0.27
-19 3 2 2.53 0.25
-19 3 17 4.51 0.3
-19 3 17 4.54 0.28
19 3 -17 5.87 0.3
19 3 -2 2.34 0.24
-19 -3 17 4.7 0.3
19 -3 -2 2.47 0.24
-19 3 1 9 0.41
-19 3 18 0.36 0.15
-19 3 18 0.34 0.14
19 3 -18 0.33 0.15
19 3 -1 9.1 0.39
-19 -3 18 0.31 0.14
19 -3 -1 9.69 0.38
19 -3 -1 7.31 0.36
-19 3 0 6.69 0.37
-19 3 19 0.23 0.15
-19 3 19 0.11 0.13
19 3 0 6.38 0.36
-19 -3 19 0.23 0.14
19 -3 0 7.15 0.34
19 -3 0 5.76 0.35
-19 3 -1 1.36 0.24
-19 3 20 4.51 0.32
-19 3 20 4.14 0.3
19 3 1 1.31 0.22
-19 -3 20 4.36 0.31
19 -3 1 1.54 0.21
19 -3 1 1.14 0.21
-19 3 -2 1.32 0.24
-19 3 21 0.04 0.14
-19 3 21 -0.01 0.12
19 3 2 0.97 0.22
-19 -3 21 0.13 0.14
19 -3 2 0.98 0.2
-19 3 -3 5.58 0.38
-19 3 22 1.24 0.23
-19 3 22 1 0.19
19 3 3 5.96 0.39
-19 -3 22 0.96 0.21
19 -3 3 4.95 0.35
-19 3 -4 1.59 0.28
-19 3 23 0.4 0.18
-19 3 23 0.35 0.16
19 3 4 1.75 0.27
-19 -3 23 0.26 0.17
19 -3 4 1.52 0.26
-19 3 -5 1.81 0.3
-19 3 24 -0.06 0.16
19 3 5 1.75 0.28
-19 -3 24 0.16 0.17
19 -3 5 1.91 0.29
-19 3 -6 1.17 0.27
-19 3 25 0 0.16
19 3 6 0.98 0.24
-19 -3 25 0.06 0.18
19 -3 6 0.99 0.25
-19 3 -7 0.99 0.27
-19 3 26 0.79 0.22
19 3 7 0.84 0.25
-19 -3 26 0.65 0.22
19 -3 7 0.55 0.23
-21 3 10 11.65 0.4
-21 3 11 8.95 0.37
21 3 -11 8.71 0.29
21 3 -11 8.23 0.35
21 3 -10 11.39 0.34
21 3 -10 11.36 0.4
-21 -3 10 11.5 0.33
-21 -3 11 9 0.32
21 -3 -11 7.96 0.36
21 -3 -10 11.28 0.39
-21 3 9 0.7 0.16
-21 3 9 1.06 0.16
-21 3 12 5.02 0.3
21 3 -12 5.23 0.23
21 3 -12 5.14 0.29
21 3 -9 0.64 0.13
-21 -3 9 0.71 0.13
-21 -3 12 5.56 0.27
21 -3 -12 4.88 0.29
21 -3 -9 0.64 0.15
-21 3 8 5.53 0.28
-21 3 13 6.8 0.34
-21 3 13 6.34 0.32
21 3 -13 6.52 0.32
21 3 -8 4.96 0.26
-21 -3 8 5.02 0.23
-21 -3 13 6.76 0.3
21 -3 -8 4.83 0.3
-21 3 7 25.34 0.54
-21 3 14 5.5 0.3
-21 3 14 5.57 0.3
21 3 -14 5.64 0.31
21 3 -7 25.52 0.54
-21 -3 14 5.78 0.29
21 -3 -7 23.56 0.54
-21 3 6 1.02 0.18
-21 3 15 5.83 0.32
-21 3 15 5.85 0.3
21 3 -15 6.76 0.32
21 3 -6 0.95 0.16
-21 -3 15 5.95 0.3
21 -3 -6 1.09 0.17
-21 3 5 0.14 0.14
-21 3 16 0.2 0.13
-21 3 16 0.34 0.13
21 3 -16 0.34 0.15
21 3 -5 0.04 0.11
-21 -3 16 0.12 0.12
21 -3 -5 0.21 0.13
-21 3 4 -0.02 0.14
-21 3 17 5.32 0.31
-21 3 17 5.69 0.31
21 3 -17 6.68 0.31
21 3 -4 -0.06 0.12
-21 -3 17 4.97 0.3
21 -3 -4 -0.07 0.11
-21 3 3 0.01 0.14
-21 3 18 0.3 0.14
-21 3 18 0.08 0.12
21 3 -18 0.28 0.16
21 3 -3 0.11 0.13
-21 -3 18 0.3 0.14
21 -3 -3 0.24 0.14
-21 3 2 1.6 0.23
-21 3 19 0.08 0.14
-21 3 19 -0.01 0.12
21 3 -2 1.13 0.2
-21 -3 19 0.18 0.14
21 -3 -2 1.46 0.21
21 -3 -2 1.18 0.21
-21 3 1 6.79 0.39
-21 3 20 0.07 0.13
-21 3 20 0.06 0.13
21 3 -1 6.42 0.37
-21 -3 20 0.14 0.14
21 -3 -1 7.1 0.36
21 -3 -1 5.45 0.35
-21 3 0 0.74 0.2
-21 3 21 0.92 0.2
-21 3 21 0.64 0.17
21 3 0 1.01 0.21
-21 -3 21 0.78 0.19
21 -3 0 0.68 0.19
-21 3 -1 0.46 0.2
-21 3 22 0.1 0.16
-21 3 22 0.06 0.13
21 3 1 0.44 0.19
-21 -3 22 0.26 0.16
21 -3 1 0.4 0.18
-21 3 -2 0.13 0.18
-21 3 23 0.18 0.17
-21 3 23 -0.2 0.13
21 3 2 0.09 0.17
-21 -3 23 0.14 0.14
21 -3 2 0.3 0.18
-21 3 -3 3.55 0.35
-21 3 24 0.14 0.16
21 3 3 3.58 0.35
-21 -3 24 0.58 0.2
21 -3 3 3.92 0.35
-21 3 -4 -0.08 0.19
-21 3 25 0.08 0.17
21 3 4 -0.01 0.18
-21 -3 25 0.01 0.15
21 -3 4 0.12 0.18
-21 3 -5 0.11 0.23
-21 3 26 -0.02 0.16
21 3 5 0.48 0.21
-21 -3 26 0.12 0.18
21 -3 5 0.37 0.21
-21 3 27 0.04 0.18
21 3 6 0.34 0.22
21 -3 6 0.21 0.21
-23 3 11 3.45 0.26
-23 3 12 0.04 0.13
23 3 -12 0.32 0.11
23 3 -12 0.21 0.14
23 3 -11 3.76 0.23
23 3 -11 3.04 0.26
-23 -3 11 3.69 0.23
-23 -3 12 0.29 0.11
23 -3 -12 0.23 0.13
23 -3 -11 3.31 0.26
-23 3 13 2.08 0.23
23 3 -13 2.19 0.23
23 3 -10 1.49 0.18
-23 -3 10 1.51 0.18
-23 -3 13 2.55 0.22
23 -3 -13 2.19 0.23
23 -3 -10 1.42 0.2
-23 3 9 -0.06 0.11
-23 3 14 0.3 0.14
-23 3 14 0.24 0.13
23 3 -14 0.25 0.14
23 3 -9 0.1 0.11
-23 -3 14 0.24 0.12
23 -3 -9 0.16 0.13
-23 3 8 2.29 0.24
-23 3 15 3.37 0.27
-23 3 15 3.11 0.25
23 3 -15 3.7 0.28
23 3 -8 1.92 0.21
-23 -3 15 3.17 0.25
23 -3 -8 2.31 0.24
-23 3 7 1.55 0.21
-23 3 16 0.02 0.13
-23 3 16 0.03 0.12
23 3 -16 -0.04 0.13
23 3 -7 1.53 0.2
-23 -3 16 0.03 0.11
23 -3 -7 1.48 0.2
-23 3 6 -0.08 0.14
-23 3 17 4.32 0.3
-23 3 17 4.1 0.28
23 3 -17 4.51 0.29
23 3 -6 0.06 0.12
-23 -3 17 3.41 0.27
23 -3 -6 -0.06 0.13
-23 3 5 7.67 0.38
-23 3 18 2.52 0.27
-23 3 18 2.55 0.24
23 3 -18 3.03 0.27
23 3 -5 7.04 0.34
-23 -3 18 2.52 0.24
23 -3 -5 7.02 0.34
-23 3 4 2.47 0.29
-23 3 19 0 0.14
-23 3 19 -0.16 0.11
23 3 -4 2.8 0.27
-23 -3 19 -0.12 0.11
23 -3 -4 2.51 0.26
-23 3 3 0.53 0.19
-23 3 20 0.51 0.18
-23 3 20 0.58 0.17
23 3 -3 0.48 0.17
-23 -3 20 0.46 0.17
23 -3 -3 0.33 0.16
23 -3 -3 0.24 0.16
-23 3 2 0.58 0.2
-23 3 21 4.26 0.33
-23 3 21 4.45 0.3
23 3 -2 0.61 0.18
-23 -3 21 4.7 0.34
23 -3 -2 0.26 0.17
-23 3 1 5.34 0.37
-23 3 22 2.53 0.29
-23 3 22 2.32 0.25
23 3 -1 4.92 0.34
-23 -3 22 2.73 0.29
23 -3 -1 4.48 0.35
-23 3 0 1.56 0.27
-23 3 23 -0.08 0.15
-23 3 23 0.08 0.13
23 3 0 1.7 0.27
-23 -3 23 0.07 0.15
23 -3 0 1.19 0.24
-23 3 -1 0.17 0.2
-23 3 24 -0.1 0.15
23 3 1 0.21 0.19
-23 -3 24 0.1 0.16
23 -3 1 0.35 0.19
-23 3 -2 0.14 0.2
-23 3 25 0.26 0.18
23 3 2 0.04 0.19
-23 -3 25 0.45 0.19
23 -3 2 0.07 0.17
-23 3 -3 2.37 0.34
-23 3 26 0.9 0.23
23 3 3 2.35 0.33
-23 -3 26 0.6 0.21
23 -3 3 2.37 0.32
-23 3 27 0.15 0.19
23 3 4 0.51 0.24
-23 -3 27 0.2 0.18
23 -3 4 0.27 0.21
-25 3 13 0.22 0.14
25 3 -13 0.2 0.15
25 3 -12 3 0.23
25 3 -12 2.39 0.27
-25 -3 12 2.74 0.21
-25 -3 13 0.22 0.12
25 -3 -13 0.11 0.14
25 -3 -12 2.6 0.25
-25 3 14 0.31 0.14
25 3 -14 0.17 0.15
25 3 -11 0 0.11
25 3 -11 0.07 0.14
-25 -3 14 0.29 0.13
25 -3 -14 0.28 0.15
25 -3 -11 -0.03 0.12
-25 3 15 0.18 0.13
25 3 -15 0.34 0.15
25 3 -10 0.19 0.12
-25 -3 15 0.31 0.13
25 -3 -10 0.35 0.14
-25 3 16 1.8 0.23
-25 3 16 2.15 0.24
25 3 -16 2.13 0.25
25 3 -9 1.27 0.19
-25 -3 16 2.23 0.23
25 -3 -9 1.22 0.19
-25 3 8 -0.14 0.13
-25 3 17 0.51 0.17
-25 3 17 0.42 0.15
25 3 -17 0.58 0.18
25 3 -8 -0.04 0.12
-25 -3 17 0.38 0.15
25 -3 -8 -0.03 0.12
-25 3 7 0.01 0.14
-25 3 18 0.48 0.17
-25 3 18 0.53 0.17
25 3 -18 0.42 0.17
25 3 -7 -0.04 0.12
-25 -3 18 0.65 0.16
25 -3 -7 0.03 0.13
-25 3 6 0.2 0.16
-25 3 19 0.22 0.15
-25 3 19 0.13 0.14
25 3 -6 0.46 0.16
-25 -3 19 0.28 0.15
25 -3 -6 0.33 0.15
-25 3 5 5.29 0.35
-25 3 20 1.62 0.24
-25 3 20 1.41 0.21
25 3 -5 5.41 0.34
-25 -3 20 1.36 0.21
25 -3 -5 5.75 0.35
25 -3 -5 4.32 0.33
-25 3 4 2.42 0.3
-25 3 21 2.39 0.28
-25 3 21 2.18 0.25
25 3 -4 2.31 0.27
-25 -3 21 2.19 0.27
25 -3 -4 1.82 0.26
-25 3 3 0.22 0.18
-25 3 22 0.57 0.19
-25 3 22 0.17 0.14
25 3 -3 0.18 0.16
-25 -3 22 0.3 0.15
25 -3 -3 0.22 0.16
-25 3 2 0.52 0.2
-25 3 23 0.5 0.19
25 3 -2 0.17 0.18
-25 -3 23 0.62 0.19
25 -3 -2 0.25 0.17
-25 3 1 1.27 0.27
-25 3 24 0.07 0.15
25 3 -1 1.32 0.25
-25 -3 24 -0.04 0.15
25 -3 -1 1.2 0.24
-25 3 0 1.59 0.29
-25 3 25 0.22 0.17
25 3 0 1.36 0.27
-25 -3 25 0.2 0.17
25 -3 0 1.35 0.26
-25 3 -1 0.49 0.23
-25 3 26 0.12 0.18
25 3 1 0.41 0.22
-25 -3 26 0.13 0.16
25 -3 1 0.46 0.21
-25 3 27 0.08 0.17
25 3 2 0.2 0.21
-25 -3 27 0.04 0.16
25 -3 2 -0.01 0.2
27 3 -14 0.11 0.15
27 3 -13 0.64 0.18
-27 -3 14 0.09 0.12
27 -3 -14 0.14 0.14
27 -3 -13 0.91 0.19
-27 3 15 0.36 0.16
27 3 -15 0.62 0.18
27 3 -12 -0.12 0.13
-27 -3 15 0.33 0.14
27 -3 -15 0.27 0.16
27 -3 -12 0 0.13
-27 3 16 0.05 0.13
27 3 -16 -0.09 0.14
27 3 -11 0.06 0.12
-27 -3 16 0.02 0.12
27 -3 -16 0.05 0.14
27 -3 -11 0.06 0.14
-27 3 17 0.33 0.15
27 3 -17 0.29 0.16
27 3 -10 1.24 0.2
-27 -3 17 0.14 0.13
27 -3 -10 1.16 0.21
-27 3 18 0.15 0.16
-27 3 18 0.23 0.16
27 3 -9 0.98 0.2
-27 -3 18 0.21 0.14
27 -3 -9 1.23 0.21
-27 3 19 1.72 0.25
-27 3 19 1.55 0.23
27 3 -8 0.02 0.13
-27 -3 19 1.49 0.23
27 -3 -8 -0.09 0.13
-27 3 7 0.3 0.17
-27 3 20 0.84 0.21
-27 3 20 0.69 0.19
27 3 -7 0.41 0.17
-27 -3 20 0.97 0.21
27 -3 -7 0.27 0.16
-27 3 6 0.44 0.18
-27 3 21 0.64 0.2
-27 3 21 0.64 0.18
27 3 -6 0.14 0.16
-27 -3 21 0.5 0.17
27 -3 -6 0.16 0.17
-27 3 5 3.83 0.34
-27 3 22 0.76 0.2
-27 3 22 0.65 0.18
27 3 -5 3.41 0.31
-27 -3 22 0.78 0.19
27 -3 -5 3.28 0.31
-27 3 4 3.85 0.34
-27 3 23 2.77 0.3
27 3 -4 3.3 0.31
-27 -3 23 3.04 0.31
27 -3 -4 3.37 0.33
-27 3 3 0.34 0.2
-27 3 24 1.66 0.27
27 3 -3 0.12 0.19
-27 -3 24 1.16 0.23
27 -3 -3 0.38 0.18
-27 3 2 0.22 0.19
-27 3 25 0.52 0.21
27 3 -2 0.13 0.19
-27 -3 25 0.38 0.18
27 -3 -2 0.07 0.18
-27 3 1 0.7 0.24
-27 3 26 0.11 0.19
27 3 -1 0.51 0.23
-27 -3 26 0 0.17
27 -3 -1 0.58 0.21
29 3 -15 0.09 0.17
29 3 -14 0.06 0.17
29 -3 -15 0.1 0.15
29 -3 -14 -0.03 0.13
29 3 -16 -0.01 0.17
29 3 -13 5.85 0.39
-29 -3 16 0.09 0.13
29 -3 -16 0.13 0.16
29 -3 -13 6.53 0.39
-29 3 17 0.68 0.19
29 3 -17 0.66 0.2
29 3 -12 0.38 0.19
-29 -3 17 0.65 0.18
29 -3 -17 0.71 0.2
29 -3 -12 0.65 0.19
-29 3 18 0.06 0.15
29 3 -11 0.08 0.14
-29 -3 18 -0.01 0.13
29 -3 -18 0.06 0.14
29 -3 -11 0.01 0.15
-29 3 19 3.11 0.3
-29 3 19 3.21 0.3
29 3 -10 0.84 0.2
-29 -3 19 3.05 0.29
29 -3 -10 0.89 0.22
-29 3 20 0.08 0.17
-29 3 20 -0.13 0.13
29 3 -9 4.64 0.33
-29 -3 20 0 0.14
29 -3 -9 4.22 0.35
-29 3 21 -0.01 0.15
-29 3 21 -0.02 0.14
29 3 -8 0 0.15
-29 -3 21 0.02 0.14
-29 3 22 1.64 0.27
29 3 -7 0.8 0.21
-29 -3 22 1.6 0.25
29 -3 -7 0.44 0.2
-29 3 23 0.99 0.24
29 3 -6 0.25 0.19
-29 -3 23 0.67 0.21
29 -3 -6 0.21 0.17
-29 3 5 1.33 0.26
-29 3 24 0.08 0.18
29 3 -5 0.94 0.24
-29 -3 24 -0.04 0.14
29 -3 -5 0.94 0.24
-29 3 4 0.35 0.2
-29 3 25 1.16 0.25
29 3 -4 0.1 0.2
-29 -3 25 1.08 0.24
29 -3 -4 0.32 0.2
-29 3 26 -0.03 0.18
29 3 -3 0.07 0.21
-29 -3 26 0.2 0.18
29 -3 -3 0.17 0.19
31 3 -16 0.29 0.19
31 3 -15 1.06 0.23
31 -3 -16 0.07 0.16
31 -3 -15 1.25 0.24
31 3 -17 0.11 0.18
31 3 -14 0.27 0.19
31 -3 -17 0.33 0.18
31 -3 -14 0.22 0.17
31 3 -13 3.41 0.35
31 -3 -18 1.11 0.23
31 -3 -13 2.87 0.3
-31 3 19 3.17 0.31
31 3 -12 0.2 0.18
-31 -3 19 2.53 0.28
31 -3 -19 3.14 0.33
31 -3 -12 0.4 0.19
-31 3 20 0.57 0.2
-31 -3 20 0.28 0.16
31 -3 -11 0.4 0.19
-31 3 21 -0.13 0.15
-31 3 21 -0.09 0.14
31 3 -10 0.17 0.17
-31 -3 21 -0.15 0.14
-31 3 22 0.73 0.22
31 3 -9 1.1 0.24
-31 -3 22 0.77 0.21
31 -3 -9 0.75 0.21
-31 3 23 0.29 0.18
31 3 -8 -0.14 0.17
-31 -3 23 0.33 0.19
31 -3 -8 0.08 0.17
-31 3 24 -0.03 0.18
31 3 -7 0.1 0.18
-31 -3 24 0.07 0.16
31 -3 -7 0.35 0.2
-31 3 25 0.2 0.2
31 3 -6 -0.01 0.19
-31 -3 25 0.32 0.2
31 -3 -6 -0.06 0.17
33 3 -16 0.2 0.2
33 -3 -17 1.24 0.24
33 -3 -16 0.41 0.19
33 3 -15 0.06 0.19
33 -3 -18 0.56 0.2
33 -3 -15 0.06 0.17
33 3 -14 0.6 0.23
33 -3 -19 0.44 0.2
33 -3 -14 0.51 0.21
33 3 -13 2.26 0.31
33 -3 -20 0.31 0.18
33 -3 -13 2.24 0.3
-33 -3 21 0.75 0.2
33 -3 -21 0.59 0.21
-33 -3 22 0.11 0.16
33 -3 -11 0.03 0.17
-33 -3 23 0.21 0.17
33 -3 -10 0.14 0.18
35 -3 -18 0.26 0.19
35 -3 -17 0.8 0.24
35 -3 -19 1.18 0.25
35 -3 -16 0.46 0.22
0 4 0 63.67 0.48
0 4 0 65.76 0.54
0 -4 0 66.83 0.52
0 4 -1 34.62 0.34
0 4 1 37.14 0.39
0 4 1 34.34 0.38
0 -4 -1 35.05 0.37
0 -4 1 24.67 0.34
0 4 -2 0.09 0.04
0 4 -2 0 0.03
0 4 2 0.07 0.05
0 4 2 0.09 0.05
0 -4 -2 0.07 0.04
0 -4 2 0 0.03
0 4 -3 3.83 0.12
0 4 -3 4.1 0.17
0 4 3 4.62 0.17
0 4 3 3.58 0.14
0 -4 -3 3.67 0.13
0 -4 3 4.62 0.19
0 4 -4 3.14 0.15
0 4 4 7.3 0.23
0 4 4 6.06 0.17
0 -4 -4 6 0.16
0 -4 4 7.3 0.23
0 4 5 129.49 0.92
0 4 5 98.91 0.64
0 -4 -5 99.92 0.59
0 4 -6 30.86 0.49
0 4 6 30.65 0.49
0 -4 6 32.15 0.5
0 -4 6 24.06 0.32
0 4 -7 12.56 0.34
0 4 7 10.03 0.21
0 -4 7 13.11 0.35
0 -4 7 6.59 0.18
0 4 -8 -0.11 0.09
0 4 8 0 0.05
0 4 8 0.02 0.06
0 -4 8 0.01 0.09
0 -4 8 -0.02 0.04
0 4 -9 2.88 0.22
0 4 9 2.39 0.14
0 -4 9 3.06 0.21
0 -4 9 2.51 0.15
0 4 -10 9.05 0.34
0 4 10 7.54 0.22
0 4 10 8.27 0.32
0 -4 10 9.29 0.33
0 -4 10 7.9 0.25
0 4 -11 34.45 0.65
0 4 11 28.28 0.41
0 4 11 32.8 0.63
0 -4 11 35.77 0.65
0 -4 11 30.68 0.48
0 4 -12 4.9 0.32
0 4 12 5.34 0.31
0 -4 12 5.06 0.3
0 -4 12 4.75 0.23
0 4 -13 4.88 0.31
0 4 13 4.89 0.32
0 -4 13 5.39 0.31
0 -4 13 4.94 0.25
0 4 -14 3.16 0.29
0 4 14 3.09 0.28
0 -4 14 3.66 0.28
0 4 -15 0.44 0.18
0 4 15 0.3 0.15
0 -4 15 0.2 0.15
0 4 -16 -0.05 0.16
0 4 16 -0.13 0.14
0 4 -17 0.07 0.18
0 4 17 0.16 0.18
0 -4 17 0.19 0.16
0 4 -18 -0.05 0.18
0 4 18 -0.18 0.16
0 -4 18 -0.02 0.16
0 4 -19 -0.06 0.17
0 4 19 0 0.17
0 -4 19 0.07 0.17
0 4 -20 0.07 0.2
0 4 20 0.49 0.21
0 -4 20 0.37 0.2
-2 4 1 13 0.24
-2 4 1 14.77 0.25
2 4 -1 14.4 0.22
-2 -4 1 15.58 0.25
2 -4 -1 8.81 0.21
-2 4 0 10.96 0.22
-2 4 0 10.47 0.23
-2 4 2 8.59 0.21
-2 4 2 9.17 0.2
2 4 -2 8.43 0.16
2 4 0 12.29 0.22
2 4 0 5.78 0.17
-2 -4 0 12.34 0.21
-2 -4 2 10.01 0.22
2 -4 -2 8 0.2
-2 4 -1 0.32 0.06
-2 4 -1 0.07 0.03
-2 4 3 22.54 0.34
-2 4 3 22.14 0.28
2 4 -3 21.03 0.22
2 4 -3 7.94 0.21
2 4 1 0.28 0.06
2 4 1 0.23 0.06
-2 -4 -1 0.34 0.05
2 -4 -3 20.61 0.3
2 -4 1 0.16 0.06
-2 4 -2 3.36 0.13
-2 4 -2 3.98 0.17
-2 4 4 20.85 0.35
-2 4 4 18.99 0.26
2 4 -4 18.98 0.21
2 4 2 4.06 0.16
2 4 2 1.78 0.11
-2 -4 -2 3.56 0.12
-2 -4 4 23.9 0.37
2 -4 -4 17.77 0.28
2 -4 2 2.69 0.14
-2 4 -3 17.15 0.27
-2 4 -3 20.79 0.37
-2 4 5 5.8 0.21
-2 4 5 5.19 0.15
2 4 -5 4.29 0.18
2 4 3 20.64 0.36
-2 -4 -3 16.84 0.22
-2 -4 5 6.84 0.23
2 -4 -5 4.91 0.16
-2 4 -4 187 1.13
-2 4 6 6 0.22
-2 4 6 5.41 0.16
2 4 -6 7.18 0.24
2 4 4 209.8 1.17
-2 -4 -4 171.3 0.87
-2 -4 6 6.93 0.24
-2 -4 6 5.22 0.13
2 -4 -6 5.12 0.16
2 -4 4 211.49 1.18
-2 4 7 2.59 0.14
-2 4 7 2.31 0.12
2 4 -7 3.01 0.19
2 4 5 35.88 0.52
-2 -4 -5 27.83 0.28
-2 -4 7 2.36 0.11
2 -4 5 37.86 0.53
-2 4 -6 12.5 0.34
-2 4 8 8.52 0.22
-2 4 8 7.34 0.26
2 4 -8 10.28 0.31
2 4 6 12.5 0.34
-2 -4 8 10.47 0.31
-2 -4 8 8.73 0.19
2 -4 6 13 0.34
2 -4 6 8.84 0.23
-2 4 -7 6.33 0.27
-2 4 9 2.09 0.15
-2 4 9 2.28 0.2
2 4 -9 2.36 0.2
2 4 7 4.9 0.15
2 4 7 4.51 0.23
-2 -4 9 2.65 0.21
-2 -4 9 2.14 0.13
2 -4 7 6.46 0.28
2 -4 7 4.81 0.2
-2 4 -8 0.28 0.12
-2 4 10 5.39 0.21
-2 4 10 6.1 0.28
2 4 -10 6.41 0.29
2 4 8 0.28 0.06
2 4 8 0 0.02
-2 -4 10 6.75 0.29
2 -4 8 0.19 0.11
2 -4 8 0.2 0.08
-2 4 -9 0.71 0.15
-2 4 11 2.25 0.16
-2 4 11 2.94 0.24
2 4 -11 2.99 0.24
2 4 9 0.5 0.08
2 4 9 0 0.03
-2 -4 11 3.05 0.22
-2 -4 11 3.15 0.17
2 -4 9 1.01 0.16
2 -4 9 0.55 0.11
-2 4 -10 0.09 0.13
-2 4 12 4.99 0.22
-2 4 12 5.62 0.31
2 4 -12 6.01 0.31
2 4 10 0.17 0.12
-2 -4 12 6.11 0.32
-2 -4 12 5.39 0.22
2 -4 10 0.44 0.13
2 -4 10 0.23 0.1
-2 4 -11 7.99 0.37
-2 4 13 0.01 0.08
-2 4 13 0.12 0.13
2 4 -13 -0.04 0.14
2 4 11 7.8 0.35
-2 -4 13 0.16 0.13
-2 -4 13 0.02 0.09
2 -4 11 9.21 0.36
2 -4 11 8.03 0.3
-2 4 -12 0.11 0.14
-2 4 14 -0.08 0.11
2 4 -14 -0.17 0.15
2 4 12 0.33 0.15
-2 -4 14 0.16 0.14
2 -4 12 0.35 0.13
2 -4 12 0.34 0.11
-2 4 -13 -0.02 0.14
-2 4 15 7.14 0.37
2 4 -15 8.01 0.39
2 4 13 0.07 0.13
-2 -4 15 7.48 0.36
2 -4 13 0.05 0.13
2 -4 13 0.09 0.1
-2 4 -14 0.03 0.16
-2 4 16 1.59 0.23
2 4 -16 1.48 0.24
2 4 14 0.02 0.15
-2 -4 16 1.71 0.23
2 -4 14 -0.13 0.13
-2 4 -15 -0.18 0.16
-2 4 17 0.03 0.13
2 4 -17 0.07 0.17
2 4 15 0.04 0.16
-2 -4 17 0.08 0.15
2 -4 15 0.09 0.15
-2 4 -16 -0.01 0.18
-2 4 18 0.84 0.21
2 4 -18 0.38 0.2
2 4 16 0.05 0.17
-2 -4 18 0.64 0.19
2 -4 16 -0.05 0.15
-2 4 -17 1.18 0.26
-2 4 19 3.5 0.34
2 4 -19 3.94 0.35
2 4 17 1.21 0.24
-2 -4 19 3.92 0.34
2 -4 17 1.35 0.23
-2 4 -18 1.36 0.27
-2 4 20 0.16 0.18
2 4 -20 0.01 0.19
2 4 18 1.35 0.27
-2 -4 20 -0.15 0.14
2 -4 18 1.31 0.24
-2 4 -19 -0.04 0.22
-2 4 21 -0.03 0.18
2 4 19 0.21 0.2
-2 -4 21 0.04 0.17
-4 4 2 6.9 0.19
-4 4 2 8.09 0.19
4 4 -2 7.95 0.16
4 4 -2 3.88 0.15
-4 -4 2 8.55 0.19
4 -4 -2 2.92 0.14
-4 4 1 7.35 0.2
-4 4 1 8.09 0.2
-4 4 3 11.17 0.25
-4 4 3 12.95 0.22
4 4 -3 12.16 0.17
4 4 -1 8.7 0.19
4 4 -1 4.4 0.17
-4 -4 1 9.07 0.18
-4 -4 3 13.73 0.25
4 -4 -1 5.39 0.18
-4 4 0 75.39 0.6
-4 4 4 20.11 0.34
-4 4 4 23.07 0.27
4 4 -4 19.79 0.18
4 4 -4 -0.01 0.01
4 4 0 91.33 0.63
4 4 0 52.54 0.52
-4 -4 0 93.72 0.5
4 -4 0 55.11 0.56
-4 4 -1 11.89 0.25
-4 4 -1 14.02 0.29
-4 4 5 4.27 0.17
-4 4 5 4.41 0.12
4 4 -5 4.12 0.08
4 4 -5 3.87 0.17
4 4 1 15.11 0.29
4 4 1 9.96 0.25
-4 -4 -1 14.66 0.19
-4 -4 5 4.96 0.19
4 -4 1 0 0.02
-4 4 -2 0.52 0.08
-4 4 -2 1.08 0.13
-4 4 6 0.19 0.07
-4 4 6 0.58 0.06
4 4 -6 0.39 0.09
4 4 2 0.51 0.08
-4 -4 -2 0.64 0.07
-4 -4 6 0.48 0.08
-4 -4 6 0.42 0.04
4 -4 -6 0.07 0.04
4 -4 2 0.62 0.1
-4 4 -3 5.39 0.22
-4 4 7 0.01 0.06
-4 4 7 0.01 0.02
-4 4 7 -0.01 0.04
4 4 -7 -0.03 0.08
4 4 3 5.68 0.22
-4 -4 -3 5.13 0.1
-4 -4 7 -0.04 0.06
-4 -4 7 0.04 0.03
4 -4 3 5.89 0.23
-4 4 -4 1.46 0.15
-4 4 8 0.06 0.06
-4 4 8 0.14 0.08
-4 4 8 0.02 0.04
4 4 -8 0 0.09
4 4 4 1.43 0.15
-4 -4 -4 1.1 0.06
-4 -4 8 0.24 0.08
-4 -4 8 0.04 0.03
4 -4 4 1.44 0.15
-4 4 9 3.27 0.17
-4 4 9 3.46 0.2
-4 4 9 2.97 0.12
4 4 -9 3.91 0.22
4 4 5 25.78 0.47
-4 -4 -5 20.56 0.19
-4 -4 9 3.5 0.12
4 -4 5 25.55 0.46
-4 4 -6 18.21 0.43
-4 4 10 32.42 0.46
-4 4 10 37.94 0.6
4 4 -10 40.29 0.6
4 4 6 18.31 0.42
-4 -4 -6 14.19 0.18
-4 -4 10 36.78 0.59
-4 -4 10 35.92 0.36
4 -4 6 19.86 0.44
4 -4 6 14.63 0.33
-4 4 -7 -0.05 0.1
-4 4 11 3.18 0.18
-4 4 11 3.63 0.24
4 4 -11 3.66 0.24
4 4 7 0.01 0.03
-4 -4 11 3.57 0.24
-4 -4 11 3.51 0.15
4 -4 7 -0.03 0.1
4 -4 7 0 0.07
-4 4 -8 -0.1 0.11
-4 4 12 5.38 0.23
-4 4 12 6.4 0.3
4 4 -12 6.76 0.31
4 4 8 -0.02 0.03
-4 -4 12 6.58 0.31
4 -4 8 -0.07 0.09
4 -4 8 0 0.08
-4 4 -9 0.06 0.13
-4 4 13 -0.13 0.09
-4 4 13 0.11 0.12
4 4 -13 -0.04 0.14
4 4 9 0.02 0.12
-4 -4 13 0.11 0.13
4 -4 9 0.2 0.13
4 -4 9 0.1 0.09
-4 4 -10 0.37 0.15
-4 4 14 1.34 0.16
-4 4 14 1.48 0.2
4 4 -14 1.48 0.22
4 4 10 0.37 0.14
-4 -4 14 1.56 0.2
4 -4 10 0.53 0.14
4 -4 10 0.44 0.12
-4 4 -11 -0.08 0.13
-4 4 15 4.73 0.25
-4 4 15 4.98 0.3
4 4 -15 5.97 0.34
4 4 11 -0.04 0.12
-4 -4 15 5.75 0.32
4 -4 11 -0.01 0.12
4 -4 11 -0.06 0.1
-4 4 -12 0.05 0.15
-4 4 16 1.35 0.21
4 4 -16 1.59 0.23
4 4 12 0.08 0.15
-4 -4 16 1.57 0.21
4 -4 12 0.01 0.13
4 -4 12 0.03 0.11
-4 4 -13 3.87 0.32
-4 4 17 0.02 0.13
4 4 -17 -0.03 0.16
4 4 13 4.33 0.33
-4 -4 17 0.17 0.15
4 -4 13 4.41 0.31
4 -4 13 3.91 0.28
-4 4 -14 1.37 0.24
-4 4 18 0.58 0.18
4 4 -18 0.67 0.21
4 4 14 1.35 0.23
-4 -4 18 0.59 0.19
4 -4 14 1.54 0.23
4 -4 14 1.48 0.21
-4 4 -15 0.56 0.21
-4 4 19 6.53 0.41
4 4 -19 6.57 0.4
4 4 15 0.63 0.22
-4 -4 19 6.16 0.39
4 -4 15 0.58 0.2
-4 4 -16 0.22 0.21
-4 4 20 0.26 0.18
4 4 -20 0 0.19
4 4 16 0.01 0.17
-4 -4 20 0 0.16
4 -4 16 0.11 0.16
-4 4 -17 1.3 0.28
-4 4 21 0.26 0.19
4 4 17 1.27 0.27
-4 -4 21 0.23 0.17
-4 4 22 0.19 0.19
4 4 18 0.32 0.21
-4 -4 22 0.08 0.18
-6 4 3 90.03 0.71
-6 4 3 113.01 0.67
6 4 -3 113.99 0.57
6 4 -3 72.89 0.65
-6 -4 3 115 0.66
6 -4 -3 89.61 0.72
-6 4 2 29.51 0.41
-6 4 2 30.17 0.38
-6 4 4 11.32 0.26
-6 4 4 14.12 0.23
6 4 -4 13.61 0.17
6 4 -2 36.37 0.37
6 4 -2 28.55 0.42
-6 -4 2 37.55 0.35
-6 -4 4 10.74 0.23
6 -4 -4 10.68 0.25
6 -4 -2 28.7 0.42
-6 4 1 79.42 0.67
-6 4 1 59.29 0.56
-6 4 5 2.08 0.13
-6 4 5 2.59 0.1
6 4 -5 2.17 0.06
6 4 -5 1.75 0.14
6 4 -1 95.11 0.65
6 4 -1 71.48 0.66
-6 -4 1 101.47 0.51
-6 -4 5 1.83 0.11
6 -4 -5 2.02 0.13
-6 4 0 7.84 0.23
-6 4 0 9.62 0.26
-6 4 6 3.85 0.11
6 4 -6 3.37 0.18
6 4 0 9.47 0.24
6 4 0 6.75 0.22
-6 -4 0 9.96 0.15
-6 -4 6 4.02 0.18
6 -4 -6 2.66 0.15
6 -4 0 7.75 0.25
-6 4 -1 12.63 0.29
-6 4 -1 13.94 0.32
-6 4 7 1.03 0.11
-6 4 7 2.73 0.09
6 4 -7 2.56 0.17
6 4 1 14.78 0.31
-6 -4 -1 14.79 0.14
-6 -4 7 2.57 0.16
6 -4 1 13.48 0.32
-6 4 -2 0.1 0.08
-6 4 8 12.03 0.29
-6 4 8 12.54 0.32
-6 4 8 13.66 0.16
6 4 -8 14.12 0.34
6 4 2 0.15 0.08
-6 -4 8 14.26 0.34
6 -4 2 0.1 0.08
-6 4 -3 2.12 0.17
-6 4 9 37.77 0.5
-6 4 9 40.94 0.58
-6 4 9 39.51 0.25
6 4 -9 44.42 0.6
6 4 3 2.06 0.17
-6 -4 9 44.38 0.6
6 -4 3 2.09 0.19
-6 4 -4 44.86 0.64
-6 4 10 0.98 0.12
-6 4 10 1.05 0.15
-6 4 10 0.99 0.07
6 4 -10 1.18 0.16
6 4 4 45.43 0.63
-6 -4 10 1.31 0.15
-6 -4 10 1.17 0.07
6 -4 4 46.19 0.62
-6 4 -5 0.02 0.02
-6 4 11 3.46 0.19
-6 4 11 4.04 0.24
6 4 -11 3.92 0.24
6 4 5 0.09 0.1
-6 -4 11 0.01 0.01
-6 -4 11 3.83 0.12
6 -4 5 0.12 0.11
6 -4 5 0.08 0.08
-6 4 -6 0 0.03
-6 4 12 1.24 0.14
-6 4 12 1.38 0.17
6 4 -12 1.76 0.2
6 4 6 -0.05 0.09
6 -4 6 -0.15 0.08
6 -4 6 -0.03 0.08
-6 4 -7 9.77 0.37
-6 4 13 27.93 0.49
-6 4 13 32.22 0.62
6 4 -13 36.85 0.63
6 4 7 9.08 0.34
-6 -4 13 33.92 0.63
6 -4 7 11.65 0.37
6 -4 7 8.09 0.29
-6 4 -8 2.73 0.25
-6 4 14 -0.12 0.1
-6 4 14 0.05 0.11
6 4 -14 -0.06 0.15
6 4 8 2.4 0.22
-6 -4 14 0.1 0.13
6 -4 8 2.81 0.25
6 -4 8 2.01 0.19
-6 4 -9 0.27 0.14
-6 4 15 1.15 0.16
-6 4 15 1.27 0.19
6 4 -15 1.35 0.2
6 4 9 0.28 0.14
-6 -4 15 1.29 0.19
6 -4 9 0.17 0.13
6 -4 9 0.17 0.11
-6 4 -10 7.21 0.37
-6 4 16 0.01 0.11
-6 4 16 0.07 0.13
6 4 -16 0.1 0.15
6 4 10 7.12 0.36
-6 -4 16 -0.01 0.14
6 -4 10 8.44 0.37
6 -4 10 6.74 0.31
-6 4 -11 2.6 0.27
-6 4 17 2.58 0.21
-6 4 17 2.76 0.27
6 4 -17 2.68 0.28
6 4 11 2.31 0.25
-6 -4 17 2.92 0.28
6 -4 11 2.85 0.27
6 -4 11 2.25 0.23
-6 4 -12 2.87 0.29
-6 4 18 0.86 0.2
6 4 -18 1.17 0.22
6 4 12 3.36 0.31
-6 -4 18 0.66 0.19
6 -4 12 3.23 0.3
6 -4 12 2.78 0.25
-6 4 -13 6.38 0.4
-6 4 19 1.79 0.26
6 4 -19 2.08 0.26
6 4 13 7.09 0.4
-6 -4 19 1.9 0.26
6 -4 13 6.98 0.38
6 -4 13 6.82 0.37
-6 4 -14 0.37 0.21
-6 4 20 3.54 0.33
6 4 -20 3.82 0.34
6 4 14 0.78 0.22
-6 -4 20 3.42 0.33
6 -4 14 0.6 0.19
6 -4 14 0.41 0.17
-6 4 -15 2.76 0.34
-6 4 21 0.26 0.19
6 4 15 3.29 0.35
-6 -4 21 0.37 0.19
-6 4 -16 2.47 0.35
-6 4 22 0.2 0.18
6 4 16 2.51 0.33
-6 -4 22 -0.03 0.17
6 4 17 1.4 0.29
-6 -4 23 0.81 0.23
-8 4 4 3.89 0.19
-8 4 4 4.93 0.16
8 4 -4 4.97 0.14
-8 -4 4 4.7 0.16
8 -4 -4 3.79 0.18
-8 4 3 67.47 0.66
-8 4 5 6.59 0.22
-8 4 5 8.32 0.18
8 4 -5 8.26 0.15
8 4 -5 6.64 0.24
8 4 -3 81.08 0.56
8 4 -3 57.58 0.62
-8 -4 3 79.87 0.52
8 -4 -5 6.03 0.22
-8 4 2 22.3 0.39
-8 4 2 27.03 0.39
-8 4 6 2.09 0.1
8 4 -6 2.09 0.07
8 4 -6 1.51 0.15
8 4 -2 25.96 0.36
8 4 -2 19.21 0.37
-8 -4 2 26.08 0.27
-8 -4 6 1.82 0.14
8 -4 -6 1.36 0.13
8 -4 -2 19.79 0.37
-8 4 1 15.02 0.33
-8 4 1 17.61 0.35
-8 4 7 21.84 0.4
-8 4 7 32 0.26
8 4 -7 27.03 0.44
8 4 -1 17.56 0.32
-8 -4 1 16.54 0.18
-8 -4 7 30.79 0.44
8 -4 -7 23.33 0.4
8 -4 -1 15.2 0.34
-8 4 0 25.03 0.43
-8 4 0 28.21 0.46
-8 4 8 1.33 0.13
-8 4 8 1.17 0.15
8 4 -8 1.36 0.15
8 4 0 28.31 0.43
-8 -4 8 1.64 0.15
8 -4 0 25.86 0.45
-8 4 -1 20.17 0.41
-8 4 9 52.58 0.61
-8 4 9 54.33 0.67
8 4 -9 61.81 0.69
8 4 1 20.73 0.4
-8 -4 9 58.98 0.67
8 -4 1 19.21 0.4
-8 4 -2 7.53 0.28
-8 4 10 15.37 0.36
-8 4 10 15.75 0.39
8 4 -10 17.11 0.39
8 4 2 7.93 0.27
-8 -4 10 16.84 0.39
8 -4 2 7.55 0.27
-8 4 -3 14.66 0.39
-8 4 11 1.02 0.13
-8 4 11 1.08 0.14
8 4 -11 0.97 0.15
8 4 3 15.48 0.39
-8 -4 11 1.19 0.15
8 -4 3 15.91 0.4
-8 4 -4 0.16 0.07
-8 4 12 5.88 0.25
-8 4 12 6.53 0.29
8 4 -12 7.89 0.31
8 4 4 0.83 0.14
-8 -4 12 0.02 0.02
8 -4 4 0.91 0.15
8 -4 4 0.63 0.11
-8 4 -5 0.01 0.03
-8 4 13 44.96 0.64
-8 4 13 50.71 0.74
8 4 -13 56.85 0.75
8 4 5 2.06 0.21
-8 -4 13 0.02 0.02
8 -4 5 2.02 0.2
8 -4 5 1.77 0.18
-8 4 -6 3.01 0.24
-8 4 14 0.78 0.14
-8 4 14 0.62 0.16
8 4 -14 0.86 0.18
8 4 6 3.59 0.26
-8 -4 14 0.82 0.17
8 -4 6 3.51 0.26
8 -4 6 2.89 0.2
-8 4 -7 7.89 0.36
-8 4 15 6.64 0.3
-8 4 15 7.94 0.36
8 4 -15 8.63 0.37
8 4 7 8.27 0.35
-8 -4 15 6.98 0.33
8 -4 7 8.9 0.35
8 -4 7 6.81 0.3
-8 4 -8 0.12 0.14
-8 4 16 0.08 0.11
-8 4 16 0.14 0.13
8 4 -16 0.44 0.17
8 4 8 -0.04 0.11
-8 -4 16 0.23 0.14
8 -4 8 -0.04 0.12
8 -4 8 0.12 0.11
-8 4 -9 3.51 0.29
-8 4 17 11.39 0.39
-8 4 17 12.31 0.44
8 4 -17 14.52 0.47
8 4 9 3.79 0.31
-8 -4 17 11.44 0.44
8 -4 9 3.85 0.29
8 -4 9 3.11 0.25
-8 4 -10 4.01 0.32
-8 4 18 0.41 0.14
-8 4 18 0.42 0.16
8 4 -18 0.47 0.18
8 4 10 3.93 0.31
-8 -4 18 0.47 0.17
8 -4 10 4.13 0.3
8 -4 10 3.58 0.27
-8 4 -11 0.7 0.21
-8 4 19 3.97 0.27
-8 4 19 4.16 0.32
8 4 -19 5.32 0.34
8 4 11 0.76 0.21
-8 -4 19 4.81 0.34
8 -4 11 0.73 0.2
8 -4 11 0.76 0.18
-8 4 -12 5.39 0.39
-8 4 20 1.37 0.23
8 4 -20 1.85 0.27
8 4 12 5.83 0.39
-8 -4 20 1.54 0.25
8 -4 12 6.3 0.38
8 -4 12 5.54 0.34
-8 4 -13 -0.05 0.18
-8 4 21 0.76 0.22
8 4 13 0.27 0.19
-8 -4 21 0.7 0.21
8 -4 13 0.23 0.17
8 -4 13 0.16 0.16
-8 4 -14 0.04 0.19
-8 4 22 0.59 0.21
8 4 14 0.15 0.2
-8 -4 22 0.59 0.21
-8 4 -15 0.67 0.25
-8 4 23 0.86 0.23
8 4 15 0.99 0.26
-8 -4 23 0.98 0.24
-10 4 5 75.7 0.74
-10 4 5 111.83 0.71
10 4 -5 113.31 0.63
10 4 -5 89.62 0.81
-10 -4 5 55.18 0.5
-10 4 4 37.76 0.53
-10 4 4 15.81 0.29
-10 4 6 18.55 0.28
10 4 -6 19.27 0.24
10 4 -6 15.88 0.36
10 4 -4 43.87 0.44
-10 -4 4 41.84 0.41
-10 -4 6 16.7 0.31
10 -4 -6 14.84 0.35
10 -4 -4 30.85 0.48
-10 4 3 0.14 0.08
-10 4 3 0.16 0.08
-10 4 7 58.31 0.67
-10 4 7 71.69 0.46
10 4 -7 76.79 0.36
10 4 -7 61.65 0.68
10 4 -3 0.15 0.07
10 4 -3 0.04 0.07
-10 -4 3 0.2 0.05
-10 -4 7 68.77 0.64
10 -4 -7 55.79 0.65
10 -4 -3 0.15 0.09
-10 4 2 0.33 0.1
-10 4 2 0.3 0.09
-10 4 8 12.3 0.33
-10 4 8 13.99 0.18
10 4 -8 12.68 0.33
10 4 -2 0.38 0.09
-10 -4 2 0.31 0.05
-10 -4 8 14.17 0.32
10 -4 -8 10.7 0.3
10 -4 -2 0.26 0.09
-10 4 1 1.97 0.16
-10 4 1 2.73 0.19
-10 4 9 51.14 0.63
-10 4 9 49.28 0.64
10 4 -9 53.1 0.64
10 4 -1 2.1 0.16
-10 -4 1 1.76 0.06
-10 -4 9 53.58 0.64
10 -4 -1 1.79 0.18
-10 4 0 0.74 0.13
-10 4 10 28.73 0.49
-10 4 10 29.24 0.52
10 4 -10 32.32 0.52
10 4 0 0.75 0.12
-10 -4 10 31.69 0.52
10 -4 0 0.78 0.13
-10 4 -1 2.34 0.19
-10 4 11 29.81 0.52
-10 4 11 30.11 0.54
10 4 -11 33.13 0.54
10 4 1 2.39 0.19
-10 -4 11 31.13 0.54
10 -4 1 2.28 0.19
-10 4 -2 1.04 0.16
-10 4 12 0.32 0.11
-10 4 12 0.33 0.11
10 4 -12 0.45 0.13
10 4 2 0.87 0.14
-10 -4 12 0.39 0.11
10 -4 2 0.79 0.15
-10 4 -3 10.97 0.37
-10 4 13 11.42 0.35
-10 4 13 12 0.37
10 4 -13 14.62 0.4
10 4 3 10.63 0.36
-10 -4 13 10.27 0.36
10 -4 3 11.19 0.37
-10 4 -4 -0.02 0.11
-10 4 14 -0.01 0.1
-10 4 14 -0.05 0.11
10 4 -14 -0.07 0.13
10 4 4 0.22 0.13
-10 -4 14 0.08 0.12
10 -4 4 -0.01 0.12
10 -4 4 0 0.09
-10 4 -5 2.87 0.25
-10 4 15 2.04 0.2
-10 4 15 2.12 0.23
10 4 -15 2.43 0.25
10 4 5 2.93 0.24
-10 -4 15 2.05 0.24
10 -4 5 3.25 0.26
10 -4 5 2.07 0.21
-10 4 -6 0.28 0.15
-10 4 16 0.05 0.11
-10 4 16 0.2 0.12
10 4 -16 0.17 0.15
10 4 6 0.23 0.14
-10 -4 16 0.07 0.13
10 -4 6 0.13 0.13
10 -4 6 0.02 0.1
-10 4 -7 0.87 0.19
-10 4 17 11.8 0.4
-10 4 17 13.41 0.46
10 4 -17 15.94 0.48
10 4 7 0.85 0.18
-10 -4 17 12.5 0.45
10 -4 7 0.82 0.17
10 -4 7 0.56 0.15
-10 4 -8 0.66 0.19
-10 4 18 2.38 0.23
-10 4 18 2.61 0.26
10 4 -18 3.3 0.29
10 4 8 0.66 0.18
-10 -4 18 2.5 0.27
10 -4 8 0.8 0.19
10 -4 8 0.48 0.15
-10 4 -9 6.23 0.39
-10 4 19 0.54 0.15
-10 4 19 0.77 0.17
10 4 -19 0.83 0.2
10 4 9 6.28 0.38
-10 -4 19 0.64 0.17
10 -4 9 7.3 0.37
10 -4 9 5.67 0.33
-10 4 -10 1.05 0.23
-10 4 20 -0.09 0.12
-10 4 20 0.07 0.14
10 4 -20 -0.12 0.15
10 4 10 0.94 0.22
-10 -4 20 0.08 0.14
10 -4 10 0.99 0.21
10 -4 10 0.9 0.2
-10 4 -11 0.1 0.18
-10 4 21 1.18 0.21
-10 4 21 1.46 0.24
10 4 11 0.24 0.19
-10 -4 21 1.27 0.23
10 -4 11 0.12 0.16
10 -4 11 0.16 0.16
-10 4 -12 0.76 0.24
-10 4 22 1.39 0.24
10 4 12 0.73 0.23
-10 -4 22 1.26 0.24
10 -4 12 0.73 0.21
-10 4 -13 0.46 0.23
-10 4 23 0.1 0.17
10 4 13 0.52 0.22
-10 -4 23 0.13 0.16
10 -4 13 0.19 0.19
-10 4 -14 -0.13 0.21
-10 4 24 0.12 0.17
10 4 14 0.16 0.19
-10 -4 24 0.03 0.18
12 4 -6 15.79 0.26
12 4 -6 13.1 0.35
-12 -4 6 9.26 0.23
12 -4 -6 10.08 0.3
-12 4 5 2.15 0.15
-12 4 5 5.39 0.2
-12 4 7 40.24 0.59
-12 4 7 46.94 0.44
12 4 -7 47.2 0.39
12 4 -7 40.22 0.58
12 4 -5 5.34 0.18
12 4 -5 4.32 0.24
-12 -4 5 4.29 0.16
-12 -4 7 43.84 0.51
12 -4 -5 4.52 0.22
-12 4 4 0.11 0.1
-12 4 4 0.2 0.08
-12 4 8 3.66 0.21
-12 4 8 3.93 0.14
12 4 -8 4.05 0.12
12 4 -8 3.72 0.21
12 4 -4 0.29 0.08
12 4 -4 0.09 0.07
-12 -4 4 0.12 0.06
-12 -4 8 4.06 0.19
12 -4 -8 3.17 0.19
12 -4 -4 0.11 0.09
-12 4 3 12.16 0.35
-12 4 3 14.17 0.34
-12 4 9 1.79 0.17
-12 4 9 2.24 0.1
12 4 -9 2.35 0.08
12 4 -9 2.1 0.18
12 4 -3 14.04 0.32
-12 -4 3 11.83 0.19
-12 -4 9 2.32 0.17
12 -4 -3 12.21 0.34
-12 4 2 0.28 0.11
-12 4 2 0.22 0.1
-12 4 10 6.83 0.27
-12 4 10 6.15 0.27
12 4 -10 7.46 0.29
12 4 -2 0.11 0.09
-12 -4 2 0.27 0.05
-12 -4 10 7.17 0.27
12 -4 -2 0.18 0.1
-12 4 1 52.92 0.69
-12 4 11 52.43 0.7
-12 4 11 51.59 0.7
12 4 -11 57.63 0.71
12 4 -1 52.78 0.66
-12 -4 11 56.15 0.71
12 -4 -1 46.94 0.65
-12 4 0 18.91 0.45
-12 4 12 1.55 0.19
-12 4 12 1.19 0.16
12 4 -12 1.66 0.2
12 4 0 19.44 0.44
-12 -4 12 1.48 0.17
12 -4 0 17.99 0.44
-12 4 -1 4.09 0.27
-12 4 13 -0.04 0.1
-12 4 13 -0.02 0.09
12 4 -13 0.08 0.12
12 4 1 4.06 0.25
-12 -4 13 -0.02 0.09
12 -4 1 3.81 0.26
-12 4 -2 0.24 0.14
-12 4 14 7.19 0.31
-12 4 14 6.96 0.3
12 4 -14 8.52 0.34
12 4 2 0.29 0.12
-12 -4 14 7.13 0.33
12 -4 2 0.28 0.14
-12 4 -3 10.14 0.39
-12 4 15 0.33 0.13
-12 4 15 0.52 0.14
12 4 -15 0.4 0.17
12 4 3 10.5 0.39
-12 -4 15 0.43 0.15
12 -4 3 11.38 0.39
12 -4 3 8.15 0.33
-12 4 -4 0.67 0.17
-12 4 16 0.09 0.12
-12 4 16 0.04 0.12
12 4 -16 -0.17 0.14
12 4 4 0.38 0.15
-12 -4 16 -0.07 0.1
12 -4 4 0.58 0.15
12 -4 4 0.46 0.14
-12 4 -5 2.68 0.26
-12 4 17 0.63 0.15
-12 4 17 0.57 0.16
12 4 -17 0.81 0.19
12 4 5 2.91 0.25
-12 -4 17 0.68 0.17
12 -4 5 3 0.28
12 -4 5 2.27 0.23
-12 4 -6 -0.02 0.15
-12 4 18 0.1 0.12
-12 4 18 -0.03 0.12
12 4 -18 0.01 0.16
12 4 6 0.15 0.14
-12 -4 18 0.12 0.13
12 -4 6 0.18 0.15
12 -4 6 0.1 0.12
-12 4 -7 0.99 0.21
-12 4 19 -0.1 0.11
-12 4 19 0.1 0.13
12 4 -19 -0.02 0.16
12 4 7 0.79 0.19
-12 -4 19 0.06 0.14
12 -4 7 1.14 0.21
12 -4 7 0.89 0.18
-12 4 -8 0.31 0.18
-12 4 20 1.82 0.23
-12 4 20 2.03 0.25
12 4 -20 2.16 0.26
12 4 8 0.28 0.17
-12 -4 20 1.49 0.23
12 -4 8 0.13 0.17
12 -4 8 0.31 0.15
-12 4 -9 2.98 0.33
-12 4 21 0.03 0.13
-12 4 21 -0.14 0.13
12 4 9 3.11 0.3
-12 -4 21 -0.14 0.14
12 -4 9 3.65 0.31
12 -4 9 2.73 0.28
-12 4 -10 0.13 0.2
-12 4 22 0.07 0.14
-12 4 22 -0.05 0.15
12 4 10 0.12 0.18
-12 -4 22 0 0.14
12 -4 10 -0.07 0.15
-12 4 -11 -0.01 0.2
-12 4 23 0.02 0.16
12 4 11 -0.08 0.18
-12 -4 23 0.08 0.17
12 -4 11 -0.17 0.16
-12 4 -12 -0.13 0.19
-12 4 24 0.59 0.21
12 4 12 -0.03 0.19
-12 -4 24 0.39 0.21
12 -4 12 -0.03 0.17
-12 4 25 0.11 0.17
12 4 13 0.87 0.25
-12 -4 25 -0.13 0.17
12 -4 13 0.71 0.23
-14 4 7 20.39 0.44
-14 4 7 20.34 0.35
14 4 -7 22.26 0.33
14 4 -7 18.88 0.43
-14 -4 7 21.73 0.37
14 -4 -7 20.18 0.45
-14 4 6 0.19 0.08
-14 4 6 0.2 0.09
-14 4 8 0.88 0.14
-14 4 8 1 0.11
14 4 -8 1.41 0.11
14 4 -8 1.13 0.15
14 4 -6 0.31 0.08
14 4 -6 0.24 0.11
-14 -4 6 0.12 0.05
-14 -4 8 1.18 0.13
14 -4 -8 0.64 0.11
14 -4 -6 0.3 0.11
-14 4 5 10.29 0.29
-14 4 9 2.97 0.2
-14 4 9 3.56 0.14
14 4 -9 3.56 0.13
14 4 -9 3.35 0.23
14 4 -5 10.33 0.28
-14 -4 5 8.55 0.21
-14 -4 9 3.49 0.19
14 -4 -5 8.68 0.3
-14 4 4 25.83 0.47
-14 4 10 7.17 0.29
-14 4 10 8.09 0.16
14 4 -10 8.46 0.15
14 4 -10 7.85 0.31
14 4 -4 25.65 0.44
-14 -4 4 22.36 0.29
-14 -4 10 8.06 0.28
14 -4 -4 23.1 0.47
-14 4 3 23.71 0.48
-14 4 11 25.56 0.51
-14 4 11 24.37 0.51
14 4 -11 26.26 0.51
14 4 -3 24.09 0.45
-14 -4 11 26.48 0.49
14 -4 -3 20.96 0.46
-14 4 2 3.59 0.23
-14 4 12 1.27 0.17
-14 4 12 1.36 0.17
14 4 -12 1.94 0.2
14 4 -2 3.22 0.22
-14 -4 12 1.62 0.19
14 -4 -2 3.33 0.24
-14 4 1 30.01 0.57
-14 4 13 4.64 0.27
-14 4 13 4.23 0.26
14 4 -13 5.46 0.29
14 4 -1 31.12 0.56
-14 -4 13 4.71 0.27
14 -4 -1 29.45 0.56
-14 4 0 24.67 0.55
-14 4 14 9.7 0.35
-14 4 14 9.89 0.35
14 4 -14 11.58 0.38
14 4 0 26.06 0.55
-14 -4 14 9.66 0.36
14 -4 0 24.7 0.53
-14 4 -1 0.41 0.15
-14 4 15 27.43 0.58
-14 4 15 26.86 0.57
14 4 -15 32.6 0.6
14 4 1 0.3 0.14
-14 -4 15 25.7 0.57
14 -4 1 0.31 0.15
-14 4 -2 0.34 0.15
-14 4 16 5.49 0.29
-14 4 16 6.35 0.32
14 4 -16 7.44 0.34
14 4 2 0.33 0.15
-14 -4 16 5.76 0.33
14 -4 2 0.35 0.15
14 -4 2 0.26 0.13
-14 4 -3 8.2 0.38
-14 4 17 0.07 0.13
-14 4 17 0.3 0.13
14 4 -17 0.43 0.17
14 4 3 9.17 0.39
-14 -4 17 0.14 0.14
14 -4 3 9.72 0.38
14 -4 3 7.43 0.35
-14 4 -4 0.17 0.15
-14 4 18 2.84 0.26
-14 4 18 2.83 0.26
14 4 -18 4.12 0.3
14 4 4 0.17 0.15
-14 -4 18 3.32 0.29
14 -4 4 0.29 0.16
14 -4 4 0.08 0.13
-14 4 -5 13.73 0.51
-14 4 19 2.72 0.26
-14 4 19 3.04 0.27
14 4 -19 3.6 0.31
14 4 5 12.64 0.49
-14 -4 19 2.58 0.26
14 -4 5 14.86 0.48
14 -4 5 10.56 0.43
-14 4 -6 2.17 0.28
-14 4 20 4.41 0.31
-14 4 20 4.37 0.31
14 4 -20 5.89 0.36
14 4 6 1.62 0.25
-14 -4 20 4.51 0.33
14 -4 6 2.41 0.27
14 -4 6 1.56 0.23
-14 4 -7 2.1 0.29
-14 4 21 1.08 0.2
-14 4 21 1.33 0.22
14 4 7 2.59 0.29
-14 -4 21 1.11 0.22
14 -4 7 3.46 0.31
14 -4 7 2.36 0.28
-14 4 -8 -0.01 0.19
-14 4 22 0.92 0.2
-14 4 22 0.73 0.2
14 4 8 -0.16 0.15
-14 -4 22 0.76 0.2
14 -4 8 0.04 0.16
-14 4 -9 2.78 0.33
-14 4 23 0.3 0.17
-14 4 23 0.35 0.17
14 4 9 3.47 0.35
-14 -4 23 0.43 0.18
14 -4 9 2.98 0.32
-14 4 -10 0.29 0.23
-14 4 24 1.46 0.24
-14 4 24 1.38 0.24
14 4 10 0.35 0.22
-14 -4 24 1.62 0.28
14 -4 10 -0.11 0.17
-14 4 -11 -0.18 0.22
-14 4 25 1.25 0.25
14 4 11 0.01 0.19
-14 -4 25 0.94 0.23
14 -4 11 -0.21 0.17
-16 4 8 3.64 0.24
-16 4 8 3.97 0.19
16 4 -8 3.5 0.18
16 4 -8 3.3 0.24
-16 -4 8 3.66 0.19
16 -4 -8 3.26 0.22
-16 4 7 -0.06 0.08
-16 4 7 0.09 0.08
-16 4 9 20.43 0.48
16 4 -9 21.99 0.33
16 4 -9 18.96 0.45
16 4 -7 0.05 0.08
16 4 -7 0.08 0.11
-16 -4 7 0.11 0.07
-16 -4 9 21.3 0.4
16 -4 -9 10.78 0.34
16 -4 -7 0.01 0.09
-16 4 6 -0.02 0.02
-16 4 6 2.12 0.19
-16 4 10 0.79 0.15
-16 4 10 1.02 0.11
16 4 -10 0.84 0.11
16 4 -10 0.64 0.15
16 4 -6 2.08 0.17
-16 -4 6 0.82 0.1
-16 -4 10 0.95 0.13
16 -4 -10 0.01 0.03
16 -4 -6 1.88 0.19
-16 4 5 0.02 0.03
-16 4 5 46.32 0.64
-16 4 11 1.38 0.18
16 4 -11 1.59 0.2
16 4 -5 45.73 0.61
-16 -4 5 39.62 0.42
-16 -4 11 1.41 0.16
16 -4 -5 42.44 0.67
-16 4 4 27.62 0.53
-16 4 12 6.37 0.29
16 4 -12 7.01 0.31
16 4 -4 27.93 0.51
-16 -4 12 6.4 0.28
16 -4 -4 25.05 0.52
-16 4 3 9.03 0.35
-16 4 13 5.38 0.29
-16 4 13 4.87 0.27
16 4 -13 5.65 0.29
16 4 -3 9.47 0.33
-16 -4 13 5.06 0.26
16 -4 -3 8.65 0.35
-16 4 2 0.48 0.15
-16 4 14 1.92 0.22
-16 4 14 1.6 0.2
16 4 -14 2.09 0.23
16 4 -2 0.55 0.14
-16 -4 14 1.77 0.2
16 -4 -2 0.72 0.16
-16 4 1 18.89 0.51
-16 4 15 2.04 0.23
-16 4 15 1.79 0.2
16 4 -15 2.43 0.24
16 4 -1 19.07 0.49
-16 -4 15 1.68 0.21
16 -4 -1 18.78 0.48
-16 4 0 2.61 0.26
-16 4 16 1.88 0.23
-16 4 16 1.84 0.2
16 4 -16 2.25 0.25
16 4 0 2.39 0.23
-16 -4 16 1.93 0.22
16 -4 0 2.59 0.26
-16 4 -1 1.79 0.23
-16 4 17 1.57 0.21
-16 4 17 1.41 0.2
16 4 -17 2.42 0.25
16 4 1 1.46 0.2
-16 -4 17 1.7 0.22
16 -4 1 1.49 0.2
16 -4 1 1.07 0.19
-16 4 -2 1.32 0.22
-16 4 18 3.37 0.26
-16 4 18 2.88 0.24
16 4 -18 4.07 0.3
16 4 2 1.32 0.21
-16 -4 18 3.09 0.28
16 -4 2 1.53 0.21
16 -4 2 0.98 0.18
-16 4 -3 6.14 0.36
-16 4 19 0.1 0.13
-16 4 19 0.09 0.13
16 4 -19 0.22 0.17
16 4 3 6.79 0.38
-16 -4 19 0.1 0.15
16 -4 3 7.23 0.36
16 -4 3 5.28 0.33
-16 4 -4 3.58 0.33
-16 4 20 0.04 0.15
-16 4 20 0.19 0.14
16 4 -20 0.15 0.17
16 4 4 2.69 0.29
-16 -4 20 0.18 0.15
16 -4 4 3.82 0.32
16 -4 4 2.44 0.27
-16 4 -5 0.15 0.18
-16 4 21 6.46 0.37
-16 4 21 6.45 0.36
16 4 5 0.12 0.16
-16 -4 21 6.62 0.39
16 -4 5 0.34 0.17
16 -4 5 0.32 0.17
-16 4 -6 0.17 0.19
-16 4 22 1.47 0.23
-16 4 22 1.34 0.22
16 4 6 -0.13 0.17
-16 -4 22 1.63 0.25
16 -4 6 0.05 0.16
-16 4 -7 0.08 0.21
-16 4 23 0.05 0.15
-16 4 23 0.16 0.15
16 4 7 0.22 0.2
-16 -4 23 0.12 0.15
16 -4 7 0.34 0.19
-16 4 -8 0.42 0.23
-16 4 24 -0.05 0.16
-16 4 24 0.06 0.15
16 4 8 0.81 0.23
-16 -4 24 0.03 0.14
16 -4 8 0.27 0.18
-16 4 -9 0.2 0.23
-16 4 25 2.61 0.31
-16 4 25 2.95 0.32
16 4 9 0.47 0.23
-16 -4 25 2.66 0.33
16 -4 9 0.19 0.2
-16 4 26 0.07 0.17
16 4 10 -0.06 0.19
-16 -4 26 0.02 0.19
16 -4 10 -0.24 0.18
-18 4 9 16.41 0.46
-18 4 9 17.65 0.36
18 4 -9 17.18 0.35
18 4 -9 14.84 0.43
-18 -4 9 16.09 0.36
18 -4 -9 15.42 0.44
-18 4 8 1.42 0.19
-18 4 8 1.65 0.18
-18 4 10 3.11 0.25
-18 4 10 3.96 0.19
18 4 -10 3.29 0.17
18 4 -10 3.28 0.25
18 4 -8 1.34 0.15
18 4 -8 1.22 0.18
-18 -4 8 1.37 0.15
-18 -4 10 3.57 0.2
18 -4 -10 3.18 0.25
18 -4 -8 0.97 0.16
-18 4 7 0.06 0.11
-18 4 7 0.09 0.1
-18 4 11 2.45 0.23
18 4 -11 2.36 0.23
18 4 -7 -0.08 0.09
18 4 -7 0.06 0.11
-18 -4 7 0.04 0.08
-18 -4 11 2.8 0.2
18 -4 -11 2.59 0.22
18 -4 -7 -0.01 0.1
-18 4 6 11.45 0.4
-18 4 6 12.38 0.37
-18 4 12 1.07 0.18
18 4 -12 0.95 0.17
18 4 -6 11.91 0.35
-18 -4 12 1.01 0.15
18 -4 -6 11.15 0.39
-18 4 5 8.04 0.33
-18 4 13 18.7 0.49
-18 4 13 17.73 0.48
18 4 -13 18.44 0.47
18 4 -5 7.68 0.3
-18 -4 13 18.58 0.46
18 -4 -5 7.01 0.32
-18 4 4 5.47 0.31
-18 4 14 7.9 0.34
-18 4 14 7.05 0.32
18 4 -14 8.17 0.35
18 4 -4 5.71 0.28
-18 -4 14 7.8 0.33
18 -4 -4 5.29 0.3
-18 4 3 7.76 0.36
-18 4 15 0.47 0.15
-18 4 15 0.51 0.14
18 4 -15 0.63 0.16
18 4 -3 7.45 0.33
-18 -4 15 0.41 0.13
18 -4 -3 7.18 0.34
-18 4 2 2.23 0.27
-18 4 16 0.34 0.14
-18 4 16 0.12 0.13
18 4 -16 0.24 0.15
18 4 -2 2.67 0.25
-18 -4 16 0.27 0.14
18 -4 -2 2.72 0.26
-18 4 1 8.21 0.39
-18 4 17 0.54 0.16
-18 4 17 0.41 0.15
18 4 -17 0.54 0.16
18 4 -1 7.98 0.36
-18 -4 17 0.52 0.15
18 -4 -1 8.18 0.36
-18 4 0 0.16 0.15
-18 4 18 0.45 0.16
-18 4 18 0.39 0.15
18 4 -18 0.39 0.16
18 4 0 0.12 0.15
-18 -4 18 0.37 0.15
18 -4 0 0.04 0.14
18 -4 0 0.19 0.14
-18 4 -1 1.46 0.23
-18 4 19 2.26 0.26
-18 4 19 2.41 0.25
18 4 -19 3.14 0.28
18 4 1 1.22 0.21
-18 -4 19 2.4 0.26
18 -4 1 1.51 0.21
18 -4 1 1.26 0.21
-18 4 -2 0.15 0.16
-18 4 20 -0.14 0.13
-18 4 20 -0.14 0.12
18 4 2 -0.15 0.15
-18 -4 20 -0.01 0.12
18 -4 2 -0.04 0.15
18 -4 2 -0.01 0.13
-18 4 -3 0.11 0.18
-18 4 21 0.84 0.2
-18 4 21 1.12 0.21
18 4 3 0.05 0.16
-18 -4 21 1.01 0.21
18 -4 3 -0.05 0.15
18 -4 3 0.1 0.14
-18 4 -4 0.03 0.17
-18 4 22 -0.12 0.14
-18 4 22 0.07 0.14
18 4 4 -0.06 0.15
-18 -4 22 0.12 0.15
18 -4 4 0.03 0.14
-18 4 -5 0.41 0.22
-18 4 23 -0.11 0.14
-18 4 23 0.09 0.15
18 4 5 0.74 0.23
-18 -4 23 0.04 0.15
18 -4 5 0.53 0.19
-18 4 -6 2.94 0.35
-18 4 24 -0.08 0.16
-18 4 24 0.05 0.15
18 4 6 3.91 0.37
-18 -4 24 0.18 0.17
18 -4 6 3.06 0.33
-18 4 -7 0.68 0.25
-18 4 25 0.85 0.23
-18 4 25 1.24 0.24
18 4 7 0.72 0.24
-18 -4 25 0.93 0.23
18 -4 7 0.68 0.23
-18 4 -8 0.11 0.23
-18 4 26 0.1 0.18
18 4 8 0.17 0.22
-18 -4 26 0.14 0.19
18 -4 8 -0.09 0.18
-20 4 10 6.73 0.32
-20 4 10 8.26 0.28
20 4 -10 7.55 0.26
20 4 -10 7.17 0.35
-20 -4 10 7.42 0.27
20 -4 -10 6.56 0.32
-20 4 9 7.13 0.35
-20 4 9 7.53 0.29
-20 4 11 -0.07 0.1
20 4 -11 -0.07 0.13
20 4 -9 7.08 0.27
20 4 -9 6.23 0.33
-20 -4 9 6.55 0.25
-20 -4 11 0.07 0.09
20 -4 -11 0.02 0.11
20 -4 -9 6.34 0.33
-20 4 8 4.61 0.29
-20 4 8 5.61 0.28
-20 4 12 0.49 0.15
20 4 -12 0.54 0.16
20 4 -8 4.97 0.25
20 4 -8 4.19 0.29
-20 -4 12 0.63 0.13
20 -4 -12 0.48 0.15
20 -4 -8 4.26 0.27
-20 4 7 5.72 0.29
-20 4 13 11.27 0.4
20 4 -13 13.08 0.43
20 4 -7 5.37 0.27
-20 -4 13 11.9 0.38
20 -4 -13 10.47 0.39
20 -4 -7 5.26 0.31
-20 4 6 2.46 0.24
-20 4 14 3.6 0.28
-20 4 14 3.47 0.27
20 4 -14 3.6 0.28
20 4 -6 2.21 0.21
-20 -4 14 3.4 0.24
20 -4 -6 2.1 0.24
-20 4 5 2.4 0.25
-20 4 15 3.84 0.27
-20 4 15 3.87 0.28
20 4 -15 4.26 0.29
20 4 -5 2.5 0.22
-20 -4 15 3.87 0.27
20 -4 -5 2.16 0.24
-20 4 4 -0.09 0.13
-20 4 16 1.18 0.19
-20 4 16 1.11 0.18
20 4 -16 1.31 0.2
20 4 -4 0.07 0.12
-20 -4 16 1.02 0.18
20 -4 -4 0.1 0.13
-20 4 3 11.65 0.44
-20 4 17 1.56 0.21
-20 4 17 1.72 0.21
20 4 -17 2.19 0.25
20 4 -3 11.79 0.42
-20 -4 17 1.74 0.21
20 -4 -3 11.74 0.44
-20 4 2 2.5 0.26
-20 4 18 3.27 0.27
-20 4 18 3.06 0.26
20 4 -18 4.34 0.3
20 4 -2 2.58 0.26
-20 -4 18 3.01 0.27
20 -4 -2 3.09 0.28
-20 4 1 0.53 0.18
-20 4 19 7.23 0.38
-20 4 19 6.72 0.34
20 4 -19 8.88 0.39
20 4 -1 0.59 0.17
-20 -4 19 7.08 0.37
20 -4 -1 0.48 0.17
20 -4 -1 0.39 0.16
-20 4 0 2.77 0.28
-20 4 20 0.37 0.17
-20 4 20 0.27 0.15
20 4 0 2.43 0.28
-20 -4 20 0.36 0.15
20 -4 0 2.46 0.3
20 -4 0 1.78 0.25
-20 4 -1 2.24 0.29
-20 4 21 0.18 0.16
-20 4 21 0.1 0.14
20 4 1 2.51 0.29
-20 -4 21 0.11 0.14
20 -4 1 2.82 0.29
20 -4 1 1.83 0.25
-20 4 -2 0.33 0.19
-20 4 22 0.15 0.14
-20 4 22 -0.01 0.14
20 4 2 -0.21 0.15
-20 -4 22 0 0.15
20 -4 2 0.09 0.16
-20 4 -3 0.71 0.23
-20 4 23 0.15 0.16
-20 4 23 0.01 0.14
20 4 3 0.66 0.22
-20 -4 23 0.06 0.15
20 -4 3 0.54 0.19
-20 4 -4 0.12 0.21
-20 4 24 0.1 0.16
-20 4 24 -0.06 0.13
20 4 4 0.15 0.18
-20 -4 24 0.07 0.16
20 -4 4 0.12 0.18
-20 4 -5 1.77 0.31
-20 4 25 0.29 0.19
20 4 5 2.04 0.31
-20 -4 25 0.45 0.2
20 -4 5 1.79 0.29
-20 4 -6 2.02 0.33
-20 4 26 0.16 0.18
20 4 6 1.82 0.3
-20 -4 26 0 0.17
20 -4 6 1.65 0.3
-22 4 11 1.04 0.19
22 4 -11 1.04 0.19
-22 -4 11 1.19 0.15
22 -4 -11 1.16 0.19
-22 4 10 0.17 0.14
-22 4 10 0.16 0.11
-22 4 12 3.12 0.25
22 4 -12 3.14 0.27
22 4 -10 0.04 0.1
22 4 -10 0.16 0.14
-22 -4 12 3.04 0.23
22 -4 -12 2.72 0.25
22 -4 -10 0.08 0.13
-22 4 9 3.99 0.3
-22 4 9 4.15 0.27
-22 4 13 3.22 0.27
22 4 -13 3.51 0.27
22 4 -9 3.95 0.24
22 4 -9 3.32 0.28
-22 -4 13 3.35 0.24
22 -4 -13 3.17 0.26
22 -4 -9 3.89 0.28
-22 4 8 0.06 0.13
-22 4 14 0.14 0.13
22 4 -14 0.18 0.14
22 4 -8 0.29 0.13
-22 -4 14 0.2 0.12
22 -4 -14 0.16 0.14
22 -4 -8 0.25 0.14
-22 4 7 8.24 0.36
-22 4 15 11.33 0.43
22 4 -15 13.03 0.44
22 4 -7 7.9 0.33
-22 -4 15 11.44 0.4
22 -4 -7 6.98 0.35
-22 4 6 0.26 0.16
-22 4 16 0.23 0.14
-22 4 16 0.08 0.13
22 4 -16 0.24 0.16
22 4 -6 0.17 0.13
-22 -4 16 0.08 0.12
22 -4 -6 0.27 0.15
-22 4 5 3.07 0.28
-22 4 17 2.77 0.26
-22 4 17 2.96 0.26
22 4 -17 3.7 0.29
22 4 -5 3.29 0.28
-22 -4 17 3.2 0.25
22 -4 -5 2.95 0.27
-22 4 4 3 0.29
-22 4 18 0.44 0.16
-22 4 18 0.55 0.16
22 4 -18 0.61 0.19
22 4 -4 2.32 0.26
-22 -4 18 0.48 0.15
22 -4 -4 2.63 0.27
-22 4 3 13.79 0.51
-22 4 19 7.74 0.4
-22 4 19 6.69 0.36
22 4 -19 9.28 0.39
22 4 -3 13.41 0.48
-22 -4 19 6.78 0.37
22 -4 -3 13.68 0.47
-22 4 2 0.04 0.16
-22 4 20 0.92 0.21
-22 4 20 0.82 0.18
22 4 -2 0.14 0.14
-22 -4 20 0.89 0.19
22 -4 -2 0.09 0.16
22 -4 -2 -0.02 0.15
-22 4 1 0.29 0.18
-22 4 21 0.69 0.18
-22 4 21 0.62 0.17
22 4 -1 0.29 0.17
-22 -4 21 0.49 0.17
22 -4 -1 0.25 0.18
22 -4 -1 0.01 0.14
-22 4 0 0.21 0.18
-22 4 22 0.44 0.18
-22 4 22 0.64 0.18
22 4 0 0.01 0.16
-22 -4 22 0.55 0.18
22 -4 0 0.18 0.16
-22 4 -1 3.91 0.35
-22 4 23 0.69 0.19
-22 4 23 0.6 0.18
22 4 1 3.41 0.33
-22 -4 23 0.78 0.21
22 -4 1 3.04 0.32
-22 4 -2 0.82 0.25
-22 4 24 0.23 0.18
-22 4 24 0.19 0.16
22 4 2 0.35 0.21
-22 -4 24 0.3 0.18
22 -4 2 0.38 0.2
-22 4 -3 1.99 0.31
-22 4 25 0.07 0.17
22 4 3 2.27 0.32
-22 -4 25 0.13 0.17
22 -4 3 1.86 0.3
-22 4 -4 0.17 0.23
-22 4 26 0.05 0.18
22 4 4 0.19 0.21
-22 -4 26 0.23 0.18
22 -4 4 0.17 0.21
-24 4 12 1.18 0.2
24 4 -12 1.1 0.2
-24 -4 12 1.09 0.16
24 -4 -12 0.8 0.18
-24 4 11 0.49 0.16
-24 4 13 0.09 0.12
24 4 -13 0.16 0.14
24 4 -11 0.5 0.16
-24 -4 13 0.03 0.1
24 -4 -13 0.07 0.13
24 -4 -11 0.31 0.14
-24 4 10 0.97 0.17
-24 4 14 -0.07 0.11
24 4 -14 0.04 0.14
24 4 -10 0.98 0.16
24 4 -10 0.9 0.2
-24 -4 14 -0.05 0.09
24 -4 -14 0.07 0.13
24 -4 -10 0.8 0.17
-24 4 9 2.71 0.25
-24 4 15 1.24 0.2
24 4 -15 1.61 0.22
24 4 -9 3.11 0.25
-24 -4 15 1.48 0.19
24 -4 -15 1.41 0.21
24 -4 -9 2.41 0.26
-24 4 8 2.85 0.26
-24 4 16 0.57 0.17
24 4 -16 0.55 0.18
24 4 -8 3.23 0.26
-24 -4 16 0.59 0.15
24 -4 -8 2.9 0.27
-24 4 7 0.82 0.19
-24 4 17 2.56 0.28
-24 4 17 2.58 0.26
24 4 -17 2.93 0.28
24 4 -7 1.22 0.2
-24 -4 17 2.92 0.25
24 -4 -7 0.91 0.19
-24 4 6 0.04 0.16
-24 4 18 3.35 0.29
-24 4 18 2.99 0.27
24 4 -18 3.71 0.3
24 4 -6 0.38 0.15
-24 -4 18 3.19 0.26
24 -4 -6 0.29 0.16
-24 4 5 -0.18 0.14
-24 4 19 0.3 0.17
-24 4 19 0.06 0.14
24 4 -19 0.23 0.16
24 4 -5 -0.08 0.14
-24 -4 19 0.15 0.14
24 -4 -5 0.07 0.14
-24 4 4 0.27 0.18
-24 4 20 1.11 0.22
-24 4 20 1.45 0.22
24 4 -4 0.3 0.16
-24 -4 20 1.25 0.21
24 -4 -4 0.38 0.18
-24 4 3 2.53 0.3
-24 4 21 0.23 0.17
-24 4 21 0.2 0.15
24 4 -3 2.63 0.29
-24 -4 21 0.02 0.13
24 -4 -3 2.33 0.27
24 -4 -3 1.82 0.26
-24 4 2 -0.07 0.15
-24 4 22 0.07 0.16
-24 4 22 -0.04 0.13
24 4 -2 -0.06 0.14
-24 -4 22 0.12 0.15
24 -4 -2 -0.17 0.14
-24 4 1 0.8 0.22
-24 4 23 0.09 0.17
-24 4 23 0.12 0.15
24 4 -1 0.55 0.2
-24 -4 23 0.03 0.14
24 -4 -1 0.34 0.19
-24 4 0 0.28 0.21
-24 4 24 0.14 0.17
-24 4 24 0.3 0.17
24 4 0 0.16 0.19
-24 -4 24 0.16 0.16
24 -4 0 0.03 0.17
-24 4 -1 0.68 0.24
-24 4 25 0.18 0.19
24 4 1 0.59 0.23
-24 -4 25 0.19 0.16
24 -4 1 0.84 0.23
-24 4 -2 0.5 0.23
-24 4 26 0.16 0.18
24 4 2 0.3 0.22
-24 -4 26 0.16 0.18
24 -4 2 0.36 0.21
-26 4 13 0.88 0.19
26 4 -13 0.65 0.19
26 -4 -13 0.57 0.17
-26 4 14 0.65 0.18
26 4 -14 0.86 0.2
26 4 -12 0.05 0.15
-26 -4 14 0.72 0.15
26 -4 -14 0.82 0.18
26 -4 -12 -0.04 0.12
-26 4 15 0.1 0.14
26 4 -15 0.24 0.17
26 4 -11 3.28 0.3
-26 -4 15 0.01 0.11
26 -4 -15 0.1 0.14
26 -4 -11 4.12 0.31
-26 4 10 3.8 0.29
-26 4 16 2.92 0.28
26 4 -16 3.81 0.31
26 4 -10 3.39 0.32
-26 -4 16 3.56 0.27
26 -4 -16 3.15 0.29
26 -4 -10 3.31 0.3
-26 4 9 3.13 0.29
-26 4 17 4.03 0.31
26 4 -17 4.11 0.32
26 4 -9 3.08 0.27
-26 -4 17 3.88 0.29
26 -4 -17 3.33 0.3
26 -4 -9 2.93 0.29
-26 4 8 0.85 0.2
-26 4 18 0.64 0.18
26 4 -18 0.81 0.2
26 4 -8 0.84 0.19
-26 -4 18 0.59 0.17
26 -4 -8 0.73 0.19
-26 4 7 1.6 0.25
-26 4 19 0.5 0.18
-26 4 19 0.41 0.16
26 4 -19 0.08 0.17
26 4 -7 1.8 0.23
-26 -4 19 0.22 0.14
26 -4 -7 1.97 0.26
-26 4 6 0.78 0.2
-26 4 20 0 0.15
-26 4 20 0.04 0.14
26 4 -6 0.5 0.18
-26 -4 20 0.04 0.13
26 -4 -6 0.61 0.18
-26 4 5 0.12 0.16
-26 4 21 0.7 0.2
-26 4 21 0.93 0.21
26 4 -5 -0.13 0.14
-26 -4 21 0.97 0.21
26 -4 -5 0 0.15
-26 4 4 0.04 0.16
-26 4 22 0.2 0.18
-26 4 22 0.12 0.14
26 4 -4 0.08 0.16
-26 -4 22 -0.06 0.12
26 -4 -4 0.01 0.14
-26 4 3 0.59 0.22
-26 4 23 0.22 0.18
-26 4 23 0.21 0.16
26 4 -3 0.47 0.2
-26 -4 23 0.06 0.16
26 -4 -3 0.23 0.17
-26 4 2 0.14 0.18
-26 4 24 0.38 0.19
26 4 -2 -0.26 0.16
-26 -4 24 0.45 0.19
26 -4 -2 0.22 0.18
-26 4 1 1.08 0.26
-26 4 25 0.1 0.18
26 4 -1 1.18 0.26
-26 -4 25 0.09 0.17
26 -4 -1 1.23 0.26
-26 4 26 0.02 0.18
26 4 0 0.55 0.24
-26 -4 26 -0.25 0.15
26 -4 0 0.38 0.21
28 4 -14 -0.1 0.15
28 -4 -14 0.03 0.14
-28 4 15 0.39 0.17
28 4 -15 0.29 0.18
28 4 -13 0.12 0.18
28 -4 -15 0.26 0.16
28 -4 -13 0.24 0.16
-28 4 16 -0.12 0.13
28 4 -16 -0.17 0.15
28 4 -12 0.15 0.18
28 -4 -16 0.06 0.13
28 -4 -12 0.03 0.15
-28 4 17 1.01 0.21
28 4 -17 0.96 0.22
28 4 -11 4.21 0.36
-28 -4 17 0.91 0.19
28 -4 -17 0.91 0.2
28 -4 -11 4.17 0.34
-28 4 18 0.21 0.15
28 4 -18 -0.05 0.16
28 4 -10 3.51 0.32
-28 -4 18 -0.04 0.12
28 -4 -18 0.08 0.14
28 -4 -10 4.04 0.34
-28 4 9 0.43 0.18
-28 4 19 0.04 0.14
28 4 -9 0 0.15
-28 -4 19 0.17 0.14
28 -4 -19 0.13 0.16
28 -4 -9 -0.01 0.16
-28 4 8 0.75 0.2
-28 4 20 0.64 0.19
28 4 -8 0.21 0.16
-28 -4 20 0.57 0.18
28 -4 -8 0.14 0.18
-28 4 7 1.98 0.27
-28 4 21 1.13 0.24
-28 4 21 1.2 0.23
28 4 -7 2.53 0.29
-28 -4 21 1.28 0.23
28 -4 -7 2.06 0.28
-28 4 6 0.36 0.2
-28 4 22 0.13 0.16
-28 4 22 0.27 0.18
28 4 -6 0.5 0.2
-28 -4 22 0.39 0.17
28 -4 -6 0.23 0.18
-28 4 5 0.58 0.21
-28 4 23 0.57 0.22
-28 4 23 0.45 0.19
28 4 -5 0.52 0.21
-28 -4 23 0.32 0.17
28 -4 -5 0.22 0.17
-28 4 4 0.49 0.21
-28 4 24 0.29 0.19
28 4 -4 0.27 0.19
-28 -4 24 0.33 0.18
28 -4 -4 0.12 0.19
-28 4 3 0.41 0.22
-28 4 25 -0.19 0.14
28 4 -3 0.48 0.22
-28 -4 25 -0.05 0.16
28 -4 -3 0.37 0.19
30 4 -15 0.82 0.22
30 -4 -15 1.04 0.22
30 4 -16 -0.04 0.17
30 4 -14 0.14 0.18
30 -4 -16 0.16 0.16
30 -4 -14 0.06 0.16
-30 4 17 0.7 0.2
30 4 -17 0.75 0.21
30 4 -13 0.34 0.21
30 -4 -17 0.66 0.2
30 -4 -13 0.08 0.16
-30 4 18 0.13 0.17
30 4 -18 0 0.17
30 4 -12 0.33 0.2
30 -4 -18 0.18 0.15
30 -4 -12 0.43 0.19
-30 4 19 -0.1 0.14
30 4 -11 3.6 0.35
-30 -4 19 -0.15 0.13
30 -4 -19 -0.02 0.14
30 -4 -11 4.01 0.35
-30 4 20 0.89 0.22
-30 -4 20 0.39 0.18
30 -4 -20 0.74 0.22
30 -4 -10 0.37 0.21
-30 4 21 -0.12 0.15
-30 -4 21 0.11 0.16
30 -4 -21 0.13 0.16
30 -4 -9 0.07 0.18
-30 4 22 0.02 0.15
30 4 -8 1.28 0.24
-30 -4 22 0 0.15
-30 4 7 2.74 0.33
-30 4 23 1.75 0.29
-30 4 23 2.26 0.29
30 4 -7 2.55 0.31
-30 -4 23 2.26 0.3
30 -4 -7 2.21 0.3
-30 4 6 0.47 0.22
-30 4 24 0.56 0.21
30 4 -6 0.11 0.2
-30 -4 24 0.21 0.17
30 -4 -6 0.33 0.19
-30 -4 25 0.14 0.18
32 4 -16 0.59 0.22
32 -4 -16 0.44 0.19
32 4 -17 0.08 0.18
32 4 -15 0 0.18
32 -4 -17 0.03 0.16
32 -4 -15 0 0.16
32 4 -14 0.56 0.23
32 -4 -18 0.07 0.17
32 -4 -14 0.45 0.2
-32 4 19 -0.16 0.15
32 4 -13 0.11 0.19
32 -4 -19 -0.04 0.14
32 -4 -13 -0.03 0.17
-32 4 20 0.51 0.2
32 4 -12 0.06 0.2
32 -4 -20 0.48 0.19
32 -4 -12 0.06 0.18
-32 4 21 0.02 0.16
32 4 -11 -0.13 0.19
-32 -4 21 -0.02 0.16
32 -4 -21 -0.09 0.17
32 -4 -11 0.23 0.19
-32 4 22 0.14 0.18
-32 -4 22 -0.11 0.15
32 -4 -22 0.12 0.18
-32 -4 23 0.75 0.22
32 -4 -23 0.37 0.21
32 -4 -9 0.67 0.22
34 4 -17 0.5 0.23
34 -4 -17 0.55 0.22
34 -4 -18 0.09 0.18
34 -4 -16 0.4 0.21
34 -4 -19 0.12 0.19
34 -4 -15 0.33 0.21
34 -4 -20 0.47 0.2
34 -4 -14 0.6 0.23
-1 5 0 61.22 0.54
-1 5 0 71.41 0.63
-1 5 1 0.13 0.07
-1 5 1 0.12 0.06
1 5 -1 0.17 0.06
1 5 -1 0.26 0.08
1 5 0 66.32 0.55
1 5 0 64.92 0.6
-1 -5 1 0.26 0.08
1 -5 -1 0.27 0.07
1 -5 0 67.11 0.62
-1 5 -1 89.1 0.63
-1 5 -1 104.72 0.79
-1 5 2 21.7 0.35
1 5 -2 20.34 0.28
1 5 -2 22.85 0.39
1 5 1 101.01 0.72
1 5 1 89.72 0.7
-1 -5 -1 81.44 0.6
-1 -5 2 23.7 0.38
1 -5 1 101.5 0.78
-1 5 -2 11.26 0.23
-1 5 -2 13.33 0.31
-1 5 3 1.57 0.13
-1 5 3 0.48 0.07
1 5 -3 1.48 0.1
1 5 -3 1.62 0.14
1 5 2 12.88 0.28
1 5 2 9.39 0.24
-1 -5 -2 11.74 0.23
-1 -5 3 1.9 0.15
1 -5 -3 0.17 0.04
1 -5 2 12.82 0.3
-1 5 -3 0.12 0.06
-1 5 -3 0.18 0.08
-1 5 4 0.98 0.12
-1 5 4 0.54 0.08
1 5 -4 1.01 0.09
1 5 -4 1.12 0.14
1 5 3 0.13 0.07
1 5 3 0.11 0.06
-1 -5 -3 0.16 0.05
-1 -5 4 1.26 0.13
1 -5 -4 0.42 0.06
1 -5 3 0.18 0.08
-1 5 -4 6.58 0.19
-1 5 -4 7.29 0.26
-1 5 5 17.48 0.37
-1 5 5 8.02 0.2
1 5 -5 12.97 0.33
1 5 4 7.35 0.25
1 5 4 5.39 0.19
-1 -5 -4 5.99 0.17
-1 -5 5 18.41 0.38
1 -5 -5 6.83 0.19
1 -5 4 7.16 0.25
-1 5 -5 2.56 0.18
-1 5 6 0.25 0.09
-1 5 6 0.05 0.04
1 5 -6 0.2 0.08
1 5 5 2.65 0.18
1 5 5 2.22 0.14
-1 -5 -5 2.37 0.12
-1 -5 6 0.28 0.1
1 -5 -6 0.05 0.03
-1 5 -6 0.15 0.06
-1 5 7 1.39 0.16
-1 5 7 0.04 0.03
1 5 -7 1.3 0.16
1 5 6 0.49 0.12
1 5 6 0.43 0.09
-1 -5 -6 0.43 0.07
-1 -5 7 0.11 0.05
-1 -5 7 1.29 0.11
1 -5 -7 0.05 0.03
1 -5 6 0.64 0.12
-1 5 -7 5.26 0.27
-1 5 8 14.69 0.39
-1 5 8 13.92 0.28
1 5 -8 30.75 0.56
1 5 7 6.9 0.28
-1 -5 -7 5.3 0.17
-1 -5 8 17.67 0.29
1 -5 -8 8.93 0.22
1 -5 7 7.22 0.31
1 -5 7 5.3 0.2
-1 5 -8 31.32 0.59
-1 5 9 0.02 0.02
1 5 -9 7.36 0.32
-1 -5 -8 22.77 0.32
-1 -5 9 6.87 0.3
1 -5 8 32.04 0.58
1 -5 8 24.85 0.4
-1 5 -9 7.78 0.34
-1 5 10 5.07 0.2
1 5 -10 5.74 0.3
-1 -5 10 5.63 0.29
-1 -5 10 4.9 0.19
1 -5 9 8.62 0.35
1 -5 9 6.91 0.24
-1 5 -10 -0.02 0.14
-1 5 11 3.36 0.18
-1 5 11 3.96 0.28
1 5 -11 3.59 0.28
1 5 10 -0.03 0.1
-1 -5 11 4.03 0.28
-1 -5 11 3.58 0.19
1 -5 10 0.04 0.12
1 -5 10 0.05 0.08
-1 5 -11 0.21 0.15
-1 5 12 6.51 0.34
1 5 -12 6.16 0.35
1 5 11 0.15 0.12
-1 -5 12 6.88 0.34
1 -5 11 0.19 0.13
1 -5 11 0.14 0.09
-1 5 -12 0.01 0.14
-1 5 13 0.28 0.15
1 5 -13 0.07 0.15
1 5 12 -0.06 0.12
-1 -5 13 0.05 0.13
1 -5 12 0.08 0.12
-1 5 -13 2.76 0.27
-1 5 14 2.48 0.27
1 5 -14 2.65 0.29
1 5 13 2.87 0.26
-1 -5 14 2.88 0.28
1 -5 13 2.55 0.27
-1 5 -14 0.22 0.17
-1 5 15 0.27 0.16
1 5 -15 0.16 0.17
1 5 14 0.4 0.16
-1 -5 15 0.37 0.16
1 -5 14 0.35 0.16
-1 5 -15 0.8 0.21
-1 5 16 5.53 0.37
1 5 -16 4.66 0.35
1 5 15 0.67 0.2
-1 -5 16 5.41 0.36
1 -5 15 0.69 0.18
-1 5 -16 0.58 0.22
-1 5 17 1.58 0.25
1 5 -17 1.97 0.29
1 5 16 0.41 0.18
-1 -5 17 1.7 0.25
1 -5 16 0.46 0.19
-1 5 -17 1.06 0.25
-1 5 18 0 0.17
1 5 -18 0.04 0.18
1 5 17 1.14 0.25
-1 -5 18 -0.13 0.15
1 -5 17 1.41 0.25
-1 5 -18 1.18 0.27
-1 5 19 0.35 0.19
1 5 -19 0.12 0.2
1 5 18 0.94 0.25
-1 -5 19 0.24 0.19
1 -5 18 1.25 0.25
-1 5 -19 0.08 0.22
-1 5 20 0.47 0.21
1 5 -20 0.56 0.24
1 5 19 -0.05 0.17
-1 -5 20 0.36 0.21
1 -5 19 -0.06 0.17
-3 5 1 3.01 0.15
-3 5 1 3.02 0.16
-3 5 2 4.32 0.18
3 5 -2 4.46 0.14
3 5 -2 4.54 0.19
3 5 -1 3.17 0.13
3 5 -1 2.86 0.16
-3 -5 1 2.05 0.12
-3 -5 2 2.54 0.13
3 -5 -2 4.12 0.17
3 -5 -1 2.79 0.15
-3 5 0 1.73 0.12
-3 5 0 1.88 0.14
-3 5 3 2.34 0.15
-3 5 3 2.1 0.12
3 5 -3 2.29 0.1
3 5 -3 2.3 0.16
3 5 0 2.03 0.13
3 5 0 1.66 0.13
-3 -5 0 2.2 0.12
-3 -5 3 2.88 0.16
3 -5 -3 2.24 0.14
3 -5 0 1.91 0.15
-3 5 -1 0.01 0.06
-3 5 -1 0.08 0.07
-3 5 4 4.29 0.19
-3 5 4 4.55 0.16
3 5 -4 4.24 0.12
3 5 -4 4.69 0.21
3 5 1 0.06 0.06
3 5 1 0.04 0.06
-3 -5 -1 0.03 0.05
-3 -5 4 5.36 0.21
3 -5 -4 3.89 0.17
3 -5 1 0.06 0.07
-3 5 -2 39.96 0.46
-3 5 -2 48.78 0.59
-3 5 5 0.2 0.08
-3 5 5 0.28 0.07
3 5 -5 0.16 0.04
3 5 -5 0.08 0.06
3 5 2 50.75 0.57
3 5 2 38.33 0.49
-3 -5 -2 45.02 0.39
-3 -5 5 0.2 0.08
3 -5 -5 0.32 0.07
3 -5 2 45.01 0.57
-3 5 -3 2.01 0.14
-3 5 -3 2.13 0.17
-3 5 6 31.4 0.5
-3 5 6 29.09 0.34
3 5 -6 21.91 0.42
3 5 3 2.3 0.16
3 5 3 1.58 0.13
-3 -5 -3 2.14 0.11
-3 -5 6 35.08 0.52
3 -5 -6 26.18 0.39
-3 5 -4 22.43 0.45
-3 5 7 2.49 0.19
-3 5 7 2.11 0.12
3 5 -7 2.71 0.2
3 5 4 23.68 0.44
3 5 4 16.94 0.34
-3 -5 -4 19.3 0.25
-3 -5 7 2.72 0.19
-3 -5 7 2 0.09
3 -5 -7 2.08 0.14
3 -5 4 20.99 0.43
-3 5 -5 5.55 0.26
-3 5 8 9.11 0.31
-3 5 8 8.73 0.2
3 5 -8 11.22 0.35
3 5 5 6.18 0.27
-3 -5 -5 4.84 0.14
-3 -5 8 11.38 0.34
-3 -5 8 8.91 0.17
3 -5 -8 7.93 0.23
3 -5 5 6.61 0.29
-3 5 -6 0.03 0.03
-3 5 9 0.01 0.02
-3 5 9 0.04 0.07
3 5 -9 0.14 0.12
3 5 6 12.19 0.37
-3 -5 -6 9.22 0.18
-3 -5 9 0 0.02
-3 -5 9 0.14 0.06
3 -5 6 12.21 0.37
-3 5 -7 0.07 0.04
-3 5 10 0.06 0.07
-3 5 10 0.01 0.03
-3 5 10 0.01 0.06
3 5 -10 -0.03 0.12
3 5 7 2.15 0.21
-3 -5 10 0.01 0.03
-3 -5 10 0.04 0.06
3 -5 7 1.98 0.2
3 -5 7 1.64 0.15
-3 5 -8 3.28 0.25
-3 5 11 0.02 0.08
-3 5 11 0.1 0.12
3 5 -11 0.06 0.13
3 5 8 3.35 0.23
-3 -5 11 -0.06 0.12
3 -5 8 3.8 0.27
3 -5 8 2.85 0.18
-3 5 -9 6.22 0.32
-3 5 12 3.13 0.19
-3 5 12 3.11 0.25
3 5 -12 3.49 0.28
3 5 9 6.87 0.33
-3 -5 12 3.08 0.25
3 -5 9 6.54 0.31
3 -5 9 5.77 0.25
-3 5 -10 0.07 0.14
-3 5 13 2.37 0.19
-3 5 13 2.19 0.23
3 5 -13 2.31 0.26
3 5 10 0.07 0.11
-3 -5 13 2.48 0.26
3 -5 10 0.19 0.13
3 -5 10 0.2 0.1
-3 5 -11 0.09 0.14
-3 5 14 11.27 0.44
3 5 -14 11.61 0.45
3 5 11 0.03 0.13
-3 -5 14 12.35 0.45
3 -5 11 -0.11 0.12
3 -5 11 0.04 0.09
-3 5 -12 0.29 0.16
-3 5 15 2.58 0.27
3 5 -15 2.73 0.3
3 5 12 0.11 0.14
-3 -5 15 2.75 0.28
3 -5 12 0.37 0.16
3 -5 12 0.21 0.12
-3 5 -13 2.12 0.27
-3 5 16 5.16 0.35
3 5 -16 5.49 0.35
3 5 13 2.23 0.28
-3 -5 16 5.19 0.33
3 -5 13 2.28 0.27
-3 5 -14 0 0.17
-3 5 17 1.92 0.26
3 5 -17 1.93 0.27
3 5 14 0.14 0.16
-3 -5 17 1.76 0.26
3 -5 14 0.03 0.15
-3 5 -15 0.07 0.18
-3 5 18 0.31 0.17
3 5 -18 0.24 0.2
3 5 15 0 0.17
-3 -5 18 0.44 0.17
3 -5 15 0.14 0.17
-3 5 -16 -0.11 0.17
-3 5 19 0.33 0.2
3 5 -19 0.13 0.2
3 5 16 0 0.17
-3 -5 19 0.22 0.18
3 -5 16 0.08 0.17
-3 5 -17 0.22 0.22
-3 5 20 0.79 0.23
3 5 -20 0.59 0.24
3 5 17 0.1 0.18
-3 -5 20 0.5 0.2
3 -5 17 -0.09 0.16
-3 5 -18 0.49 0.25
-3 5 21 1.01 0.26
3 5 -21 0.85 0.26
3 5 18 0.45 0.22
-3 -5 21 0.92 0.24
3 -5 18 0.51 0.21
-5 5 2 10.44 0.26
-5 5 2 9.04 0.23
-5 5 3 10.63 0.27
5 5 -3 11.88 0.21
5 5 -3 10.4 0.28
5 5 -2 12.13 0.23
5 5 -2 10.33 0.28
-5 -5 2 11.96 0.24
-5 -5 3 4.58 0.16
5 -5 -3 10.56 0.28
5 -5 -2 10.76 0.28
-5 5 1 0.36 0.08
-5 5 1 0.27 0.08
-5 5 4 0.22 0.07
-5 5 4 0.33 0.07
5 5 -4 0.29 0.05
5 5 -4 0.22 0.09
5 5 -1 0.32 0.07
5 5 -1 0.19 0.08
-5 -5 1 0.41 0.06
-5 -5 4 0.3 0.08
5 -5 -4 0.33 0.08
5 -5 -1 0.25 0.08
-5 5 0 8.43 0.24
-5 5 0 10.55 0.28
-5 5 5 24.51 0.42
-5 5 5 28 0.33
5 5 -5 23.49 0.22
5 5 0 10.26 0.25
5 5 0 7.85 0.25
-5 -5 0 10.89 0.2
-5 -5 5 29.87 0.44
5 -5 -5 22.67 0.39
5 -5 0 8.62 0.27
-5 5 -1 4.8 0.2
-5 5 -1 5.31 0.22
-5 5 6 3.65 0.19
-5 5 6 4.03 0.14
5 5 -6 3.6 0.08
5 5 -6 3.31 0.2
5 5 1 5.78 0.21
5 5 1 4.51 0.2
-5 -5 -1 5.85 0.14
-5 -5 6 4.38 0.2
5 -5 -6 3.36 0.17
-5 5 -2 6.27 0.22
-5 5 -2 7.08 0.26
-5 5 7 12.93 0.33
-5 5 7 13.14 0.22
5 5 -7 13.89 0.36
5 5 2 7.56 0.25
5 5 2 5.76 0.22
-5 -5 -2 7.38 0.14
-5 -5 7 14.31 0.34
5 -5 -7 10.77 0.28
5 -5 2 5.35 0.24
-5 5 -3 1.61 0.17
-5 5 8 0.47 0.09
-5 5 8 1.08 0.1
5 5 -8 1.27 0.16
5 5 3 1.35 0.16
-5 -5 -3 1.43 0.08
-5 -5 8 1.2 0.14
5 -5 -8 0.69 0.11
5 -5 3 1.26 0.16
-5 5 -4 8.18 0.31
-5 5 9 9.73 0.19
5 5 -9 11.26 0.36
5 5 4 8.28 0.3
-5 -5 -4 7.61 0.12
-5 -5 9 10.69 0.33
-5 -5 9 10.08 0.14
5 -5 4 7.86 0.3
-5 5 10 0.22 0.09
-5 5 10 0.02 0.04
-5 5 10 0.31 0.07
5 5 -10 0.31 0.14
5 5 5 13.93 0.39
-5 -5 10 0.04 0.03
5 -5 5 15.6 0.42
-5 5 -6 0.02 0.03
-5 5 11 0.08 0.08
-5 5 11 0.01 0.1
5 5 -11 -0.01 0.13
5 5 6 1.8 0.21
-5 -5 11 -0.01 0.02
5 -5 6 1.6 0.19
5 -5 6 1.44 0.15
-5 5 -7 0.09 0.12
-5 5 12 8.25 0.29
-5 5 12 9.63 0.37
5 5 -12 10.06 0.38
5 5 7 0.27 0.12
-5 -5 12 9.75 0.36
5 -5 7 0.13 0.13
5 -5 7 0.15 0.09
-5 5 -8 0.95 0.19
-5 5 13 4.25 0.23
-5 5 13 5.04 0.31
5 5 -13 5.1 0.31
5 5 8 0.81 0.17
-5 -5 13 4.85 0.29
5 -5 8 0.91 0.18
5 -5 8 0.99 0.14
-5 5 -9 0.96 0.19
-5 5 14 7.7 0.3
-5 5 14 9.2 0.39
5 5 -14 9.84 0.4
5 5 9 0.94 0.18
-5 -5 14 8.93 0.38
5 -5 9 1.11 0.19
5 -5 9 0.73 0.14
-5 5 -10 0.31 0.16
-5 5 15 4.4 0.25
-5 5 15 4.73 0.32
5 5 -15 5.6 0.34
5 5 10 0.3 0.15
-5 -5 15 4.86 0.31
5 -5 10 0.42 0.16
5 -5 10 0.41 0.13
-5 5 -11 -0.06 0.15
-5 5 16 3.01 0.27
5 5 -16 3.17 0.29
5 5 11 -0.06 0.12
-5 -5 16 2.86 0.27
5 -5 11 -0.01 0.14
5 -5 11 -0.02 0.11
-5 5 -12 -0.07 0.15
-5 5 17 -0.05 0.14
5 5 -17 -0.03 0.17
5 5 12 -0.21 0.12
-5 -5 17 -0.04 0.13
5 -5 12 0.04 0.13
5 -5 12 0.15 0.13
-5 5 -13 0.29 0.18
-5 5 18 0.62 0.2
5 5 -18 0.86 0.22
5 5 13 0.1 0.16
-5 -5 18 0.63 0.19
5 -5 13 0.05 0.16
-5 5 -14 1.03 0.25
-5 5 19 0.01 0.16
5 5 -19 0.26 0.2
5 5 14 1.3 0.24
-5 -5 19 0.05 0.15
5 -5 14 1.4 0.24
-5 5 -15 -0.02 0.18
-5 5 20 0.32 0.19
5 5 -20 0.41 0.21
5 5 15 -0.09 0.15
-5 -5 20 0.27 0.17
5 -5 15 0.01 0.17
-5 5 -16 -0.03 0.21
-5 5 21 0.33 0.19
5 5 -21 -0.07 0.2
5 5 16 0.08 0.19
-5 -5 21 -0.16 0.17
5 -5 16 -0.07 0.18
-5 5 22 0.38 0.21
5 5 17 0.08 0.18
-5 -5 22 0.6 0.22
-7 5 3 12.89 0.31
-7 5 3 11.75 0.26
-7 5 4 40.64 0.54
-7 5 4 27.24 0.36
7 5 -4 47.19 0.39
7 5 -4 40.23 0.55
7 5 -3 15.52 0.26
7 5 -3 12.05 0.32
-7 -5 3 13 0.25
-7 -5 4 34.39 0.42
7 -5 -4 39.16 0.54
7 -5 -3 12.65 0.33
-7 5 2 30.31 0.46
-7 5 2 36.72 0.48
-7 5 5 29.94 0.48
-7 5 5 37.57 0.4
7 5 -5 33.02 0.28
7 5 -2 37.65 0.43
7 5 -2 28.16 0.47
-7 -5 2 38.56 0.39
-7 -5 5 36.5 0.47
7 -5 -5 28.47 0.46
7 -5 -2 30.33 0.49
-7 5 1 24.1 0.41
-7 5 1 28.34 0.44
-7 5 6 27.7 0.47
-7 5 6 34.05 0.35
7 5 -6 26.82 0.19
7 5 -6 26.93 0.47
7 5 -1 29.13 0.41
7 5 -1 21.53 0.41
-7 -5 1 29.28 0.31
-7 -5 6 33.05 0.47
7 -5 -6 25.12 0.43
7 -5 -1 11.7 0.32
-7 5 0 9.54 0.28
-7 5 0 11.77 0.32
-7 5 7 22.7 0.44
-7 5 7 26.68 0.29
7 5 -7 24.34 0.46
7 5 0 11.49 0.29
7 5 0 8.54 0.28
-7 -5 0 11.93 0.18
-7 -5 7 26.3 0.45
7 -5 -7 19.86 0.39
7 -5 0 7.75 0.28
-7 5 -1 19.97 0.4
-7 5 -1 23.15 0.44
-7 5 8 0.04 0.04
-7 5 8 0.36 0.06
7 5 -8 0.36 0.12
7 5 1 24.3 0.43
7 5 1 17.8 0.4
-7 -5 -1 23.43 0.2
-7 -5 8 0.27 0.1
7 -5 -8 0.22 0.09
7 -5 1 21.28 0.44
-7 5 -2 2.17 0.19
-7 5 9 30.57 0.53
-7 5 9 55.57 0.35
7 5 -9 54.63 0.71
7 5 2 2.53 0.18
-7 -5 9 54.46 0.7
7 -5 -9 42.16 0.57
7 -5 2 2.03 0.21
-7 5 -3 5.44 0.27
-7 5 10 16.33 0.37
-7 5 10 9.41 0.32
7 5 -10 18.49 0.44
7 5 3 5.53 0.25
-7 -5 10 18.7 0.45
7 -5 3 5.68 0.29
-7 5 -4 20.19 0.48
-7 5 11 15.56 0.37
-7 5 11 16.49 0.44
7 5 -11 18.45 0.46
7 5 4 21.55 0.48
-7 -5 11 17.79 0.45
7 -5 4 22.16 0.49
-7 5 -5 5.7 0.29
-7 5 12 8.14 0.3
-7 5 12 8.46 0.35
7 5 -12 9.59 0.36
7 5 5 9.42 0.36
7 -5 5 9.19 0.37
-7 5 -6 15.12 0.46
-7 5 13 0.02 0.11
-7 5 13 0.18 0.13
7 5 -13 -0.01 0.14
7 5 6 15.7 0.45
-7 -5 13 0.18 0.13
7 -5 6 17.79 0.48
7 -5 6 11.98 0.36
-7 5 -7 0.3 0.14
-7 5 14 10.77 0.34
-7 5 14 12.9 0.44
7 5 -14 13.84 0.45
7 5 7 0.27 0.13
-7 -5 14 12.84 0.44
7 -5 7 0.35 0.14
7 -5 7 0.23 0.11
-7 5 -8 0.41 0.16
-7 5 15 5.59 0.28
-7 5 15 5.8 0.33
7 5 -15 6.35 0.35
7 5 8 0.66 0.17
-7 -5 15 6.2 0.35
7 -5 8 0.74 0.18
7 -5 8 0.5 0.14
-7 5 -9 4.98 0.33
-7 5 16 0.27 0.13
-7 5 16 0.33 0.16
7 5 -16 0.1 0.18
7 5 9 5.81 0.33
-7 -5 16 0.39 0.16
7 -5 9 5.82 0.34
7 -5 9 4.72 0.28
-7 5 -10 7.39 0.39
-7 5 17 3.23 0.25
-7 5 17 3.81 0.31
7 5 -17 4.33 0.33
7 5 10 7.07 0.38
-7 -5 17 3.53 0.31
7 -5 10 8.49 0.39
7 -5 10 6.46 0.33
-7 5 -11 0.83 0.22
-7 5 18 1.34 0.23
7 5 -18 1.66 0.25
7 5 11 0.69 0.19
-7 -5 18 1.42 0.23
7 -5 11 0.89 0.19
7 -5 11 0.78 0.18
-7 5 -12 0.66 0.21
-7 5 19 0.77 0.21
7 5 -19 0.89 0.23
7 5 12 0.73 0.2
-7 -5 19 0.88 0.21
7 -5 12 0.38 0.18
7 -5 12 0.43 0.17
-7 5 -13 0.22 0.19
-7 5 20 0.46 0.19
7 5 -20 0.45 0.21
7 5 13 0.08 0.18
-7 -5 20 0.51 0.19
7 -5 13 -0.03 0.17
-7 5 -14 1.47 0.28
-7 5 21 0.57 0.21
7 5 -21 0.62 0.23
7 5 14 1.35 0.26
-7 -5 21 0.49 0.2
7 -5 14 1.38 0.25
-7 5 -15 0.64 0.25
-7 5 22 0.17 0.19
7 5 15 1.08 0.27
-7 -5 22 0.58 0.22
-7 -5 23 0.17 0.2
-9 5 4 0.08 0.08
-9 5 4 0.17 0.08
-9 5 5 19.33 0.4
-9 5 5 8.24 0.21
9 5 -5 23.86 0.29
9 5 -4 0.14 0.06
9 5 -4 0.17 0.09
-9 -5 4 0.05 0.03
-9 -5 5 23.37 0.37
9 -5 -5 18.35 0.39
9 -5 -4 0.2 0.09
-9 5 3 4.38 0.21
-9 5 3 5.19 0.21
-9 5 6 6.84 0.26
-9 5 6 8.39 0.2
9 5 -6 8.33 0.15
9 5 -6 6.69 0.26
9 5 -3 5.25 0.19
9 5 -3 4.12 0.23
-9 -5 3 5.13 0.17
-9 -5 6 7.83 0.24
9 -5 -6 6.59 0.25
9 -5 -3 2.22 0.17
-9 5 2 54.85 0.66
-9 5 2 66.55 0.68
-9 5 7 7.02 0.27
-9 5 7 9.47 0.2
9 5 -7 8.64 0.3
9 5 -2 66.71 0.62
9 5 -2 50.46 0.66
-9 -5 2 63.16 0.45
-9 -5 7 8.85 0.27
9 -5 -7 7.04 0.26
9 -5 -2 35.15 0.54
-9 5 1 24.02 0.45
-9 5 1 28.93 0.48
-9 5 8 8.37 0.17
9 5 -8 7.41 0.29
9 5 -1 29.6 0.45
9 5 -1 21.5 0.45
-9 -5 1 26.61 0.26
-9 -5 8 8.33 0.28
9 -5 -8 6.27 0.26
9 -5 -1 25.76 0.48
-9 5 0 3.74 0.22
-9 5 0 3.92 0.22
-9 5 9 46.35 0.66
-9 5 9 62.22 0.34
9 5 -9 58.82 0.73
9 5 0 4.53 0.22
-9 -5 9 58.92 0.71
9 -5 -9 46.55 0.63
9 -5 0 4.23 0.25
-9 5 -1 1.29 0.16
-9 5 10 12.41 0.36
9 5 -10 15.83 0.41
9 5 1 1.09 0.15
-9 -5 10 14.27 0.38
9 -5 1 1.07 0.15
-9 5 -2 3.12 0.24
-9 5 11 11.38 0.34
-9 5 11 11.95 0.37
9 5 -11 12.98 0.39
9 5 2 3.63 0.24
-9 -5 11 12.32 0.37
9 -5 2 3.29 0.24
-9 5 -3 13.06 0.41
-9 5 12 1.46 0.18
-9 5 12 1.39 0.18
9 5 -12 1.36 0.19
9 5 3 13.56 0.4
-9 -5 12 1.52 0.18
9 -5 3 12.99 0.4
-9 5 -4 7.77 0.35
-9 5 13 1.27 0.17
-9 5 13 1.2 0.18
9 5 -13 1.43 0.21
9 5 4 7.94 0.33
-9 -5 13 1.17 0.19
9 -5 4 8.24 0.36
-9 5 -5 3.86 0.28
-9 5 14 3.04 0.23
-9 5 14 3.16 0.26
9 5 -14 3.82 0.29
9 5 5 4.13 0.27
-9 -5 14 3.15 0.25
9 -5 5 4.13 0.29
9 -5 5 2.94 0.22
-9 5 -6 7.54 0.36
-9 5 15 5.48 0.28
-9 5 15 4.85 0.29
9 5 -15 5.94 0.35
9 5 6 8.02 0.37
-9 -5 15 5.33 0.33
9 -5 6 7.97 0.36
9 -5 6 6.21 0.3
-9 5 -7 0.15 0.15
-9 5 16 2.68 0.24
-9 5 16 3.28 0.26
9 5 -16 3.72 0.3
9 5 7 0.11 0.14
-9 -5 16 3.17 0.29
9 -5 7 0.08 0.14
9 -5 7 0.09 0.11
-9 5 -8 0.54 0.17
-9 5 17 4.63 0.28
-9 5 17 4.94 0.33
9 5 -17 5.9 0.35
9 5 8 0.37 0.17
-9 -5 17 4.96 0.33
9 -5 8 0.69 0.18
9 -5 8 0.55 0.15
-9 5 -9 0.21 0.17
-9 5 18 0 0.12
-9 5 18 -0.09 0.14
9 5 -18 0.03 0.18
9 5 9 0.12 0.16
-9 -5 18 0.05 0.14
9 -5 9 -0.01 0.15
9 -5 9 0.04 0.12
-9 5 -10 0.66 0.2
-9 5 19 0.25 0.14
-9 5 19 0.37 0.16
9 5 -19 0.42 0.19
9 5 10 0.77 0.21
-9 -5 19 0.35 0.17
9 -5 10 0.44 0.18
9 -5 10 0.51 0.16
-9 5 -11 -0.02 0.18
-9 5 20 3.57 0.33
9 5 -20 3.89 0.34
9 5 11 -0.25 0.14
-9 -5 20 3.36 0.32
9 -5 11 -0.07 0.16
9 -5 11 0.14 0.15
-9 5 -12 1.61 0.27
-9 5 21 3.1 0.32
9 5 -21 4.11 0.35
9 5 12 1.64 0.28
-9 -5 21 3.4 0.32
9 -5 12 1.5 0.26
9 -5 12 1.32 0.23
-9 5 -13 0.34 0.22
-9 5 22 0.13 0.18
9 5 13 0.51 0.2
-9 -5 22 0.03 0.17
9 -5 13 0.5 0.2
-9 5 -14 0.65 0.26
-9 5 23 0.17 0.19
9 5 14 0.62 0.24
-9 -5 23 -0.02 0.18
-11 5 5 59.67 0.73
-11 5 5 72.52 0.65
-11 5 6 12.68 0.35
11 5 -6 15.97 0.25
11 5 -6 12.88 0.36
11 5 -5 72.68 0.57
-11 -5 5 27.91 0.38
-11 -5 6 14.06 0.3
11 -5 -6 11.58 0.34
11 -5 -5 39.74 0.59
-11 5 4 0.44 0.12
-11 5 4 0.7 0.11
-11 5 7 0.03 0.07
-11 5 7 0.24 0.07
11 5 -7 0.17 0.05
11 5 -7 0.03 0.1
11 5 -4 0.49 0.09
11 5 -4 0.25 0.11
-11 -5 4 0.44 0.08
-11 -5 7 0.2 0.08
11 -5 -7 0.12 0.09
11 -5 -4 0.24 0.08
-11 5 3 0.89 0.14
-11 5 3 0.89 0.13
-11 5 8 0.03 0.04
-11 5 8 0.41 0.07
11 5 -8 0.37 0.12
11 5 -3 0.99 0.12
11 5 -3 0.78 0.14
-11 -5 3 0.81 0.08
-11 -5 8 0.49 0.1
11 -5 -8 0.35 0.1
11 -5 -3 0.79 0.14
-11 5 2 1.04 0.14
-11 5 2 1.25 0.16
-11 5 9 4.61 0.24
-11 5 9 8.3 0.16
11 5 -9 7.95 0.3
11 5 -2 1.18 0.14
11 5 -2 0.66 0.13
-11 -5 2 1 0.09
-11 -5 9 8.35 0.28
11 -5 -9 6.54 0.27
11 -5 -2 0.96 0.14
-11 5 1 7.88 0.3
-11 5 1 8.99 0.31
-11 5 10 9.87 0.33
11 5 -10 11.98 0.37
11 5 -1 9.11 0.3
-11 -5 10 11.36 0.34
11 -5 -10 9.72 0.33
11 -5 -1 8.37 0.31
-11 5 0 7.58 0.31
-11 5 11 6.12 0.29
11 5 -11 6.8 0.32
11 5 0 8.3 0.29
-11 -5 11 6.66 0.29
11 -5 0 7.41 0.32
-11 5 -1 37.67 0.65
-11 5 12 3.68 0.23
-11 5 12 3.92 0.26
11 5 -12 4.03 0.28
11 5 1 41.09 0.65
-11 -5 12 4.07 0.26
11 -5 1 40.49 0.67
-11 5 -2 6.33 0.32
-11 5 13 6.7 0.3
-11 5 13 7.12 0.33
11 5 -13 7.73 0.35
11 5 2 6.76 0.32
-11 -5 13 6.54 0.32
11 -5 2 6.99 0.34
-11 5 -3 0.02 0.12
-11 5 14 2.36 0.22
-11 5 14 2.63 0.25
11 5 -14 3 0.27
11 5 3 -0.01 0.12
-11 -5 14 2.34 0.25
11 -5 3 -0.17 0.13
-11 5 -4 1.44 0.21
-11 5 15 15.39 0.44
-11 5 15 15.45 0.48
11 5 -15 19.46 0.51
11 5 4 1.41 0.19
-11 -5 15 16.69 0.5
11 -5 4 1.26 0.19
11 -5 4 0.94 0.16
-11 5 -5 5.06 0.32
-11 5 16 0.56 0.15
-11 5 16 0.5 0.16
11 5 -16 0.76 0.19
11 5 5 5.61 0.33
-11 -5 16 0.76 0.18
11 -5 5 5.96 0.34
11 -5 5 4.43 0.27
-11 5 -6 0.27 0.16
-11 5 17 1.51 0.2
-11 5 17 2.04 0.25
11 5 -17 2.25 0.26
11 5 6 0.27 0.16
-11 -5 17 1.73 0.23
11 -5 6 0.5 0.17
11 -5 6 0.36 0.14
-11 5 -7 2.67 0.28
-11 5 18 0.07 0.12
-11 5 18 0.02 0.14
11 5 -18 -0.15 0.17
11 5 7 2.67 0.27
-11 -5 18 0.06 0.13
11 -5 7 2.79 0.28
11 -5 7 2.57 0.25
-11 5 -8 0.83 0.21
-11 5 19 0.33 0.14
-11 5 19 0.4 0.17
11 5 -19 0.69 0.21
11 5 8 0.78 0.21
-11 -5 19 0.46 0.17
11 -5 8 0.83 0.2
11 -5 8 0.66 0.17
-11 5 -9 0.85 0.22
-11 5 20 0.14 0.14
-11 5 20 0.27 0.17
11 5 -20 0.09 0.18
11 5 9 0.96 0.23
-11 -5 20 0.06 0.15
11 -5 9 0.96 0.22
11 -5 9 0.72 0.19
-11 5 -10 0.46 0.21
-11 5 21 1.49 0.25
11 5 -21 1.62 0.26
11 5 10 0.47 0.2
-11 -5 21 1.22 0.23
11 -5 10 0.28 0.19
11 -5 10 0.41 0.18
-11 5 -11 2.95 0.35
-11 5 22 0.44 0.2
11 5 11 3.11 0.33
-11 -5 22 0.38 0.18
11 -5 11 3.12 0.32
11 -5 11 2.58 0.3
-11 5 -12 0.1 0.21
-11 5 23 0.11 0.18
11 5 12 0.25 0.2
-11 -5 23 0.34 0.18
11 -5 12 0.43 0.2
-11 5 -13 1.03 0.29
-11 5 24 0.05 0.17
11 5 13 1.36 0.29
-11 -5 24 0.06 0.18
-13 5 6 0.11 0.08
-13 5 6 0.23 0.09
-13 5 7 -0.01 0.02
-13 5 7 0.1 0.06
13 5 -7 0.05 0.06
13 5 -7 0.08 0.1
13 5 -6 0.34 0.08
13 5 -6 0.17 0.11
-13 -5 6 0.17 0.07
-13 -5 7 0.08 0.07
13 -5 -7 -0.01 0.03
13 -5 -6 -0.01 0.02
-13 5 5 50.49 0.71
-13 5 5 60.47 0.66
-13 5 8 0.01 0.02
-13 5 8 7.18 0.2
13 5 -8 7.5 0.17
13 5 -8 5.88 0.28
13 5 -5 61.1 0.6
13 5 -5 0 0.02
-13 -5 8 6.6 0.24
13 -5 -8 5.11 0.26
13 -5 -5 41.83 0.64
-13 5 4 15.97 0.43
-13 5 4 18.29 0.4
-13 5 9 9.18 0.2
13 5 -9 7.88 0.31
13 5 -4 17.95 0.37
13 5 -4 0 0.02
-13 -5 4 15.46 0.26
-13 -5 9 8.64 0.28
13 -5 -9 7.45 0.29
13 -5 -4 15.22 0.41
-13 5 3 0.14 0.11
-13 5 3 0.13 0.1
-13 5 10 6.08 0.28
13 5 -10 6.8 0.3
13 5 -3 0.06 0.09
13 5 -3 0.02 0.06
-13 -5 10 6.76 0.27
13 -5 -10 5.72 0.28
13 -5 -3 0.14 0.11
-13 5 2 0.47 0.13
-13 5 2 0.45 0.13
-13 5 11 0.49 0.14
13 5 -11 0.66 0.15
13 5 -2 0.4 0.12
-13 -5 11 0.34 0.12
13 -5 -11 0.4 0.12
13 -5 -2 0.29 0.13
-13 5 1 1.43 0.18
-13 5 12 51.01 0.74
-13 5 12 48.4 0.74
13 5 -12 55.31 0.77
13 5 -1 1.22 0.16
-13 -5 12 51.65 0.73
13 -5 -1 1.11 0.18
-13 5 0 4.49 0.3
-13 5 13 0.66 0.16
-13 5 13 0.85 0.17
13 5 -13 0.95 0.18
13 5 0 5.21 0.28
-13 -5 13 0.9 0.17
13 -5 0 4.94 0.31
-13 5 -1 37.92 0.69
-13 5 14 16.93 0.47
-13 5 14 16.06 0.47
13 5 -14 19.63 0.51
13 5 1 39.89 0.69
-13 -5 14 16.78 0.47
13 -5 1 39.82 0.7
-13 5 -2 2.09 0.24
-13 5 15 0.45 0.13
-13 5 15 0.29 0.14
13 5 -15 0.37 0.18
13 5 2 2.41 0.25
-13 -5 15 0.32 0.14
13 -5 2 2.56 0.27
-13 5 -3 -0.08 0.13
-13 5 16 6.01 0.32
-13 5 16 6.11 0.34
13 5 -16 7.66 0.37
13 5 3 0.04 0.13
-13 -5 16 5.75 0.32
13 -5 3 0.05 0.14
13 -5 3 0.11 0.12
-13 5 -4 0.14 0.15
-13 5 17 0.85 0.17
-13 5 17 0.71 0.18
13 5 -17 0.86 0.21
13 5 4 0.06 0.14
-13 -5 17 0.54 0.17
13 -5 4 0.11 0.15
13 -5 4 0.03 0.11
-13 5 -5 3.42 0.3
-13 5 18 6.16 0.33
-13 5 18 7.25 0.36
13 5 -18 8.89 0.41
13 5 5 3.61 0.29
-13 -5 18 7.51 0.39
13 -5 5 3.64 0.3
13 -5 5 2.97 0.26
-13 5 -6 1.79 0.26
-13 5 19 0.28 0.14
-13 5 19 0.26 0.14
13 5 -19 0.23 0.19
13 5 6 2.02 0.26
-13 -5 19 0.32 0.17
13 -5 6 2.36 0.28
13 -5 6 1.45 0.22
-13 5 -7 2.23 0.29
-13 5 20 -0.05 0.13
-13 5 20 -0.02 0.14
13 5 -20 -0.21 0.16
13 5 7 2.95 0.29
-13 -5 20 -0.17 0.13
13 -5 7 3.64 0.31
13 -5 7 2.32 0.26
-13 5 -8 0.11 0.19
-13 5 21 0.44 0.16
-13 5 21 0.58 0.19
13 5 -21 0.86 0.22
13 5 8 0.01 0.18
-13 -5 21 0.44 0.18
13 -5 8 0.1 0.18
13 -5 8 0.18 0.15
-13 5 -9 0.58 0.23
-13 5 22 1.49 0.23
-13 5 22 1.52 0.25
13 5 9 0.54 0.22
-13 -5 22 1.49 0.26
13 -5 9 0.5 0.2
13 -5 9 0.19 0.17
-13 5 -10 2.26 0.33
-13 5 23 0.53 0.21
13 5 10 2.7 0.32
-13 -5 23 0.99 0.23
13 -5 10 2.95 0.32
-13 5 -11 2.65 0.36
-13 5 24 -0.06 0.17
13 5 11 3.18 0.35
-13 -5 24 0.24 0.19
13 -5 11 3.01 0.34
-15 5 7 -0.01 0.02
-15 5 7 7.26 0.25
-15 5 8 0.01 0.03
-15 5 8 1.65 0.15
15 5 -8 1.65 0.13
15 5 -8 1.36 0.18
15 5 -7 7.33 0.23
15 5 -7 5.69 0.29
-15 -5 7 6.72 0.23
-15 -5 8 1.63 0.16
15 -5 -8 -0.01 0.02
-15 5 6 0 0.02
-15 5 6 12 0.32
-15 5 9 2.58 0.19
15 5 -9 4.36 0.26
15 5 -6 12.05 0.3
15 5 -6 6.95 0.31
-15 -5 6 9.89 0.25
-15 -5 9 4.72 0.23
15 -5 -9 -0.01 0.02
15 -5 -6 10.43 0.37
-15 5 5 0.29 0.12
-15 5 5 0.42 0.12
-15 5 10 2.2 0.2
15 5 -10 2.25 0.22
15 5 -5 0.24 0.11
15 5 -5 0.01 0.03
-15 -5 5 0.21 0.07
-15 -5 10 2.6 0.19
15 -5 -10 2.08 0.21
15 -5 -5 0.17 0.12
-15 5 4 22.19 0.51
-15 5 4 25.23 0.5
-15 5 11 7.68 0.34
15 5 -11 8.58 0.34
15 5 -4 25.31 0.47
-15 -5 11 8.5 0.31
15 -5 -11 7.66 0.33
15 -5 -4 22.45 0.52
-15 5 3 1.39 0.18
-15 5 12 4.1 0.28
15 5 -12 4.72 0.3
15 5 -3 1.46 0.17
-15 -5 12 4.37 0.25
15 -5 -12 4.57 0.28
15 -5 -3 1.26 0.18
-15 5 2 30.12 0.59
-15 5 13 17.05 0.47
-15 5 13 15.65 0.46
15 5 -13 18.1 0.49
15 5 -2 31.13 0.57
-15 -5 13 17.05 0.46
15 -5 -2 29.69 0.61
-15 5 1 2.44 0.27
-15 5 14 15.11 0.45
-15 5 14 14.36 0.44
15 5 -14 18.57 0.5
15 5 -1 2.41 0.24
-15 -5 14 15.76 0.46
15 -5 -1 2.8 0.27
-15 5 0 3.61 0.3
-15 5 15 0.49 0.16
-15 5 15 0.52 0.15
15 5 -15 0.69 0.18
15 5 0 3.87 0.28
-15 -5 15 0.51 0.16
15 -5 0 3.85 0.3
-15 5 -1 11.73 0.45
-15 5 16 0.3 0.15
-15 5 16 0.23 0.14
15 5 -16 0.59 0.18
15 5 1 12.54 0.43
-15 -5 16 0.42 0.15
15 -5 1 12.7 0.44
-15 5 -2 2.1 0.25
-15 5 17 0.7 0.16
-15 5 17 0.86 0.18
15 5 -17 1.29 0.22
15 5 2 1.94 0.24
-15 -5 17 0.76 0.18
15 -5 2 2.2 0.26
15 -5 2 1.57 0.21
-15 5 -3 0.48 0.18
-15 5 18 9.74 0.41
-15 5 18 10.37 0.43
15 5 -18 13.13 0.47
15 5 3 0.53 0.18
-15 -5 18 9.39 0.41
15 -5 3 0.68 0.18
15 -5 3 0.31 0.15
-15 5 -4 0.59 0.19
-15 5 19 2.2 0.25
-15 5 19 2.79 0.28
15 5 -19 3.28 0.31
15 5 4 0.48 0.18
-15 -5 19 2.12 0.25
15 -5 4 0.44 0.18
15 -5 4 0.41 0.16
-15 5 -5 1.26 0.24
-15 5 20 3.98 0.31
-15 5 20 3.83 0.29
15 5 -20 5.32 0.36
15 5 5 1.27 0.23
-15 -5 20 3.88 0.32
15 -5 5 1.52 0.23
15 -5 5 1.12 0.2
-15 5 -6 0.79 0.22
-15 5 21 0.35 0.17
-15 5 21 0.24 0.16
15 5 -21 0.6 0.21
15 5 6 0.93 0.21
-15 -5 21 0.34 0.17
15 -5 6 1.16 0.22
15 -5 6 0.9 0.2
-15 5 -7 2.54 0.33
-15 5 22 0.94 0.2
-15 5 22 0.89 0.22
15 5 7 2.73 0.32
-15 -5 22 1.01 0.23
15 -5 7 3.46 0.32
15 -5 7 2.79 0.3
-15 5 -8 0.42 0.23
-15 5 23 2.54 0.28
-15 5 23 3.26 0.32
15 5 8 0.78 0.24
-15 -5 23 2.82 0.32
15 -5 8 0.54 0.21
-15 5 -9 0.41 0.24
-15 5 24 0.76 0.21
-15 5 24 0.93 0.23
15 5 9 0.49 0.23
-15 -5 24 0.84 0.22
15 -5 9 0.54 0.22
-15 5 -10 -0.15 0.23
-15 5 25 1.25 0.25
15 5 10 0.29 0.22
-15 -5 25 0.85 0.25
15 -5 10 0.11 0.21
-17 5 8 7.82 0.34
-17 5 8 9.68 0.29
-17 5 9 0.28 0.13
-17 5 9 0.13 0.08
17 5 -9 0.25 0.08
17 5 -9 0.25 0.14
17 5 -8 10.05 0.27
17 5 -8 8.05 0.35
-17 -5 8 8.51 0.26
-17 -5 9 0.13 0.08
17 -5 -9 0.16 0.11
17 -5 -8 8.1 0.35
-17 5 7 1.42 0.19
-17 5 7 1.45 0.16
-17 5 10 0.04 0.1
17 5 -10 0.06 0.12
17 5 -7 1.44 0.15
17 5 -7 1.12 0.18
-17 -5 7 1.1 0.14
-17 -5 10 0.03 0.08
17 -5 -10 -0.06 0.1
17 -5 -7 1.2 0.17
-17 5 6 0.83 0.16
-17 5 6 1.05 0.16
-17 5 11 0.25 0.14
17 5 -11 0.42 0.14
17 5 -6 1.13 0.15
17 5 -6 0.96 0.18
-17 -5 11 0.57 0.12
17 -5 -11 0.29 0.12
17 -5 -6 1.01 0.16
-17 5 5 3.1 0.26
-17 5 5 3.22 0.25
-17 5 12 0.32 0.14
17 5 -12 0.56 0.15
17 5 -5 3.43 0.22
17 5 -5 2.88 0.25
-17 -5 12 0.53 0.13
17 -5 -12 0.44 0.14
17 -5 -5 3.21 0.27
-17 5 4 5.03 0.3
-17 5 13 22.15 0.55
17 5 -13 23.8 0.54
17 5 -4 5.06 0.28
-17 -5 13 24.95 0.54
17 -5 -13 20.86 0.53
17 -5 -4 4.74 0.3
-17 5 3 1.74 0.22
-17 5 14 0.03 0.13
17 5 -14 0.08 0.15
17 5 -3 1.71 0.21
-17 -5 14 0.06 0.11
17 -5 -3 1.41 0.21
-17 5 2 22.64 0.57
-17 5 15 6.77 0.33
-17 5 15 6.33 0.32
17 5 -15 8.08 0.37
17 5 -2 23.93 0.55
-17 -5 15 6.66 0.33
17 -5 -2 21.28 0.54
-17 5 1 0.56 0.17
-17 5 16 2.34 0.25
-17 5 16 1.85 0.23
17 5 -16 2.24 0.25
17 5 -1 0.67 0.17
-17 -5 16 2.11 0.23
17 -5 -1 0.6 0.17
-17 5 0 0.24 0.15
-17 5 17 1.47 0.21
-17 5 17 1.37 0.2
17 5 -17 1.89 0.24
17 5 0 0.13 0.14
-17 -5 17 1.71 0.22
17 -5 0 0.09 0.15
-17 5 -1 -0.07 0.13
-17 5 18 0.15 0.15
-17 5 18 0.06 0.13
17 5 -18 0.2 0.17
17 5 1 0 0.12
-17 -5 18 0.14 0.13
17 -5 1 0.14 0.15
17 -5 1 -0.05 0.12
-17 5 -2 1.07 0.22
-17 5 19 0.14 0.14
-17 5 19 0 0.12
17 5 -19 0.1 0.17
17 5 2 1.07 0.21
-17 -5 19 0.01 0.13
17 -5 2 1.07 0.21
17 -5 2 0.98 0.2
-17 5 -3 0.9 0.22
-17 5 20 1.17 0.21
-17 5 20 1.19 0.21
17 5 -20 1.41 0.24
17 5 3 0.87 0.21
-17 -5 20 1.03 0.2
17 -5 3 1.2 0.22
17 -5 3 0.96 0.2
-17 5 -4 1.47 0.26
-17 5 21 0.22 0.16
-17 5 21 0.57 0.18
17 5 4 1.59 0.24
-17 -5 21 0.53 0.18
17 -5 4 1.61 0.24
17 -5 4 1.31 0.23
-17 5 -5 -0.18 0.18
-17 5 22 0.77 0.2
-17 5 22 0.79 0.2
17 5 5 0.17 0.18
-17 -5 22 0.92 0.21
17 -5 5 0.02 0.17
17 -5 5 0.01 0.15
-17 5 -6 0.26 0.21
-17 5 23 0.37 0.18
-17 5 23 0.28 0.17
17 5 6 0.41 0.22
-17 -5 23 0.24 0.16
17 -5 6 0.6 0.21
-17 5 -7 1.87 0.31
-17 5 24 0.09 0.17
-17 5 24 0.13 0.16
17 5 7 2.59 0.34
-17 -5 24 0.23 0.16
17 -5 7 1.7 0.27
-17 5 -8 2.11 0.34
-17 5 25 0.24 0.19
-17 5 25 0.58 0.21
17 5 8 2.63 0.35
-17 -5 25 0.36 0.19
17 -5 8 2.19 0.32
-19 5 9 6.19 0.32
-19 5 9 7.47 0.28
-19 5 10 0.56 0.16
19 5 -10 0.51 0.16
19 5 -9 6.05 0.33
-19 -5 9 6.5 0.25
-19 -5 10 0.64 0.12
19 -5 -10 0.55 0.16
19 -5 -9 6.5 0.34
-19 5 8 8.77 0.38
-19 5 8 9.54 0.33
-19 5 11 0.49 0.15
19 5 -11 0.37 0.16
19 5 -8 9.44 0.3
19 5 -8 8.28 0.38
-19 -5 11 0.38 0.11
19 -5 -11 0.35 0.13
19 -5 -8 7.84 0.36
-19 5 7 1.28 0.2
-19 5 7 1.45 0.19
-19 5 12 4.6 0.28
19 5 -12 4.81 0.3
19 5 -7 1.08 0.16
19 5 -7 1.23 0.2
-19 -5 12 4.75 0.25
19 -5 -12 4.49 0.28
19 -5 -7 1.02 0.18
-19 5 6 11.99 0.43
-19 5 6 13.25 0.41
-19 5 13 1.92 0.24
19 5 -13 2.25 0.24
19 5 -6 12.7 0.38
19 5 -6 10.67 0.42
-19 -5 13 2.33 0.21
19 -5 -13 2.17 0.24
19 -5 -6 11.06 0.41
-19 5 5 2.36 0.26
-19 5 14 0.97 0.19
19 5 -14 1.37 0.21
19 5 -5 2.66 0.24
-19 -5 14 1.14 0.17
19 -5 -14 1.21 0.19
19 -5 -5 2.2 0.24
-19 5 4 2.43 0.26
-19 5 15 6.27 0.33
19 5 -15 7.45 0.35
19 5 -4 2.86 0.26
-19 -5 15 6.78 0.33
19 -5 -4 2.91 0.28
-19 5 3 0.16 0.15
-19 5 16 8.36 0.39
-19 5 16 8.11 0.38
19 5 -16 9.51 0.41
19 5 -3 0 0.12
-19 -5 16 7.64 0.36
19 -5 -3 -0.11 0.14
-19 5 2 5.42 0.34
-19 5 17 2.98 0.26
-19 5 17 2.75 0.25
19 5 -17 3.87 0.29
19 5 -2 5.18 0.32
-19 -5 17 3.22 0.27
19 -5 -2 5.2 0.34
-19 5 1 0.94 0.21
-19 5 18 0.46 0.16
-19 5 18 0.47 0.17
19 5 -18 0.63 0.19
19 5 -1 0.76 0.19
-19 -5 18 0.48 0.15
19 -5 -1 0.76 0.19
-19 5 0 -0.18 0.14
-19 5 19 -0.08 0.13
-19 5 19 0.04 0.13
19 5 -19 0.06 0.18
19 5 0 -0.02 0.14
-19 -5 19 -0.05 0.11
19 -5 0 -0.18 0.14
19 -5 0 0.01 0.12
-19 5 -1 0.02 0.16
-19 5 20 -0.09 0.13
-19 5 20 0.04 0.12
19 5 -20 0.03 0.16
19 5 1 0.12 0.16
-19 -5 20 0.04 0.13
19 -5 1 0.15 0.16
19 -5 1 0.07 0.13
-19 5 -2 0.32 0.19
-19 5 21 0.34 0.17
-19 5 21 0.74 0.19
19 5 2 0.3 0.18
-19 -5 21 0.7 0.18
19 -5 2 0.65 0.2
19 -5 2 0.43 0.16
-19 5 -3 1.82 0.29
-19 5 22 0.03 0.15
-19 5 22 0 0.14
19 5 3 1.38 0.24
-19 -5 22 0.02 0.13
19 -5 3 1.72 0.25
19 -5 3 1.52 0.25
-19 5 -4 0.47 0.22
-19 5 23 0.38 0.18
-19 5 23 0.5 0.18
19 5 4 0.42 0.2
-19 -5 23 0.46 0.19
19 -5 4 0.42 0.19
-19 5 -5 0.24 0.22
-19 5 24 0.18 0.18
-19 5 24 0 0.15
19 5 5 0.29 0.19
-19 -5 24 0.18 0.17
19 -5 5 0.41 0.2
-19 5 -6 0.4 0.24
-19 5 25 -0.07 0.15
-19 5 25 -0.06 0.15
19 5 6 0.34 0.22
-19 -5 25 0.07 0.17
19 -5 6 0.14 0.19
-19 5 26 0.35 0.19
-21 5 10 0.07 0.13
-21 5 11 8.91 0.39
21 5 -11 8.67 0.4
21 5 -10 0.1 0.15
-21 -5 11 9.56 0.32
21 -5 -11 8.84 0.39
21 -5 -10 -0.02 0.12
-21 5 9 6.94 0.36
-21 5 9 6.91 0.3
-21 5 12 0.31 0.14
21 5 -12 0.59 0.17
21 5 -9 5.68 0.34
-21 -5 12 0.62 0.13
21 -5 -12 0.47 0.16
21 -5 -9 6.57 0.35
-21 5 8 0.99 0.2
-21 5 8 1.18 0.18
-21 5 13 -0.03 0.12
21 5 -13 0.07 0.14
21 5 -8 1.32 0.17
21 5 -8 1.07 0.2
-21 -5 13 0.12 0.1
21 -5 -13 0.03 0.11
21 -5 -8 1 0.19
-21 5 7 16.29 0.46
-21 5 14 0.74 0.18
21 5 -14 1.19 0.2
21 5 -7 16.41 0.44
21 5 -7 12.96 0.48
-21 -5 14 1.04 0.16
21 -5 -14 1.04 0.19
21 -5 -7 14.04 0.48
-21 5 6 5.56 0.32
-21 5 15 8.71 0.39
21 5 -15 9.99 0.41
21 5 -6 5.48 0.31
-21 -5 15 9.42 0.38
21 -5 -15 8.03 0.37
21 -5 -6 5.04 0.31
-21 5 5 8.27 0.38
-21 5 16 6.47 0.34
21 5 -16 7.8 0.38
21 5 -5 8.96 0.38
-21 -5 16 7.12 0.35
21 -5 -5 7.34 0.38
-21 5 4 0.94 0.21
-21 5 17 0.8 0.18
-21 5 17 0.72 0.17
21 5 -17 0.91 0.2
21 5 -4 0.49 0.17
-21 -5 17 0.74 0.17
21 -5 -4 0.5 0.18
-21 5 3 2.79 0.28
-21 5 18 0.66 0.19
-21 5 18 0.63 0.17
21 5 -18 0.77 0.2
21 5 -3 3.56 0.29
-21 -5 18 0.53 0.16
21 -5 -3 3.57 0.31
-21 5 2 0.81 0.2
-21 5 19 0.45 0.17
-21 5 19 0.51 0.17
21 5 -19 0.29 0.19
21 5 -2 0.57 0.19
-21 -5 19 0.33 0.16
21 -5 -2 0.65 0.19
-21 5 1 0.97 0.22
-21 5 20 0.58 0.18
-21 5 20 0.59 0.18
21 5 -20 0.96 0.21
21 5 -1 1.15 0.22
-21 -5 20 0.8 0.18
21 -5 -1 0.77 0.2
21 -5 -1 0.85 0.2
-21 5 0 1.46 0.26
-21 5 21 -0.03 0.14
-21 5 21 0.08 0.14
21 5 0 1.5 0.24
-21 -5 21 0.02 0.13
21 -5 0 1.64 0.24
21 -5 0 1.27 0.23
-21 5 -1 0.3 0.2
-21 5 22 -0.04 0.14
-21 5 22 0.07 0.14
21 5 1 0.63 0.2
-21 -5 22 0.08 0.15
21 -5 1 0.57 0.2
21 -5 1 0.35 0.17
-21 5 -2 0.99 0.26
-21 5 23 0.97 0.22
-21 5 23 1.18 0.23
21 5 2 1.22 0.25
-21 -5 23 1.17 0.23
21 -5 2 0.63 0.21
-21 5 -3 -0.02 0.21
-21 5 24 -0.09 0.15
-21 5 24 -0.11 0.14
21 5 3 0.05 0.19
-21 -5 24 -0.05 0.14
21 -5 3 0.14 0.19
-21 5 -4 2.1 0.33
-21 5 25 -0.03 0.16
-21 5 25 0.04 0.16
21 5 4 2.22 0.32
-21 -5 25 0.08 0.16
21 -5 4 1.64 0.28
-21 5 26 -0.09 0.16
21 5 5 0.46 0.24
-21 -5 26 0.07 0.17
21 -5 5 0.27 0.21
-23 5 11 3.17 0.28
-23 5 12 0.15 0.14
23 5 -12 0.14 0.15
23 5 -11 2.54 0.27
23 -5 -12 0.07 0.12
23 -5 -11 2.42 0.24
-23 5 10 3.28 0.27
-23 5 13 0.08 0.13
23 5 -13 0.02 0.13
23 5 -10 3.57 0.3
-23 -5 13 0.22 0.11
23 -5 -13 0.12 0.12
23 -5 -10 3.44 0.29
-23 5 9 0.54 0.17
-23 5 9 0.71 0.16
-23 5 14 0.79 0.18
23 5 -14 0.84 0.18
23 5 -9 0.44 0.18
-23 -5 14 0.88 0.16
23 -5 -14 0.81 0.18
23 -5 -9 0.46 0.17
-23 5 8 1.31 0.2
-23 5 15 1.11 0.2
23 5 -15 1.11 0.2
23 5 -8 1.32 0.19
23 5 -8 0.81 0.2
-23 -5 15 1.15 0.18
23 -5 -15 1.14 0.2
23 -5 -8 1.1 0.21
-23 5 7 5.75 0.33
-23 5 16 1.45 0.22
23 5 -16 1.56 0.23
23 5 -7 5.83 0.31
-23 -5 16 1.51 0.2
23 -5 -16 1.45 0.22
23 -5 -7 5.6 0.35
-23 5 6 9.5 0.41
-23 5 17 0.02 0.14
23 5 -17 0 0.15
23 5 -6 9.72 0.4
-23 -5 17 0.04 0.12
23 -5 -17 0.08 0.14
23 -5 -6 8.25 0.41
-23 5 5 6.33 0.37
-23 5 18 1.54 0.22
23 5 -18 2.27 0.28
23 5 -5 6.26 0.34
-23 -5 18 2.02 0.24
23 -5 -5 5.92 0.37
-23 5 4 0.24 0.17
-23 5 19 0.06 0.14
-23 5 19 0.2 0.14
23 5 -19 0.19 0.18
23 5 -4 0.06 0.15
-23 -5 19 0.09 0.13
23 -5 -4 0.08 0.16
-23 5 3 3.31 0.31
-23 5 20 0.8 0.2
-23 5 20 0.76 0.19
23 5 -20 1.15 0.22
23 5 -3 3.28 0.3
-23 -5 20 0.84 0.19
23 -5 -3 3.48 0.32
-23 5 2 0.1 0.17
-23 5 21 -0.15 0.14
-23 5 21 0.04 0.14
23 5 -2 0.17 0.17
-23 -5 21 -0.12 0.14
23 -5 -2 0.05 0.18
23 -5 -2 -0.02 0.15
-23 5 1 0.34 0.18
-23 5 22 -0.13 0.14
-23 5 22 0.05 0.14
23 5 -1 0.25 0.18
-23 -5 22 0.05 0.15
23 -5 -1 0.22 0.18
23 -5 -1 0.18 0.16
-23 5 0 0.31 0.2
-23 5 23 0.55 0.2
-23 5 23 0.46 0.18
23 5 0 0.17 0.17
-23 -5 23 0.6 0.2
23 -5 0 0.13 0.17
-23 5 -1 0.06 0.2
-23 5 24 0.3 0.17
-23 5 24 0.16 0.16
23 5 1 0.16 0.18
-23 -5 24 0.17 0.17
23 -5 1 0.05 0.18
-23 5 -2 0.13 0.21
-23 5 25 0.17 0.18
-23 5 25 0 0.15
23 5 2 0.42 0.21
-23 -5 25 -0.01 0.17
23 -5 2 0.19 0.21
-23 5 26 0.15 0.18
23 5 3 0.13 0.19
-23 -5 26 -0.08 0.16
23 -5 3 0.07 0.2
-25 5 12 0.88 0.2
-25 5 13 0.31 0.15
25 5 -13 0.58 0.18
25 5 -12 0.57 0.2
25 -5 -13 0.16 0.15
25 -5 -12 0.96 0.2
-25 5 11 0.7 0.19
-25 5 14 0.13 0.15
25 5 -14 0.26 0.16
25 5 -11 0.83 0.21
25 -5 -14 0.26 0.16
25 -5 -11 0.93 0.19
-25 5 15 0.37 0.17
25 5 -15 0.39 0.18
25 5 -10 0.26 0.17
-25 -5 15 0.43 0.14
25 -5 -15 0.31 0.16
25 -5 -10 0.39 0.17
-25 5 9 3.47 0.28
-25 5 16 0.2 0.16
25 5 -16 0.34 0.17
25 5 -9 2.84 0.3
-25 -5 16 0.31 0.13
25 -5 -16 0.2 0.15
25 -5 -9 3.07 0.3
-25 5 8 1.91 0.24
-25 5 17 0.14 0.15
25 5 -17 -0.04 0.14
25 5 -8 1.49 0.21
25 5 -8 1.16 0.23
-25 -5 17 0.12 0.14
25 -5 -17 0.07 0.15
25 -5 -8 1.52 0.24
-25 5 7 0.6 0.18
-25 5 18 0.23 0.14
25 5 -18 0.14 0.18
25 5 -7 0.56 0.17
-25 -5 18 0.18 0.14
25 -5 -18 0.24 0.16
25 -5 -7 0.49 0.19
-25 5 6 2.69 0.29
-25 5 19 -0.04 0.14
25 5 -19 -0.11 0.16
25 5 -6 2.73 0.29
-25 -5 19 -0.07 0.11
25 -5 -6 2.19 0.27
-25 5 5 4.39 0.35
-25 5 20 0.77 0.19
25 5 -20 0.77 0.22
25 5 -5 5.08 0.34
-25 -5 20 0.72 0.17
25 -5 -5 4.76 0.36
-25 5 4 0.08 0.17
-25 5 21 0.64 0.21
-25 5 21 0.83 0.2
25 5 -4 -0.03 0.15
-25 -5 21 0.81 0.2
25 -5 -4 -0.02 0.16
-25 5 3 0.1 0.17
-25 5 22 0.06 0.16
-25 5 22 0.15 0.16
25 5 -3 0.05 0.17
-25 -5 22 0 0.14
25 -5 -3 -0.01 0.17
25 -5 -3 -0.02 0.15
-25 5 2 0.03 0.17
-25 5 23 0.23 0.18
-25 5 23 -0.02 0.14
25 5 -2 -0.3 0.15
-25 -5 23 -0.06 0.15
25 -5 -2 -0.11 0.14
-25 5 1 0.05 0.18
-25 5 24 -0.02 0.15
-25 5 24 0.02 0.14
25 5 -1 -0.32 0.16
-25 -5 24 -0.15 0.14
25 -5 -1 -0.01 0.15
-25 5 0 -0.16 0.19
-25 5 25 -0.07 0.16
-25 5 25 0.01 0.16
25 5 0 0.12 0.2
-25 -5 25 0.08 0.17
25 -5 0 0.26 0.18
-27 5 13 -0.08 0.14
-27 5 14 0.34 0.17
27 5 -14 0.6 0.2
27 5 -13 -0.07 0.15
27 -5 -14 0.42 0.16
27 -5 -13 -0.18 0.13
-27 5 15 0.62 0.19
27 5 -15 0.6 0.19
27 5 -12 0.1 0.18
27 -5 -15 0.29 0.16
27 -5 -12 0.32 0.17
-27 5 16 -0.08 0.12
27 5 -16 -0.07 0.15
27 5 -11 0.13 0.17
27 -5 -16 -0.08 0.12
27 -5 -11 -0.01 0.15
-27 5 17 0.41 0.17
27 5 -17 0.62 0.2
27 5 -10 0.67 0.22
-27 -5 17 0.49 0.16
27 -5 -17 0.55 0.19
27 -5 -10 1.01 0.22
-27 5 18 0.39 0.17
27 5 -18 0.54 0.2
27 5 -9 0.19 0.18
-27 -5 18 0.5 0.17
27 -5 -18 0.33 0.17
27 -5 -9 0.23 0.18
-27 5 8 2.54 0.29
-27 5 19 2.13 0.27
27 5 -19 2.69 0.32
27 5 -8 1.77 0.27
-27 -5 19 2.61 0.28
27 -5 -19 2.21 0.27
27 -5 -8 2 0.27
-27 5 7 0.46 0.19
-27 5 20 0.44 0.18
27 5 -7 0.07 0.16
-27 -5 20 0.58 0.18
27 -5 -20 0.64 0.2
27 -5 -7 0.05 0.18
-27 5 6 -0.05 0.16
-27 5 21 0.49 0.19
27 5 -6 -0.24 0.16
-27 -5 21 0.87 0.2
27 -5 -6 0.03 0.18
-27 5 5 0.24 0.19
-27 5 22 1.02 0.22
27 5 -5 0.18 0.18
-27 -5 22 0.99 0.21
27 -5 -5 0.05 0.18
-27 5 4 0.22 0.2
-27 5 23 0.49 0.19
-27 5 23 0.72 0.21
27 5 -4 0 0.17
-27 -5 23 0.85 0.21
27 -5 -4 0.08 0.17
-27 5 3 0.98 0.24
-27 5 24 0 0.18
-27 5 24 -0.05 0.14
27 5 -3 0.88 0.24
-27 -5 24 0.12 0.17
27 -5 -3 0.69 0.22
-27 5 25 -0.09 0.17
-27 5 25 -0.14 0.14
27 5 -2 0.72 0.24
-27 -5 25 -0.12 0.15
27 -5 -2 0.07 0.19
-29 5 15 0.78 0.21
29 5 -15 0.62 0.22
29 5 -14 0.24 0.19
29 -5 -15 0.56 0.19
29 -5 -14 0.18 0.15
-29 5 16 -0.04 0.15
29 5 -16 -0.14 0.16
29 5 -13 -0.15 0.17
29 -5 -16 -0.09 0.14
29 -5 -13 0.08 0.16
-29 5 17 0.34 0.18
29 5 -17 0.53 0.2
29 5 -12 0.69 0.23
29 -5 -17 0.55 0.2
29 -5 -12 0.81 0.22
-29 5 18 0.15 0.17
29 5 -18 0.22 0.2
29 5 -11 0.29 0.2
29 -5 -18 0.14 0.16
29 -5 -11 0.43 0.2
-29 5 19 4.37 0.35
29 5 -19 4.76 0.37
29 5 -10 0.9 0.23
-29 -5 19 4.28 0.33
29 -5 -19 3.63 0.33
29 -5 -10 1.03 0.24
-29 5 20 0.99 0.23
29 5 -9 0.64 0.23
-29 -5 20 0.8 0.2
29 -5 -20 0.83 0.22
29 -5 -9 1.34 0.26
-29 5 21 0.3 0.18
29 5 -8 0.96 0.24
-29 -5 21 0.08 0.15
29 -5 -21 -0.06 0.16
29 -5 -8 1.57 0.27
-29 5 7 0.22 0.19
-29 5 22 0.73 0.22
-29 -5 22 0.87 0.21
29 -5 -22 0.63 0.21
29 -5 -7 0.15 0.19
-29 5 6 0.27 0.19
-29 5 23 1.23 0.25
29 5 -6 0.05 0.18
-29 -5 23 0.57 0.2
29 -5 -6 0.2 0.19
-29 5 5 0.23 0.19
-29 5 24 0.3 0.19
29 5 -5 0.23 0.2
-29 -5 24 0.46 0.19
29 -5 -5 0.08 0.18
31 5 -16 0.12 0.19
31 5 -15 0.07 0.2
31 -5 -16 0.01 0.16
31 -5 -15 0.07 0.17
-31 5 17 0.46 0.2
31 5 -17 1.21 0.26
31 5 -14 0.11 0.2
31 -5 -17 0.74 0.2
31 -5 -14 0.42 0.2
-31 5 18 0.05 0.17
31 5 -18 0.24 0.2
31 5 -13 -0.14 0.18
31 -5 -18 0.17 0.18
31 -5 -13 -0.03 0.16
-31 5 19 2.18 0.3
31 5 -12 0.61 0.23
31 -5 -19 1.69 0.28
31 -5 -12 0.63 0.22
-31 5 20 0.1 0.17
31 5 -11 0.32 0.2
31 -5 -20 0.11 0.18
31 -5 -11 0.23 0.19
-31 5 21 0.14 0.18
31 5 -10 -0.05 0.18
-31 -5 21 0.24 0.17
31 -5 -21 0.05 0.18
31 -5 -10 0.19 0.2
-31 5 22 0.07 0.17
31 5 -9 0.03 0.18
-31 -5 22 0.15 0.17
31 -5 -22 0.02 0.19
31 -5 -9 -0.03 0.19
-31 -5 23 0.85 0.22
31 -5 -23 0.57 0.23
33 5 -17 -0.04 0.2
33 5 -16 -0.13 0.19
33 -5 -17 -0.12 0.15
33 -5 -16 0.17 0.18
33 5 -18 0.07 0.21
33 5 -15 -0.03 0.2
33 -5 -18 0.03 0.18
33 -5 -15 0.17 0.2
-33 5 19 0.08 0.19
33 -5 -19 0.02 0.17
33 -5 -14 0.06 0.18
33 -5 -20 0.05 0.18
33 -5 -13 1.72 0.29
0 6 0 14.02 0.29
0 6 0 15.54 0.34
0 -6 0 15.9 0.33
0 6 -1 49.04 0.51
0 6 -1 56.38 0.64
0 6 1 51.8 0.56
0 6 1 53.38 0.59
0 -6 -1 53.38 0.57
0 -6 1 56.81 0.63
0 6 -2 1.08 0.11
0 6 -2 1.37 0.16
0 6 2 1.21 0.14
0 6 2 1.25 0.15
0 -6 -2 1.06 0.13
0 -6 2 1.41 0.15
0 6 -3 37.84 0.43
0 6 -3 45.5 0.61
0 6 3 43 0.56
0 6 3 39.49 0.5
0 -6 -3 39.29 0.47
0 -6 3 46.56 0.61
0 6 -4 0.38 0.08
0 6 -4 0.55 0.13
0 6 4 0.49 0.11
0 6 4 0.58 0.1
0 -6 -4 0.39 0.08
0 -6 4 0.69 0.13
0 6 -5 6.39 0.28
0 6 5 6.01 0.26
0 6 5 5.13 0.21
0 -6 -5 2.44 0.14
0 -6 5 6.61 0.27
0 6 6 14.77 0.4
0 6 6 12.14 0.3
0 -6 -6 4.6 0.17
0 -6 6 11.66 0.36
0 6 -7 -0.02 0.02
0 6 7 5.09 0.26
0 6 7 3.93 0.2
0 -6 -7 1.89 0.13
0 -6 7 0 0.03
0 6 -8 0.08 0.1
0 6 8 0.2 0.11
0 6 8 0.17 0.09
0 -6 -8 0.22 0.07
0 -6 8 0 0.03
0 -6 8 0.18 0.07
0 6 -9 1.27 0.2
0 6 9 1.58 0.2
0 6 9 1.01 0.13
0 -6 9 1.49 0.19
0 -6 9 1.13 0.13
0 6 -10 2.71 0.28
0 6 10 2.89 0.25
0 6 10 2.01 0.18
0 -6 10 3.01 0.27
0 6 -11 -0.23 0.14
0 6 11 0.01 0.11
0 -6 11 0.01 0.12
0 6 -12 2.27 0.26
0 6 12 2.1 0.25
0 -6 12 2.14 0.26
0 6 -13 0.42 0.18
0 6 13 0.33 0.16
0 -6 13 0.19 0.16
0 6 -14 1.69 0.26
0 6 14 1.41 0.23
0 -6 14 1.54 0.24
0 6 -15 0.01 0.16
0 6 15 0.16 0.16
0 -6 15 0.15 0.16
0 6 -16 0.97 0.24
0 6 16 0.82 0.22
0 -6 16 0.95 0.23
0 6 -17 0.16 0.21
0 6 17 0.05 0.16
0 -6 17 0.07 0.17
0 6 -18 2.1 0.32
0 6 18 2.39 0.33
0 -6 18 2.48 0.32
0 6 -19 -0.06 0.2
0 6 19 0.05 0.2
0 -6 19 0.08 0.2
-2 6 1 11.76 0.28
-2 6 1 13.78 0.32
2 6 -1 12.43 0.26
2 6 -1 13.13 0.33
-2 -6 1 13.98 0.31
2 -6 -1 12.87 0.31
-2 6 0 0.03 0.07
-2 6 0 -0.01 0.07
-2 6 2 7.31 0.23
-2 6 2 7.84 0.24
2 6 -2 7.21 0.2
2 6 -2 7.62 0.26
2 6 0 0.01 0.06
2 6 0 0.06 0.07
-2 -6 0 0.13 0.07
-2 -6 2 8.36 0.26
2 -6 -2 7.21 0.24
2 -6 0 0.03 0.07
-2 6 -1 1.2 0.13
-2 6 -1 1.31 0.15
-2 6 3 0.12 0.08
-2 6 3 0.14 0.08
2 6 -3 0.17 0.06
2 6 -3 0.11 0.09
2 6 1 1.33 0.13
2 6 1 1.23 0.14
-2 -6 -1 0.9 0.11
-2 -6 3 0.19 0.09
2 -6 -3 0.1 0.07
2 -6 1 1.42 0.16
-2 6 -2 4.9 0.19
-2 6 -2 5.94 0.25
-2 6 4 35.97 0.53
-2 6 4 36.42 0.46
2 6 -4 32.49 0.36
2 6 -4 38.16 0.57
2 6 2 6.11 0.23
2 6 2 4.71 0.21
-2 -6 4 40.93 0.57
2 -6 -4 32.04 0.45
2 -6 2 5.62 0.25
-2 6 -3 17.51 0.33
-2 6 -3 20.45 0.44
-2 6 5 30.7 0.51
-2 6 5 27.04 0.39
2 6 -5 27.01 0.32
2 6 -5 32.45 0.54
2 6 3 20.84 0.41
2 6 3 16.74 0.36
-2 -6 -3 13.34 0.26
-2 -6 5 34.72 0.55
2 -6 -5 26.99 0.41
2 -6 3 20.48 0.43
-2 6 -4 15.67 0.31
-2 6 -4 18.8 0.43
-2 6 6 36.41 0.57
-2 6 6 27.8 0.39
2 6 -6 20.68 0.45
2 6 4 17.95 0.41
2 6 4 14.06 0.33
-2 -6 -4 15.15 0.27
-2 -6 6 39.17 0.6
2 -6 -6 31.92 0.45
2 -6 4 18.86 0.44
-2 6 -5 0.55 0.14
-2 6 7 12 0.36
-2 6 7 9.09 0.24
2 6 -7 0.01 0.03
2 6 5 0.63 0.12
2 6 5 0.38 0.11
-2 -6 -5 0.55 0.08
-2 -6 7 13.5 0.4
2 -6 -7 10.19 0.28
2 -6 5 -0.01 0.02
-2 6 -6 0.02 0.03
-2 6 8 42.94 0.68
-2 6 8 34.74 0.45
2 6 6 1.79 0.19
2 6 6 1.47 0.16
-2 -6 -6 1.6 0.13
-2 -6 8 33.57 0.37
2 -6 -8 34.66 0.47
2 -6 6 0.02 0.03
-2 6 -7 0.03 0.04
-2 6 9 0.11 0.11
-2 6 9 0.03 0.08
2 6 -9 -0.02 0.15
2 6 7 0.08 0.1
2 6 7 0.04 0.09
-2 -6 9 0.03 0.03
2 -6 -9 0.14 0.08
2 -6 7 0.02 0.11
2 -6 7 0.07 0.07
-2 6 -8 2.7 0.25
-2 6 10 20.24 0.51
2 6 -10 22.02 0.55
2 6 8 2.34 0.23
2 6 8 2.22 0.19
-2 -6 10 20.83 0.52
2 -6 -10 16.07 0.35
2 -6 8 2.68 0.24
2 -6 8 2.05 0.17
-2 6 -9 0.68 0.18
-2 6 11 3.71 0.28
2 6 -11 3.67 0.29
2 6 9 0.75 0.16
-2 -6 11 3.79 0.27
2 -6 9 0.9 0.17
2 -6 9 0.64 0.12
-2 6 -10 0.02 0.14
-2 6 12 0.17 0.12
2 6 -12 -0.02 0.16
2 6 10 0.03 0.12
-2 -6 12 -0.02 0.12
2 -6 10 -0.02 0.12
-2 6 -11 0.7 0.19
-2 6 13 0.36 0.15
2 6 -13 0.27 0.17
2 6 11 0.8 0.17
-2 -6 13 0.35 0.16
2 -6 11 0.8 0.18
-2 6 -12 1.21 0.22
-2 6 14 1.09 0.2
2 6 -14 1.25 0.23
2 6 12 1.58 0.23
-2 -6 14 1.25 0.22
2 -6 12 1.52 0.23
-2 6 -13 0.07 0.17
-2 6 15 0.57 0.18
2 6 -15 0.65 0.2
2 6 13 0.2 0.15
-2 -6 15 0.51 0.18
2 -6 13 0.12 0.14
-2 6 -14 2.38 0.3
-2 6 16 0.63 0.2
2 6 -16 0.44 0.21
2 6 14 2.76 0.28
-2 -6 16 0.69 0.2
2 -6 14 2.72 0.3
-2 6 -15 0.1 0.19
-2 6 17 0.34 0.19
2 6 -17 0.31 0.2
2 6 15 -0.02 0.16
-2 -6 17 0.25 0.18
2 -6 15 -0.04 0.16
-2 6 -16 1.09 0.26
-2 6 18 1.29 0.26
2 6 -18 1.23 0.26
2 6 16 0.89 0.22
-2 -6 18 1.59 0.26
2 -6 16 1 0.23
-2 6 -17 0.33 0.23
-2 6 19 0.15 0.2
2 6 -19 -0.02 0.22
2 6 17 0.43 0.22
-2 -6 19 0.15 0.19
2 -6 17 0.35 0.21
-2 6 -18 0.69 0.25
-2 6 20 0.59 0.24
2 6 -20 0.43 0.24
2 6 18 1.2 0.28
-2 -6 20 0.45 0.22
2 -6 18 0.72 0.24
-4 6 2 8.16 0.26
-4 6 2 9.51 0.26
4 6 -2 8.83 0.22
4 6 -2 8.43 0.28
-4 -6 2 10.2 0.27
4 -6 -2 8.21 0.27
-4 6 1 5.49 0.21
-4 6 1 6.66 0.23
-4 6 3 2.55 0.17
-4 6 3 2.57 0.16
4 6 -3 2.6 0.12
4 6 -3 2.35 0.19
4 6 -1 6.54 0.2
4 6 -1 5.74 0.23
-4 -6 1 6.76 0.21
-4 -6 3 2.84 0.17
4 -6 -3 2.21 0.17
4 -6 -1 5.85 0.24
-4 6 0 0.31 0.09
-4 6 4 3.61 0.2
-4 6 4 3.65 0.17
4 6 -4 3.21 0.13
4 6 -4 3.7 0.21
4 6 0 0.28 0.08
4 6 0 0.32 0.1
-4 -6 0 0.01 0.02
-4 -6 4 4.36 0.21
4 -6 -4 3.43 0.19
4 -6 0 0.39 0.1
-4 6 -1 5.06 0.2
-4 6 -1 6 0.25
-4 6 5 1.37 0.15
-4 6 5 0.14 0.04
4 6 -5 1.37 0.09
4 6 -5 1.52 0.17
4 6 1 5.74 0.22
4 6 1 4.93 0.23
-4 -6 -1 6.01 0.18
-4 -6 5 1.49 0.16
4 -6 -5 1.24 0.14
4 -6 1 5.51 0.25
-4 6 -2 0.82 0.11
-4 6 -2 0.93 0.14
-4 6 6 2.65 0.2
4 6 -6 2.5 0.1
4 6 -6 1.34 0.14
4 6 2 0.9 0.13
4 6 2 0.79 0.12
-4 -6 -2 1.05 0.11
-4 -6 6 2.82 0.19
4 -6 -6 2.45 0.17
4 -6 2 0.99 0.14
-4 6 -3 2.78 0.17
-4 6 -3 2.74 0.21
-4 6 7 4.88 0.24
-4 6 7 3.49 0.15
4 6 -7 1.7 0.16
4 6 3 3.25 0.21
4 6 3 2.43 0.19
-4 -6 -3 2.89 0.13
-4 -6 7 5.84 0.26
4 -6 -7 4.17 0.21
-4 6 -4 1.34 0.18
-4 6 8 21.55 0.48
-4 6 8 17.75 0.3
4 6 -8 17.23 0.44
4 6 4 1.3 0.16
4 6 4 1.14 0.14
-4 -6 -4 1.25 0.11
-4 -6 8 24.05 0.51
4 -6 -8 17.98 0.37
4 -6 4 0 0.03
-4 6 -5 4.09 0.27
-4 6 9 0.35 0.09
-4 6 9 1.13 0.12
4 6 -9 1.24 0.18
4 6 5 4.41 0.26
4 6 5 3.38 0.22
-4 -6 9 1.34 0.18
4 -6 -9 0.8 0.12
4 -6 5 2.67 0.22
-4 6 -6 1.77 0.2
-4 6 10 0.28 0.09
4 6 -10 1.07 0.19
4 6 6 2.43 0.21
4 6 6 1.43 0.16
-4 -6 10 0.87 0.17
4 -6 -10 0.77 0.12
4 -6 6 2.12 0.22
-4 6 -7 0.23 0.14
-4 6 11 0.6 0.16
4 6 -11 0.44 0.17
4 6 7 0.38 0.13
-4 -6 11 0.39 0.15
4 -6 -11 0.65 0.13
4 -6 7 0.3 0.15
4 -6 7 0.29 0.1
-4 6 -8 0.29 0.15
-4 6 12 0.9 0.17
4 6 -12 0.84 0.2
4 6 8 0.58 0.16
-4 -6 12 0.78 0.17
4 -6 8 0.28 0.14
4 -6 8 0.21 0.1
-4 6 -9 1.19 0.2
-4 6 13 2.1 0.25
4 6 -13 1.96 0.25
4 6 9 1.33 0.2
-4 -6 13 2.32 0.26
4 -6 9 1.47 0.22
4 -6 9 1.06 0.15
-4 6 -10 0.35 0.17
-4 6 14 1.79 0.24
4 6 -14 2.08 0.27
4 6 10 0.35 0.15
-4 -6 14 1.84 0.24
4 -6 10 0.43 0.17
4 -6 10 0.36 0.12
-4 6 -11 1.1 0.22
-4 6 15 0.31 0.15
4 6 -15 0.33 0.18
4 6 11 1.07 0.21
-4 -6 15 0.32 0.16
4 -6 11 1.15 0.21
-4 6 -12 4.3 0.34
-4 6 16 4.51 0.34
4 6 -16 4.13 0.35
4 6 12 3.97 0.33
-4 -6 16 4.38 0.32
4 -6 12 4.24 0.33
-4 6 -13 0.52 0.2
-4 6 17 0.5 0.19
4 6 -17 0.51 0.22
4 6 13 0.37 0.18
-4 -6 17 0.59 0.2
4 -6 13 0.45 0.19
-4 6 -14 1.63 0.28
-4 6 18 0.43 0.19
4 6 -18 0.89 0.24
4 6 14 1.57 0.26
-4 -6 18 0.56 0.21
4 -6 14 1.72 0.26
-4 6 -15 0 0.19
-4 6 19 0.88 0.22
4 6 -19 0.8 0.24
4 6 15 -0.26 0.15
-4 -6 19 0.45 0.2
4 -6 15 -0.05 0.17
-4 6 -16 0.72 0.25
-4 6 20 2.43 0.33
4 6 -20 2.24 0.32
4 6 16 0.95 0.24
-4 -6 20 1.91 0.3
4 -6 16 1.11 0.25
-4 6 21 0.08 0.2
4 6 17 0.33 0.22
-4 -6 21 -0.08 0.18
4 -6 17 -0.1 0.18
-6 6 3 2.65 0.18
-6 6 3 3.02 0.18
6 6 -3 2.57 0.13
6 6 -3 2.03 0.18
-6 -6 3 3.21 0.16
6 -6 -3 2.57 0.19
-6 6 2 0.51 0.1
-6 6 2 0.67 0.11
-6 6 4 0.96 0.13
-6 6 4 0.98 0.11
6 6 -4 1 0.09
6 6 -4 0.88 0.13
6 6 -2 0.64 0.09
6 6 -2 0.41 0.11
-6 -6 2 0.37 0.07
-6 -6 4 1.09 0.12
6 -6 -4 0.9 0.12
6 -6 -2 0.59 0.11
-6 6 1 2.34 0.17
-6 6 1 2.82 0.19
-6 6 5 5.34 0.24
6 6 -5 4.88 0.13
6 6 -5 5.3 0.25
6 6 -1 2.43 0.16
6 6 -1 2.05 0.18
-6 -6 1 1.91 0.12
-6 -6 5 6.1 0.23
6 -6 -5 4.84 0.22
6 -6 -1 2.18 0.18
-6 6 0 4.27 0.2
-6 6 0 5.52 0.25
-6 6 6 -0.01 0.08
6 6 -6 0.03 0.04
6 6 -6 -0.03 0.03
6 6 0 5.44 0.22
6 6 0 4.23 0.22
-6 -6 0 5.61 0.17
-6 -6 6 0.03 0.08
6 -6 -6 0.02 0.07
6 -6 0 4.51 0.25
-6 6 -1 2.92 0.19
-6 6 -1 3.57 0.22
-6 6 7 2.49 0.2
-6 6 7 2.91 0.15
6 6 -7 1.93 0.18
6 6 1 3.35 0.2
6 6 1 2.83 0.2
-6 -6 -1 3.58 0.14
-6 -6 7 3.45 0.21
6 -6 -7 2.27 0.18
6 -6 1 1.25 0.15
-6 6 -2 38.59 0.56
-6 6 -2 43.77 0.65
-6 6 8 25.45 0.52
-6 6 8 28.22 0.34
6 6 -8 28.62 0.55
6 6 2 44.68 0.62
6 6 2 32.63 0.55
-6 -6 -2 46.28 0.36
-6 -6 8 29.26 0.53
6 -6 -8 22.68 0.44
6 -6 2 0.05 0.03
-6 6 -3 18.05 0.45
-6 6 9 0.08 0.04
-6 6 9 2.12 0.13
6 6 -9 2.06 0.23
6 6 3 18.89 0.45
6 6 3 13.82 0.37
-6 -6 9 1.96 0.22
6 -6 -9 1.41 0.17
6 -6 3 8.96 0.32
-6 6 -4 -0.02 0.13
-6 6 10 0.01 0.02
6 6 -10 0.75 0.17
6 6 4 0.19 0.13
6 6 4 0.15 0.1
-6 -6 10 0.57 0.15
6 -6 -10 0.6 0.13
6 -6 4 0.16 0.14
-6 6 -5 1.83 0.22
-6 6 11 1.6 0.19
6 6 -11 1.69 0.22
6 6 5 1.84 0.22
-6 -6 11 1.77 0.21
6 -6 -11 1.24 0.16
6 -6 5 1.82 0.22
-6 6 -6 5.93 0.32
-6 6 12 5.3 0.32
6 6 -12 5.05 0.32
6 6 6 6.18 0.31
-6 -6 12 5.41 0.32
6 -6 6 6.74 0.35
6 -6 6 5.05 0.24
-6 6 -7 4.37 0.3
-6 6 13 24.69 0.59
6 6 -13 28.53 0.63
6 6 7 4.53 0.3
-6 -6 13 27.72 0.62
6 -6 7 4.68 0.32
6 -6 7 3.73 0.23
-6 6 -8 2.75 0.27
-6 6 14 4.89 0.26
-6 6 14 5.42 0.32
6 6 -14 6.06 0.37
6 6 8 3.24 0.28
-6 -6 14 5.84 0.34
6 -6 8 3.08 0.28
6 -6 8 2.53 0.21
-6 6 -9 0.79 0.19
-6 6 15 1.9 0.19
-6 6 15 2.49 0.27
6 6 -15 2.71 0.29
6 6 9 0.82 0.19
-6 -6 15 2.74 0.28
6 -6 9 0.88 0.19
6 -6 9 0.8 0.15
-6 6 -10 -0.09 0.14
-6 6 16 0.31 0.15
6 6 -16 0.25 0.19
6 6 10 0.04 0.15
-6 -6 16 0.28 0.15
6 -6 10 -0.01 0.15
6 -6 10 -0.02 0.1
-6 6 -11 -0.11 0.16
-6 6 17 0.19 0.17
6 6 -17 0.26 0.19
6 6 11 -0.23 0.14
-6 -6 17 0.18 0.15
6 -6 11 0.07 0.16
-6 6 -12 2.51 0.3
-6 6 18 0.95 0.22
6 6 -18 1.36 0.25
6 6 12 2.77 0.31
-6 -6 18 1.13 0.23
6 -6 12 2.91 0.31
-6 6 -13 0.41 0.21
-6 6 19 0.29 0.19
6 6 -19 0.42 0.22
6 6 13 0.3 0.18
-6 -6 19 0.3 0.19
6 -6 13 0.23 0.19
-6 6 -14 0.22 0.21
-6 6 20 -0.07 0.15
6 6 -20 -0.06 0.19
6 6 14 -0.18 0.15
-6 -6 20 0.06 0.17
6 -6 14 0.02 0.18
-6 6 -15 0.08 0.22
-6 6 21 -0.02 0.18
6 6 -21 -0.05 0.21
6 6 15 -0.02 0.17
-6 -6 21 0.05 0.19
6 -6 15 0.12 0.19
-6 -6 22 0.47 0.23
6 -6 16 1.08 0.26
-8 6 4 8.5 0.28
-8 6 4 10.72 0.27
8 6 -4 10.11 0.22
8 6 -4 8.81 0.31
-8 -6 4 10.83 0.27
8 -6 -4 8.47 0.3
-8 6 3 5.15 0.24
-8 6 3 6.23 0.23
-8 6 5 4.45 0.23
-8 6 5 5.65 0.2
8 6 -5 5.02 0.15
8 6 -5 4.63 0.24
8 6 -3 6.3 0.2
8 6 -3 5.13 0.25
-8 -6 3 3.97 0.16
-8 -6 5 5.59 0.21
8 -6 -5 4.49 0.22
8 -6 -3 5.34 0.25
-8 6 2 50.76 0.66
-8 6 2 60.82 0.67
-8 6 6 1.52 0.17
8 6 -6 1.36 0.09
8 6 -6 0.03 0.03
8 6 -2 62.61 0.62
8 6 -2 47.5 0.67
-8 -6 2 55.24 0.5
-8 -6 6 1.71 0.16
8 -6 -6 1.35 0.15
8 -6 -2 52.6 0.7
-8 6 1 0.1 0.1
-8 6 1 0.28 0.11
-8 6 7 3.04 0.2
-8 6 7 3.64 0.15
8 6 -7 2.4 0.19
8 6 -1 0.18 0.09
8 6 -1 0.12 0.12
-8 -6 1 0.19 0.06
-8 -6 7 3.5 0.19
8 -6 -7 2.33 0.2
8 -6 -1 0.05 0.07
-8 6 0 18.29 0.41
-8 6 0 20.78 0.45
-8 6 8 16.84 0.42
-8 6 8 23.23 0.31
8 6 -8 21.02 0.48
8 6 0 22.35 0.43
8 6 0 16.34 0.41
-8 -6 0 21.42 0.26
-8 -6 8 22.51 0.46
8 -6 -8 17.39 0.41
8 -6 0 -0.04 0.02
-8 6 -1 0.52 0.13
-8 6 -1 0.69 0.15
-8 6 9 0.01 0.03
8 6 -9 1.03 0.18
8 6 1 0.82 0.14
8 6 1 0.41 0.13
-8 -6 9 0.9 0.15
8 -6 -9 0.81 0.13
8 -6 1 0.17 0.08
-8 6 -2 89.8 0.97
-8 6 10 0.02 0.03
8 6 -10 0.58 0.16
8 6 2 92.56 0.94
8 6 2 68.61 0.83
-8 -6 10 0.75 0.15
8 -6 -10 0.48 0.12
8 -6 2 87.46 0.97
-8 6 -3 20.33 0.51
-8 6 11 0.26 0.11
8 6 -11 0.23 0.15
8 6 3 22.94 0.52
-8 -6 11 0.02 0.11
8 -6 -11 -0.01 0.1
8 -6 3 20.65 0.51
-8 6 -4 0.04 0.13
-8 6 12 31.6 0.64
8 6 -12 34.79 0.66
8 6 4 0.2 0.12
-8 -6 12 32.88 0.64
8 -6 -12 25.7 0.52
8 -6 4 -0.05 0.14
-8 6 -5 1.76 0.22
-8 6 13 3.08 0.26
8 6 -13 3.29 0.3
8 6 5 2.24 0.22
-8 -6 13 3.39 0.29
8 -6 5 1.94 0.22
-8 6 -6 4.61 0.32
-8 6 14 0.78 0.15
-8 6 14 0.76 0.18
8 6 -14 0.83 0.21
8 6 6 4.95 0.31
-8 -6 14 0.99 0.19
8 -6 6 4.83 0.33
8 -6 6 3.72 0.24
-8 6 -7 1.35 0.22
-8 6 15 0.34 0.14
-8 6 15 0.46 0.16
8 6 -15 0.14 0.18
8 6 7 1.39 0.21
-8 -6 15 0.69 0.18
8 -6 7 1.33 0.22
8 -6 7 1.4 0.18
-8 6 -8 1.47 0.23
-8 6 16 -0.02 0.11
-8 6 16 -0.13 0.13
8 6 -16 -0.01 0.18
8 6 8 1.92 0.25
-8 -6 16 0.06 0.13
8 -6 8 1.95 0.25
8 -6 8 1.47 0.19
-8 6 -9 -0.05 0.15
-8 6 17 0.82 0.17
-8 6 17 1.2 0.21
8 6 -17 1.1 0.24
8 6 9 -0.05 0.14
-8 -6 17 1.04 0.21
8 -6 9 -0.02 0.15
8 -6 9 -0.07 0.11
-8 6 -10 1.07 0.23
-8 6 18 5.57 0.37
8 6 -18 7.09 0.41
8 6 10 0.79 0.21
-8 -6 18 6.03 0.38
8 -6 10 0.83 0.21
8 -6 10 1.05 0.18
-8 6 -11 0.5 0.2
-8 6 19 1.53 0.25
8 6 -19 1.54 0.27
8 6 11 0.51 0.19
-8 -6 19 1.29 0.24
8 -6 11 0.52 0.2
-8 6 -12 0.66 0.23
-8 6 20 0.24 0.17
8 6 -20 0.36 0.21
8 6 12 0.64 0.21
-8 -6 20 0.18 0.18
8 -6 12 0.79 0.22
-8 6 -13 -0.05 0.2
-8 6 21 0.1 0.18
8 6 -21 0.58 0.23
8 6 13 -0.07 0.17
-8 -6 21 0.28 0.2
8 -6 13 -0.23 0.18
-8 6 -14 -0.25 0.21
-8 6 22 2.94 0.35
8 6 14 0.08 0.21
-8 -6 22 2.6 0.33
8 -6 14 -0.21 0.18
-10 6 5 0.47 0.12
-10 6 5 0.85 0.12
10 6 -5 0.75 0.09
10 6 -5 0.12 0.07
-10 -6 5 0.85 0.11
10 -6 -5 0.78 0.13
-10 6 4 0.32 0.11
-10 6 4 0.39 0.1
-10 6 6 4.78 0.25
-10 6 6 5.84 0.21
10 6 -6 5.88 0.16
10 6 -6 0 0.02
10 6 -4 0.2 0.08
10 6 -4 0.09 0.11
-10 -6 4 0.33 0.08
-10 -6 6 6.04 0.23
10 -6 -6 4.91 0.24
10 -6 -4 0.14 0.1
-10 6 3 0.79 0.14
-10 6 3 1 0.14
-10 6 7 8.58 0.32
-10 6 7 4.65 0.16
10 6 -7 8.9 0.15
10 6 -7 2.88 0.2
10 6 -3 0.85 0.12
10 6 -3 0.77 0.15
-10 -6 3 0.77 0.09
-10 -6 7 9.81 0.29
10 -6 -7 8.02 0.31
10 -6 -3 0 0.03
-10 6 2 37.84 0.61
-10 6 2 44.85 0.63
-10 6 8 9.11 0.21
10 6 -8 8.52 0.33
10 6 -2 47.32 0.59
10 6 -2 35.54 0.62
-10 -6 2 41.72 0.4
-10 -6 8 8.79 0.29
10 -6 -8 6.82 0.29
10 -6 -2 -0.03 0.02
-10 6 1 5.62 0.28
-10 6 1 6.84 0.29
-10 6 9 0.01 0.03
10 6 -9 28.64 0.56
10 6 -1 7.05 0.27
10 6 -1 5.23 0.28
-10 -6 9 29.49 0.53
10 -6 -9 24.48 0.5
-10 6 0 0.94 0.16
-10 6 0 1.19 0.18
-10 6 10 0.02 0.02
10 6 -10 9.34 0.37
10 6 0 1.27 0.16
10 6 0 0.82 0.16
-10 -6 10 8.66 0.32
10 -6 -10 7.24 0.31
10 -6 0 1.24 0.18
-10 6 -1 26.82 0.57
-10 6 11 6.37 0.29
10 6 -11 10.15 0.39
10 6 1 28.48 0.55
10 6 1 20.62 0.5
-10 -6 11 9.54 0.36
10 -6 -11 7.87 0.32
10 -6 1 26.71 0.58
-10 6 -2 10.62 0.4
-10 6 12 13.96 0.44
10 6 -12 16.25 0.47
10 6 2 11.69 0.39
-10 -6 12 15.45 0.46
10 -6 -12 11.46 0.38
10 -6 2 11.84 0.43
-10 6 -3 7.93 0.37
-10 6 13 4.68 0.29
10 6 -13 5.45 0.33
10 6 3 7.8 0.33
-10 -6 13 4.81 0.3
10 -6 3 7.92 0.38
-10 6 -4 0.01 0.15
-10 6 14 11.92 0.39
-10 6 14 12.02 0.44
10 6 -14 14.85 0.49
10 6 4 0.02 0.13
-10 -6 14 12.07 0.43
10 -6 4 0.05 0.15
-10 6 -5 6.09 0.35
-10 6 15 10.19 0.37
-10 6 15 9.8 0.41
10 6 -15 12.09 0.47
10 6 5 6.61 0.35
-10 -6 15 10.88 0.44
10 -6 5 7.01 0.36
10 -6 5 5.04 0.29
-10 6 -6 0.17 0.16
-10 6 16 0.02 0.12
-10 6 16 -0.04 0.14
10 6 -16 0.18 0.19
10 6 6 0.15 0.15
-10 -6 16 0.13 0.13
10 -6 6 0.1 0.16
10 -6 6 0.18 0.13
-10 6 -7 1.44 0.23
-10 6 17 3.47 0.26
-10 6 17 3.47 0.3
10 6 -17 4.33 0.35
10 6 7 1.44 0.23
-10 -6 17 3.27 0.29
10 -6 7 1.87 0.25
10 -6 7 1.46 0.2
-10 6 -8 0.14 0.16
-10 6 18 7.47 0.36
-10 6 18 7.95 0.41
10 6 -18 9.42 0.45
10 6 8 0.08 0.16
-10 -6 18 7.06 0.4
10 -6 8 0.01 0.16
10 -6 8 0.04 0.13
-10 6 -9 1.65 0.26
-10 6 19 1.45 0.24
10 6 -19 2.65 0.32
10 6 9 1.84 0.27
-10 -6 19 1.29 0.23
10 -6 9 2.41 0.3
10 -6 9 1.53 0.23
-10 6 -10 0.24 0.19
-10 6 20 0.04 0.16
10 6 -20 0.03 0.19
10 6 10 0.23 0.19
-10 -6 20 0.07 0.16
10 -6 10 0.22 0.19
10 -6 10 0.03 0.15
-10 6 -11 0.07 0.19
-10 6 21 0.22 0.18
10 6 -21 0.35 0.21
10 6 11 -0.08 0.18
-10 -6 21 0.36 0.18
10 -6 11 0.05 0.19
-10 6 -12 0.19 0.22
-10 6 22 1.52 0.26
10 6 -22 1.95 0.29
10 6 12 0.38 0.23
-10 -6 22 1.71 0.28
10 -6 12 0.52 0.23
-10 6 -13 -0.08 0.23
-10 6 23 0.8 0.24
10 6 13 0.28 0.21
-10 -6 23 0.68 0.24
-12 6 6 10.09 0.34
-12 6 6 13.04 0.31
12 6 -6 13.18 0.26
12 6 -6 0.01 0.03
-12 -6 6 12.31 0.3
12 -6 -6 8.22 0.31
-12 6 5 3.25 0.23
-12 6 5 4.16 0.21
-12 6 7 0.07 0.1
-12 6 7 0.32 0.09
12 6 -7 0.32 0.07
12 6 -7 0.08 0.06
12 6 -5 4.09 0.19
12 6 -5 0 0.03
-12 -6 5 3.73 0.17
-12 -6 7 0.25 0.08
12 -6 -7 0.16 0.11
12 -6 -5 -0.02 0.03
-12 6 4 1.22 0.16
-12 6 4 1.54 0.18
-12 6 8 0.01 0.03
-12 6 8 0.29 0.06
12 6 -8 0.48 0.14
12 6 -4 1.57 0.16
12 6 -4 0.72 0.14
-12 -6 8 0.57 0.11
12 -6 -8 0.31 0.12
12 -6 -4 -0.02 0.02
-12 6 3 10.15 0.35
-12 6 3 11.83 0.35
-12 6 9 0 0.02
12 6 -9 7.01 0.32
12 6 -3 12.88 0.34
12 6 -3 9.7 0.36
-12 -6 9 7.61 0.29
12 -6 -9 6.12 0.29
-12 6 2 8.14 0.33
-12 6 2 9.11 0.34
12 6 -10 13.66 0.42
12 6 -2 9.42 0.32
12 6 -2 7.03 0.32
-12 -6 10 13.97 0.39
12 -6 -10 10.82 0.37
12 -6 -2 8.17 0.34
-12 6 1 25.33 0.55
-12 6 1 27.99 0.57
-12 6 11 -0.03 0.11
12 6 -11 0.05 0.14
12 6 -1 29.95 0.54
12 6 -1 22.72 0.55
-12 -6 11 0.02 0.11
12 -6 -11 0.11 0.11
12 -6 -1 27.34 0.59
-12 6 0 15.42 0.46
-12 6 12 9.69 0.39
12 6 -12 12.51 0.42
12 6 0 16.22 0.44
-12 -6 12 10.72 0.37
12 -6 -12 9.13 0.36
12 -6 0 14.91 0.47
-12 6 -1 5.79 0.34
-12 6 13 4.39 0.3
12 6 -13 5.16 0.32
12 6 1 6.09 0.31
-12 -6 13 4.78 0.3
12 -6 -13 3.72 0.25
12 -6 1 6.28 0.35
-12 6 -2 0.01 0.13
-12 6 14 3.52 0.27
12 6 -14 4.54 0.34
12 6 2 0.01 0.13
-12 -6 14 3.67 0.29
12 -6 2 0.1 0.15
-12 6 -3 9.07 0.4
-12 6 15 19.46 0.51
-12 6 15 18.58 0.54
12 6 -15 22.82 0.58
12 6 3 9.9 0.4
-12 -6 15 20.42 0.56
12 -6 3 9.89 0.42
-12 6 -4 6.47 0.36
-12 6 16 6.75 0.33
-12 6 16 7.18 0.36
12 6 -16 9.49 0.43
12 6 4 7.21 0.37
-12 -6 16 7.2 0.38
12 -6 4 7.89 0.39
12 -6 4 5.16 0.3
-12 6 -5 1.08 0.21
-12 6 17 2.69 0.26
-12 6 17 2.49 0.27
12 6 -17 3 0.32
12 6 5 1.09 0.21
-12 -6 17 2.63 0.28
12 -6 5 1.26 0.22
12 -6 5 0.91 0.17
-12 6 -6 1.27 0.24
-12 6 18 0.11 0.14
-12 6 18 0.06 0.15
12 6 -18 -0.04 0.18
12 6 6 1.17 0.21
-12 -6 18 -0.03 0.14
12 -6 6 1.55 0.24
12 -6 6 1.19 0.2
-12 6 -7 0.52 0.21
-12 6 19 4.42 0.3
-12 6 19 4 0.33
12 6 -19 5.64 0.38
12 6 7 0.79 0.21
-12 -6 19 4.7 0.33
12 -6 7 0.95 0.22
12 -6 7 0.6 0.17
-12 6 -8 3.61 0.35
-12 6 20 0.17 0.14
-12 6 20 0.44 0.18
12 6 -20 0.44 0.21
12 6 8 3.73 0.34
-12 -6 20 0.39 0.18
12 -6 8 4.35 0.35
12 -6 8 3.63 0.31
-12 6 -9 0.51 0.22
-12 6 21 0.04 0.16
12 6 -21 0.22 0.2
12 6 9 0.74 0.23
-12 -6 21 0.22 0.17
12 -6 9 0.59 0.21
12 -6 9 0.96 0.21
-12 6 -10 1.07 0.27
-12 6 22 0 0.16
12 6 -22 0.2 0.2
12 6 10 1.24 0.27
-12 -6 22 0.19 0.18
12 -6 10 1.59 0.28
12 -6 10 1.16 0.24
-12 6 -11 0.72 0.26
-12 6 23 -0.02 0.17
12 6 11 1.22 0.28
-12 -6 23 0.11 0.17
12 -6 11 0.79 0.24
-14 6 7 1.54 0.19
-14 6 7 1.81 0.16
14 6 -7 1.94 0.14
14 6 -7 1.36 0.19
-14 -6 7 1.51 0.15
14 -6 -7 0.33 0.1
-14 6 6 21.77 0.51
-14 6 6 26.24 0.46
-14 6 8 2.9 0.2
-14 6 8 7.3 0.23
14 6 -8 5.87 0.3
14 6 -6 27.64 0.42
-14 -6 6 23.57 0.39
-14 -6 8 6.86 0.26
14 -6 -8 6.41 0.31
-14 6 5 0.71 0.16
-14 6 5 0.86 0.14
-14 6 9 0.23 0.09
14 6 -9 0.72 0.16
14 6 -5 0.94 0.13
14 6 -5 0.54 0.13
-14 -6 5 0.41 0.07
-14 -6 9 0.69 0.12
14 -6 -9 0.44 0.14
14 -6 -5 0.76 0.15
-14 6 4 0.04 0.11
-14 6 4 0.11 0.12
-14 6 10 15.09 0.45
14 6 -10 17.56 0.48
14 6 -4 0.22 0.11
14 6 -4 0.25 0.14
-14 -6 10 18.17 0.43
14 -6 -10 15.99 0.46
14 -6 -4 0.16 0.12
-14 6 3 8.58 0.36
-14 6 3 11.35 0.38
-14 6 11 2.95 0.24
14 6 -11 3.8 0.29
14 6 -3 12.02 0.35
14 6 -3 8.59 0.38
-14 -6 11 3.12 0.23
14 -6 -11 2.87 0.25
14 -6 -3 9.53 0.37
-14 6 2 25.87 0.57
-14 6 12 14.53 0.46
14 6 -12 16.85 0.49
14 6 -2 27.15 0.53
14 6 -2 20.06 0.55
-14 -6 12 14.9 0.43
14 -6 -12 13.23 0.43
14 -6 -2 24.08 0.58
-14 6 1 0.07 0.14
-14 6 13 5.49 0.31
14 6 -13 7.67 0.36
14 6 -1 0.01 0.12
-14 -6 13 6.17 0.32
14 -6 -13 5.55 0.31
14 -6 -1 -0.04 0.14
-14 6 0 1.04 0.19
-14 6 14 11.2 0.43
14 6 -14 13.21 0.45
14 6 0 1.16 0.19
-14 -6 14 12.15 0.43
14 -6 -14 10.61 0.4
14 -6 0 0.9 0.19
-14 6 -1 5.17 0.32
-14 6 15 -0.05 0.12
14 6 -15 0.2 0.17
14 6 1 5.73 0.32
-14 -6 15 0.16 0.14
14 -6 1 5.86 0.35
-14 6 -2 0.34 0.16
-14 6 16 13.21 0.45
-14 6 16 12.03 0.45
14 6 -16 15.75 0.51
14 6 2 0.42 0.16
-14 -6 16 13.34 0.47
14 -6 2 0.41 0.17
-14 6 -3 0.28 0.16
-14 6 17 0.4 0.16
-14 6 17 0.52 0.16
14 6 -17 0.54 0.19
14 6 3 0.19 0.14
-14 -6 17 0.3 0.16
14 -6 3 0.25 0.15
14 -6 3 0.17 0.13
-14 6 -4 2.06 0.27
-14 6 18 -0.02 0.13
-14 6 18 -0.03 0.13
14 6 -18 -0.02 0.17
14 6 4 2.25 0.26
-14 -6 18 0.01 0.14
14 -6 4 1.92 0.25
14 -6 4 1.67 0.22
-14 6 -5 0.65 0.2
-14 6 19 0.44 0.16
-14 6 19 0.41 0.16
14 6 -19 0.22 0.2
14 6 5 0.65 0.2
-14 -6 19 0.24 0.16
14 -6 5 1.03 0.22
14 -6 5 0.44 0.16
-14 6 -6 0.01 0.17
-14 6 20 0.79 0.19
-14 6 20 0.71 0.2
14 6 -20 1.29 0.25
14 6 6 0.1 0.17
-14 -6 20 0.67 0.2
14 -6 6 0.07 0.17
14 -6 6 -0.06 0.13
-14 6 -7 0.51 0.22
-14 6 21 0.06 0.15
-14 6 21 0.03 0.14
14 6 -21 -0.06 0.18
14 6 7 0.79 0.23
-14 -6 21 0.07 0.16
14 -6 7 1.17 0.24
14 -6 7 0.79 0.2
-14 6 -8 4.45 0.39
-14 6 22 0.52 0.18
-14 6 22 0.49 0.19
14 6 8 5.24 0.39
-14 -6 22 0.68 0.2
14 -6 8 5.44 0.4
14 -6 8 4.05 0.34
-14 6 -9 0.72 0.25
-14 6 23 0.49 0.2
14 6 9 0.77 0.25
-14 -6 23 0.64 0.22
14 -6 9 1.13 0.26
14 -6 9 0.54 0.21
-14 6 -10 0.84 0.26
-14 6 24 0.19 0.19
14 6 10 0.93 0.26
-14 -6 24 0.14 0.18
14 -6 10 0.97 0.24
-16 6 8 4.21 0.27
-16 6 8 4.68 0.22
16 6 -8 3.67 0.27
-16 -6 8 4.27 0.21
16 -6 -8 4.08 0.26
-16 6 7 2.29 0.22
-16 6 7 2.64 0.19
-16 6 9 0.13 0.12
16 6 -9 0.13 0.14
16 6 -7 2.8 0.18
16 6 -7 2.32 0.24
-16 -6 7 2.14 0.16
-16 -6 9 0.13 0.09
16 -6 -9 0.06 0.11
16 -6 -7 2.39 0.22
-16 6 6 5.04 0.3
-16 6 6 5.67 0.28
-16 6 10 2.26 0.22
16 6 -10 2.89 0.26
16 6 -6 6.13 0.25
16 6 -6 4.73 0.3
-16 -6 10 2.65 0.2
16 -6 -10 2.43 0.22
16 -6 -6 4.78 0.29
-16 6 5 1.95 0.22
-16 6 5 1.89 0.21
-16 6 11 0 0.12
16 6 -11 0.09 0.13
16 6 -5 2.43 0.2
16 6 -5 1.49 0.21
-16 -6 11 0.22 0.1
16 -6 -11 0.11 0.11
16 -6 -5 2.17 0.25
-16 6 4 5.36 0.3
-16 6 4 5.97 0.32
-16 6 12 1.04 0.18
16 6 -12 1.35 0.2
16 6 -4 6.67 0.3
16 6 -4 5.11 0.32
-16 -6 12 1.56 0.19
16 -6 -12 1 0.18
16 -6 -4 6.01 0.34
-16 6 3 0.61 0.17
-16 6 13 2.42 0.24
16 6 -13 2.92 0.27
16 6 -3 0.36 0.14
16 6 -3 0.17 0.15
-16 -6 13 2.86 0.23
16 -6 -13 2.54 0.25
16 -6 -3 0.38 0.16
-16 6 2 10.17 0.39
-16 6 14 6.68 0.35
16 6 -14 8.47 0.39
16 6 -2 10.83 0.38
-16 -6 14 7 0.33
16 -6 -14 5.95 0.31
16 -6 -2 9.92 0.4
-16 6 1 1.77 0.23
-16 6 15 0.64 0.16
16 6 -15 0.83 0.2
16 6 -1 1.66 0.21
-16 -6 15 1.15 0.19
16 -6 -15 0.67 0.16
16 -6 -1 1.71 0.22
-16 6 0 1.87 0.24
-16 6 16 1.1 0.21
16 6 -16 1.54 0.23
16 6 0 2.08 0.24
-16 -6 16 1.37 0.21
16 -6 0 1.92 0.24
-16 6 -1 1.88 0.26
-16 6 17 0.16 0.14
-16 6 17 0.02 0.14
16 6 -17 0.21 0.18
16 6 1 1.67 0.22
-16 -6 17 0.13 0.12
16 -6 1 1.8 0.24
-16 6 -2 -0.05 0.14
-16 6 18 0.12 0.13
-16 6 18 0.27 0.16
16 6 -18 0.25 0.19
16 6 2 0 0.14
-16 -6 18 0.19 0.13
16 -6 2 0.01 0.16
-16 6 -3 0.28 0.17
-16 6 19 0.1 0.14
-16 6 19 0.16 0.15
16 6 -19 0.09 0.19
16 6 3 0.13 0.16
-16 -6 19 0.18 0.15
16 -6 3 0.05 0.17
16 -6 3 0.14 0.14
-16 6 -4 1.5 0.26
-16 6 20 0.52 0.18
-16 6 20 0.55 0.19
16 6 -20 0.95 0.23
16 6 4 1.44 0.24
-16 -6 20 0.58 0.18
16 -6 4 1.37 0.24
16 -6 4 1.09 0.21
-16 6 -5 0.07 0.18
-16 6 21 0.11 0.15
-16 6 21 0.03 0.16
16 6 -21 0.08 0.19
16 6 5 -0.15 0.16
-16 -6 21 0.02 0.15
16 -6 5 0.04 0.17
16 -6 5 0.03 0.13
-16 6 -6 1.02 0.27
-16 6 22 0.54 0.19
-16 6 22 0.39 0.19
16 6 6 1.52 0.27
-16 -6 22 0.37 0.19
16 -6 6 1.74 0.27
16 -6 6 1.46 0.24
-16 6 -7 0.19 0.21
-16 6 23 0.12 0.17
-16 6 23 0.44 0.19
16 6 7 0.13 0.21
-16 -6 23 0.4 0.2
16 -6 7 0.34 0.21
16 -6 7 0 0.18
-16 6 -8 1.89 0.33
-16 6 24 0.18 0.17
-16 6 24 0.42 0.2
16 6 8 1.99 0.32
-16 -6 24 0.09 0.18
16 -6 8 2.22 0.31
-18 6 9 1.7 0.2
18 6 -9 1.62 0.22
-18 -6 9 1.75 0.17
18 -6 -9 2.21 0.22
-18 6 8 2.39 0.24
-18 6 8 2.57 0.21
-18 6 10 0.47 0.14
18 6 -10 0.46 0.16
18 6 -8 1.78 0.23
-18 -6 10 0.57 0.12
18 -6 -10 0.54 0.15
18 -6 -8 2.69 0.26
-18 6 7 0.51 0.15
-18 6 7 0.57 0.15
-18 6 11 -0.06 0.1
18 6 -11 -0.04 0.13
18 6 -7 0.54 0.13
18 6 -7 0.45 0.18
-18 -6 11 -0.07 0.09
18 -6 -11 0.01 0.1
18 -6 -7 0.59 0.17
-18 6 6 4.43 0.31
-18 6 6 5.76 0.3
-18 6 12 -0.05 0.12
18 6 -12 0.19 0.14
18 6 -6 5.58 0.27
18 6 -6 4.41 0.31
-18 -6 12 0.25 0.11
18 -6 -12 0.25 0.13
18 -6 -6 4.58 0.32
-18 6 5 11.84 0.45
-18 6 5 13.81 0.43
-18 6 13 -0.05 0.12
18 6 -13 0.02 0.15
18 6 -5 13.53 0.4
18 6 -5 10.38 0.43
-18 -6 13 0.1 0.11
18 -6 -13 -0.01 0.12
18 -6 -5 12.07 0.45
-18 6 4 11.15 0.41
-18 6 14 2.54 0.24
18 6 -14 3.37 0.28
18 6 -4 11.16 0.39
18 6 -4 9.12 0.42
-18 -6 14 2.83 0.24
18 -6 -14 2.86 0.27
18 -6 -4 10.41 0.43
-18 6 3 6.09 0.34
-18 6 15 0.79 0.19
18 6 -15 0.79 0.2
18 6 -3 6.54 0.33
-18 -6 15 0.84 0.16
18 -6 -15 0.68 0.17
18 -6 -3 5.77 0.36
-18 6 2 0.17 0.15
-18 6 16 -0.06 0.12
18 6 -16 0.17 0.16
18 6 -2 -0.05 0.13
-18 -6 16 -0.02 0.11
18 -6 -16 0.08 0.13
18 -6 -2 -0.12 0.14
-18 6 1 0.79 0.19
-18 6 17 0.27 0.15
18 6 -17 0.25 0.19
18 6 -1 0.96 0.19
-18 -6 17 0.14 0.14
18 -6 -1 1.05 0.21
-18 6 0 2.12 0.26
-18 6 18 1.15 0.21
-18 6 18 1.1 0.21
18 6 -18 1.51 0.25
18 6 0 2.2 0.26
-18 -6 18 1.2 0.21
18 -6 0 2.06 0.26
-18 6 -1 0.14 0.16
-18 6 19 3.13 0.28
-18 6 19 3.33 0.28
18 6 -19 4.2 0.33
18 6 1 0.15 0.15
-18 -6 19 3.09 0.29
18 -6 1 0.14 0.17
-18 6 -2 0.92 0.23
-18 6 20 0.93 0.2
-18 6 20 0.87 0.2
18 6 -20 1.57 0.26
18 6 2 0.84 0.21
-18 -6 20 0.91 0.2
18 -6 2 0.68 0.21
18 -6 2 0.58 0.18
-18 6 -3 -0.12 0.16
-18 6 21 -0.06 0.14
-18 6 21 0.06 0.15
18 6 -21 0.05 0.2
18 6 3 0.05 0.16
-18 -6 21 0.18 0.14
18 -6 3 0.19 0.18
18 -6 3 -0.02 0.14
-18 6 -4 0.92 0.25
-18 6 22 -0.21 0.14
-18 6 22 -0.05 0.14
18 6 4 1.07 0.24
-18 -6 22 -0.06 0.15
18 -6 4 1.11 0.25
18 -6 4 0.61 0.2
-18 6 -5 -0.09 0.19
-18 6 23 0.15 0.16
-18 6 23 0.1 0.17
18 6 5 0.02 0.19
-18 -6 23 0.04 0.15
18 -6 5 -0.05 0.18
18 -6 5 -0.08 0.16
-18 6 -6 1.38 0.3
-18 6 24 0.12 0.17
-18 6 24 0.24 0.19
18 6 6 1.77 0.31
-18 -6 24 0.25 0.18
18 -6 6 1.37 0.26
-18 6 25 0.3 0.19
18 6 7 0.01 0.22
-18 -6 25 0.38 0.2
18 -6 7 0.03 0.18
-20 6 10 2 0.24
20 6 -10 1.78 0.24
20 -6 -10 1.96 0.23
-20 6 9 -0.15 0.12
-20 6 11 0.58 0.16
20 6 -11 0.66 0.18
20 6 -9 -0.18 0.14
-20 -6 11 0.48 0.12
20 -6 -11 0.54 0.15
20 -6 -9 -0.02 0.13
-20 6 8 9.24 0.41
-20 6 8 10.25 0.36
-20 6 12 0.62 0.17
20 6 -12 1.1 0.2
20 6 -8 8.54 0.42
-20 -6 12 0.59 0.13
20 -6 -12 0.55 0.16
20 -6 -8 8.55 0.38
-20 6 7 4.21 0.32
-20 6 7 5.04 0.29
-20 6 13 -0.06 0.12
20 6 -13 0.06 0.14
20 6 -7 5.58 0.28
20 6 -7 4.34 0.32
-20 -6 13 0.17 0.11
20 -6 -13 -0.07 0.12
20 -6 -7 4.78 0.33
-20 6 6 0.73 0.17
-20 6 14 0.73 0.17
20 6 -14 0.82 0.2
20 6 -6 0.55 0.14
20 6 -6 0.44 0.17
-20 -6 14 0.85 0.16
20 -6 -14 0.54 0.17
20 -6 -6 0.59 0.17
-20 6 5 0.38 0.16
-20 6 15 2.95 0.28
20 6 -15 3.69 0.31
20 6 -5 0.19 0.14
20 6 -5 0.23 0.15
-20 -6 15 3.16 0.25
20 -6 -15 2.76 0.26
20 -6 -5 -0.03 0.15
-20 6 4 15.43 0.49
-20 6 16 0.51 0.17
20 6 -16 0.65 0.19
20 6 -4 16.78 0.49
20 6 -4 12.93 0.49
-20 -6 16 0.57 0.16
20 -6 -16 0.47 0.16
20 -6 -4 15.62 0.53
-20 6 3 4.63 0.34
-20 6 17 0.23 0.15
20 6 -17 0.06 0.17
20 6 -3 4.77 0.31
-20 -6 17 0.21 0.14
20 -6 -17 0.14 0.15
20 -6 -3 4.43 0.34
-20 6 2 0.96 0.22
-20 6 18 4.16 0.31
20 6 -18 5.02 0.36
20 6 -2 0.87 0.19
-20 -6 18 3.68 0.28
20 -6 -2 0.72 0.21
-20 6 1 0 0.16
-20 6 19 1.44 0.23
20 6 -19 1.94 0.27
20 6 -1 0.01 0.15
-20 -6 19 1.28 0.21
20 -6 -1 -0.11 0.16
-20 6 0 3.87 0.33
-20 6 20 0.86 0.2
-20 6 20 1.04 0.22
20 6 -20 1.25 0.25
20 6 0 3.97 0.32
-20 -6 20 0.8 0.19
20 -6 0 4.7 0.36
20 -6 0 3 0.28
-20 6 -1 0.9 0.23
-20 6 21 0.38 0.18
-20 6 21 0.56 0.19
20 6 -21 0.81 0.24
20 6 1 0.88 0.22
-20 -6 21 0.44 0.17
20 -6 1 0.92 0.22
20 -6 1 0.49 0.19
-20 6 -2 0.39 0.21
-20 6 22 0.07 0.16
-20 6 22 0.09 0.16
20 6 2 0.48 0.2
-20 -6 22 0.32 0.17
20 -6 2 0.61 0.22
20 -6 2 0.42 0.19
-20 6 -3 0.14 0.2
-20 6 23 0.14 0.17
-20 6 23 0.14 0.16
20 6 3 0.06 0.18
-20 -6 23 0.18 0.17
20 -6 3 0.01 0.2
20 -6 3 0.3 0.18
-20 6 -4 2.6 0.35
-20 6 24 0.51 0.19
-20 6 24 0.76 0.21
20 6 4 2.33 0.32
-20 -6 24 0.56 0.2
20 -6 4 1.85 0.29
-20 6 25 0.61 0.21
-20 6 25 0.67 0.21
20 6 5 0.68 0.25
-20 -6 25 0.76 0.23
20 -6 5 0.68 0.23
-22 6 11 0.61 0.16
22 6 -11 0.29 0.16
22 -6 -11 0.49 0.17
-22 6 10 0.11 0.14
-22 6 12 2.01 0.25
22 6 -12 1.9 0.25
22 6 -10 0.06 0.15
22 -6 -12 1.84 0.23
22 -6 -10 0.13 0.15
-22 6 9 1.07 0.2
-22 6 13 -0.04 0.12
22 6 -13 0.12 0.16
22 6 -9 0.7 0.2
-22 -6 13 0.03 0.1
22 -6 -13 -0.04 0.12
22 -6 -9 0.85 0.18
-22 6 8 10.16 0.45
-22 6 8 11.02 0.39
-22 6 14 0.17 0.15
22 6 -14 0.24 0.16
22 6 -8 9.93 0.45
-22 -6 14 0.43 0.13
22 -6 -14 0.34 0.15
22 -6 -8 10.35 0.45
-22 6 7 0.35 0.16
-22 6 15 8.48 0.4
22 6 -15 10.53 0.45
22 6 -7 0.25 0.16
-22 -6 15 8.89 0.37
22 -6 -15 8.21 0.4
22 -6 -7 0.26 0.17
-22 6 6 1.7 0.23
-22 6 16 0.23 0.15
22 6 -16 0.26 0.18
22 6 -6 1.39 0.2
22 6 -6 0.95 0.22
-22 -6 16 0.23 0.13
22 -6 -16 0.31 0.15
22 -6 -6 1.43 0.23
-22 6 5 1.23 0.22
-22 6 17 0.93 0.2
22 6 -17 1.49 0.25
22 6 -5 1.02 0.2
22 6 -5 0.65 0.19
-22 -6 17 1.05 0.19
22 -6 -17 0.93 0.2
22 -6 -5 1.08 0.22
-22 6 4 1.81 0.26
-22 6 18 3.52 0.29
22 6 -18 4.49 0.35
22 6 -4 1.94 0.24
-22 -6 18 3.57 0.29
22 -6 -18 3.36 0.3
22 -6 -4 1.77 0.26
-22 6 3 -0.08 0.15
-22 6 19 0.4 0.17
22 6 -19 1.01 0.23
22 6 -3 -0.04 0.15
-22 -6 19 0.73 0.19
22 -6 -19 0.53 0.18
22 -6 -3 -0.1 0.17
-22 6 2 1.39 0.25
-22 6 20 0.21 0.16
22 6 -20 0.33 0.21
22 6 -2 1.46 0.24
-22 -6 20 0.18 0.15
22 -6 -2 1.46 0.25
-22 6 1 0.62 0.22
-22 6 21 0.5 0.18
-22 6 21 0.29 0.17
22 6 -21 0.46 0.22
22 6 -1 0.53 0.19
-22 -6 21 0.53 0.18
22 -6 -1 0.67 0.23
22 -6 -1 0.34 0.18
-22 6 0 0.19 0.2
-22 6 22 0.46 0.19
-22 6 22 0.44 0.18
22 6 0 0.2 0.18
-22 -6 22 0.36 0.17
22 -6 0 0.34 0.2
22 -6 0 0.12 0.18
-22 6 -1 0.35 0.21
-22 6 23 0 0.16
-22 6 23 0.12 0.17
22 6 1 0.19 0.19
-22 -6 23 -0.04 0.16
22 -6 1 0.27 0.2
22 -6 1 0.22 0.18
-22 6 -2 0.27 0.23
-22 6 24 0.86 0.22
-22 6 24 1.02 0.23
22 6 2 0.42 0.21
-22 -6 24 0.6 0.21
22 -6 2 0.29 0.19
-22 6 25 0.15 0.18
-22 6 25 0.02 0.17
22 6 3 1.01 0.26
-22 -6 25 0.18 0.19
22 -6 3 0.76 0.24
-24 6 12 2.36 0.27
24 6 -12 2.8 0.31
24 -6 -12 2.97 0.29
-24 6 11 0.52 0.18
-24 6 13 0 0.15
24 6 -13 0.11 0.17
24 6 -11 0.4 0.19
24 -6 -13 -0.01 0.14
24 -6 -11 0.33 0.17
-24 6 10 0.94 0.21
-24 6 14 2.39 0.26
24 6 -14 3.15 0.31
24 6 -10 0.85 0.21
24 -6 -14 2.62 0.28
24 -6 -10 0.87 0.2
-24 6 15 2.94 0.29
24 6 -15 3.49 0.33
24 6 -9 0.43 0.19
-24 -6 15 3.16 0.26
24 -6 -15 2.61 0.28
24 -6 -9 0.36 0.16
-24 6 16 0.77 0.2
24 6 -16 0.94 0.22
24 6 -8 4.63 0.35
-24 -6 16 0.74 0.16
24 -6 -16 0.66 0.19
24 -6 -8 5.51 0.37
-24 6 7 0.2 0.16
-24 6 17 0.84 0.19
24 6 -17 1.22 0.24
24 6 -7 -0.09 0.15
-24 -6 17 1.01 0.19
24 -6 -17 0.73 0.2
24 -6 -7 0.19 0.17
-24 6 6 0.41 0.18
-24 6 18 2.94 0.3
24 6 -18 4.13 0.35
24 6 -6 0.28 0.16
24 6 -6 0.22 0.17
-24 -6 18 3.5 0.29
24 -6 -18 3 0.3
24 -6 -6 0.57 0.2
-24 6 5 0.36 0.18
-24 6 19 0.61 0.19
24 6 -19 0.48 0.21
24 6 -5 0.28 0.16
24 6 -5 0 0.15
-24 -6 19 0.42 0.16
24 -6 -19 0.28 0.18
24 -6 -5 0.24 0.19
-24 6 4 0.58 0.21
-24 6 20 0.04 0.15
24 6 -20 0.1 0.2
24 6 -4 0.59 0.19
-24 -6 20 -0.11 0.13
24 -6 -20 0.05 0.16
24 -6 -4 0.49 0.21
-24 6 3 0.11 0.17
-24 6 21 0.03 0.15
24 6 -21 -0.06 0.19
24 6 -3 -0.06 0.15
-24 -6 21 -0.12 0.14
24 -6 -21 -0.02 0.14
24 -6 -3 -0.08 0.17
-24 6 2 0.12 0.19
-24 6 22 1.49 0.25
24 6 -2 0.38 0.19
-24 -6 22 0.95 0.23
24 -6 -2 0 0.19
24 -6 -2 -0.09 0.15
-24 6 1 1.21 0.27
-24 6 23 0.13 0.16
24 6 -1 1.09 0.24
-24 -6 23 -0.15 0.15
24 -6 -1 1.27 0.26
24 -6 -1 0.96 0.23
-24 6 0 -0.09 0.19
-24 6 24 0.62 0.22
-24 6 24 0.87 0.23
24 6 0 0.05 0.18
-24 -6 24 0.3 0.2
24 -6 0 -0.19 0.16
-24 6 25 0.18 0.19
24 6 1 0.25 0.21
-24 -6 25 -0.01 0.16
24 -6 1 0 0.19
-26 6 13 -0.14 0.14
26 6 -13 0.04 0.17
26 -6 -13 -0.09 0.14
-26 6 12 2.89 0.29
-26 6 14 -0.03 0.14
26 6 -14 0.11 0.18
26 6 -12 2.99 0.32
26 -6 -14 0.01 0.14
26 -6 -12 2.76 0.3
-26 6 11 0.02 0.16
-26 6 15 0 0.13
26 6 -15 -0.04 0.15
26 6 -11 0.19 0.18
26 -6 -15 -0.15 0.14
26 -6 -11 0.12 0.16
-26 6 16 0.82 0.2
26 6 -16 0.96 0.23
26 6 -10 -0.13 0.17
26 -6 -16 0.87 0.21
26 -6 -10 -0.02 0.15
-26 6 17 0.41 0.18
26 6 -17 0.3 0.18
26 6 -9 0.83 0.22
-26 -6 17 0.45 0.15
26 -6 -17 0.38 0.18
26 -6 -9 0.71 0.21
-26 6 18 -0.05 0.15
26 6 -18 0.07 0.18
26 6 -8 0.63 0.21
-26 -6 18 -0.09 0.12
26 -6 -18 0.03 0.14
26 -6 -8 0.72 0.21
-26 6 7 0.42 0.18
-26 6 19 -0.05 0.15
26 6 -19 -0.16 0.17
26 6 -7 0.04 0.16
-26 -6 19 -0.01 0.13
26 -6 -19 -0.16 0.14
26 -6 -7 -0.06 0.17
-26 6 6 0.6 0.2
-26 6 20 0.45 0.19
26 6 -20 0.43 0.22
26 6 -6 0.47 0.19
-26 -6 20 0.5 0.17
26 -6 -20 0.33 0.18
26 -6 -6 0.38 0.2
-26 6 5 0.3 0.19
-26 6 21 -0.02 0.15
26 6 -5 0.38 0.19
-26 -6 21 0.07 0.15
26 -6 -21 0.04 0.17
26 -6 -5 0.39 0.21
-26 6 4 -0.06 0.16
-26 6 22 0.03 0.14
26 6 -4 -0.21 0.17
-26 -6 22 -0.07 0.14
26 -6 -22 0.01 0.17
26 -6 -4 -0.04 0.19
-26 6 3 -0.04 0.18
-26 6 23 0.21 0.17
26 6 -3 -0.1 0.17
-26 -6 23 0.09 0.16
26 -6 -23 0.03 0.17
26 -6 -3 -0.31 0.17
26 -6 -3 -0.07 0.16
-26 6 2 0.32 0.2
-26 6 24 0.07 0.17
26 6 -2 0.32 0.21
-26 -6 24 -0.06 0.16
26 -6 -2 0.21 0.19
-28 6 14 0.43 0.19
28 6 -14 0.34 0.21
28 -6 -14 0.35 0.19
-28 6 13 0.06 0.15
-28 6 15 -0.02 0.15
28 6 -15 -0.08 0.18
28 6 -13 -0.07 0.17
28 -6 -15 0.02 0.16
28 -6 -13 0.02 0.16
-28 6 16 0.54 0.2
28 6 -16 0.12 0.18
28 6 -12 1.48 0.27
28 -6 -16 0.35 0.18
28 -6 -12 1.69 0.26
-28 6 17 0.12 0.17
28 6 -17 0.44 0.21
28 6 -11 1.62 0.28
28 -6 -17 0.32 0.19
28 -6 -11 1.38 0.25
-28 6 18 0.47 0.19
28 6 -18 0.56 0.22
28 6 -10 0.86 0.24
28 -6 -18 0.31 0.19
28 -6 -10 1.11 0.24
-28 6 19 0.11 0.17
28 6 -19 -0.01 0.2
28 6 -9 0.31 0.2
-28 -6 19 0.03 0.13
28 -6 -19 0.19 0.17
28 -6 -9 0.7 0.22
-28 6 20 0.84 0.22
28 6 -20 0.8 0.24
28 6 -8 0.54 0.22
-28 -6 20 0.77 0.2
28 -6 -20 0.77 0.22
28 -6 -8 0.85 0.24
-28 6 21 0.35 0.2
28 6 -7 0.87 0.24
-28 -6 21 0.31 0.17
28 -6 -21 0.07 0.17
28 -6 -7 1.05 0.25
-28 6 6 0.98 0.25
-28 6 22 0.06 0.16
28 6 -6 0.61 0.21
-28 -6 22 0.15 0.16
28 -6 -22 0.07 0.16
28 -6 -6 0.9 0.25
-28 6 5 -0.03 0.19
-28 6 23 0.12 0.17
-28 -6 23 0.13 0.16
28 -6 -23 0.09 0.18
28 -6 -5 0.03 0.2
28 -6 -24 -0.14 0.17
-30 6 15 0.11 0.18
30 6 -15 0.15 0.2
30 -6 -15 0.01 0.17
-30 6 16 0.34 0.19
30 6 -16 0.28 0.21
30 6 -14 0.26 0.2
30 -6 -16 0.51 0.19
30 -6 -14 -0.07 0.16
-30 6 17 0.36 0.2
30 6 -17 0.35 0.21
30 6 -13 0.27 0.21
30 -6 -17 0.3 0.19
30 -6 -13 0.63 0.21
-30 6 18 1.16 0.25
30 6 -18 1.69 0.29
30 6 -12 0.91 0.26
30 -6 -18 1.21 0.25
30 -6 -12 1.19 0.25
-30 6 19 -0.04 0.15
30 6 -19 0 0.2
30 6 -11 0.42 0.22
30 -6 -19 0.04 0.17
30 -6 -11 0.28 0.21
-30 6 20 0.49 0.21
30 6 -20 0.44 0.24
30 6 -10 0.59 0.24
30 -6 -20 0.53 0.2
30 -6 -10 0.78 0.24
-30 6 21 0.08 0.18
30 6 -9 0.43 0.22
30 -6 -21 0.12 0.18
30 -6 -9 0.59 0.23
-30 6 22 0.43 0.21
-30 -6 22 0.35 0.18
30 -6 -22 0.22 0.19
30 -6 -8 0.43 0.23
32 6 -16 0.15 0.22
32 -6 -16 0 0.18
-32 6 17 0.08 0.19
32 6 -17 0.08 0.2
32 6 -15 -0.07 0.21
32 -6 -17 0.27 0.19
32 -6 -15 0.01 0.18
-32 6 18 0.35 0.21
32 6 -18 0.65 0.24
32 6 -14 0.09 0.22
32 -6 -18 0.67 0.23
32 -6 -14 0.18 0.19
-32 6 19 0.51 0.21
32 -6 -19 0.27 0.21
32 -6 -13 -0.06 0.19
32 -6 -20 0.13 0.19
32 -6 -12 -0.32 0.17
-1 7 0 1.02 0.13
-1 7 0 1 0.14
-1 7 1 0.32 0.09
-1 7 1 0.35 0.1
1 7 -1 0.34 0.09
1 7 -1 0.5 0.12
1 7 0 0.99 0.12
1 7 0 1.15 0.14
-1 -7 0 1.21 0.14
-1 -7 1 0.53 0.11
1 -7 -1 0.39 0.1
1 -7 0 1.1 0.14
-1 7 -1 0.68 0.1
-1 7 -1 0.77 0.13
-1 7 2 7.57 0.26
-1 7 2 8.59 0.28
1 7 -2 7.5 0.22
1 7 -2 8.73 0.31
1 7 1 0.83 0.12
1 7 1 1 0.14
-1 -7 -1 0.8 0.12
-1 -7 2 8.74 0.3
1 -7 -2 7.95 0.27
1 -7 1 0.91 0.13
-1 7 -2 21.71 0.37
-1 7 -2 25.97 0.5
-1 7 3 0.2 0.09
-1 7 3 0.16 0.1
1 7 -3 0.18 0.07
1 7 -3 0.26 0.12
1 7 2 24.79 0.45
1 7 2 22.67 0.44
-1 -7 -2 24.24 0.41
-1 -7 3 0.32 0.1
1 -7 -3 0.18 0.09
1 -7 2 26.46 0.5
-1 7 -3 -0.09 0.07
-1 7 -3 -0.02 0.1
-1 7 4 0.32 0.11
-1 7 4 0.39 0.11
1 7 -4 0.28 0.08
1 7 -4 0.41 0.14
1 7 3 0.07 0.09
1 7 3 0.07 0.09
-1 -7 -3 -0.03 0.07
-1 -7 4 0.4 0.12
1 -7 -4 0.21 0.1
1 -7 3 0.12 0.1
-1 7 -4 0.39 0.1
-1 7 -4 0.51 0.14
-1 7 5 7.74 0.3
-1 7 5 6.99 0.27
1 7 -5 7.09 0.21
1 7 -5 7.89 0.33
1 7 4 0.6 0.13
1 7 4 0.56 0.12
-1 -7 -4 0.65 0.11
-1 -7 5 8.93 0.34
1 -7 -5 6.76 0.26
1 -7 4 0.69 0.15
-1 7 -5 11.16 0.39
-1 7 6 60.17 0.79
-1 7 6 55.83 0.63
1 7 -6 48.08 0.73
1 7 5 9.64 0.34
1 7 5 8.63 0.29
-1 -7 -5 9.01 0.25
-1 -7 6 66.8 0.84
1 -7 -6 53.29 0.6
1 -7 5 11.07 0.39
-1 7 -6 25.04 0.56
-1 7 7 5.95 0.29
-1 7 7 5.61 0.24
1 7 -7 3.32 0.24
1 7 6 24.32 0.53
1 7 6 21.14 0.43
-1 -7 -6 21.02 0.36
-1 -7 7 6.42 0.34
1 -7 -7 5.28 0.23
1 -7 6 26.58 0.58
-1 7 -7 -0.17 0.13
-1 7 8 0.65 0.16
-1 7 8 0.53 0.12
1 7 -8 0.22 0.17
1 7 7 0.08 0.12
1 7 7 0.12 0.1
-1 -7 8 0.4 0.16
1 -7 -8 0.39 0.1
1 -7 7 -0.1 0.13
-1 7 -8 0.42 0.17
-1 7 9 0.69 0.16
-1 7 9 0.47 0.12
1 7 -9 0.2 0.16
1 7 8 0.45 0.15
1 7 8 0.46 0.12
-1 -7 9 0.5 0.16
1 -7 8 0.51 0.15
-1 7 -9 1.24 0.22
-1 7 10 8.47 0.38
1 7 -10 8.22 0.39
1 7 9 1.3 0.2
1 7 9 0.98 0.14
-1 -7 10 8.42 0.37
1 -7 9 1.43 0.21
-1 7 -10 2.9 0.28
-1 7 11 0.01 0.11
1 7 -11 -0.04 0.15
1 7 10 3.02 0.27
-1 -7 11 0.13 0.13
1 -7 10 3.2 0.27
-1 7 -11 0.59 0.19
-1 7 12 0.05 0.13
1 7 -12 -0.08 0.15
1 7 11 0.86 0.19
-1 -7 12 0.05 0.14
1 -7 11 0.66 0.19
-1 7 -12 0.02 0.15
-1 7 13 1.71 0.23
1 7 -13 1.89 0.27
1 7 12 0.01 0.13
-1 -7 13 2.11 0.26
1 -7 12 -0.03 0.15
-1 7 -13 0.06 0.17
-1 7 14 0.03 0.14
1 7 -14 0.18 0.18
1 7 13 -0.1 0.14
-1 -7 14 0.07 0.16
1 -7 13 -0.15 0.14
-1 7 -14 1.21 0.25
-1 7 15 -0.02 0.14
1 7 -15 0.12 0.18
1 7 14 1.11 0.23
-1 -7 15 0.09 0.17
1 -7 14 1.33 0.24
-1 7 -15 0.04 0.19
-1 7 16 1.42 0.26
1 7 -16 1.54 0.27
1 7 15 0.06 0.17
-1 -7 16 1.29 0.25
1 -7 15 0.04 0.16
-1 7 -16 0 0.2
-1 7 17 1 0.25
1 7 -17 0.92 0.26
1 7 16 0.15 0.19
-1 -7 17 1 0.25
1 -7 16 0.2 0.18
-1 7 -17 0.19 0.24
-1 7 18 1.21 0.27
1 7 -18 1.05 0.27
1 7 17 0.36 0.22
-1 -7 18 1.18 0.27
1 -7 17 0.1 0.19
-1 7 19 0.74 0.25
1 7 18 1.31 0.27
-1 -7 19 0.75 0.24
1 -7 18 1.03 0.26
-3 7 1 5.41 0.22
-3 7 1 6.26 0.25
-3 7 2 1.08 0.13
-3 7 2 1.28 0.14
3 7 -2 1.12 0.12
3 7 -2 1.4 0.17
3 7 -1 5.76 0.21
3 7 -1 5.88 0.26
-3 -7 1 6.18 0.23
-3 -7 2 1.25 0.14
3 -7 -2 1.34 0.15
3 -7 -1 5.66 0.26
-3 7 0 0.37 0.09
-3 7 0 0.47 0.12
-3 7 3 0.05 0.09
-3 7 3 0.03 0.08
3 7 -3 0.11 0.07
3 7 -3 0.06 0.1
3 7 0 0.38 0.09
3 7 0 0.33 0.11
-3 -7 0 0.3 0.09
-3 -7 3 0.03 0.08
3 -7 -3 0.11 0.08
3 -7 0 0.51 0.11
-3 7 -1 0.09 0.08
-3 7 -1 0.09 0.1
-3 7 4 12.1 0.35
-3 7 4 13.25 0.32
3 7 -4 11.26 0.24
3 7 -4 13.3 0.38
3 7 1 0.09 0.09
3 7 1 0.08 0.09
-3 -7 -1 0.03 0.07
-3 -7 4 14.83 0.38
3 -7 -4 11.83 0.33
3 -7 1 0.07 0.09
-3 7 -2 3.28 0.19
-3 7 -2 3.85 0.24
-3 7 5 0.08 0.11
-3 7 5 -0.06 0.09
3 7 -5 0.02 0.06
3 7 -5 0.14 0.12
3 7 2 3.62 0.21
3 7 2 2.94 0.21
-3 -7 -2 3.48 0.17
-3 -7 5 0.02 0.1
3 -7 -5 0.03 0.08
3 -7 2 3.76 0.25
-3 7 -3 0.02 0.08
-3 7 -3 -0.01 0.11
-3 7 6 43.1 0.67
-3 7 6 44.6 0.54
3 7 -6 39.56 0.4
3 7 3 -0.06 0.1
3 7 3 -0.04 0.09
-3 -7 -3 -0.05 0.05
-3 -7 6 45.48 0.67
3 -7 -6 38.21 0.55
3 -7 3 -0.04 0.1
-3 7 -4 19.2 0.39
-3 7 -4 23.55 0.53
-3 7 7 0.21 0.12
-3 7 7 0.45 0.11
3 7 -7 0.01 0.04
3 7 4 21.83 0.48
3 7 4 18.65 0.42
-3 -7 7 0.28 0.13
3 -7 -7 0.24 0.1
3 -7 4 19.68 0.48
-3 7 -5 -0.11 0.14
-3 7 8 11.11 0.38
-3 7 8 10.95 0.29
3 7 -8 7.73 0.33
3 7 5 0.11 0.11
3 7 5 0.02 0.1
-3 -7 8 13.08 0.43
3 -7 -8 9.68 0.31
3 -7 5 -0.02 0.12
-3 7 -6 2.43 0.27
-3 7 9 0.62 0.16
3 7 -9 0.26 0.18
3 7 6 2.19 0.23
3 7 6 2.03 0.2
-3 -7 9 0.63 0.17
3 -7 -9 0.54 0.12
3 -7 6 2.32 0.27
-3 7 -7 0.13 0.14
-3 7 10 18.35 0.51
3 7 -10 20.55 0.56
3 7 7 -0.03 0.11
3 7 7 0.02 0.1
-3 -7 10 19.17 0.52
3 -7 -10 15.88 0.38
3 -7 7 -0.02 0.13
-3 7 -8 0.27 0.16
-3 7 11 0.17 0.14
3 7 -11 -0.13 0.15
3 7 8 0.32 0.15
3 7 8 0.34 0.12
-3 -7 11 -0.05 0.13
3 -7 8 0.18 0.15
3 -7 8 0.34 0.1
-3 7 -9 0.78 0.19
-3 7 12 1.32 0.21
3 7 -12 1.08 0.22
3 7 9 0.82 0.17
3 7 9 0.69 0.15
-3 -7 12 1.16 0.2
3 -7 9 0.62 0.18
-3 7 -10 3.65 0.31
-3 7 13 0.66 0.18
3 7 -13 0.58 0.2
3 7 10 3.9 0.31
-3 -7 13 0.82 0.19
3 -7 10 4.07 0.32
-3 7 -11 -0.05 0.15
-3 7 14 0.23 0.16
3 7 -14 0.39 0.18
3 7 11 0.16 0.16
-3 -7 14 0.28 0.16
3 -7 11 0.11 0.15
-3 7 -12 0.47 0.19
-3 7 15 0.07 0.14
3 7 -15 0.01 0.18
3 7 12 0.31 0.16
-3 -7 15 0.09 0.14
3 -7 12 0.38 0.18
-3 7 -13 0.4 0.2
-3 7 16 1.59 0.25
3 7 -16 1.68 0.27
3 7 13 0.25 0.18
-3 -7 16 1.73 0.26
3 -7 13 0.22 0.17
-3 7 -14 0.16 0.2
-3 7 17 0.42 0.18
3 7 -17 0.34 0.21
3 7 14 0.18 0.18
-3 -7 17 0.09 0.17
3 -7 14 0.36 0.2
-3 7 -15 0.11 0.21
-3 7 18 0.71 0.23
3 7 -18 0.82 0.24
3 7 15 0.08 0.19
-3 -7 18 0.75 0.23
3 -7 15 0.04 0.19
-3 7 -16 1 0.27
-3 7 19 -0.04 0.19
3 7 -19 0.11 0.23
3 7 16 1.32 0.26
-3 -7 19 0.02 0.19
3 -7 16 1.6 0.29
-3 -7 20 0.67 0.23
3 -7 17 -0.02 0.2
-5 7 2 0.1 0.09
-5 7 2 -0.02 0.08
-5 7 3 6.11 0.26
-5 7 3 7.59 0.26
5 7 -3 6.39 0.2
5 7 -3 6.53 0.28
5 7 -2 0.07 0.07
5 7 -2 0.11 0.1
-5 -7 2 0.09 0.07
-5 -7 3 7.4 0.26
5 -7 -3 5.97 0.26
5 -7 -2 0.06 0.09
-5 7 1 1.25 0.15
-5 7 1 1.57 0.18
-5 7 4 2.32 0.18
-5 7 4 2.84 0.19
5 7 -4 2.61 0.14
5 7 -4 2.91 0.22
5 7 -1 1.46 0.15
5 7 -1 1.11 0.16
-5 -7 1 1.6 0.15
-5 -7 4 3.2 0.2
5 -7 -4 2.46 0.2
5 -7 -1 1.28 0.16
-5 7 0 9.26 0.29
-5 7 0 11.48 0.34
-5 7 5 5.44 0.25
-5 7 5 6.78 0.23
5 7 -5 5.51 0.16
5 7 -5 6.54 0.3
5 7 0 11.07 0.31
5 7 0 8.78 0.31
-5 -7 0 11.78 0.28
-5 -7 5 7.48 0.28
5 -7 -5 5.52 0.25
5 -7 0 10.13 0.35
-5 7 -1 1.98 0.17
-5 7 -1 2.49 0.22
-5 7 6 -0.2 0.09
-5 7 6 -0.04 0.09
5 7 -6 0.03 0.05
5 7 -6 0.01 0.05
5 7 1 2.1 0.18
5 7 1 1.45 0.17
-5 -7 -1 0.08 0.03
-5 -7 6 0.08 0.1
5 -7 -6 -0.02 0.08
5 -7 1 2.11 0.23
-5 7 -2 0.84 0.13
-5 7 -2 1.17 0.18
-5 7 7 2 0.2
-5 7 7 1.96 0.17
5 7 -7 0.01 0.03
5 7 2 0.86 0.14
5 7 2 0.68 0.14
-5 -7 -2 0.96 0.1
-5 -7 7 2.33 0.22
5 -7 -7 1.9 0.19
5 -7 2 0.81 0.15
-5 7 -3 0.22 0.11
-5 7 -3 0.28 0.14
-5 7 8 5.79 0.29
-5 7 8 4.14 0.18
5 7 3 0.15 0.13
5 7 3 0.28 0.13
-5 -7 8 7.29 0.33
5 -7 -8 5.31 0.25
5 -7 3 0.02 0.06
-5 7 -4 28.4 0.6
-5 7 9 23.34 0.54
5 7 -9 25.99 0.59
5 7 4 27.64 0.57
5 7 4 22.71 0.49
-5 -7 9 26.43 0.58
5 -7 -9 21.1 0.44
5 -7 4 26.41 0.59
-5 7 -5 5.43 0.33
-5 7 10 13.91 0.44
5 7 -10 15.73 0.5
5 7 5 5.9 0.29
5 7 5 4.06 0.26
-5 -7 10 15.24 0.47
5 -7 -10 12.21 0.36
5 -7 5 5.44 0.33
-5 7 -6 8.17 0.38
-5 7 11 8.85 0.39
5 7 -11 9.01 0.41
5 7 6 9.46 0.38
5 7 6 7.23 0.32
-5 -7 11 8.51 0.37
5 -7 -11 7.12 0.3
5 -7 6 9.31 0.39
-5 7 -7 0.09 0.15
-5 7 12 2.82 0.27
5 7 -12 3.01 0.3
5 7 7 0.15 0.14
5 7 7 -0.15 0.11
-5 -7 12 2.75 0.26
5 -7 -12 2.37 0.21
5 -7 7 -0.1 0.14
5 -7 7 0.05 0.09
-5 7 -8 1.81 0.25
-5 7 13 0.41 0.16
5 7 -13 0.09 0.17
5 7 8 1.91 0.23
5 7 8 1.2 0.18
-5 -7 13 0.16 0.14
5 -7 8 1.8 0.24
5 -7 8 1.27 0.16
-5 7 -9 2.41 0.27
-5 7 14 -0.06 0.12
5 7 -14 0.01 0.16
5 7 9 2.41 0.25
-5 -7 14 -0.09 0.12
5 -7 9 2.4 0.29
-5 7 -10 1.76 0.25
-5 7 15 -0.03 0.13
5 7 -15 -0.17 0.15
5 7 10 1.87 0.25
-5 -7 15 -0.04 0.13
5 -7 10 2.42 0.29
-5 7 -11 0.18 0.17
-5 7 16 1.83 0.26
5 7 -16 1.84 0.28
5 7 11 -0.02 0.13
-5 -7 16 1.57 0.24
5 -7 11 0.2 0.18
-5 7 -12 -0.01 0.18
-5 7 17 -0.03 0.15
5 7 -17 0 0.19
5 7 12 0.13 0.16
-5 -7 17 0.08 0.15
5 -7 12 0.01 0.17
-5 7 -13 -0.07 0.18
-5 7 18 -0.01 0.15
5 7 -18 0.01 0.19
5 7 13 -0.06 0.15
-5 -7 18 0.04 0.16
5 -7 13 0.2 0.19
-5 7 -14 3.69 0.38
-5 7 19 -0.06 0.18
5 7 -19 0.15 0.22
5 7 14 3.19 0.35
-5 -7 19 -0.01 0.15
5 -7 14 3.86 0.36
-5 7 -15 0.36 0.23
-5 7 20 1.75 0.3
5 7 -20 1.33 0.3
5 7 15 0.34 0.21
-5 -7 20 1.13 0.27
5 -7 15 0.21 0.22
-7 7 3 6.38 0.27
-7 7 3 7.8 0.27
-7 7 4 9.23 0.31
-7 7 4 11.17 0.3
7 7 -4 9.73 0.24
7 7 -4 9.3 0.34
7 7 -3 6.97 0.22
7 7 -3 6.53 0.31
-7 -7 3 8.29 0.26
-7 -7 4 11.43 0.31
7 -7 -4 8.72 0.32
7 -7 -3 6.63 0.3
-7 7 2 0.01 0.09
-7 7 2 0.06 0.1
-7 7 5 2.52 0.21
-7 7 5 3.32 0.19
7 7 -5 2.63 0.13
7 7 -5 2.73 0.24
7 7 -2 -0.04 0.08
7 7 -2 -0.11 0.1
-7 -7 2 0.06 0.07
-7 -7 5 3.4 0.2
7 -7 -5 2.29 0.19
7 -7 -2 0.06 0.11
-7 7 1 0.11 0.1
-7 7 1 0.21 0.11
-7 7 6 2.39 0.21
-7 7 6 3.19 0.18
7 7 -6 2.36 0.11
7 7 -1 -0.02 0.09
7 7 -1 0.03 0.11
-7 -7 1 0.07 0.06
-7 -7 6 3.41 0.21
7 -7 -6 2.15 0.2
7 -7 -1 0.28 0.12
-7 7 0 16.27 0.4
-7 7 0 19.24 0.45
-7 7 7 1.38 0.17
-7 7 7 1.58 0.14
7 7 -7 0 0.03
7 7 0 19.27 0.41
7 7 0 15.7 0.42
-7 -7 0 14.22 0.27
-7 -7 7 2.12 0.2
7 -7 -7 1.48 0.17
7 -7 0 14.77 0.42
-7 7 -1 4.18 0.24
-7 7 -1 5.2 0.29
-7 7 8 0.05 0.11
-7 7 8 -0.02 0.03
7 7 -8 -0.02 0.06
7 7 1 4.91 0.26
7 7 1 3.65 0.27
-7 -7 8 0.21 0.11
7 -7 -8 0.37 0.12
-7 7 -2 5.25 0.27
-7 7 -2 5.71 0.33
-7 7 9 4.24 0.27
7 7 -9 5.47 0.32
7 7 2 5.12 0.28
7 7 2 4.38 0.29
-7 -7 9 4.81 0.27
7 -7 -9 3.89 0.25
7 -7 2 3.62 0.28
-7 7 -3 5.03 0.32
-7 7 10 50.12 0.79
7 7 -10 60.6 0.88
7 7 3 5.05 0.29
7 7 3 4.18 0.28
-7 -7 10 55.35 0.81
7 -7 -10 46.76 0.69
7 -7 3 5.09 0.32
-7 7 -4 3.83 0.29
-7 7 11 12.34 0.44
7 7 -11 14.91 0.49
7 7 4 4.29 0.28
7 7 4 2.77 0.25
-7 -7 11 13.64 0.46
7 -7 -11 10.88 0.37
7 -7 4 3.91 0.29
-7 7 -5 0.71 0.19
-7 7 12 5.69 0.32
7 7 -12 6.55 0.37
7 7 5 0.69 0.17
7 7 5 0.57 0.15
-7 -7 12 6.07 0.35
7 -7 -12 5.15 0.27
7 -7 5 0.69 0.18
-7 7 -6 11.54 0.45
-7 7 13 0.12 0.13
7 7 -13 0.09 0.18
7 7 6 12.55 0.45
7 7 6 9.79 0.39
-7 -7 13 -0.03 0.13
7 -7 -13 0 0.1
7 -7 6 12.86 0.47
-7 7 -7 1.14 0.22
-7 7 14 10.22 0.43
7 7 -14 12.16 0.47
7 7 7 1.37 0.21
-7 -7 14 11.07 0.45
7 -7 -14 9.2 0.35
7 -7 7 1.36 0.22
7 -7 7 1.08 0.17
-7 7 -8 0.7 0.2
-7 7 15 3.84 0.3
7 7 -15 4.92 0.36
7 7 8 0.77 0.18
-7 -7 15 4.24 0.31
7 -7 8 0.51 0.19
7 -7 8 0.67 0.15
-7 7 -9 -0.14 0.14
-7 7 16 1.61 0.25
7 7 -16 2.39 0.3
7 7 9 -0.02 0.15
-7 -7 16 1.93 0.26
7 -7 9 0.16 0.17
-7 7 -10 2.21 0.29
-7 7 17 0.88 0.22
7 7 -17 1.03 0.25
7 7 10 2.76 0.3
-7 -7 17 0.83 0.2
7 -7 10 2.39 0.29
-7 7 -11 -0.03 0.19
-7 7 18 0.2 0.16
7 7 -18 0.2 0.2
7 7 11 -0.15 0.16
-7 -7 18 0.05 0.17
7 -7 11 -0.12 0.17
-7 7 -12 0.17 0.21
-7 7 19 0.16 0.18
7 7 -19 -0.09 0.19
7 7 12 0.26 0.19
-7 -7 19 0.06 0.17
7 -7 12 0.19 0.19
-7 7 -13 0.39 0.22
-7 7 20 0.73 0.22
7 7 -20 0.74 0.26
7 7 13 0.61 0.23
-7 -7 20 0.5 0.21
7 -7 13 0.34 0.22
-7 7 -14 3.26 0.37
-7 7 21 0.21 0.22
7 7 -21 0.57 0.24
7 7 14 3.41 0.37
-7 -7 21 0.26 0.21
7 -7 14 3.46 0.37
-9 7 4 4.59 0.26
-9 7 4 5.43 0.24
-9 7 5 -0.06 0.09
-9 7 5 0.07 0.09
9 7 -5 0.09 0.07
9 7 -5 -0.03 0.11
9 7 -4 5.25 0.2
9 7 -4 4.6 0.27
-9 -7 4 5.29 0.22
-9 -7 5 -0.02 0.08
9 -7 -5 0 0.1
9 -7 -4 4.87 0.28
-9 7 3 9.24 0.32
-9 7 3 11.58 0.34
-9 7 6 24.21 0.51
-9 7 6 31.35 0.45
9 7 -3 11.07 0.29
9 7 -3 9.63 0.36
-9 -7 3 11.22 0.28
-9 -7 6 30.52 0.5
9 -7 -6 24.76 0.52
9 -7 -3 10.03 0.36
-9 7 2 5.75 0.28
-9 7 2 6.93 0.28
-9 7 7 1.11 0.16
-9 7 7 1.46 0.15
9 7 -7 0 0.03
9 7 -2 7.07 0.26
9 7 -2 5.41 0.29
-9 -7 7 1.63 0.18
9 -7 -7 1.15 0.16
9 -7 -2 5.54 0.3
-9 7 1 0.15 0.12
-9 7 1 0.37 0.14
-9 7 8 -0.08 0.11
-9 7 8 -0.01 0.03
9 7 -8 0.03 0.09
9 7 -1 0.16 0.11
9 7 -1 0.09 0.13
-9 -7 8 0.11 0.1
9 -7 -8 -0.03 0.1
9 -7 -1 0.04 0.08
-9 7 0 65.75 0.82
-9 7 0 76.56 0.9
-9 7 9 4.53 0.29
9 7 -9 5.77 0.34
9 7 0 79.47 0.85
9 7 0 60.34 0.83
-9 -7 9 5.71 0.29
9 -7 -9 4.52 0.27
9 -7 0 53.1 0.8
-9 7 -1 0.85 0.17
-9 7 -1 1.01 0.2
-9 7 10 37.47 0.69
9 7 -10 44.46 0.75
9 7 1 0.7 0.17
9 7 1 0.66 0.18
-9 -7 10 44.53 0.72
9 -7 -10 35.21 0.62
9 -7 1 0.85 0.2
-9 7 -2 0.99 0.19
-9 7 11 0.05 0.13
9 7 -11 0.45 0.19
9 7 2 1.01 0.18
9 7 2 0.78 0.17
-9 -7 11 0.12 0.13
9 -7 -11 0.03 0.12
9 -7 2 0.81 0.19
-9 7 -3 -0.11 0.13
-9 7 12 2.34 0.26
9 7 -12 2.82 0.3
9 7 3 0.07 0.13
9 7 3 -0.09 0.12
-9 -7 12 2.36 0.26
9 -7 -12 1.86 0.22
9 -7 3 -0.19 0.12
-9 7 -4 4.1 0.31
-9 7 13 0.23 0.15
9 7 -13 0.12 0.17
9 7 4 4.73 0.3
9 7 4 3.68 0.29
-9 -7 13 0.11 0.13
9 -7 -13 0.01 0.12
9 -7 4 4.82 0.32
-9 7 -5 3.86 0.31
-9 7 14 1.51 0.23
9 7 -14 1.46 0.25
9 7 5 4.56 0.31
9 7 5 3.22 0.26
-9 -7 14 1.17 0.2
9 -7 -14 1.02 0.18
9 -7 5 4.16 0.31
-9 7 -6 2.27 0.27
-9 7 15 0.88 0.19
9 7 -15 1.07 0.23
9 7 6 2.88 0.28
-9 -7 15 1.49 0.23
9 -7 -15 0.97 0.17
9 -7 6 2.99 0.3
9 -7 6 2.39 0.23
-9 7 -7 1.32 0.24
-9 7 16 8.71 0.41
9 7 -16 10.66 0.46
9 7 7 1.4 0.23
-9 -7 16 8.97 0.43
9 -7 -16 8.28 0.36
9 -7 7 1.43 0.24
9 -7 7 1.16 0.18
-9 7 -8 -0.03 0.16
-9 7 17 1.09 0.22
9 7 -17 1.26 0.25
9 7 8 0.03 0.14
-9 -7 17 1.23 0.23
9 -7 8 -0.14 0.15
9 -7 8 0.09 0.13
-9 7 -9 0.27 0.18
-9 7 18 0.71 0.19
9 7 -18 1 0.24
9 7 9 0.47 0.2
-9 -7 18 0.79 0.2
9 -7 9 0.71 0.21
-9 7 -10 3.85 0.36
-9 7 19 0.79 0.22
9 7 -19 1.07 0.25
9 7 10 3.85 0.35
-9 -7 19 1.05 0.23
9 -7 10 4.65 0.37
-9 7 -11 0.28 0.22
-9 7 20 1.8 0.27
9 7 -20 1.93 0.3
9 7 11 0.01 0.18
-9 -7 20 1.56 0.27
9 -7 11 0 0.18
-9 7 -12 0.01 0.2
-9 7 21 0.72 0.22
9 7 -21 0.99 0.26
9 7 12 0.04 0.2
9 -7 12 0.12 0.2
-9 7 -13 -0.01 0.21
-9 7 22 0.34 0.21
9 7 -22 0.74 0.26
9 7 13 0.1 0.21
-9 -7 22 0.3 0.21
9 -7 13 -0.21 0.2
-11 7 5 1.5 0.18
-11 7 5 2.04 0.18
-11 7 6 0.72 0.15
-11 7 6 1.35 0.15
11 7 -6 0.42 0.1
11 7 -5 1.86 0.15
11 7 -5 1.45 0.2
-11 -7 5 1.74 0.16
-11 -7 6 1.1 0.14
11 -7 -6 0.77 0.15
11 -7 -5 1.79 0.2
-11 7 4 2.69 0.22
-11 7 4 3.72 0.24
-11 7 7 1.96 0.22
-11 7 7 2.27 0.17
11 7 -7 0.76 0.13
11 7 -4 3.31 0.19
11 7 -4 2.44 0.24
-11 -7 4 2.8 0.17
-11 -7 7 2.18 0.19
11 -7 -7 1.93 0.22
11 -7 -4 2.54 0.23
-11 7 3 0.8 0.16
-11 7 3 0.84 0.16
-11 7 8 1.08 0.18
11 7 -8 0.99 0.18
11 7 -3 0.88 0.14
11 7 -3 0.44 0.15
-11 -7 8 1.11 0.15
11 -7 -8 1.05 0.16
11 -7 -3 0.63 0.16
-11 7 2 13.59 0.42
-11 7 2 15.94 0.43
-11 7 9 4.55 0.29
11 7 -9 5.79 0.32
11 7 -2 17.11 0.41
11 7 -2 12.56 0.43
-11 -7 9 5.51 0.27
11 -7 -9 4.72 0.28
11 -7 -2 13.9 0.45
-11 7 1 6.9 0.32
-11 7 1 7.87 0.36
-11 7 10 1.5 0.2
11 7 -10 2.25 0.25
11 7 -1 8.14 0.32
11 7 -1 6.53 0.34
-11 -7 10 1.92 0.22
11 -7 -10 1.54 0.19
11 -7 -1 7.22 0.36
-11 7 0 19.47 0.49
-11 7 0 22.87 0.55
-11 7 11 8.55 0.37
11 7 -11 10.19 0.4
11 7 0 23.31 0.51
11 7 0 18.54 0.52
-11 -7 11 9.7 0.37
11 -7 -11 8.17 0.35
11 -7 0 22.79 0.58
-11 7 -1 8.23 0.37
-11 7 12 0.07 0.14
11 7 -12 0.11 0.16
11 7 1 9.02 0.36
11 7 1 6.58 0.34
-11 -7 12 0.08 0.13
11 -7 -12 -0.05 0.11
11 -7 1 8.41 0.4
-11 7 -2 1.85 0.24
-11 7 13 9.28 0.39
11 7 -13 13.18 0.47
11 7 2 1.95 0.23
11 7 2 1.57 0.22
-11 -7 13 10.78 0.42
11 -7 -13 8.94 0.36
11 -7 2 1.93 0.24
-11 7 -3 7.35 0.39
-11 7 14 0.06 0.13
11 7 -14 0.07 0.16
11 7 3 8.23 0.37
11 7 3 5.64 0.34
-11 -7 14 0.02 0.14
11 -7 -14 0.11 0.12
11 -7 3 7 0.36
-11 7 -4 -0.07 0.16
-11 7 15 2.85 0.26
11 7 -15 3.87 0.34
11 7 4 -0.08 0.13
-11 -7 15 3.16 0.29
11 -7 -15 2.93 0.25
11 -7 4 -0.01 0.16
-11 7 -5 0.18 0.16
-11 7 16 4.94 0.33
11 7 -16 6.45 0.38
11 7 5 0.26 0.16
-11 -7 16 5.08 0.33
11 -7 -16 4.14 0.28
11 -7 5 0.28 0.17
11 -7 5 0.21 0.13
-11 7 -6 2.72 0.29
-11 7 17 0.16 0.15
11 7 -17 0.19 0.2
11 7 6 3.05 0.28
-11 -7 17 0.1 0.15
11 -7 -17 0.15 0.13
11 -7 6 3.02 0.29
11 -7 6 2.42 0.25
-11 7 18 -0.1 0.15
11 7 -18 -0.06 0.2
11 7 7 0.45 0.19
-11 -7 18 -0.13 0.14
11 -7 7 0.49 0.2
11 -7 7 0.31 0.15
-11 7 -8 0.49 0.22
-11 7 19 2.2 0.29
11 7 -19 2.9 0.32
11 7 8 0.41 0.2
-11 -7 19 2.69 0.29
11 -7 8 0.6 0.21
11 -7 8 0.25 0.15
-11 7 -9 0.11 0.19
-11 7 20 1.31 0.25
11 7 -20 1.82 0.29
11 7 9 0 0.17
-11 -7 20 1.13 0.23
11 -7 9 0.28 0.2
-11 7 -10 3.2 0.35
-11 7 21 -0.04 0.16
11 7 -21 -0.04 0.2
11 7 10 3.64 0.37
-11 -7 21 -0.08 0.16
11 -7 10 4.52 0.39
-11 7 -11 0.38 0.23
-11 7 22 0.15 0.18
11 7 -22 0.08 0.21
11 7 11 0.42 0.24
-11 -7 22 0.02 0.17
11 -7 11 0.57 0.23
11 -7 12 0.2 0.22
-13 7 6 -0.13 0.11
-13 7 6 -0.03 0.09
-13 7 7 0.8 0.16
-13 7 7 1.29 0.15
13 7 -7 0.71 0.17
13 7 -6 -0.02 0.13
-13 -7 6 0 0.08
-13 -7 7 0.94 0.13
13 -7 -7 0.73 0.15
13 -7 -6 -0.01 0.12
-13 7 5 1.01 0.18
-13 7 5 2.02 0.22
-13 7 8 18.64 0.5
13 7 -8 19.72 0.52
13 7 -5 1.77 0.17
13 7 -5 1.06 0.19
-13 -7 8 22.11 0.45
13 -7 -8 18.54 0.5
13 -7 -5 1.22 0.19
-13 7 4 65.08 0.89
-13 7 4 79.67 0.88
-13 7 9 2.19 0.22
13 7 -9 2.67 0.26
13 7 -4 84.01 0.8
13 7 -4 64.24 0.91
-13 -7 9 2.61 0.22
13 -7 -9 2.15 0.24
13 -7 -4 68.57 0.94
-13 7 3 13.38 0.43
-13 7 3 16.76 0.46
-13 7 10 -0.03 0.11
13 7 -10 0.07 0.15
13 7 -3 17.12 0.42
13 7 -3 12.47 0.45
-13 -7 10 -0.11 0.09
13 -7 -10 0.01 0.11
13 -7 -3 14.94 0.48
-13 7 2 2.62 0.26
-13 7 2 2.6 0.26
-13 7 11 -0.05 0.11
13 7 -11 0.18 0.15
13 7 -2 2.89 0.23
13 7 -2 2.29 0.26
-13 -7 11 0.07 0.11
13 -7 -11 -0.05 0.11
13 -7 -2 2.47 0.26
-13 7 1 0.72 0.18
-13 7 12 3.08 0.27
13 7 -12 3.53 0.3
13 7 -1 0.59 0.15
13 7 -1 0.42 0.16
-13 -7 12 2.8 0.23
13 -7 -12 2.44 0.24
13 -7 -1 0.41 0.16
-13 7 0 20.6 0.54
-13 7 13 0.46 0.17
13 7 -13 0.57 0.19
13 7 0 22.59 0.53
13 7 0 16.26 0.5
-13 -7 13 0.45 0.14
13 -7 -13 0.38 0.13
13 -7 0 21.41 0.58
-13 7 -1 0.65 0.18
-13 7 14 5.52 0.33
13 7 -14 6.78 0.38
13 7 1 0.75 0.17
13 7 1 0.35 0.15
-13 -7 14 6.16 0.34
13 -7 -14 4.42 0.29
13 -7 1 0.44 0.17
-13 7 -2 5.82 0.36
-13 7 15 0.18 0.15
13 7 -15 -0.01 0.17
13 7 2 6.2 0.34
13 7 2 4.7 0.33
-13 -7 15 0.13 0.14
13 -7 -15 0.13 0.13
13 -7 2 6.33 0.36
-13 7 -3 0.32 0.17
-13 7 16 0.19 0.15
13 7 -16 0.45 0.2
13 7 3 0.33 0.16
-13 -7 16 0.25 0.15
13 -7 -16 0.24 0.14
13 -7 3 0.36 0.17
-13 7 -4 -0.01 0.16
-13 7 17 -0.09 0.14
13 7 -17 -0.12 0.19
13 7 4 -0.04 0.14
-13 -7 17 0.04 0.14
13 -7 -17 -0.03 0.12
13 -7 4 0.07 0.17
13 -7 4 0.03 0.12
-13 7 -5 -0.09 0.16
-13 7 18 0.2 0.15
13 7 -18 0.07 0.19
13 7 5 0.03 0.15
-13 -7 18 -0.07 0.14
13 -7 -18 0.1 0.13
13 -7 5 0.11 0.18
13 -7 5 0.07 0.13
-13 7 -6 2.71 0.31
-13 7 19 0.66 0.2
13 7 -19 0.68 0.24
13 7 6 2.78 0.3
-13 -7 19 0.71 0.2
13 -7 6 2.85 0.32
13 -7 6 2.24 0.25
-13 7 -7 0.19 0.19
-13 7 20 1.16 0.23
13 7 -20 1.65 0.29
13 7 7 0.27 0.19
-13 -7 20 1.21 0.23
13 -7 7 0.31 0.19
13 -7 7 0.13 0.15
-13 7 -8 0.58 0.23
-13 7 21 0.05 0.17
13 7 -21 0 0.2
13 7 8 0.64 0.22
-13 -7 21 0.06 0.16
13 -7 8 0.56 0.23
13 -7 8 0.41 0.19
-13 7 -9 0.16 0.21
-13 7 22 0.1 0.18
13 7 -22 0.22 0.21
13 7 9 -0.18 0.17
-13 -7 22 0.08 0.17
13 -7 9 -0.02 0.2
-13 7 -10 1.37 0.3
-13 7 23 -0.07 0.18
13 7 10 1.33 0.28
-13 -7 23 0.1 0.17
13 -7 10 2.01 0.32
-15 7 7 10.81 0.4
-15 7 7 13.1 0.36
-15 7 8 0.58 0.16
15 7 -8 0.7 0.17
15 7 -7 11 0.42
-15 -7 7 11.5 0.31
-15 -7 8 0.81 0.13
15 -7 -8 0.75 0.16
15 -7 -7 10.49 0.4
-15 7 6 0.06 0.12
-15 7 6 0.26 0.13
-15 7 9 5.28 0.3
15 7 -9 5.87 0.33
15 7 -6 0.13 0.15
-15 -7 9 6.05 0.27
15 -7 -9 5.53 0.32
15 -7 -6 0.27 0.14
-15 7 5 4 0.28
-15 7 5 5.73 0.3
-15 7 10 0.54 0.15
15 7 -10 0.77 0.18
15 7 -5 5.26 0.25
15 7 -5 4.11 0.31
-15 -7 10 0.71 0.14
15 -7 -10 0.7 0.15
15 -7 -5 5.03 0.33
-15 7 4 22.41 0.57
-15 7 4 26.6 0.56
-15 7 11 2.43 0.23
15 7 -11 2.82 0.26
15 7 -4 27.52 0.52
15 7 -4 20.95 0.57
-15 -7 11 2.81 0.22
15 -7 -11 2.49 0.25
15 -7 -4 23.67 0.6
-15 7 3 3.33 0.26
-15 7 3 4.14 0.29
-15 7 12 -0.11 0.12
15 7 -12 0.08 0.14
15 7 -3 4.16 0.27
15 7 -3 3.35 0.29
-15 -7 12 0.12 0.11
15 -7 -12 -0.05 0.11
15 -7 -3 3.68 0.31
-15 7 2 0.45 0.16
-15 7 13 0.46 0.17
15 7 -13 0.64 0.19
15 7 -2 0.56 0.15
15 7 -2 0.42 0.16
-15 -7 13 0.74 0.15
15 -7 -13 0.61 0.16
15 -7 -2 0.41 0.17
-15 7 1 0 0.13
-15 7 14 4.12 0.31
15 7 -14 5.19 0.35
15 7 -1 -0.02 0.13
15 7 -1 -0.06 0.13
-15 -7 14 4.66 0.3
15 -7 -14 3.49 0.28
15 -7 -1 0.14 0.15
-15 7 0 2.16 0.26
-15 7 15 0.01 0.14
15 7 -15 0.16 0.18
15 7 0 2.39 0.24
15 7 0 1.68 0.23
-15 -7 15 0.09 0.13
15 -7 -15 0.06 0.13
15 -7 0 2.29 0.26
-15 7 -1 0.09 0.15
-15 7 16 2.44 0.27
15 7 -16 2.64 0.31
15 7 1 0.06 0.14
15 7 1 0.27 0.15
-15 -7 16 2.6 0.27
15 -7 -16 2.12 0.25
15 -7 1 0.2 0.17
-15 7 -2 2.14 0.28
-15 7 17 1.07 0.21
15 7 -17 1.06 0.24
15 7 2 2.38 0.25
-15 -7 17 1.07 0.2
15 -7 -17 0.95 0.19
15 -7 2 2.42 0.3
-15 7 -3 0.52 0.2
-15 7 18 0.01 0.14
15 7 -18 0 0.18
15 7 3 0.66 0.18
-15 -7 18 0.21 0.15
15 -7 -18 0.07 0.13
15 -7 3 0.72 0.21
15 -7 3 0.4 0.16
-15 7 -4 0.2 0.19
-15 7 19 -0.07 0.13
15 7 -19 -0.27 0.18
15 7 4 0.04 0.16
-15 -7 19 0 0.13
15 -7 -19 0.02 0.13
15 -7 4 0.11 0.18
15 -7 4 -0.12 0.13
-15 7 -5 0.06 0.19
-15 7 20 0.8 0.2
15 7 -20 0.91 0.25
15 7 5 0.34 0.19
-15 -7 20 0.58 0.18
15 -7 5 0.17 0.19
15 -7 5 0.06 0.14
-15 7 -6 3.63 0.37
-15 7 21 0.36 0.19
15 7 -21 0.32 0.22
15 7 6 4.4 0.37
-15 -7 21 0.26 0.16
15 -7 6 5.01 0.39
15 -7 6 2.62 0.29
-15 7 -7 -0.05 0.2
-15 7 22 0.16 0.18
15 7 -22 0.03 0.21
15 7 7 0.36 0.22
-15 -7 22 0.15 0.18
15 -7 7 0.18 0.2
15 -7 7 0.11 0.17
-15 7 -8 -0.04 0.21
-15 7 23 0.13 0.18
15 7 8 -0.41 0.18
-15 -7 23 -0.04 0.17
15 -7 8 0.09 0.2
15 -7 8 0.04 0.17
-17 7 8 0.24 0.15
-17 7 9 1.36 0.2
17 7 -9 1.31 0.22
17 7 -8 0.46 0.17
-17 -7 9 1.36 0.17
17 -7 -9 1.32 0.2
17 -7 -8 0.55 0.16
-17 7 7 1.42 0.22
-17 7 7 1.81 0.21
-17 7 10 2.19 0.24
17 7 -10 2.29 0.27
17 7 -7 1.28 0.21
-17 -7 10 2.46 0.2
17 -7 -10 2.02 0.24
17 -7 -7 1.63 0.22
-17 7 6 0.23 0.15
-17 7 6 0.24 0.13
-17 7 11 1.8 0.22
17 7 -11 1.79 0.23
17 7 -6 0.07 0.14
-17 -7 11 1.96 0.2
17 -7 -11 1.78 0.22
17 -7 -6 0.34 0.16
-17 7 5 0.93 0.18
-17 7 5 1.25 0.18
-17 7 12 1.85 0.22
17 7 -12 2.29 0.26
17 7 -5 1.19 0.17
17 7 -5 0.89 0.2
-17 -7 12 1.68 0.2
17 -7 -12 1.58 0.21
17 -7 -5 0.95 0.19
-17 7 4 0.07 0.13
-17 7 4 0.04 0.13
-17 7 13 0.28 0.15
17 7 -13 0.27 0.17
17 7 -4 -0.04 0.12
17 7 -4 -0.02 0.13
-17 -7 13 0.16 0.13
17 -7 -13 0.32 0.15
17 -7 -4 -0.04 0.13
-17 7 3 0.16 0.15
-17 7 14 3.41 0.27
17 7 -14 4.38 0.33
17 7 -3 0.15 0.13
17 7 -3 0.24 0.15
-17 -7 14 3.51 0.26
17 -7 -14 3.13 0.26
17 -7 -3 0.17 0.15
-17 7 2 0.11 0.14
-17 7 15 3.35 0.3
17 7 -15 4.28 0.33
17 7 -2 0.04 0.13
17 7 -2 0.1 0.14
-17 -7 15 3.11 0.26
17 -7 -15 2.7 0.25
17 -7 -2 -0.16 0.15
-17 7 1 2.88 0.29
-17 7 16 4.66 0.32
17 7 -16 6.18 0.37
17 7 -1 2.63 0.26
17 7 -1 2.46 0.28
-17 -7 16 4.72 0.3
17 -7 -16 4.51 0.32
17 -7 -1 2.44 0.3
-17 7 0 3.31 0.3
-17 7 17 0.17 0.16
17 7 -17 0.33 0.19
17 7 0 3.58 0.29
17 7 0 2.68 0.29
-17 -7 17 0.53 0.17
17 -7 -17 0.29 0.16
17 -7 0 3.41 0.33
-17 7 -1 0.89 0.22
-17 7 18 2.08 0.25
17 7 -18 3.07 0.31
17 7 1 0.71 0.19
-17 -7 18 2.68 0.28
17 -7 -18 2.08 0.26
17 -7 1 0.62 0.21
-17 7 -2 0.05 0.17
-17 7 19 0.36 0.17
17 7 -19 0.49 0.23
17 7 2 0.11 0.17
-17 -7 19 0.28 0.16
17 -7 -19 0.36 0.16
17 -7 2 0.08 0.17
-17 7 -3 0.66 0.22
-17 7 20 0.59 0.19
17 7 -20 0.36 0.22
17 7 3 0.68 0.2
-17 -7 20 0.46 0.18
17 -7 -20 0.29 0.16
17 -7 3 0.7 0.22
17 -7 3 0.52 0.18
-17 7 -4 0.07 0.19
-17 7 21 0.24 0.18
17 7 -21 0.42 0.23
17 7 4 0.34 0.19
-17 -7 21 0.11 0.16
17 -7 4 0.19 0.2
17 -7 4 0.09 0.16
-17 7 -5 0.3 0.22
-17 7 22 0.08 0.15
17 7 -22 -0.12 0.2
17 7 5 0.52 0.22
-17 -7 22 0.2 0.17
17 -7 5 0.68 0.23
17 -7 5 0.31 0.18
-17 7 -6 0.6 0.24
-17 7 23 0.11 0.17
17 7 6 0.78 0.25
-17 -7 23 0.11 0.17
17 -7 6 1.05 0.26
17 -7 6 0.77 0.21
-17 7 24 -0.17 0.16
17 7 7 0.05 0.21
-17 -7 24 0.18 0.17
17 -7 7 -0.08 0.19
17 -7 7 -0.02 0.18
-19 7 9 3.41 0.29
-19 7 10 0.13 0.12
19 7 -10 0.02 0.14
19 7 -9 3.14 0.29
19 -7 -10 0.14 0.13
19 -7 -9 3.8 0.29
-19 7 8 0.5 0.17
-19 7 11 1.1 0.2
19 7 -11 1.03 0.2
19 7 -8 0.54 0.18
-19 -7 11 1.35 0.17
19 -7 -11 1.07 0.19
19 -7 -8 0.63 0.17
-19 7 7 0.6 0.18
-19 7 7 0.52 0.15
-19 7 12 1.58 0.22
19 7 -12 2.34 0.26
19 7 -7 0.29 0.17
-19 -7 12 1.82 0.19
19 -7 -12 1.54 0.22
19 -7 -7 0.66 0.17
-19 7 6 5.01 0.34
-19 7 6 6.17 0.33
-19 7 13 -0.12 0.12
19 7 -13 0.05 0.15
19 7 -6 4.78 0.33
-19 -7 13 -0.03 0.1
19 -7 -13 -0.11 0.12
19 -7 -6 5.37 0.35
-19 7 5 0.23 0.14
-19 7 5 0.06 0.14
-19 7 14 -0.04 0.13
19 7 -14 0.13 0.17
19 7 -5 0.14 0.13
19 7 -5 -0.11 0.16
-19 -7 14 -0.07 0.1
19 -7 -14 0 0.13
19 -7 -5 0.15 0.16
-19 7 4 0.45 0.17
-19 7 15 -0.03 0.14
19 7 -15 -0.06 0.15
19 7 -4 -0.11 0.12
19 7 -4 0.06 0.15
-19 -7 15 0.01 0.11
19 -7 -15 0.22 0.14
19 -7 -4 -0.11 0.14
-19 7 3 0.19 0.15
-19 7 16 2.78 0.27
19 7 -16 3.73 0.33
19 7 -3 -0.08 0.13
19 7 -3 0.03 0.15
-19 -7 16 2.89 0.26
19 -7 -16 2.51 0.25
19 -7 -3 -0.05 0.16
-19 7 2 2.55 0.29
-19 7 17 0.08 0.15
19 7 -17 0.14 0.19
19 7 -2 2.58 0.26
19 7 -2 1.92 0.26
-19 -7 17 0.05 0.13
19 -7 -17 0.11 0.15
19 -7 -2 2.66 0.31
-19 7 1 0.92 0.22
-19 7 18 3.43 0.3
19 7 -18 5.4 0.39
19 7 -1 0.94 0.2
19 7 -1 0.67 0.19
-19 -7 18 4.22 0.32
19 -7 -18 3.63 0.31
19 -7 -1 0.92 0.22
-19 7 0 1.23 0.24
-19 7 19 0.68 0.2
19 7 -19 0.8 0.24
19 7 0 0.96 0.21
-19 -7 19 0.75 0.19
19 -7 -19 0.58 0.19
19 -7 0 1.07 0.23
-19 7 -1 0.96 0.24
-19 7 20 3.33 0.31
19 7 -20 4.28 0.37
19 7 1 1.36 0.24
-19 -7 20 3.37 0.32
19 -7 -20 2.94 0.3
19 -7 1 1.02 0.24
19 -7 1 0.75 0.19
-19 7 -2 0.75 0.23
-19 7 21 0.61 0.2
19 7 -21 0.62 0.24
19 7 2 0.88 0.23
-19 -7 21 0.59 0.2
19 -7 -21 0.33 0.17
19 -7 2 1.17 0.25
19 -7 2 0.68 0.2
-19 7 -3 0.52 0.22
-19 7 22 0.73 0.21
19 7 -22 0.9 0.26
19 7 3 0.39 0.21
-19 -7 22 0.56 0.2
19 -7 3 0.85 0.24
19 -7 3 0.35 0.18
-19 7 -4 0.5 0.24
-19 7 23 0.48 0.2
19 7 4 0.79 0.24
-19 -7 23 0.29 0.18
19 -7 4 0.51 0.23
19 -7 4 0.56 0.21
-19 7 -5 0.22 0.23
-19 7 24 0.22 0.19
19 7 5 0.12 0.21
-19 -7 24 0.22 0.19
19 -7 5 0.49 0.23
19 -7 5 0.07 0.18
-21 7 10 1.11 0.21
-21 7 11 -0.05 0.13
21 7 -11 -0.13 0.15
21 7 -10 1.21 0.22
21 -7 -11 -0.12 0.11
21 -7 -10 1.3 0.22
-21 7 9 0.36 0.15
-21 7 12 0.67 0.18
21 7 -12 0.79 0.2
21 7 -9 0.45 0.19
21 -7 -12 0.89 0.19
21 -7 -9 0.39 0.17
-21 7 8 0.75 0.19
-21 7 13 1.27 0.21
21 7 -8 0.74 0.2
-21 -7 13 0.95 0.15
21 -7 -13 0.82 0.2
21 -7 -8 1 0.21
-21 7 7 0.27 0.16
-21 7 7 0.17 0.15
-21 7 14 0.36 0.16
21 7 -14 0.46 0.19
21 7 -7 0.11 0.17
-21 -7 14 0.4 0.13
21 -7 -14 0.38 0.16
21 -7 -7 0.06 0.16
-21 7 6 3.39 0.29
-21 7 15 -0.09 0.13
21 7 -15 -0.11 0.17
21 7 -6 2.33 0.28
-21 -7 15 -0.02 0.1
21 -7 -15 -0.05 0.13
21 -7 -6 2.98 0.31
-21 7 5 0.14 0.15
-21 7 16 1.01 0.21
21 7 -16 1.59 0.25
21 7 -5 -0.05 0.14
-21 -7 16 1.34 0.2
21 -7 -16 1.26 0.22
21 -7 -5 -0.12 0.14
-21 7 4 -0.1 0.15
-21 7 17 0.14 0.16
21 7 -17 -0.01 0.19
21 7 -4 -0.05 0.14
21 7 -4 0.02 0.14
-21 -7 17 0.03 0.12
21 -7 -17 0.17 0.15
21 -7 -4 -0.16 0.15
-21 7 3 -0.09 0.15
-21 7 18 0.21 0.16
21 7 -18 0.21 0.2
21 7 -3 -0.02 0.14
21 7 -3 0.09 0.15
-21 -7 18 0.36 0.15
21 -7 -18 0.52 0.18
21 -7 -3 0.06 0.17
-21 7 2 0.01 0.15
-21 7 19 0.71 0.21
21 7 -19 1.35 0.26
21 7 -2 -0.11 0.14
21 7 -2 0.24 0.16
-21 -7 19 1.07 0.21
21 -7 -19 0.81 0.21
21 -7 -2 -0.09 0.17
-21 7 1 0.7 0.22
-21 7 20 1.46 0.25
21 7 -20 1.98 0.3
21 7 -1 0.88 0.21
-21 -7 20 1.49 0.24
21 -7 -20 1.2 0.23
21 -7 -1 0.7 0.22
-21 7 0 -0.15 0.18
-21 7 21 0.61 0.2
21 7 -21 0.77 0.25
21 7 0 -0.02 0.16
-21 -7 21 0.52 0.18
21 -7 -21 0.45 0.18
21 -7 0 0.04 0.19
21 -7 0 -0.04 0.15
-21 7 -1 0.53 0.24
-21 7 22 1.09 0.23
21 7 -22 1.45 0.29
21 7 1 0.41 0.2
-21 -7 22 0.9 0.22
21 -7 -22 0.89 0.22
21 -7 1 0.54 0.23
21 -7 1 0.25 0.18
-21 7 -2 -0.18 0.19
-21 7 23 0.79 0.22
21 7 2 -0.15 0.17
-21 -7 23 0.65 0.21
21 -7 -23 0.6 0.21
21 -7 2 0.08 0.2
21 -7 2 0.03 0.15
-21 7 -3 0.24 0.22
-21 7 24 0.08 0.18
21 7 3 0.3 0.22
-21 -7 24 -0.08 0.16
21 -7 3 0.59 0.24
-23 7 11 0.35 0.17
-23 7 12 2.87 0.29
23 7 -12 3.01 0.31
23 7 -11 0.25 0.18
23 -7 -12 2.78 0.3
23 -7 -11 0.15 0.15
-23 7 10 5.1 0.36
-23 7 13 2.24 0.27
23 7 -13 1.92 0.27
23 7 -10 4.43 0.35
23 -7 -13 2.03 0.27
23 -7 -10 4.54 0.35
-23 7 9 0.66 0.18
-23 7 14 0.86 0.19
23 7 -14 0.89 0.22
23 7 -9 0.83 0.22
23 -7 -14 0.78 0.2
23 -7 -9 0.62 0.2
-23 7 8 0.23 0.16
-23 7 15 0 0.15
23 7 -15 0.04 0.18
23 7 -8 0.05 0.16
-23 -7 15 0.2 0.13
23 -7 -15 0.17 0.16
23 -7 -8 0.24 0.17
-23 7 16 3.6 0.31
23 7 -16 4.02 0.35
23 7 -7 -0.01 0.15
-23 -7 16 3.53 0.28
23 -7 -16 3.54 0.32
23 -7 -7 -0.01 0.16
-23 7 6 4.47 0.33
-23 7 17 0.01 0.15
23 7 -17 0.04 0.18
23 7 -6 2.94 0.31
-23 -7 17 0.26 0.14
23 -7 -17 0.07 0.15
23 -7 -6 4.2 0.35
-23 7 5 0.08 0.16
-23 7 18 0.04 0.16
23 7 -18 0.16 0.2
23 7 -5 0.16 0.16
-23 -7 18 0.13 0.14
23 -7 -18 0.14 0.16
23 -7 -5 -0.21 0.14
-23 7 4 0.52 0.2
-23 7 19 0.1 0.17
23 7 -19 0.36 0.2
23 7 -4 0.38 0.17
23 7 -4 0.3 0.18
-23 -7 19 0.18 0.15
23 -7 -19 0.12 0.17
23 -7 -4 0.43 0.2
-23 7 3 0.04 0.18
-23 7 20 2.1 0.28
23 7 -20 2.62 0.33
23 7 -3 0.06 0.16
23 7 -3 0.04 0.16
-23 -7 20 2.28 0.28
23 -7 -20 1.9 0.28
23 -7 -3 -0.15 0.17
-23 7 2 -0.08 0.18
-23 7 21 0.21 0.17
23 7 -21 -0.08 0.21
23 7 -2 -0.07 0.16
23 7 -2 0.02 0.15
-23 -7 21 -0.04 0.15
23 -7 -21 -0.22 0.14
23 -7 -2 -0.05 0.18
-23 7 1 -0.14 0.18
-23 7 22 1.49 0.26
23 7 -1 0.17 0.18
-23 -7 22 1.29 0.24
23 -7 -22 1 0.24
23 -7 -1 -0.06 0.19
23 -7 -1 0.03 0.17
-23 7 0 0.35 0.21
-23 7 23 0.1 0.17
23 7 0 0.64 0.22
-23 -7 23 0.24 0.17
23 -7 -23 0.05 0.17
23 -7 0 0.42 0.24
23 -7 0 0.24 0.17
-23 7 24 0.18 0.18
23 7 1 0.29 0.21
-23 -7 24 0.27 0.19
23 -7 -24 0.05 0.18
23 -7 1 -0.01 0.21
23 -7 1 -0.03 0.17
-25 7 12 0.35 0.18
-25 7 13 0.51 0.18
25 7 -13 0.7 0.22
25 7 -12 0.11 0.17
25 -7 -13 0.7 0.2
25 -7 -12 0.45 0.18
-25 7 11 0.16 0.17
-25 7 14 -0.16 0.12
25 7 -14 0.06 0.18
25 7 -11 0.23 0.19
25 -7 -14 -0.1 0.13
25 -7 -11 0.38 0.18
-25 7 10 2.84 0.3
-25 7 15 0.57 0.19
25 7 -15 0.77 0.22
25 7 -10 3.21 0.32
25 -7 -15 0.51 0.18
25 -7 -10 2.93 0.32
-25 7 16 1.16 0.23
25 7 -16 1.14 0.25
25 7 -9 0.61 0.21
25 -7 -16 1.02 0.21
25 -7 -9 0.69 0.21
-25 7 17 0.03 0.15
25 7 -17 0.17 0.19
25 7 -8 0.24 0.18
-25 -7 17 0.13 0.13
25 -7 -17 0.06 0.15
25 -7 -8 0.18 0.17
-25 7 18 0.21 0.17
25 7 -18 0.09 0.2
25 7 -7 0.04 0.17
-25 -7 18 -0.04 0.13
25 -7 -18 -0.03 0.15
25 -7 -7 0.16 0.18
-25 7 6 0.46 0.19
-25 7 19 0.17 0.17
25 7 -19 -0.05 0.2
25 7 -6 0.4 0.18
-25 -7 19 -0.04 0.14
25 -7 -19 0.04 0.16
25 -7 -6 0.42 0.21
-25 7 5 0.23 0.18
-25 7 20 0.48 0.2
25 7 -20 0.93 0.25
25 7 -5 0.06 0.17
-25 -7 20 0.61 0.19
25 -7 -20 0.62 0.21
25 -7 -5 0.11 0.2
-25 7 4 1.51 0.27
-25 7 21 0.45 0.2
25 7 -21 0.32 0.23
25 7 -4 0.91 0.23
-25 -7 21 0.09 0.16
25 -7 -21 0.18 0.17
25 -7 -4 1.73 0.29
-25 7 3 1.15 0.26
-25 7 22 1.59 0.28
25 7 -3 1.08 0.23
25 7 -3 0.68 0.22
-25 -7 22 1.37 0.25
25 -7 -22 1.17 0.25
25 -7 -3 0.93 0.26
-25 7 2 0.1 0.18
-25 7 23 0.08 0.18
25 7 -2 0 0.18
25 7 -2 -0.01 0.16
-25 -7 23 0.24 0.18
25 -7 -23 0.19 0.19
25 -7 -2 -0.02 0.21
25 -7 -2 0.09 0.18
25 -7 -1 0.02 0.21
-27 7 13 0.04 0.17
-27 7 14 0.51 0.2
27 7 -14 0.53 0.22
27 7 -13 0.15 0.19
27 -7 -14 0.63 0.2
27 -7 -13 -0.04 0.16
-27 7 12 0.1 0.16
-27 7 15 -0.11 0.15
27 7 -15 -0.09 0.17
27 7 -12 0.13 0.18
27 -7 -15 -0.17 0.15
27 -7 -12 0.15 0.18
-27 7 16 0.43 0.2
27 7 -16 0.4 0.21
27 7 -11 0.08 0.19
27 -7 -16 0.48 0.2
27 -7 -11 0.06 0.18
-27 7 17 0.29 0.18
27 7 -17 0.24 0.21
27 7 -10 3.36 0.37
27 -7 -17 -0.09 0.15
27 -7 -10 3.44 0.35
-27 7 18 -0.06 0.15
27 7 -18 -0.21 0.18
27 7 -9 -0.25 0.18
27 -7 -18 0.1 0.17
27 -7 -9 -0.1 0.18
-27 7 19 -0.17 0.13
27 7 -19 0.32 0.21
27 7 -8 0.38 0.21
27 -7 -19 0.22 0.17
27 -7 -8 0.68 0.23
-27 7 20 0.19 0.18
27 7 -20 0.37 0.23
27 7 -7 0.27 0.2
-27 -7 20 0.2 0.16
27 -7 -20 0.35 0.18
27 -7 -7 0.31 0.21
-27 7 21 0.09 0.19
27 7 -21 0.18 0.23
27 7 -6 0.2 0.19
-27 -7 21 0.11 0.15
27 -7 -21 0.01 0.17
27 -7 -6 0.21 0.21
-27 7 5 0.25 0.2
-27 7 22 -0.02 0.17
27 7 -5 0.08 0.18
-27 -7 22 -0.02 0.15
27 -7 -22 -0.15 0.16
27 -7 -5 -0.13 0.2
-27 -7 23 0.14 0.17
27 -7 -23 0.04 0.18
27 -7 -4 1.24 0.28
-29 7 14 2.35 0.32
-29 7 15 0.32 0.2
29 7 -15 -0.12 0.19
29 7 -14 3 0.35
29 -7 -15 0.17 0.19
29 -7 -14 2.79 0.32
-29 7 16 0.31 0.19
29 7 -16 0.54 0.23
29 7 -13 0.27 0.21
29 -7 -16 0.16 0.19
29 -7 -13 0.11 0.17
-29 7 17 0 0.17
29 7 -17 0.06 0.2
29 7 -12 0.04 0.2
29 -7 -17 0.12 0.18
29 -7 -12 0.11 0.19
-29 7 18 1.37 0.27
29 7 -18 1.63 0.3
29 7 -11 0.12 0.21
29 -7 -18 1.26 0.26
29 -7 -11 0.21 0.2
-29 7 19 -0.22 0.16
29 7 -19 -0.01 0.21
29 7 -10 1.12 0.27
29 -7 -19 0.04 0.15
29 -7 -10 1.31 0.27
-29 7 20 0.52 0.22
29 7 -20 0.49 0.25
29 7 -9 0.12 0.19
29 -7 -20 0.34 0.2
29 -7 -9 0.28 0.21
-29 7 21 0.07 0.18
29 7 -8 0.62 0.24
29 -7 -21 0.06 0.17
29 -7 -8 0.63 0.24
-31 7 16 1.64 0.29
31 7 -16 1.85 0.31
31 7 -15 0.26 0.22
31 -7 -16 1.36 0.28
31 -7 -15 -0.14 0.18
-31 7 17 0 0.2
31 -7 -17 0.15 0.2
31 -7 -14 1.19 0.26
-31 7 18 0.48 0.22
31 -7 -18 0.55 0.23
31 -7 -13 0.11 0.2
31 -7 -19 0.45 0.22
31 -7 -12 0.8 0.24
0 8 0 1.98 0.17
0 8 0 1.97 0.21
0 -8 0 2.04 0.2
0 8 -1 3.05 0.19
0 8 -1 3.38 0.25
0 8 1 3.32 0.2
0 8 1 3.61 0.24
0 -8 -1 3.22 0.23
0 -8 1 3.75 0.24
0 8 -2 2.29 0.17
0 8 -2 3.22 0.24
0 8 2 2.33 0.19
0 8 2 3.12 0.23
0 -8 -2 2.77 0.22
0 -8 2 3.07 0.24
0 8 -3 3.75 0.2
0 8 -3 4.47 0.28
0 8 3 3.94 0.24
0 8 3 4.34 0.25
0 -8 -3 3.91 0.23
0 -8 3 4.74 0.28
0 8 -4 1.97 0.16
0 8 -4 2.47 0.25
0 8 4 1.75 0.2
0 8 4 1.86 0.2
0 -8 -4 1.86 0.19
0 -8 4 2.48 0.25
0 8 -5 0.26 0.1
0 8 -5 0.13 0.15
0 8 5 0.16 0.14
0 8 5 0.2 0.12
0 -8 -5 0.11 0.1
0 -8 5 0.27 0.15
0 8 -6 2.65 0.27
0 8 6 2.09 0.22
0 8 6 2.2 0.2
0 -8 -6 2.01 0.18
0 -8 6 2.18 0.25
0 8 -7 0.7 0.19
0 8 7 0.76 0.17
0 8 7 0.94 0.15
0 -8 7 0.81 0.18
0 8 -8 1.18 0.22
0 8 8 1.28 0.2
0 8 8 1.28 0.16
0 -8 8 1.09 0.2
0 8 -9 10.55 0.44
0 8 9 10.02 0.42
0 -8 9 10.42 0.43
0 8 -10 2.23 0.28
0 8 10 2.42 0.27
0 -8 10 2.33 0.26
0 8 -11 -0.04 0.16
0 8 11 0.25 0.15
0 -8 11 0.2 0.15
0 8 -12 -0.05 0.18
0 8 12 0.19 0.15
0 -8 12 0 0.15
0 8 -13 2.3 0.3
0 8 13 2.32 0.29
0 -8 13 2.6 0.3
0 8 -14 0 0.18
0 8 14 0.34 0.19
0 -8 14 0.01 0.17
0 8 -15 0.82 0.24
0 8 15 0.63 0.21
0 -8 15 0.4 0.21
0 8 -16 1.15 0.28
0 8 16 0.9 0.23
0 -8 16 0.88 0.24
0 8 -17 0.18 0.24
0 8 17 0.28 0.22
0 -8 17 0.29 0.21
-2 8 1 3.56 0.21
-2 8 1 4.47 0.24
2 8 -1 4.01 0.2
2 8 -1 4.09 0.26
-2 -8 1 4.42 0.24
2 -8 -1 4.01 0.24
-2 8 0 1.03 0.13
-2 8 0 1.17 0.16
-2 8 2 0.78 0.13
-2 8 2 1.18 0.16
2 8 -2 0.81 0.11
2 8 -2 1.03 0.17
2 8 0 1.07 0.14
2 8 0 1.02 0.16
-2 -8 0 1.16 0.15
-2 -8 2 1.11 0.15
2 -8 -2 0.98 0.14
2 -8 0 1.15 0.16
-2 8 -1 0.07 0.09
-2 8 -1 0.08 0.11
-2 8 3 6.78 0.28
-2 8 3 7.46 0.29
2 8 -3 6.29 0.22
2 8 -3 7.43 0.33
2 8 1 -0.1 0.08
2 8 1 -0.1 0.1
-2 -8 -1 -0.08 0.08
-2 -8 3 8.4 0.32
2 -8 -3 6.6 0.28
2 -8 1 0.05 0.11
-2 8 -2 3.71 0.2
-2 8 -2 4.31 0.26
-2 8 4 2.6 0.22
-2 8 4 2.96 0.21
2 8 -4 2.72 0.16
2 8 -4 3.17 0.26
2 8 2 4.14 0.24
2 8 2 3.79 0.25
-2 -8 -2 4 0.22
-2 -8 4 3.41 0.25
2 -8 -4 2.86 0.21
2 -8 2 4.43 0.28
-2 8 -3 5.91 0.24
-2 8 -3 6.83 0.33
-2 8 5 2.64 0.23
-2 8 5 2.61 0.22
2 8 -5 2.69 0.16
2 8 -5 3.19 0.27
2 8 3 6.32 0.3
2 8 3 6.2 0.29
-2 -8 -3 6.25 0.26
-2 -8 5 3.34 0.24
2 -8 -5 2.46 0.22
2 -8 3 7.1 0.34
-2 8 -4 5.89 0.25
-2 8 -4 6.82 0.35
-2 8 6 2.89 0.25
-2 8 6 3.13 0.21
2 8 -6 3.47 0.29
2 8 4 5.91 0.31
2 8 4 6.08 0.29
-2 -8 -4 6.27 0.25
-2 -8 6 3.71 0.28
2 -8 -6 2.94 0.22
2 -8 4 6.67 0.34
-2 8 -5 27.18 0.61
-2 8 7 -0.02 0.12
-2 8 7 0.18 0.11
2 8 -7 0.07 0.16
2 8 5 25.7 0.56
2 8 5 22.66 0.48
-2 -8 7 0.03 0.14
2 -8 -7 -0.03 0.1
2 -8 5 26.16 0.59
-2 8 -6 13.47 0.46
-2 8 8 16.29 0.48
2 8 -8 17.56 0.52
2 8 6 12.56 0.42
2 8 6 11.94 0.38
-2 -8 8 17.84 0.51
2 -8 -8 14.5 0.37
2 -8 6 14.38 0.48
-2 8 -7 1.31 0.22
-2 8 9 14.1 0.47
2 8 -9 15.55 0.51
2 8 7 1.27 0.2
2 8 7 1.32 0.17
-2 -8 9 15.49 0.5
2 -8 7 1.31 0.21
-2 8 -8 0.09 0.16
-2 8 10 2.15 0.25
2 8 -10 2.26 0.28
2 8 8 0.08 0.13
2 8 8 -0.02 0.11
-2 -8 10 2.28 0.28
2 -8 8 -0.04 0.15
-2 8 -9 -0.05 0.17
-2 8 11 0.52 0.18
2 8 -11 0.41 0.19
2 8 9 0.21 0.15
-2 -8 11 0.35 0.17
2 -8 9 -0.09 0.15
-2 8 -10 1.16 0.23
-2 8 12 0.28 0.15
2 8 -12 0.27 0.19
2 8 10 1.23 0.22
-2 -8 12 0.26 0.17
2 -8 10 1.26 0.22
-2 8 -11 -0.08 0.15
-2 8 13 1.21 0.22
2 8 -13 1.5 0.27
2 8 11 0.11 0.16
-2 -8 13 1.43 0.23
2 -8 11 -0.07 0.15
-2 8 -12 0.42 0.21
-2 8 14 1.83 0.26
2 8 -14 2.11 0.29
2 8 12 0.52 0.19
-2 -8 14 1.79 0.27
2 -8 12 0.41 0.2
-2 8 -13 -0.09 0.19
-2 8 15 -0.03 0.16
2 8 -15 -0.02 0.18
2 8 13 -0.13 0.15
-2 -8 15 0.07 0.17
2 -8 13 -0.1 0.17
-2 8 -14 0.69 0.24
-2 8 16 -0.04 0.17
2 8 -16 0.24 0.2
2 8 14 0.57 0.22
-2 -8 16 0.15 0.19
2 -8 14 0.74 0.23
-2 8 -15 1.28 0.29
-2 8 17 0.2 0.18
2 8 -17 0.19 0.22
2 8 15 0.79 0.25
-2 -8 17 0.05 0.19
2 -8 15 1.19 0.26
-2 8 -16 0.48 0.24
-2 8 18 2.65 0.35
2 8 -18 2.64 0.35
2 8 16 0.28 0.22
-2 -8 18 2.34 0.33
2 -8 16 0.24 0.21
-4 8 2 0.96 0.14
-4 8 2 1.41 0.18
4 8 -2 1.2 0.14
4 8 -2 1.2 0.18
-4 -8 2 1.55 0.19
4 -8 -2 1.19 0.17
-4 8 1 0.36 0.11
-4 8 1 0.54 0.13
-4 8 3 1.45 0.18
-4 8 3 1.61 0.19
4 8 -3 1.29 0.14
4 8 -3 1.78 0.2
4 8 -1 0.37 0.11
4 8 -1 0.36 0.13
-4 -8 1 0.42 0.11
-4 -8 3 1.78 0.2
4 -8 -3 1.6 0.18
4 -8 -1 0.58 0.14
-4 8 0 0.28 0.1
-4 8 0 0.19 0.11
-4 8 4 1.09 0.16
-4 8 4 1.39 0.16
4 8 -4 1.24 0.13
4 8 -4 1.4 0.19
4 8 0 0.11 0.1
4 8 0 0.09 0.12
-4 -8 0 0.19 0.09
-4 -8 4 1.5 0.17
4 -8 -4 1.21 0.16
4 -8 0 0.29 0.13
-4 8 -1 0.35 0.11
-4 8 -1 0.39 0.15
-4 8 5 18.16 0.46
-4 8 5 21.5 0.43
4 8 -5 17.33 0.3
4 8 -5 21.41 0.52
4 8 1 0.11 0.11
4 8 1 0.14 0.12
-4 -8 -1 0.21 0.1
-4 -8 5 22.73 0.5
4 -8 -5 17.93 0.43
4 -8 1 0.28 0.13
-4 8 -2 45.97 0.63
-4 8 -2 56.5 0.81
-4 8 6 0.6 0.16
-4 8 6 0.71 0.13
4 8 -6 0.67 0.18
4 8 2 52.64 0.72
4 8 2 46.07 0.7
-4 -8 -2 55.52 0.59
-4 -8 6 0.67 0.15
4 -8 -6 0.47 0.13
4 -8 2 52.25 0.79
-4 8 -3 1.47 0.17
-4 8 -3 2.05 0.26
-4 8 7 9.94 0.38
-4 8 7 10.21 0.3
4 8 -7 10.26 0.41
4 8 3 1.85 0.23
4 8 3 1.5 0.2
-4 -8 7 11.3 0.4
4 -8 -7 8.72 0.32
4 -8 3 1.91 0.24
-4 8 -4 2.67 0.27
-4 8 8 3.67 0.28
4 8 -8 3.52 0.3
4 8 4 2.03 0.24
4 8 4 2.64 0.24
-4 -8 8 4.26 0.3
4 -8 -8 3.1 0.24
4 -8 4 2.74 0.3
-4 8 -5 10.73 0.43
-4 8 9 6.06 0.32
4 8 -9 7.27 0.39
4 8 5 10.2 0.39
4 8 5 8.86 0.35
-4 -8 9 6.82 0.36
4 -8 -9 5.64 0.28
4 -8 5 10.85 0.44
-4 8 -6 16.14 0.52
-4 8 10 0 0.13
4 8 -10 -0.1 0.16
4 8 6 16.09 0.49
4 8 6 13.63 0.42
-4 -8 10 0.01 0.14
4 -8 -10 0.01 0.1
4 -8 6 17.71 0.54
-4 8 -7 5.18 0.35
-4 8 11 0.08 0.14
4 8 -11 0.18 0.18
4 8 7 5.18 0.31
4 8 7 4.21 0.28
-4 -8 11 -0.02 0.14
4 -8 7 5.14 0.33
-4 8 -8 0.16 0.16
-4 8 12 2.96 0.27
4 8 -12 3.26 0.31
4 8 8 -0.05 0.14
4 8 8 -0.02 0.11
-4 -8 12 2.94 0.28
4 -8 8 0.03 0.15
-4 8 -9 -0.11 0.15
-4 8 13 8.41 0.41
4 8 -13 9.37 0.45
4 8 9 0.09 0.14
-4 -8 13 8.53 0.41
4 -8 9 -0.13 0.15
-4 8 -10 0.17 0.17
-4 8 14 0.71 0.2
4 8 -14 0.97 0.23
4 8 10 0.32 0.17
-4 -8 14 1.13 0.22
4 -8 10 0.13 0.16
-4 8 -11 0.79 0.22
-4 8 15 0.12 0.17
4 8 -15 0.15 0.19
4 8 11 0.94 0.22
-4 -8 15 -0.23 0.13
4 -8 11 1.16 0.24
-4 8 -12 0.19 0.2
-4 8 16 0.41 0.19
4 8 -16 0.36 0.21
4 8 12 0.28 0.19
-4 -8 16 0.38 0.2
4 -8 12 0.39 0.19
-4 8 -13 -0.02 0.18
-4 8 17 0.43 0.19
4 8 -17 0.29 0.22
4 8 13 -0.08 0.17
-4 -8 17 0.27 0.2
4 -8 13 -0.07 0.18
-4 8 -14 0.12 0.22
-4 8 18 0.61 0.22
4 8 -18 0.6 0.25
4 8 14 -0.06 0.19
-4 -8 18 0.49 0.22
4 -8 14 -0.02 0.19
-4 8 -15 0.16 0.22
-4 8 19 0.62 0.25
4 8 -19 0.96 0.27
4 8 15 0.08 0.21
-4 -8 19 1.05 0.26
4 -8 15 -0.07 0.2
-6 8 3 14.6 0.4
-6 8 3 19.06 0.43
6 8 -3 16.04 0.34
6 8 -3 15.72 0.45
-6 -8 3 18.71 0.41
6 -8 -3 15.7 0.43
-6 8 2 6.86 0.29
-6 8 2 8.68 0.32
-6 8 4 0.56 0.13
-6 8 4 0.59 0.13
6 8 -4 0.4 0.09
6 8 -4 0.58 0.16
6 8 -2 7.53 0.26
6 8 -2 6.78 0.32
-6 -8 2 8.81 0.29
-6 -8 4 0.77 0.13
6 -8 -4 0.55 0.14
6 -8 -2 7.04 0.33
-6 8 1 0.62 0.13
-6 8 1 1.18 0.17
-6 8 5 1.24 0.18
-6 8 5 1.58 0.17
6 8 -5 1.66 0.21
6 8 -1 0.82 0.14
6 8 -1 0.68 0.16
-6 -8 1 0.88 0.12
-6 -8 5 1.66 0.19
6 -8 -5 1.33 0.17
6 -8 -1 0.77 0.16
-6 8 0 2.39 0.21
-6 8 0 3.35 0.26
-6 8 6 9.38 0.36
-6 8 6 11.08 0.32
6 8 -6 10.48 0.4
6 8 0 2.46 0.22
6 8 0 2.01 0.24
-6 -8 0 2.7 0.19
-6 -8 6 11.11 0.37
6 -8 -6 8.7 0.33
6 -8 0 2.45 0.27
-6 8 -1 5.25 0.27
-6 8 -1 6.22 0.32
-6 8 7 15.02 0.45
-6 8 7 18.44 0.38
6 8 -7 17.35 0.5
6 8 1 5.67 0.3
6 8 1 5.14 0.31
-6 -8 7 18 0.46
6 -8 -7 14.93 0.42
6 -8 1 6.86 0.35
-6 8 -2 26.62 0.53
-6 8 -2 31.36 0.64
-6 8 8 7.71 0.36
6 8 -8 8.59 0.39
6 8 2 30.98 0.59
6 8 2 25.33 0.56
-6 -8 8 9.48 0.38
6 -8 -8 6.33 0.31
6 -8 2 31.36 0.66
-6 8 -3 6.83 0.35
-6 8 9 0.86 0.19
6 8 -9 1.35 0.23
6 8 3 6.96 0.33
6 8 3 6.35 0.32
-6 -8 9 1.35 0.2
6 -8 -9 1.03 0.16
6 -8 3 7.16 0.37
-6 8 -4 -0.06 0.14
-6 8 10 1.05 0.19
6 8 -10 1.13 0.21
6 8 4 0.09 0.13
6 8 4 0.16 0.13
-6 -8 10 1.14 0.2
6 -8 -10 0.69 0.15
6 -8 4 0.28 0.16
-6 8 -5 0.79 0.21
-6 8 11 0.09 0.14
6 8 -11 0.22 0.18
6 8 5 0.77 0.18
6 8 5 0.62 0.16
-6 -8 11 0.23 0.14
6 -8 -11 0.13 0.12
6 -8 5 0.73 0.18
-6 8 -6 0.32 0.18
-6 8 12 2.22 0.24
6 8 -12 3.07 0.32
6 8 6 0.21 0.15
6 8 6 0.08 0.13
-6 -8 12 2.39 0.27
6 -8 -12 1.87 0.22
6 -8 6 0.1 0.17
-6 8 -7 3.24 0.31
-6 8 13 0.59 0.18
6 8 -13 0.51 0.2
6 8 7 3.37 0.29
6 8 7 2.77 0.26
-6 -8 13 0.4 0.16
6 -8 7 3.41 0.32
-6 8 -8 3.07 0.32
-6 8 14 1.64 0.24
6 8 -14 1.74 0.27
6 8 8 3.56 0.3
6 8 8 2.48 0.25
-6 -8 14 1.81 0.26
6 -8 8 3.4 0.3
-6 8 -9 0.17 0.18
-6 8 15 1.58 0.24
6 8 -15 1.77 0.27
6 8 9 0.26 0.17
-6 -8 15 1.71 0.26
6 -8 9 0.11 0.16
-6 8 -10 0.1 0.18
-6 8 16 -0.11 0.15
6 8 -16 -0.05 0.18
6 8 10 0.09 0.17
-6 -8 16 -0.18 0.14
6 -8 10 0.06 0.18
-6 8 -11 0.23 0.2
-6 8 17 0.38 0.19
6 8 -17 0.43 0.22
6 8 11 0.2 0.18
-6 -8 17 0.28 0.19
6 -8 11 0.05 0.19
-6 8 -12 1.53 0.29
-6 8 18 0.62 0.22
6 8 -18 0.6 0.24
6 8 12 1.5 0.26
-6 -8 18 0.4 0.2
6 -8 12 1.62 0.27
-6 8 -13 -0.01 0.2
-6 8 19 0.14 0.2
6 8 -19 0.27 0.22
6 8 13 0.06 0.2
-6 -8 19 0.24 0.2
6 -8 13 0.12 0.21
-6 8 -14 0.17 0.22
-6 8 20 0.07 0.21
6 8 -20 0.11 0.22
6 8 14 -0.05 0.2
-6 -8 20 0.11 0.2
6 -8 14 0.05 0.21
-8 8 4 3.7 0.24
-8 8 4 4.95 0.27
8 8 -4 4.59 0.2
8 8 -4 3.99 0.28
-8 -8 4 5.05 0.25
8 -8 -4 4.19 0.28
-8 8 3 4.64 0.27
-8 8 3 5.87 0.29
-8 8 5 7.85 0.32
-8 8 5 10.49 0.32
8 8 -5 9.14 0.38
8 8 -3 5.13 0.23
8 8 -3 4.58 0.3
-8 -8 3 5.7 0.25
-8 -8 5 10.4 0.33
8 -8 -5 8.26 0.35
8 -8 -3 4.71 0.28
-8 8 2 45.08 0.7
-8 8 2 57.25 0.76
-8 8 6 11.89 0.4
-8 8 6 14.69 0.36
8 8 -6 13.15 0.44
8 8 -2 54.19 0.65
8 8 -2 47.51 0.77
-8 -8 2 58.18 0.63
-8 -8 6 14 0.39
8 -8 -6 11.61 0.38
8 -8 -2 49.58 0.78
-8 8 1 0.3 0.15
-8 8 1 0.56 0.16
-8 8 7 0.2 0.14
-8 8 7 -0.15 0.1
8 8 -7 0.33 0.16
8 8 -1 0.42 0.14
8 8 -1 0.32 0.17
-8 -8 7 0.17 0.12
8 -8 -7 0.2 0.13
8 -8 -1 0.48 0.15
-8 8 0 2.21 0.25
-8 8 0 2.67 0.26
-8 8 8 32.21 0.65
8 8 -8 36.4 0.7
8 8 0 2.71 0.23
8 8 0 2.32 0.26
-8 -8 8 39.02 0.67
8 -8 -8 31.86 0.61
8 -8 0 2.99 0.29
-8 8 -1 9.87 0.36
-8 8 -1 11.69 0.42
-8 8 9 1.52 0.22
8 8 -9 1.53 0.22
8 8 1 12.03 0.39
8 8 1 10.06 0.4
-8 -8 9 1.41 0.2
8 -8 -9 1.35 0.19
8 -8 1 11.82 0.45
-8 8 -2 15.92 0.5
-8 8 10 1.74 0.23
8 8 -10 1.72 0.24
8 8 2 15.86 0.45
8 8 2 12.81 0.43
-8 -8 10 1.98 0.25
8 -8 -10 1.51 0.19
8 -8 2 15.54 0.49
-8 8 -3 3.26 0.28
-8 8 11 2.95 0.26
8 8 -11 3.74 0.31
8 8 3 3.52 0.27
8 8 3 2.71 0.26
-8 -8 11 3.38 0.29
8 -8 -11 2.75 0.25
8 -8 3 3.43 0.31
-8 8 -4 0.64 0.19
-8 8 12 19.32 0.55
8 8 -12 24.57 0.64
8 8 4 0.57 0.17
8 8 4 0.53 0.16
-8 -8 12 21.6 0.57
8 -8 -12 19.45 0.49
8 -8 4 0.63 0.19
-8 8 -5 2.69 0.29
-8 8 13 2.48 0.25
8 8 -13 2.98 0.31
8 8 5 3.15 0.26
8 8 5 2.53 0.26
-8 -8 13 2.75 0.26
8 -8 -13 2.3 0.23
8 -8 5 3.59 0.31
-8 8 -6 1.04 0.22
-8 8 14 -0.01 0.13
8 8 -14 0.01 0.18
8 8 6 1.18 0.21
8 8 6 0.86 0.19
-8 -8 14 -0.03 0.14
8 -8 -14 0.04 0.12
8 -8 6 1.13 0.23
-8 8 -7 2.37 0.29
-8 8 15 -0.11 0.14
8 8 -15 -0.15 0.17
8 8 7 2.35 0.26
8 8 7 1.64 0.22
-8 -8 15 -0.13 0.15
8 -8 7 2.79 0.32
-8 8 -8 2.15 0.29
-8 8 16 0.6 0.18
8 8 -16 0.7 0.23
8 8 8 2.37 0.28
8 8 8 1.37 0.22
-8 -8 16 0.61 0.2
8 -8 8 2.18 0.29
-8 8 -9 -0.18 0.17
-8 8 17 1.72 0.26
8 8 -17 1.84 0.29
8 8 9 0.1 0.17
-8 -8 17 1.57 0.25
8 -8 9 0.11 0.19
-8 8 -10 -0.08 0.18
-8 8 18 0.46 0.2
8 8 -18 0.6 0.24
8 8 10 0.13 0.18
-8 -8 18 0.49 0.2
8 -8 10 -0.13 0.18
-8 8 -11 0.19 0.2
-8 8 19 -0.01 0.17
8 8 -19 -0.06 0.19
8 8 11 0.09 0.2
-8 -8 19 0.12 0.18
8 -8 11 -0.04 0.19
-8 8 -12 0.98 0.26
-8 8 20 0.98 0.24
8 8 -20 1.2 0.28
8 8 12 1.08 0.27
-8 -8 20 1.16 0.27
8 -8 12 1.36 0.27
-8 8 21 0.37 0.21
8 8 13 0.01 0.19
-8 -8 21 0.56 0.22
8 -8 13 -0.04 0.21
-10 8 5 5.84 0.31
-10 8 5 7.1 0.29
10 8 -5 5.53 0.32
-10 -8 5 6.86 0.27
10 -8 -5 5.83 0.32
-10 8 4 3.4 0.26
-10 8 4 4.39 0.27
-10 8 6 4.58 0.29
-10 8 6 5.82 0.26
10 8 -6 4.68 0.32
10 8 -4 4.09 0.21
10 8 -4 3.29 0.28
-10 -8 4 3.92 0.23
-10 -8 6 5.58 0.27
10 -8 -6 4.93 0.3
10 -8 -4 3.89 0.27
-10 8 3 1.59 0.2
-10 8 3 1.99 0.23
-10 8 7 0.24 0.15
-10 8 7 0.5 0.12
10 8 -7 0.26 0.15
10 8 -3 1.86 0.19
10 8 -3 1.74 0.22
-10 -8 7 0.43 0.12
10 -8 -7 0.23 0.13
10 -8 -3 2.05 0.25
-10 8 2 0.76 0.17
-10 8 2 0.94 0.19
-10 8 8 0.71 0.18
10 8 -8 0.99 0.19
10 8 -2 0.97 0.16
10 8 -2 0.78 0.19
-10 -8 8 1.25 0.17
10 -8 -8 0.85 0.17
10 -8 -2 0.92 0.18
-10 8 1 5.02 0.29
-10 8 1 6.07 0.33
-10 8 9 2.22 0.23
10 8 -9 3.34 0.29
10 8 -1 6.26 0.3
10 8 -1 4.83 0.31
-10 -8 9 2.82 0.24
10 -8 -9 2.33 0.24
10 -8 -1 5.93 0.35
-10 8 0 0.38 0.14
-10 8 0 0.42 0.17
-10 8 10 1.66 0.22
10 8 -10 2.39 0.27
10 8 0 0.56 0.15
10 8 0 0.45 0.16
-10 -8 10 1.99 0.21
10 -8 -10 1.64 0.2
10 -8 0 0.5 0.16
-10 8 -1 -0.09 0.14
-10 8 11 1.91 0.23
10 8 -11 2.41 0.29
10 8 1 -0.12 0.12
10 8 1 -0.03 0.12
-10 -8 11 2.36 0.23
10 -8 -11 1.67 0.21
10 -8 1 0.01 0.14
-10 8 -2 2.19 0.27
-10 8 12 6.06 0.35
10 8 -12 6.59 0.37
10 8 2 1.88 0.23
10 8 2 1.38 0.21
-10 -8 12 5.89 0.32
10 -8 -12 5.43 0.32
10 -8 2 1.55 0.24
-10 8 -3 9 0.42
-10 8 13 1.29 0.21
10 8 -13 1.7 0.25
10 8 3 9.72 0.4
10 8 3 7.82 0.38
-10 -8 13 1.54 0.22
10 -8 -13 1.49 0.2
10 -8 3 10.75 0.46
-10 8 -4 1.63 0.25
-10 8 14 -0.05 0.14
10 8 -14 -0.1 0.16
10 8 4 2.12 0.26
10 8 4 1.41 0.21
-10 -8 14 -0.07 0.12
10 -8 -14 -0.05 0.11
10 -8 4 1.76 0.25
-10 8 -5 0.45 0.2
-10 8 15 0.21 0.15
10 8 -15 0.11 0.18
10 8 5 0.8 0.19
10 8 5 0.49 0.17
-10 -8 15 0.13 0.15
10 -8 -15 0.07 0.12
10 -8 5 0.79 0.21
-10 8 -6 0.2 0.18
-10 8 16 0.38 0.18
10 8 -16 0.48 0.22
10 8 6 0.23 0.16
10 8 6 -0.06 0.14
-10 -8 16 0.26 0.17
10 -8 -16 0.37 0.15
10 -8 6 0.33 0.18
10 -8 6 0.1 0.12
-10 8 -7 2.67 0.33
-10 8 17 1.75 0.27
10 8 -17 1.87 0.29
10 8 7 3.03 0.31
10 8 7 1.86 0.25
-10 -8 17 1.66 0.25
10 -8 7 3.07 0.33
-10 8 -8 2.65 0.32
-10 8 18 0.68 0.2
10 8 -18 0.73 0.23
10 8 8 2.44 0.3
10 8 8 1.98 0.27
-10 -8 18 0.63 0.2
10 -8 8 3.49 0.35
-10 8 -9 0.14 0.21
-10 8 19 -0.01 0.16
10 8 -19 0.18 0.22
10 8 9 0.06 0.18
-10 -8 19 -0.22 0.13
10 -8 9 0.19 0.2
-10 8 -10 0.03 0.19
-10 8 20 0.28 0.19
10 8 -20 0.87 0.26
10 8 10 0.13 0.18
-10 -8 20 0.63 0.22
10 -8 10 0.01 0.19
-10 8 -11 0.43 0.23
-10 8 21 0.87 0.25
10 8 -21 1.33 0.29
10 8 11 0.5 0.24
-10 -8 21 0.9 0.25
10 -8 11 0.31 0.23
-12 8 6 2.46 0.25
-12 8 6 3.4 0.23
12 8 -6 2.37 0.28
-12 -8 6 2.94 0.2
12 -8 -6 2.67 0.26
-12 8 5 0.24 0.14
-12 8 5 0.28 0.13
-12 8 7 1.59 0.21
-12 8 7 2.18 0.19
12 8 -7 1.95 0.24
12 8 -5 -0.01 0.15
-12 -8 7 2.09 0.2
12 -8 -7 1.65 0.21
12 -8 -5 0.26 0.13
-12 8 4 -0.04 0.12
-12 8 4 0.06 0.12
-12 8 8 0.79 0.17
12 8 -8 0.91 0.19
12 8 -4 0.1 0.11
12 8 -4 -0.23 0.13
-12 -8 8 0.78 0.14
12 -8 -8 0.79 0.16
12 -8 -4 0.07 0.13
-12 8 3 0.21 0.13
-12 8 3 0.19 0.14
-12 8 9 -0.07 0.12
12 8 -9 -0.11 0.13
12 8 -3 0.18 0.12
12 8 -3 0.15 0.15
-12 -8 9 -0.08 0.09
12 -8 -9 -0.01 0.12
12 -8 -3 0.19 0.15
-12 8 2 1.49 0.21
-12 8 2 1.73 0.21
-12 8 10 0.11 0.14
12 8 -10 0.06 0.15
12 8 -2 1.71 0.2
12 8 -2 1.37 0.21
-12 -8 10 0.34 0.13
12 -8 -10 0.15 0.13
12 -8 -2 1.46 0.21
-12 8 1 0.52 0.16
-12 8 1 0.49 0.16
-12 8 11 0.05 0.12
12 8 -11 0.16 0.17
12 8 -1 0.42 0.15
12 8 -1 0.32 0.16
-12 -8 11 0.11 0.12
12 -8 -11 0.28 0.14
12 -8 -1 0.49 0.17
-12 8 0 9.86 0.42
-12 8 12 1.33 0.21
12 8 -12 1.69 0.24
12 8 0 10.62 0.39
12 8 0 8.18 0.38
-12 -8 12 1.78 0.22
12 -8 -12 1.43 0.2
12 -8 0 9.53 0.43
-12 8 -1 3.28 0.29
-12 8 13 2.14 0.26
12 8 -13 3.02 0.3
12 8 1 3.02 0.26
12 8 1 2.02 0.25
-12 -8 13 2.42 0.24
12 -8 -13 2.06 0.23
12 -8 1 3.16 0.29
-12 8 -2 -0.03 0.15
-12 8 14 0.03 0.14
12 8 -14 -0.04 0.16
12 8 2 0.18 0.15
12 8 2 -0.1 0.12
-12 -8 14 0.06 0.13
12 -8 -14 0.14 0.13
12 -8 2 0.11 0.17
-12 8 -3 3.92 0.34
-12 8 15 0.16 0.14
12 8 -15 0.32 0.2
12 8 3 4.39 0.31
12 8 3 3.33 0.29
-12 -8 15 0.21 0.14
12 -8 -15 0.22 0.13
12 -8 3 4.63 0.34
-12 8 -4 3.7 0.34
-12 8 16 2.98 0.3
12 8 -16 3.62 0.34
12 8 4 3.77 0.31
12 8 4 3.21 0.29
-12 -8 16 2.56 0.28
12 -8 -16 2.51 0.26
12 -8 4 4.65 0.36
-12 8 -5 -0.12 0.17
-12 8 17 5.84 0.38
12 8 -17 7.05 0.43
12 8 5 0.15 0.15
12 8 5 -0.11 0.14
-12 -8 17 5.17 0.35
12 -8 -17 5.22 0.32
12 -8 5 -0.05 0.17
12 -8 5 -0.01 0.12
-12 8 -6 0.35 0.21
-12 8 18 0.19 0.17
12 8 -18 0.09 0.21
12 8 6 0.36 0.19
12 8 6 0.34 0.18
-12 -8 18 0.32 0.18
12 -8 -18 0.12 0.14
12 -8 6 0.48 0.21
12 -8 6 0.21 0.15
-12 8 -7 1.37 0.29
-12 8 19 0.26 0.18
12 8 -19 0.53 0.24
12 8 7 1.55 0.27
12 8 7 1.06 0.23
-12 -8 19 0.31 0.19
12 -8 7 1.67 0.28
-12 8 -8 0.6 0.23
-12 8 20 0.24 0.17
12 8 -20 0.04 0.21
12 8 8 0.79 0.24
12 8 8 0.56 0.2
-12 -8 20 0.07 0.17
12 -8 8 0.66 0.23
-12 8 -9 0.31 0.22
-12 8 21 0.24 0.2
12 8 -21 0.6 0.25
12 8 9 0.39 0.2
-12 -8 21 0.37 0.2
12 -8 9 0.42 0.23
-12 8 -10 1.78 0.32
-12 8 22 0 0.19
12 8 -22 -0.05 0.23
12 8 10 1.72 0.31
-12 -8 22 0.04 0.17
12 -8 10 1.91 0.32
-14 8 7 9.79 0.39
14 8 -7 10.63 0.43
-14 -8 7 11.16 0.33
14 -8 -7 10.62 0.43
-14 8 6 3.66 0.29
-14 8 6 4.3 0.25
-14 8 8 3.79 0.27
14 8 -8 4.06 0.31
14 8 -6 3.93 0.3
-14 -8 8 4.31 0.25
14 -8 -8 3.63 0.28
14 -8 -6 3.8 0.3
-14 8 5 1.29 0.2
-14 8 5 1.57 0.19
-14 8 9 10.08 0.4
14 8 -9 11.54 0.45
14 8 -5 1.23 0.21
-14 -8 9 11.89 0.38
14 -8 -9 10.66 0.42
14 -8 -5 1.46 0.21
-14 8 4 0.07 0.12
-14 8 4 0.03 0.12
-14 8 10 0.25 0.15
14 8 -10 0.34 0.17
14 8 -4 0.22 0.12
14 8 -4 0.12 0.15
-14 -8 10 0.34 0.13
14 -8 -10 0.18 0.14
14 -8 -4 -0.09 0.11
-14 8 3 0.51 0.17
-14 8 3 0.67 0.17
-14 8 11 5.62 0.34
14 8 -11 6.26 0.36
14 8 -3 0.64 0.15
14 8 -3 0.47 0.17
-14 -8 11 6.15 0.32
14 -8 -11 5.15 0.32
14 -8 -3 0.68 0.18
-14 8 2 12.33 0.44
-14 8 2 15.13 0.47
-14 8 12 1.71 0.23
14 8 -12 2.44 0.3
14 8 -2 16.44 0.46
14 8 -2 12.36 0.48
-14 -8 12 2.29 0.24
14 -8 -12 2.01 0.24
14 -8 -2 13.85 0.49
-14 8 1 1.75 0.24
-14 8 13 2.98 0.28
14 8 -13 3.87 0.32
14 8 -1 1.94 0.22
14 8 -1 1.13 0.21
-14 -8 13 3.96 0.28
14 -8 -13 3.29 0.28
14 -8 -1 1.42 0.23
-14 8 0 2.17 0.27
-14 8 14 0.24 0.15
14 8 -14 0.24 0.18
14 8 0 2.5 0.25
14 8 0 1.92 0.25
-14 -8 14 0.23 0.13
14 -8 -14 0.11 0.13
14 -8 0 2.56 0.3
-14 8 -1 0.45 0.2
-14 8 15 1.88 0.25
14 8 -15 1.61 0.26
14 8 1 0.53 0.17
14 8 1 0.48 0.17
-14 -8 15 1.3 0.21
14 -8 -15 1.16 0.2
14 -8 1 0.75 0.2
-14 8 -2 0.14 0.17
-14 8 16 1.37 0.24
14 8 -16 2.14 0.29
14 8 2 0.22 0.16
14 8 2 0.09 0.14
-14 -8 16 1.92 0.25
14 -8 -16 1.57 0.22
14 -8 2 0.1 0.17
-14 8 -3 1.21 0.25
-14 8 17 -0.06 0.15
14 8 -17 0.01 0.19
14 8 3 1.69 0.24
14 8 3 1.18 0.22
-14 -8 17 0.12 0.14
14 -8 -17 0.11 0.14
14 -8 3 1.61 0.26
-14 8 -4 1.07 0.24
-14 8 18 0.06 0.16
14 8 -18 -0.1 0.18
14 8 4 1.53 0.24
14 8 4 0.98 0.21
-14 -8 18 -0.02 0.13
14 -8 -18 0.12 0.14
14 -8 4 1.6 0.27
14 -8 4 1.06 0.21
-14 8 -5 -0.17 0.18
-14 8 19 0.37 0.18
14 8 -19 0.26 0.22
14 8 5 0.31 0.19
14 8 5 -0.03 0.15
-14 -8 19 0.38 0.16
14 -8 -19 0.21 0.16
14 -8 5 0.33 0.21
14 -8 5 0.32 0.17
-14 8 -6 0.27 0.22
-14 8 20 0.11 0.17
14 8 -20 -0.11 0.2
14 8 6 0.26 0.19
14 8 6 0.1 0.18
-14 -8 20 0.14 0.17
14 -8 6 0.29 0.21
14 -8 6 0.1 0.17
-14 8 -7 0.26 0.2
-14 8 21 0.06 0.17
14 8 -21 -0.07 0.21
14 8 7 0.31 0.21
14 8 7 -0.15 0.16
-14 -8 21 0.1 0.17
14 -8 7 0.14 0.2
-14 8 -8 1.01 0.27
-14 8 22 0.09 0.17
14 8 -22 -0.18 0.22
14 8 8 1 0.26
-14 -8 22 0.21 0.19
14 -8 8 1.12 0.27
-16 8 8 0.86 0.19
16 8 -8 0.68 0.18
16 -8 -8 0.94 0.19
-16 8 7 6.01 0.35
-16 8 9 -0.09 0.13
16 8 -9 0.15 0.16
16 8 -7 6.11 0.36
-16 -8 9 0.09 0.1
16 -8 -9 -0.01 0.12
16 -8 -7 6.32 0.36
-16 8 6 0.52 0.16
-16 8 6 0.56 0.15
-16 8 10 1.04 0.2
16 8 -10 1.33 0.23
16 8 -6 0.32 0.16
-16 -8 10 1.3 0.17
16 -8 -10 1.11 0.19
16 -8 -6 0.57 0.17
-16 8 5 0.09 0.14
-16 8 5 0.33 0.14
-16 8 11 9.89 0.42
16 8 -11 11.66 0.46
16 8 -5 0.09 0.14
-16 -8 11 11.7 0.39
16 -8 -11 10.23 0.43
16 -8 -5 0.12 0.15
-16 8 4 0.64 0.18
-16 8 4 0.89 0.18
-16 8 12 0.51 0.17
16 8 -12 0.55 0.19
16 8 -4 0.59 0.18
-16 -8 12 0.68 0.16
16 -8 -12 0.49 0.16
16 -8 -4 0.79 0.18
-16 8 3 0.16 0.15
-16 8 3 0.29 0.15
-16 8 13 0.04 0.13
16 8 -13 0.16 0.17
16 8 -3 0.32 0.14
16 8 -3 0.3 0.16
-16 -8 13 0.01 0.11
16 -8 -13 0.04 0.14
16 -8 -3 0.2 0.16
-16 8 2 0.2 0.16
-16 8 14 0.12 0.15
16 8 -14 0.31 0.19
16 8 -2 0.44 0.15
16 8 -2 0 0.14
-16 -8 14 -0.04 0.11
16 -8 -14 0.16 0.14
16 -8 -2 0.18 0.15
-16 8 1 0.07 0.14
-16 8 15 2.48 0.28
16 8 -15 3.28 0.33
16 8 -1 0.13 0.14
16 8 -1 0.01 0.15
-16 -8 15 3.05 0.27
16 -8 -15 2.4 0.27
16 -8 -1 -0.01 0.16
-16 8 0 -0.08 0.15
-16 8 16 0.45 0.18
16 8 -16 0.55 0.2
16 8 0 -0.17 0.14
16 8 0 -0.09 0.14
-16 -8 16 0.56 0.16
16 -8 -16 0.25 0.15
16 -8 0 0.03 0.15
-16 8 -1 0.34 0.18
-16 8 17 0.38 0.17
16 8 -17 0.34 0.2
16 8 1 0.3 0.17
16 8 1 0.19 0.16
-16 -8 17 0.37 0.16
16 -8 -17 0.32 0.15
16 -8 1 0.54 0.2
-16 8 -2 -0.13 0.16
-16 8 18 1.25 0.23
16 8 -18 1.34 0.27
16 8 2 -0.15 0.14
16 8 2 -0.02 0.15
-16 -8 18 1.35 0.23
16 -8 -18 1.08 0.21
16 -8 2 -0.09 0.18
-16 8 -3 -0.22 0.16
-16 8 19 0.12 0.17
16 8 -19 0.2 0.22
16 8 3 0.11 0.17
16 8 3 -0.19 0.15
-16 -8 19 0.3 0.17
16 -8 -19 0.14 0.16
16 -8 3 0.11 0.17
16 -8 3 -0.12 0.13
-16 8 -4 -0.03 0.18
-16 8 20 1.06 0.24
16 8 -20 1.22 0.28
16 8 4 0.17 0.18
16 8 4 0.05 0.16
-16 -8 20 0.94 0.23
16 -8 -20 1.35 0.23
16 -8 4 0.14 0.21
16 -8 4 -0.06 0.14
-16 8 -5 0.92 0.26
-16 8 21 -0.04 0.16
16 8 -21 -0.2 0.19
16 8 5 0.97 0.24
16 8 5 0.6 0.21
-16 -8 21 0.09 0.17
16 -8 -21 -0.06 0.14
16 -8 5 1.32 0.27
16 -8 5 0.93 0.22
-16 8 -6 0.04 0.2
-16 8 22 0.67 0.22
16 8 -22 0.71 0.27
16 8 6 0.17 0.2
16 8 6 0.05 0.18
16 -8 6 0.04 0.21
16 -8 6 0.17 0.17
-16 -8 23 -0.03 0.17
16 -8 7 0.68 0.25
-18 8 9 0.42 0.17
18 8 -9 0.49 0.18
18 -8 -9 0.5 0.16
-18 8 8 0.34 0.16
-18 8 10 -0.1 0.13
18 8 -10 0.08 0.16
18 8 -8 0.4 0.17
18 -8 -10 -0.1 0.11
18 -8 -8 0.48 0.16
-18 8 7 0.06 0.14
-18 8 11 0.19 0.15
18 8 -11 0.12 0.17
18 8 -7 -0.07 0.14
-18 -8 11 0.2 0.11
18 -8 -11 0.12 0.13
18 -8 -7 0.1 0.14
-18 8 6 -0.01 0.14
-18 8 6 0.17 0.14
-18 8 12 -0.02 0.13
18 8 -12 0.02 0.15
18 8 -6 -0.2 0.14
-18 -8 12 -0.11 0.1
18 -8 -12 -0.04 0.13
18 -8 -6 -0.03 0.14
-18 8 5 0.6 0.17
-18 8 5 0.68 0.17
-18 8 13 0.33 0.15
18 8 -13 0.26 0.17
18 8 -5 0.63 0.19
-18 -8 13 0.12 0.12
18 -8 -13 0.05 0.14
18 -8 -5 0.47 0.17
-18 8 4 2.31 0.26
-18 8 14 0.86 0.19
18 8 -14 1.24 0.24
18 8 -4 1.56 0.25
-18 -8 14 0.98 0.18
18 -8 -14 0.67 0.19
18 -8 -4 1.73 0.25
-18 8 3 0.37 0.16
-18 8 15 0.42 0.18
18 8 -15 0.53 0.19
18 8 -3 0.28 0.15
18 8 -3 0.11 0.15
-18 -8 15 0.47 0.15
18 -8 -15 0.42 0.16
18 -8 -3 0.03 0.17
-18 8 2 0.91 0.21
-18 8 16 0.31 0.17
18 8 -16 0.27 0.19
18 8 -2 1.04 0.19
18 8 -2 0.49 0.18
-18 -8 16 0.4 0.15
18 -8 -16 0.27 0.16
18 -8 -2 0.51 0.2
-18 8 1 1.56 0.25
-18 8 17 0.38 0.18
18 8 -17 0.75 0.22
18 8 -1 1.34 0.22
18 8 -1 0.76 0.21
-18 -8 17 0.53 0.17
18 -8 -17 0.66 0.19
18 -8 -1 1.32 0.25
-18 8 0 -0.06 0.17
-18 8 18 0.14 0.17
18 8 -18 0.31 0.22
18 8 0 0.24 0.16
18 8 0 0.04 0.15
-18 -8 18 0.14 0.15
18 -8 -18 0.01 0.14
18 -8 0 0.15 0.19
-18 8 -1 0.61 0.22
-18 8 19 0.17 0.17
18 8 -19 0.09 0.21
18 8 1 0.62 0.2
18 8 1 0.43 0.18
-18 -8 19 0.09 0.15
18 -8 -19 0.06 0.15
18 -8 1 0.7 0.21
-18 8 -2 0.34 0.21
-18 8 20 1.01 0.22
18 8 -20 1.12 0.26
18 8 2 0.65 0.21
18 8 2 0.55 0.21
-18 -8 20 0.86 0.21
18 -8 -20 0.96 0.22
18 -8 2 0.81 0.24
18 -8 2 0.41 0.18
-18 8 -3 0.39 0.22
-18 8 21 -0.07 0.16
18 8 -21 0.08 0.23
18 8 3 0.17 0.19
18 8 3 0.24 0.18
-18 -8 21 0.07 0.16
18 -8 -21 0.1 0.16
18 -8 3 0.33 0.22
18 -8 3 0.15 0.17
-18 8 -4 -0.1 0.2
-18 8 22 -0.02 0.15
18 8 -22 0.02 0.23
18 8 4 0.08 0.19
18 8 4 0.07 0.18
-18 -8 22 0.14 0.18
18 -8 -22 0.47 0.19
18 -8 4 0.27 0.23
18 -8 4 0.2 0.18
-18 8 23 0.68 0.23
18 8 5 0.58 0.23
-18 -8 23 0.35 0.2
18 -8 -23 0.39 0.19
18 -8 5 0.46 0.24
18 -8 5 0.19 0.19
-20 8 10 0.18 0.14
20 8 -10 0.1 0.16
20 -8 -10 0.07 0.15
-20 8 9 1.2 0.22
-20 8 11 1.19 0.21
20 8 -11 1.24 0.23
20 8 -9 1.05 0.22
20 -8 -11 1.2 0.21
20 -8 -9 0.79 0.19
-20 8 8 3.18 0.3
-20 8 12 -0.01 0.14
20 8 -12 -0.07 0.15
20 8 -8 3.21 0.31
20 -8 -12 -0.02 0.14
20 -8 -8 2.91 0.3
-20 8 7 0.74 0.2
-20 8 13 0.08 0.13
20 8 -13 0.08 0.17
20 8 -7 0.98 0.22
-20 -8 13 0.03 0.1
20 -8 -13 -0.01 0.14
20 -8 -7 0.7 0.2
-20 8 6 1.14 0.22
-20 8 6 1.65 0.22
-20 8 14 0.18 0.16
20 8 -14 0.27 0.18
20 8 -6 1.34 0.24
-20 -8 14 0.14 0.12
20 -8 -14 0 0.13
20 -8 -6 1.3 0.24
-20 8 5 0.05 0.14
-20 8 15 0.05 0.14
20 8 -15 0.15 0.19
20 8 -5 -0.09 0.15
-20 -8 15 0.14 0.12
20 -8 -15 0.16 0.14
20 -8 -5 -0.1 0.16
-20 8 4 0.88 0.21
-20 8 16 0.3 0.17
20 8 -16 0.32 0.2
20 8 -4 0.9 0.21
-20 -8 16 0.13 0.13
20 -8 -16 0.18 0.16
20 -8 -4 0.96 0.21
-20 8 3 0.72 0.21
-20 8 17 0.38 0.18
20 8 -17 0.39 0.22
20 8 -3 0.64 0.2
-20 -8 17 0.31 0.15
20 -8 -17 0.25 0.17
20 -8 -3 0.65 0.22
-20 8 2 0.05 0.17
-20 8 18 0.69 0.2
20 8 -18 0.74 0.23
20 8 -2 -0.01 0.16
20 8 -2 -0.16 0.14
-20 -8 18 0.69 0.19
20 -8 -18 0.57 0.19
20 -8 -2 -0.17 0.15
-20 8 1 0.03 0.17
-20 8 19 0.02 0.16
20 8 -19 -0.15 0.2
20 8 -1 -0.01 0.15
20 8 -1 0.19 0.17
-20 -8 19 0.02 0.14
20 -8 -19 -0.07 0.14
20 -8 -1 -0.03 0.18
-20 8 0 0.02 0.19
-20 8 20 0.74 0.21
20 8 -20 0.88 0.27
20 8 0 0.28 0.19
20 8 0 0.34 0.18
-20 -8 20 0.69 0.2
20 -8 -20 0.67 0.2
20 -8 0 0.05 0.19
-20 8 -1 0.95 0.26
-20 8 21 -0.01 0.17
20 8 -21 -0.14 0.22
20 8 1 1.4 0.25
20 8 1 0.74 0.23
-20 -8 21 0.1 0.17
20 -8 -21 0.08 0.16
20 -8 1 1.58 0.29
20 -8 1 0.91 0.23
-20 8 -2 0.01 0.19
-20 8 22 0.52 0.2
20 8 -22 0.11 0.24
20 8 2 0.09 0.19
20 8 2 0.05 0.18
-20 -8 22 0.31 0.19
20 -8 -22 0.16 0.18
20 -8 2 0 0.21
20 -8 2 -0.04 0.16
-20 8 23 1.84 0.3
20 8 3 0.34 0.22
-20 -8 23 1.72 0.29
20 -8 -23 1.54 0.27
20 -8 3 0.02 0.22
20 -8 3 0.23 0.18
-22 8 11 0.13 0.15
22 8 -11 -0.01 0.17
22 -8 -11 0.16 0.16
-22 8 10 1.57 0.24
-22 8 12 0.11 0.15
22 8 -12 0.1 0.18
22 8 -10 1.14 0.24
22 -8 -12 0.26 0.16
22 -8 -10 1.33 0.23
-22 8 9 0.19 0.16
-22 8 13 2.42 0.27
22 8 -13 2.72 0.3
22 8 -9 0.31 0.18
22 -8 -13 2.66 0.3
22 -8 -9 0.23 0.18
-22 8 8 2.95 0.31
-22 8 14 1.43 0.23
22 8 -14 1.32 0.25
22 8 -8 3.15 0.32
22 -8 -14 0.98 0.21
22 -8 -8 2.59 0.29
-22 8 7 1.31 0.24
-22 8 15 -0.01 0.14
22 8 -15 0.11 0.19
22 8 -7 1.11 0.23
22 -8 -15 -0.14 0.14
22 -8 -7 1.32 0.24
-22 8 16 0.2 0.17
22 8 -16 0.1 0.2
22 8 -6 0.24 0.18
-22 -8 16 0.14 0.14
22 -8 -16 0.17 0.15
22 -8 -6 0.39 0.19
-22 8 5 0.6 0.19
-22 8 17 0.76 0.21
22 8 -17 0.89 0.24
22 8 -5 0.29 0.18
-22 -8 17 0.92 0.19
22 -8 -17 0.45 0.19
22 -8 -5 0.2 0.19
-22 8 4 -0.1 0.17
-22 8 18 1.78 0.27
22 8 -18 2.21 0.3
22 8 -4 0.11 0.16
-22 -8 18 1.97 0.26
22 -8 -18 1.57 0.26
22 -8 -4 0.06 0.19
-22 8 3 0.09 0.17
-22 8 19 0.54 0.19
22 8 -19 0.71 0.26
22 8 -3 0.01 0.16
-22 -8 19 0.6 0.18
22 -8 -19 0.3 0.19
22 -8 -3 0.08 0.19
-22 8 2 0.03 0.18
-22 8 20 0.15 0.16
22 8 -20 0.1 0.23
22 8 -2 -0.02 0.17
-22 -8 20 0.18 0.16
22 -8 -20 -0.08 0.16
22 -8 -2 0.04 0.2
-22 8 1 0.3 0.2
-22 8 21 0.03 0.16
22 8 -21 0.04 0.23
22 8 -1 0.36 0.19
22 8 -1 0.11 0.17
-22 -8 21 0.08 0.16
22 -8 -21 -0.04 0.15
22 -8 -1 0.24 0.21
-22 8 0 0.07 0.19
-22 8 22 0.15 0.19
22 8 -22 0.41 0.25
22 8 0 0.09 0.18
22 8 0 -0.09 0.17
-22 -8 22 0.33 0.18
22 -8 -22 0.23 0.19
22 -8 0 -0.04 0.21
22 -8 0 -0.18 0.15
22 8 1 0.4 0.22
-22 -8 23 2.13 0.3
22 -8 -23 1.96 0.3
22 -8 1 0.48 0.24
22 -8 1 0.21 0.18
-24 8 12 0.37 0.18
24 8 -12 0.57 0.21
24 -8 -12 0.48 0.2
-24 8 11 0.36 0.19
-24 8 13 1.96 0.28
24 8 -13 1.82 0.28
24 8 -11 0.32 0.2
24 -8 -13 1.79 0.27
24 -8 -11 0.27 0.18
-24 8 10 1.92 0.28
-24 8 14 3.28 0.33
24 8 -14 3.7 0.36
24 8 -10 2.01 0.29
24 -8 -14 2.94 0.3
24 -8 -10 2.08 0.28
-24 8 9 0.15 0.18
-24 8 15 0.03 0.16
24 8 -15 -0.31 0.18
24 8 -9 0.26 0.19
24 -8 -15 0.26 0.16
24 -8 -9 0.26 0.18
-24 8 16 0 0.16
24 8 -16 -0.13 0.18
24 8 -8 0.53 0.21
24 -8 -16 0.05 0.15
24 -8 -8 0.78 0.23
-24 8 17 0.66 0.2
24 8 -17 0.8 0.25
24 8 -7 0.57 0.22
24 -8 -17 0.64 0.21
24 -8 -7 0.54 0.22
-24 8 18 1.66 0.27
24 8 -18 2.06 0.3
24 8 -6 0.36 0.19
-24 -8 18 1.6 0.23
24 -8 -18 1.36 0.24
24 -8 -6 0.5 0.22
-24 8 5 0.19 0.19
-24 8 19 0.36 0.2
24 8 -19 0.15 0.21
24 8 -5 0.29 0.19
-24 -8 19 0.35 0.17
24 -8 -19 0.31 0.18
24 -8 -5 0.06 0.2
-24 8 4 0.37 0.21
-24 8 20 0.75 0.22
24 8 -20 0.86 0.26
24 8 -4 0.22 0.19
-24 -8 20 0.91 0.21
24 -8 -20 0.87 0.24
24 -8 -4 0.43 0.24
-24 8 3 0.18 0.2
-24 8 21 -0.03 0.17
24 8 -21 0.22 0.24
24 8 -3 -0.07 0.18
-24 -8 21 0.01 0.15
24 -8 -21 0 0.16
24 -8 -3 -0.21 0.19
-24 8 2 -0.06 0.18
-24 8 22 1.57 0.28
24 8 -22 1.96 0.33
24 8 -2 0.15 0.19
-24 -8 22 0.96 0.22
24 -8 -22 1.08 0.24
24 -8 -2 -0.09 0.2
-26 8 13 1.26 0.26
26 8 -13 1.51 0.29
26 -8 -13 1.19 0.25
-26 8 12 0.77 0.23
-26 8 14 1.31 0.25
26 8 -14 1.88 0.3
26 8 -12 1.06 0.26
26 -8 -14 1.1 0.24
26 -8 -12 0.91 0.24
-26 8 11 0.07 0.18
-26 8 15 0.05 0.17
26 8 -15 0.39 0.22
26 8 -11 -0.01 0.19
26 -8 -15 0.01 0.17
26 -8 -11 0.04 0.18
-26 8 16 -0.03 0.17
26 8 -16 0.2 0.22
26 8 -10 0.14 0.2
26 -8 -16 0.09 0.18
26 -8 -10 0.18 0.19
-26 8 17 0.12 0.18
26 8 -17 -0.08 0.2
26 8 -9 0.24 0.2
26 -8 -17 0.02 0.17
26 -8 -9 0.17 0.2
-26 8 18 0.25 0.19
26 8 -18 0.4 0.23
26 8 -8 1.04 0.25
26 -8 -18 0.25 0.19
26 -8 -8 1.52 0.28
-26 8 19 0.38 0.21
26 8 -19 0.72 0.26
26 8 -7 0.46 0.21
26 -8 -19 0.38 0.19
26 -8 -7 1.11 0.26
-26 8 20 0.25 0.19
26 8 -20 0.42 0.25
26 8 -6 0.19 0.2
-26 -8 20 -0.03 0.14
26 -8 -20 0.25 0.19
26 -8 -6 0.38 0.23
-26 8 21 0.08 0.19
26 8 -21 -0.21 0.22
26 8 -5 -0.06 0.19
-26 -8 21 -0.07 0.15
26 -8 -21 -0.11 0.16
26 -8 -5 0.21 0.22
26 -8 -4 0.32 0.23
-28 8 14 0.04 0.19
28 8 -14 0.1 0.21
28 -8 -14 0.12 0.19
-28 8 13 1.33 0.26
-28 8 15 1.15 0.26
28 8 -15 1.09 0.28
28 8 -13 1.71 0.3
28 -8 -15 1.16 0.26
28 -8 -13 1.36 0.28
-28 8 16 0.26 0.2
28 8 -16 0.05 0.21
28 8 -12 0.92 0.26
28 -8 -16 0.28 0.2
28 -8 -12 0.81 0.25
-28 8 17 0.37 0.21
28 8 -17 0.1 0.22
28 8 -11 0.67 0.23
28 -8 -17 0.2 0.19
28 -8 -11 0.52 0.24
-28 8 18 0.43 0.22
28 8 -18 0.49 0.24
28 8 -10 0.2 0.2
28 -8 -18 0.49 0.21
28 -8 -10 0.36 0.21
-28 8 19 0.04 0.18
28 8 -19 -0.3 0.21
28 8 -9 0.15 0.21
28 -8 -19 -0.12 0.17
28 -8 -9 0.13 0.22
-28 8 20 0.56 0.23
28 -8 -20 0.37 0.21
28 -8 -8 0.38 0.24
30 -8 -15 0.12 0.21
30 -8 -16 0.61 0.24
30 -8 -14 0.28 0.23
-1 9 0 0.63 0.13
-1 9 0 0.76 0.16
-1 9 1 4.81 0.25
-1 9 1 5.68 0.3
1 9 -1 4.89 0.24
1 9 -1 5.58 0.32
1 9 0 0.5 0.13
1 9 0 0.6 0.16
-1 -9 0 0.58 0.14
-1 -9 1 5.93 0.3
1 -9 -1 5.23 0.28
1 -9 0 0.66 0.15
-1 9 -1 3.12 0.21
-1 9 -1 3.56 0.27
-1 9 2 0.66 0.14
-1 9 2 0.71 0.16
1 9 -2 0.4 0.11
1 9 -2 0.73 0.18
1 9 1 3.1 0.22
1 9 1 3.5 0.27
-1 -9 -1 3.78 0.24
-1 -9 2 0.82 0.16
1 -9 -2 0.62 0.14
1 -9 1 3.44 0.27
-1 9 -2 0.01 0.09
-1 9 -2 -0.09 0.13
-1 9 3 7.44 0.32
-1 9 3 8.43 0.33
1 9 -3 6.96 0.25
1 9 -3 8.88 0.39
1 9 2 -0.13 0.12
1 9 2 -0.12 0.12
-1 -9 -2 -0.01 0.1
-1 -9 3 9.21 0.37
1 -9 -3 7.86 0.32
1 -9 2 -0.12 0.11
-1 9 -3 0.67 0.13
-1 9 -3 0.64 0.18
-1 9 4 4.51 0.28
-1 9 4 5.17 0.28
1 9 -4 4.47 0.21
1 9 -4 5.39 0.34
1 9 3 0.54 0.15
1 9 3 0.61 0.16
-1 -9 -3 0.7 0.14
-1 -9 4 5.3 0.3
1 -9 -4 4.62 0.26
1 -9 3 0.72 0.18
-1 9 -4 3.12 0.21
-1 9 -4 3.66 0.29
-1 9 5 8.35 0.35
-1 9 5 8.66 0.33
1 9 -5 8.86 0.4
1 9 4 3.3 0.25
1 9 4 3.55 0.27
-1 -9 -4 3.42 0.23
-1 -9 5 9.74 0.4
1 -9 -5 7.88 0.3
1 -9 4 4.07 0.31
-1 9 -5 0.63 0.19
-1 9 6 1.68 0.21
-1 9 6 1.61 0.18
1 9 -6 1.79 0.24
1 9 5 0.42 0.15
1 9 5 0.48 0.15
-1 -9 6 1.68 0.22
1 -9 -6 1.77 0.18
1 -9 5 0.6 0.18
-1 9 -6 0.07 0.16
-1 9 7 -0.03 0.14
-1 9 7 0.13 0.12
1 9 -7 -0.04 0.15
1 9 6 -0.07 0.13
1 9 6 -0.01 0.12
-1 -9 7 0.03 0.14
1 -9 6 -0.03 0.14
-1 9 -7 0.21 0.17
-1 9 8 11.03 0.44
1 9 -8 12.8 0.48
1 9 7 0.01 0.15
1 9 7 0.11 0.13
-1 -9 8 12.03 0.45
1 -9 7 0.24 0.15
-1 9 -8 0.98 0.23
-1 9 9 2.96 0.29
1 9 -9 3.44 0.32
1 9 8 1.2 0.21
-1 -9 9 3.09 0.3
1 -9 8 1.2 0.22
-1 9 -9 0.43 0.2
-1 9 10 1.17 0.22
1 9 -10 0.98 0.22
1 9 9 0.55 0.18
-1 -9 10 1.02 0.22
1 -9 9 0.27 0.17
-1 9 -10 1.58 0.26
-1 9 11 5.44 0.36
1 9 -11 6.34 0.4
1 9 10 1.68 0.24
-1 -9 11 5.84 0.38
1 -9 10 1.61 0.25
-1 9 -11 5.55 0.4
-1 9 12 0.25 0.17
1 9 -12 0.11 0.2
1 9 11 5.03 0.36
-1 -9 12 0.25 0.19
1 -9 11 4.79 0.37
-1 9 -12 0.39 0.22
-1 9 13 1.4 0.25
1 9 -13 1.31 0.26
1 9 12 0.42 0.2
-1 -9 13 1.55 0.27
1 -9 12 0.73 0.23
-1 9 -13 0.07 0.21
-1 9 14 -0.04 0.17
1 9 -14 0.19 0.21
1 9 13 0.29 0.19
-1 -9 14 0 0.18
1 -9 13 0.23 0.21
-1 9 -14 0.08 0.22
-1 9 15 0.4 0.2
1 9 -15 0.24 0.22
1 9 14 0.35 0.21
-1 -9 15 0.32 0.22
1 -9 14 0.22 0.19
-1 9 -15 2.49 0.35
-1 9 16 0.86 0.24
1 9 -16 0.77 0.27
1 9 15 2.25 0.33
-1 -9 16 0.41 0.22
1 -9 15 2.44 0.33
-1 9 17 0.71 0.25
1 9 16 0.22 0.2
-1 -9 17 0.8 0.25
1 -9 16 0.37 0.24
-3 9 1 6.66 0.29
-3 9 1 8.02 0.33
-3 9 2 0.04 0.11
-3 9 2 0.08 0.12
3 9 -2 -0.24 0.08
3 9 -2 -0.13 0.13
3 9 -1 6.52 0.27
3 9 -1 7.36 0.35
-3 -9 1 8.33 0.32
-3 -9 2 0.13 0.11
3 -9 -2 0.09 0.12
3 -9 -1 7.04 0.33
-3 9 0 4.64 0.24
-3 9 0 5.95 0.31
-3 9 3 0.08 0.12
-3 9 3 0.08 0.12
3 9 -3 0.1 0.1
3 9 -3 0.1 0.15
3 9 0 4.69 0.25
3 9 0 4.98 0.31
-3 -9 0 5.89 0.27
-3 -9 3 0.18 0.12
3 -9 -3 0.09 0.12
3 -9 0 5.41 0.32
-3 9 -1 5.25 0.25
-3 9 -1 6.51 0.34
-3 9 4 -0.08 0.11
-3 9 4 -0.01 0.12
3 9 -4 -0.13 0.14
3 9 1 5.7 0.28
3 9 1 5.19 0.31
-3 -9 -1 6.28 0.27
-3 -9 4 0.12 0.12
3 -9 -4 0.05 0.12
3 -9 1 6.08 0.34
-3 9 -2 10.87 0.34
-3 9 -2 13.94 0.46
-3 9 5 12.56 0.41
-3 9 5 15.37 0.4
3 9 -5 14.42 0.49
3 9 2 11.7 0.39
3 9 2 11.86 0.41
-3 -9 -2 13.72 0.36
-3 -9 5 16.07 0.47
3 -9 -5 13.75 0.4
3 -9 2 13.42 0.46
-3 9 -3 1.27 0.16
-3 9 -3 1.63 0.23
-3 9 6 6.23 0.31
-3 9 6 7.41 0.3
3 9 -6 6.98 0.37
3 9 3 1.41 0.2
3 9 3 1.62 0.21
-3 -9 6 8.14 0.37
3 -9 -6 6.57 0.3
3 -9 3 1.17 0.22
-3 9 -4 2.19 0.2
-3 9 -4 2.44 0.29
-3 9 7 0.37 0.16
3 9 -7 0.48 0.18
3 9 4 2.43 0.24
3 9 4 2.02 0.24
-3 -9 7 0.3 0.15
3 -9 -7 0.41 0.13
3 -9 4 2.45 0.26
-3 9 -5 5.36 0.34
-3 9 8 0.37 0.16
3 9 -8 0.39 0.18
3 9 5 4.98 0.31
3 9 5 4.51 0.3
-3 -9 8 0.57 0.17
3 -9 -8 0.41 0.13
3 -9 5 5.59 0.36
-3 9 -6 0.92 0.22
-3 9 9 -0.13 0.12
3 9 -9 -0.01 0.16
3 9 6 0.6 0.18
3 9 6 0.58 0.16
-3 -9 9 -0.12 0.13
3 -9 6 0.71 0.2
-3 9 -7 3.13 0.31
-3 9 10 0.18 0.16
3 9 -10 0.46 0.19
3 9 7 2.78 0.28
3 9 7 3.05 0.27
-3 -9 10 0.42 0.17
3 -9 7 3.01 0.3
-3 9 -8 0.12 0.17
-3 9 11 3.07 0.28
3 9 -11 3.78 0.34
3 9 8 0.14 0.15
-3 -9 11 3.89 0.31
3 -9 8 0.15 0.17
-3 9 -9 0.1 0.18
-3 9 12 0 0.14
3 9 -12 0.16 0.19
3 9 9 0.26 0.17
-3 -9 12 -0.06 0.14
3 -9 9 0.15 0.17
-3 9 -10 0.38 0.21
-3 9 13 1.56 0.25
3 9 -13 2.18 0.3
3 9 10 0.41 0.19
-3 -9 13 1.49 0.25
3 -9 10 0.46 0.21
-3 9 -11 1.3 0.27
-3 9 14 0.42 0.19
3 9 -14 0.54 0.23
3 9 11 1.42 0.25
-3 -9 14 0.46 0.21
3 -9 11 1.53 0.27
-3 9 -12 -0.07 0.19
-3 9 15 1.26 0.25
3 9 -15 1.59 0.29
3 9 12 -0.13 0.16
-3 -9 15 1.28 0.27
3 -9 12 -0.08 0.19
-3 9 -13 0.06 0.21
-3 9 16 0.12 0.19
3 9 -16 0.11 0.21
3 9 13 -0.02 0.17
3 -9 13 -0.09 0.19
-3 9 -14 -0.02 0.2
-3 9 17 1.6 0.3
3 9 -17 1.58 0.3
3 9 14 0.13 0.21
-3 -9 17 1.78 0.3
3 -9 14 0 0.2
-3 9 18 0.33 0.22
3 9 15 0.14 0.2
-3 -9 18 0.1 0.19
3 -9 15 0.33 0.24
-5 9 2 0.73 0.15
-5 9 2 1.01 0.18
-5 9 3 3.77 0.25
-5 9 3 5.15 0.3
5 9 -3 3.67 0.21
5 9 -3 3.93 0.3
5 9 -2 0.61 0.13
5 9 -2 0.6 0.18
-5 -9 2 0.88 0.15
-5 -9 3 4.74 0.27
5 -9 -3 3.66 0.28
5 -9 -2 0.77 0.16
-5 9 1 6.53 0.3
-5 9 1 8.34 0.36
-5 9 4 0.83 0.17
-5 9 4 1.19 0.17
5 9 -4 1 0.2
5 9 -1 6.62 0.29
5 9 -1 7.06 0.35
-5 -9 1 8.31 0.31
-5 -9 4 1.08 0.17
5 -9 -4 0.74 0.16
5 -9 -1 7.31 0.36
-5 9 0 1.61 0.2
-5 9 0 1.8 0.22
-5 9 5 14.67 0.45
-5 9 5 17.82 0.43
5 9 -5 16.48 0.51
5 9 0 1.82 0.2
5 9 0 1.65 0.22
-5 -9 0 1.74 0.2
-5 -9 5 18.3 0.48
5 -9 -5 15.2 0.44
5 -9 0 1.71 0.23
-5 9 -1 15.07 0.41
-5 9 -1 20.59 0.54
-5 9 6 0.2 0.14
-5 9 6 0.51 0.14
5 9 -6 0.27 0.18
5 9 1 17.73 0.45
5 9 1 16.78 0.49
-5 -9 6 0.71 0.16
5 -9 -6 0.34 0.14
5 -9 1 17.44 0.51
-5 9 -2 2.21 0.21
-5 9 -2 2.82 0.28
-5 9 7 1.55 0.21
5 9 -7 1.54 0.23
5 9 2 2.61 0.24
5 9 2 2.52 0.25
-5 -9 7 1.54 0.21
5 -9 -7 1.48 0.19
5 -9 2 2.92 0.29
-5 9 -3 0.1 0.12
-5 9 -3 0.23 0.17
-5 9 8 6.11 0.33
5 9 -8 7 0.38
5 9 3 -0.03 0.12
5 9 3 0.06 0.14
-5 -9 8 6.72 0.35
5 -9 -8 5.49 0.29
5 -9 3 0.07 0.15
-5 9 -4 0.14 0.16
-5 9 9 0.34 0.15
5 9 -9 0.19 0.17
5 9 4 0.16 0.14
5 9 4 0.03 0.13
-5 -9 9 0.26 0.14
5 -9 -9 0.09 0.12
5 -9 4 0.14 0.15
-5 9 -5 20.91 0.6
-5 9 10 0.03 0.14
5 9 -10 0.29 0.19
5 9 5 18.72 0.54
5 9 5 16.77 0.49
-5 -9 10 0.26 0.15
5 -9 -10 0.15 0.12
5 -9 5 20.8 0.6
-5 9 -6 0.15 0.18
-5 9 11 6.66 0.37
5 9 -11 7.47 0.4
5 9 6 0.17 0.16
5 9 6 0.27 0.15
-5 -9 11 6.7 0.37
5 -9 6 0.25 0.16
-5 9 -7 2.05 0.27
-5 9 12 0.05 0.14
5 9 -12 0.12 0.17
5 9 7 1.59 0.23
5 9 7 2.17 0.26
-5 -9 12 0.08 0.15
5 -9 7 1.7 0.27
-5 9 -8 0.13 0.18
-5 9 13 0.76 0.2
5 9 -13 1.02 0.23
5 9 8 0.36 0.18
-5 -9 13 0.84 0.21
5 -9 8 0.27 0.18
-5 9 -9 2.34 0.31
-5 9 14 0.13 0.16
5 9 -14 0.03 0.18
5 9 9 2.39 0.27
-5 -9 14 -0.03 0.16
5 -9 9 2.6 0.32
-5 9 -10 0.16 0.21
-5 9 15 2.03 0.29
5 9 -15 2.84 0.34
5 9 10 0.2 0.19
-5 -9 15 2.38 0.3
5 -9 10 0.07 0.19
-5 9 -11 -0.01 0.18
-5 9 16 0.13 0.18
5 9 -16 -0.2 0.18
5 9 11 0.13 0.19
-5 -9 16 -0.07 0.15
5 -9 11 0.04 0.18
-5 9 -12 0.28 0.22
-5 9 17 0.96 0.23
5 9 -17 0.85 0.25
5 9 12 0.47 0.22
-5 -9 17 0.77 0.24
5 -9 12 0.61 0.24
-5 9 -13 0.05 0.22
-5 9 18 0.56 0.24
5 9 -18 0.91 0.27
5 9 13 -0.04 0.2
-5 -9 18 0.51 0.23
5 -9 13 -0.12 0.2
-5 -9 19 0.19 0.21
-7 9 3 0.16 0.14
-7 9 3 0.4 0.15
-7 9 4 6.77 0.33
-7 9 4 8.98 0.35
7 9 -4 7.87 0.38
7 9 -3 0.29 0.11
7 9 -3 0.27 0.16
-7 -9 3 0.37 0.12
-7 -9 4 8.54 0.33
7 -9 -4 7.75 0.36
7 -9 -3 0.4 0.16
-7 9 2 2.15 0.23
-7 9 2 3.67 0.29
-7 9 5 28.26 0.6
-7 9 5 35.91 0.59
7 9 -5 31.45 0.67
7 9 -2 2.72 0.22
7 9 -2 2.66 0.3
-7 -9 2 3.02 0.23
-7 -9 5 35.4 0.62
7 -9 -5 29.2 0.62
7 -9 -2 2.86 0.29
-7 9 1 44.12 0.71
-7 9 1 57.43 0.83
-7 9 6 0.12 0.13
-7 9 6 0.27 0.13
7 9 -6 0.43 0.17
7 9 -1 52.28 0.7
7 9 -1 47.82 0.79
-7 -9 6 0.35 0.14
7 -9 -6 0.26 0.14
7 -9 -1 47.65 0.8
-7 9 0 1.02 0.19
-7 9 0 1.54 0.22
-7 9 7 0.23 0.14
7 9 -7 0.08 0.16
7 9 0 1.16 0.18
7 9 0 0.99 0.19
-7 -9 7 -0.04 0.12
7 -9 -7 0.01 0.12
7 -9 0 1.22 0.2
-7 9 -1 0.03 0.12
-7 9 -1 -0.1 0.14
-7 9 8 4.06 0.29
7 9 -8 4.7 0.33
7 9 1 -0.11 0.12
7 9 1 -0.03 0.13
-7 -9 8 4.83 0.3
7 -9 -8 3.62 0.27
7 -9 1 0.17 0.15
-7 9 -2 2.66 0.25
-7 9 -2 2.83 0.28
-7 9 9 0.25 0.14
7 9 -9 0.4 0.18
7 9 2 2.81 0.25
7 9 2 2.48 0.25
-7 -9 9 0.25 0.15
7 -9 -9 0.16 0.13
7 -9 2 2.76 0.3
-7 9 -3 1.3 0.22
-7 9 10 1.89 0.24
7 9 -10 2.64 0.3
7 9 3 1.46 0.21
7 9 3 1.21 0.21
-7 -9 10 2.1 0.25
7 -9 -10 1.92 0.21
7 -9 3 1.58 0.24
-7 9 -4 3.49 0.31
-7 9 11 1.01 0.2
7 9 -11 1.22 0.23
7 9 4 3.32 0.29
7 9 4 3.08 0.29
-7 -9 11 1.09 0.2
7 -9 -11 0.73 0.16
7 -9 4 3.53 0.31
-7 9 -5 16.53 0.56
-7 9 12 0.69 0.18
7 9 -12 0.58 0.21
7 9 5 17.1 0.53
7 9 5 15.07 0.49
-7 -9 12 0.5 0.18
7 -9 -12 0.53 0.15
7 -9 5 17.14 0.56
-7 9 -6 1.06 0.23
-7 9 13 0.11 0.14
7 9 -13 0.18 0.19
7 9 6 1.05 0.22
7 9 6 0.67 0.18
-7 -9 13 0.05 0.14
7 -9 6 1.02 0.23
-7 9 -7 0.07 0.18
-7 9 14 1.14 0.23
7 9 -14 1.28 0.26
7 9 7 0.36 0.18
7 9 7 0.18 0.15
-7 -9 14 1.17 0.22
7 -9 7 0.2 0.19
-7 9 -8 0.1 0.19
-7 9 15 0.95 0.23
7 9 -15 1.07 0.25
7 9 8 0.48 0.19
-7 -9 15 1.32 0.25
7 -9 8 0.24 0.2
-7 9 -9 2.43 0.32
-7 9 16 0.04 0.15
7 9 -16 0.11 0.2
7 9 9 2.77 0.32
-7 -9 16 -0.11 0.15
7 -9 9 3.11 0.35
-7 9 -10 0.6 0.23
-7 9 17 0.13 0.16
7 9 -17 -0.2 0.18
7 9 10 1.11 0.25
-7 -9 17 -0.09 0.17
7 -9 10 0.65 0.24
-7 9 -11 1.41 0.28
-7 9 18 0.25 0.2
7 9 -18 0.45 0.24
7 9 11 1.34 0.26
-7 -9 18 0.15 0.18
7 -9 11 1.16 0.27
-7 9 -12 0.3 0.23
-7 9 19 0.13 0.2
7 9 -19 0.16 0.23
7 9 12 0.17 0.21
-7 -9 19 -0.08 0.18
7 -9 12 0.3 0.23
-9 9 4 -0.01 0.12
-9 9 4 -0.04 0.13
-9 9 5 4.19 0.29
-9 9 5 5.02 0.29
9 9 -5 4.46 0.32
9 9 -4 0.17 0.15
-9 -9 4 0.05 0.11
-9 -9 5 4.71 0.27
9 -9 -5 4.01 0.3
9 -9 -4 0.06 0.13
-9 9 3 0.62 0.16
-9 9 3 0.88 0.18
-9 9 6 2.09 0.24
-9 9 6 2.37 0.23
9 9 -6 2.05 0.25
9 9 -3 0.85 0.19
-9 -9 6 2.44 0.24
9 -9 -6 1.86 0.22
9 -9 -3 0.7 0.17
-9 9 2 0.38 0.14
-9 9 2 0.3 0.16
-9 9 7 2.03 0.24
9 9 -7 1.8 0.24
9 9 -2 0.52 0.13
9 9 -2 0.51 0.17
-9 -9 7 1.95 0.22
9 -9 -7 2.13 0.24
9 -9 -2 0.44 0.17
-9 9 1 -0.02 0.13
-9 9 1 -0.03 0.13
-9 9 8 0.05 0.13
9 9 -8 -0.05 0.16
9 9 -1 0.15 0.12
9 9 -1 0.11 0.14
-9 -9 8 -0.04 0.12
9 -9 -8 0.11 0.13
9 -9 -1 0.12 0.15
-9 9 0 5.45 0.3
-9 9 0 6.83 0.36
-9 9 9 4.43 0.31
9 9 -9 5.39 0.35
9 9 0 6.65 0.32
9 9 0 5.54 0.33
-9 -9 9 5.12 0.31
9 -9 -9 4.32 0.29
9 -9 0 6.43 0.37
-9 9 -1 0.14 0.14
-9 9 -1 0.1 0.16
-9 9 10 0.51 0.16
9 9 -10 0.86 0.21
9 9 1 0 0.13
9 9 1 0.06 0.15
-9 -9 10 1.03 0.18
9 -9 -10 0.72 0.16
9 -9 1 0.11 0.16
-9 9 -2 0.48 0.18
-9 9 11 0.18 0.15
9 9 -11 0.19 0.17
9 9 2 0.25 0.15
9 9 2 0.32 0.16
-9 -9 11 0.12 0.14
9 -9 -11 -0.01 0.12
9 -9 2 0.44 0.18
-9 9 -3 0.78 0.22
-9 9 12 0.08 0.15
9 9 -12 0.12 0.17
9 9 3 1.08 0.2
9 9 3 1.04 0.2
-9 -9 12 0.1 0.14
9 -9 -12 0.18 0.13
9 -9 3 0.87 0.22
-9 9 -4 1.38 0.25
-9 9 13 0.8 0.19
9 9 -13 1.08 0.23
9 9 4 1.19 0.21
9 9 4 0.98 0.21
-9 -9 13 1.06 0.2
9 -9 -13 0.88 0.18
9 -9 4 1.39 0.24
-9 9 -5 5.54 0.39
-9 9 14 0 0.14
9 9 -14 -0.1 0.18
9 9 5 5.73 0.36
9 9 5 4.66 0.34
-9 -9 14 -0.04 0.13
9 -9 -14 -0.01 0.12
9 -9 5 6.26 0.39
-9 9 -6 0.3 0.19
-9 9 15 1.4 0.25
9 9 -15 1.81 0.28
9 9 6 0.38 0.17
9 9 6 0.3 0.17
-9 -9 15 1.24 0.22
9 -9 6 0.43 0.21
-9 9 -7 -0.08 0.2
-9 9 16 0.36 0.19
9 9 -16 -0.13 0.19
9 9 7 0.23 0.18
9 9 7 0.14 0.15
-9 -9 16 0.27 0.18
9 -9 7 0.31 0.21
-9 9 -8 0.17 0.2
-9 9 17 0.24 0.17
9 9 -17 0.16 0.23
9 9 8 0.23 0.19
-9 -9 17 0.02 0.16
9 -9 8 0.22 0.22
-9 9 -9 1.69 0.3
-9 9 18 0.72 0.23
9 9 -18 0.61 0.26
9 9 9 1.9 0.29
-9 -9 18 0.73 0.22
9 -9 9 2.26 0.31
-9 9 -10 -0.02 0.19
-9 9 19 0.31 0.21
9 9 -19 0.58 0.24
9 9 10 -0.01 0.19
-9 -9 19 0.33 0.21
9 -9 10 0 0.2
-9 9 -11 0.31 0.25
-9 9 20 0.15 0.19
9 9 -20 0.76 0.27
9 9 11 0.82 0.26
-9 -9 20 0.49 0.22
9 -9 11 0.2 0.23
-11 9 5 10.94 0.41
-11 9 5 14.16 0.41
-11 9 6 0.45 0.16
-11 9 6 0.62 0.15
11 9 -6 0.36 0.17
11 9 -5 11.8 0.45
-11 -9 6 0.46 0.13
11 -9 -6 0.3 0.14
11 -9 -5 12.15 0.45
-11 9 4 0.52 0.16
-11 9 4 0.83 0.17
-11 9 7 0.98 0.18
11 9 -7 1.4 0.23
11 9 -4 0.71 0.18
-11 -9 7 1.21 0.17
11 -9 -7 0.99 0.19
11 -9 -4 0.64 0.18
-11 9 3 0.18 0.14
-11 9 3 0.28 0.15
-11 9 8 2.52 0.24
11 9 -8 2.89 0.29
11 9 -3 0.06 0.15
-11 -9 8 2.73 0.24
11 -9 -8 2.62 0.26
11 -9 -3 0.26 0.14
-11 9 2 3.41 0.27
-11 9 2 4.7 0.31
-11 9 9 12.67 0.45
11 9 -9 15.78 0.52
11 9 -2 4.8 0.27
11 9 -2 3.56 0.29
-11 -9 9 16.1 0.47
11 -9 -9 12.88 0.45
11 -9 -2 4.21 0.3
-11 9 1 0.21 0.14
-11 9 1 0.36 0.17
-11 9 10 1.72 0.23
11 9 -10 1.96 0.26
11 9 -1 0.27 0.13
11 9 -1 0.23 0.16
-11 -9 10 1.76 0.22
11 -9 -10 1.7 0.22
11 -9 -1 0.4 0.16
-11 9 0 0.09 0.13
-11 9 0 0.03 0.15
-11 9 11 0.09 0.13
11 9 -11 0.28 0.18
11 9 0 -0.02 0.12
11 9 0 -0.07 0.13
-11 -9 11 0.03 0.12
11 -9 -11 0 0.12
11 -9 0 -0.01 0.14
-11 9 -1 2 0.25
-11 9 12 0.11 0.15
11 9 -12 0.12 0.18
11 9 1 2.08 0.24
11 9 1 1.84 0.24
-11 -9 12 0 0.12
11 -9 -12 0.03 0.12
11 -9 1 2.14 0.26
-11 9 -2 5.12 0.35
-11 9 13 0.54 0.18
11 9 -13 0.58 0.21
11 9 2 5.78 0.34
11 9 2 4.52 0.32
-11 -9 13 0.81 0.18
11 -9 -13 0.75 0.17
11 -9 2 5.28 0.35
-11 9 -3 0.55 0.19
-11 9 14 -0.04 0.13
11 9 -14 0.11 0.18
11 9 3 0.57 0.18
11 9 3 0.41 0.18
-11 -9 14 0.15 0.14
11 -9 -14 0.01 0.13
11 -9 3 0.48 0.19
-11 9 -4 0.39 0.19
-11 9 15 0.08 0.14
11 9 -15 0.07 0.19
11 9 4 0.4 0.18
11 9 4 0.41 0.18
-11 -9 15 0.27 0.17
11 -9 -15 0.01 0.13
11 -9 4 0.56 0.2
-11 9 -5 1 0.24
-11 9 16 2.79 0.31
11 9 -16 3.59 0.35
11 9 5 1.29 0.23
11 9 5 0.75 0.19
-11 -9 16 2.82 0.3
11 -9 5 1.59 0.26
-11 9 -6 0.41 0.22
-11 9 17 0.17 0.17
11 9 -17 0.19 0.21
11 9 6 0.63 0.19
11 9 6 0.23 0.18
-11 -9 17 0.15 0.16
11 -9 6 0.43 0.21
-11 9 -7 0.54 0.24
-11 9 18 0.12 0.18
11 9 -18 0.03 0.22
11 9 7 0.54 0.21
11 9 7 0.42 0.19
-11 -9 18 -0.03 0.15
11 -9 7 0.72 0.25
-11 9 -8 0.17 0.21
-11 9 19 0.21 0.19
11 9 -19 0.11 0.22
11 9 8 0.16 0.2
-11 -9 19 0.24 0.18
11 -9 8 0.16 0.21
-11 9 -9 -0.06 0.19
-11 9 20 -0.29 0.17
11 9 -20 -0.06 0.22
11 9 9 0.02 0.2
-11 -9 20 -0.22 0.16
11 -9 9 0.1 0.22
-13 9 6 -0.08 0.11
-13 9 7 1.25 0.21
13 9 -7 1.16 0.21
13 9 -6 0.18 0.15
13 -9 -7 1.3 0.21
13 -9 -6 -0.23 0.12
-13 9 5 0.39 0.16
-13 9 5 0.44 0.14
-13 9 8 0.26 0.16
13 9 -8 0.39 0.18
13 9 -5 0.24 0.16
-13 -9 8 0.45 0.13
13 -9 -8 0.41 0.17
13 -9 -5 0.52 0.16
-13 9 4 2.42 0.25
-13 9 4 3.14 0.27
-13 9 9 0.08 0.14
13 9 -9 -0.04 0.15
13 9 -4 2.21 0.26
-13 -9 9 -0.06 0.11
13 -9 -9 0.08 0.14
13 -9 -4 2.33 0.28
-13 9 3 1.58 0.22
-13 9 3 1.91 0.23
-13 9 10 4.33 0.31
13 9 -10 4.53 0.33
13 9 -3 1.29 0.22
-13 -9 10 4.47 0.3
13 -9 -10 3.88 0.3
13 -9 -3 1.69 0.24
-13 9 2 0.22 0.15
-13 9 2 0.01 0.14
-13 9 11 0.44 0.16
13 9 -11 0.41 0.19
13 9 -2 0.29 0.13
13 9 -2 0.22 0.16
-13 -9 11 0.48 0.15
13 -9 -11 0.32 0.15
13 -9 -2 0.17 0.16
-13 9 1 0.6 0.17
-13 9 1 0.54 0.18
-13 9 12 1.95 0.24
13 9 -12 2.47 0.29
13 9 -1 0.75 0.17
13 9 -1 0.49 0.17
-13 -9 12 1.96 0.24
13 -9 -12 1.78 0.23
13 -9 -1 0.64 0.19
-13 9 0 0.45 0.18
-13 9 13 -0.06 0.14
13 9 -13 0.06 0.18
13 9 0 0.23 0.15
13 9 0 0.06 0.15
-13 -9 13 0.15 0.13
13 -9 -13 -0.01 0.13
13 -9 0 0.12 0.16
-13 9 -1 1.93 0.26
-13 9 14 1.1 0.22
13 9 -14 1.25 0.25
13 9 1 1.83 0.23
13 9 1 1.39 0.24
-13 -9 14 1.22 0.2
13 -9 -14 0.96 0.19
13 -9 1 1.79 0.26
-13 9 -2 0.11 0.18
-13 9 15 0.4 0.17
13 9 -15 0.49 0.21
13 9 2 0.24 0.16
13 9 2 0.12 0.16
-13 -9 15 0.55 0.17
13 -9 -15 0.44 0.17
13 -9 2 0.37 0.2
-13 9 -3 0.31 0.19
-13 9 16 0.24 0.16
13 9 -16 0.18 0.21
13 9 3 -0.07 0.14
13 9 3 0.15 0.17
-13 -9 16 0.13 0.15
13 -9 -16 0.07 0.14
13 -9 3 0.15 0.19
-13 9 -4 0.93 0.24
-13 9 17 0.43 0.19
13 9 -17 0.52 0.23
13 9 4 0.75 0.21
13 9 4 0.71 0.21
-13 -9 17 0.31 0.18
13 -9 -17 0.49 0.17
13 -9 4 0.98 0.25
-13 9 -5 1.92 0.3
-13 9 18 0.2 0.18
13 9 -18 -0.12 0.21
13 9 5 2.85 0.31
13 9 5 1.64 0.26
-13 -9 18 0.12 0.17
13 -9 5 2.27 0.32
-13 9 -6 0.73 0.24
-13 9 19 1.71 0.28
13 9 -19 1.64 0.31
13 9 6 1.04 0.24
13 9 6 0.64 0.21
-13 -9 19 1.56 0.27
13 -9 6 1.15 0.27
-13 9 -7 0.15 0.21
-13 9 20 -0.04 0.17
13 9 -20 0.4 0.26
13 9 7 0.42 0.22
13 9 7 0.33 0.2
-13 -9 20 0.33 0.19
13 -9 7 0.5 0.24
-13 9 -8 0.11 0.22
-13 9 21 0.15 0.19
13 9 -21 -0.05 0.23
13 9 8 0.34 0.22
-13 -9 21 0 0.18
13 -9 8 0.13 0.22
-15 9 7 3.32 0.27
-15 9 8 1.28 0.21
15 9 -8 1.49 0.24
15 9 -7 3.54 0.32
15 -9 -8 1.22 0.22
15 -9 -7 3.71 0.31
-15 9 6 0.16 0.14
-15 9 9 5.56 0.35
15 9 -9 6.1 0.37
15 9 -6 0.41 0.17
15 -9 -9 5.32 0.35
15 -9 -6 0.28 0.15
-15 9 5 2.58 0.27
-15 9 5 2.99 0.26
-15 9 10 0.56 0.18
15 9 -10 0.78 0.21
15 9 -5 2.71 0.28
-15 -9 10 0.65 0.15
15 -9 -10 0.54 0.18
15 -9 -5 2.74 0.29
-15 9 4 0.66 0.18
-15 9 4 0.97 0.18
-15 9 11 0.19 0.15
15 9 -11 0.33 0.19
15 9 -4 0.93 0.2
-15 -9 11 0.53 0.15
15 -9 -11 0.43 0.16
15 -9 -4 0.8 0.2
-15 9 3 0.29 0.15
-15 9 3 0.55 0.17
-15 9 12 0.23 0.16
15 9 -12 0.06 0.17
15 9 -3 0.52 0.18
-15 -9 12 0.24 0.13
15 -9 -12 -0.02 0.14
15 -9 -3 0.41 0.18
-15 9 2 0.36 0.16
-15 9 2 0.47 0.18
-15 9 13 1.84 0.25
15 9 -13 2.06 0.28
15 9 -2 0.37 0.17
-15 -9 13 2.26 0.25
15 -9 -13 1.57 0.23
15 -9 -2 0.5 0.19
-15 9 1 0.03 0.15
-15 9 14 0.55 0.19
15 9 -14 0.8 0.23
15 9 -1 0.2 0.14
15 9 -1 0.02 0.16
-15 -9 14 0.67 0.17
15 -9 -14 0.74 0.18
15 -9 -1 0.11 0.17
-15 9 0 1.42 0.24
-15 9 15 0.28 0.17
15 9 -15 0.65 0.22
15 9 0 1.3 0.21
15 9 0 1.32 0.23
-15 -9 15 0.6 0.17
15 -9 -15 0.34 0.16
15 -9 0 1.56 0.26
-15 9 -1 0.37 0.19
-15 9 16 -0.01 0.13
15 9 -16 0.1 0.2
15 9 1 0.48 0.17
15 9 1 0.26 0.17
-15 -9 16 0.22 0.16
15 -9 -16 -0.04 0.14
15 -9 1 0.55 0.21
-15 9 -2 -0.09 0.17
-15 9 17 0.31 0.17
15 9 -17 0.53 0.22
15 9 2 -0.06 0.16
15 9 2 -0.03 0.16
-15 -9 17 0.4 0.17
15 -9 -17 0.31 0.17
15 -9 2 0.1 0.2
-15 9 -3 0.58 0.24
-15 9 18 0.35 0.19
15 9 -18 0.7 0.24
15 9 3 0.52 0.2
15 9 3 0.44 0.19
-15 -9 18 0.52 0.19
15 -9 -18 0.31 0.18
15 -9 3 0.72 0.24
-15 9 -4 -0.17 0.18
-15 9 19 1.45 0.26
15 9 -19 1.86 0.32
15 9 4 0.22 0.18
15 9 4 -0.08 0.17
-15 -9 19 1.79 0.28
15 -9 -19 1.4 0.24
15 -9 4 0 0.2
15 -9 4 -0.05 0.15
-15 9 -5 0.03 0.22
-15 9 20 0.9 0.24
15 9 -20 1.27 0.29
15 9 5 0.2 0.19
15 9 5 0.03 0.18
-15 -9 20 0.81 0.22
15 -9 5 0.17 0.2
-15 9 -6 0.78 0.26
-15 9 21 -0.13 0.17
15 9 -21 0.02 0.24
15 9 6 0.91 0.25
15 9 6 0.86 0.24
-15 -9 21 0.04 0.18
15 -9 6 0.9 0.27
-17 9 8 0.29 0.16
-17 9 9 1.08 0.21
17 9 -9 1.13 0.23
17 9 -8 0.21 0.16
17 -9 -9 1.07 0.21
17 -9 -8 0.19 0.16
-17 9 7 0.33 0.16
-17 9 10 0.74 0.18
17 9 -10 0.83 0.2
17 9 -7 0.39 0.18
17 -9 -10 0.92 0.2
17 -9 -7 0.41 0.16
-17 9 6 0.04 0.15
-17 9 11 0.14 0.15
17 9 -11 0.27 0.18
17 9 -6 -0.12 0.14
17 -9 -11 0.26 0.15
17 -9 -6 -0.07 0.14
-17 9 5 0.93 0.2
-17 9 5 1.18 0.2
-17 9 12 -0.08 0.12
17 9 -12 -0.09 0.16
17 9 -5 0.92 0.22
-17 -9 12 0.05 0.12
17 -9 -12 -0.07 0.13
17 -9 -5 0.8 0.2
-17 9 4 0.08 0.14
-17 9 4 0.21 0.15
-17 9 13 0.03 0.14
17 9 -13 0.1 0.18
17 9 -4 0.05 0.15
-17 -9 13 0.26 0.14
17 -9 -13 0.02 0.14
17 -9 -4 -0.13 0.13
-17 9 3 1.38 0.23
-17 9 14 1.31 0.23
17 9 -14 1.56 0.27
17 9 -3 1.04 0.22
-17 -9 14 1.48 0.21
17 -9 -14 1.25 0.21
17 -9 -3 1.12 0.22
-17 9 2 0.16 0.17
-17 9 15 0.71 0.19
17 9 -15 0.79 0.23
17 9 -2 -0.04 0.16
-17 -9 15 0.74 0.18
17 -9 -15 0.83 0.2
17 -9 -2 0.17 0.18
-17 9 1 1.74 0.26
-17 9 16 0.07 0.16
17 9 -16 -0.02 0.18
17 9 -1 1.82 0.24
17 9 -1 0.75 0.21
-17 -9 16 0.01 0.13
17 -9 -16 0.04 0.15
17 -9 -1 1.71 0.27
-17 9 0 0.53 0.21
-17 9 17 0.23 0.16
17 9 -17 0.45 0.23
17 9 0 0.47 0.18
17 9 0 0.36 0.18
-17 -9 17 0.09 0.15
17 -9 -17 0.01 0.15
17 -9 0 0.6 0.21
-17 9 -1 2.42 0.32
-17 9 18 0.16 0.16
17 9 -18 0.18 0.22
17 9 1 2.61 0.29
17 9 1 1.79 0.28
-17 -9 18 0.23 0.16
17 -9 -18 0.07 0.16
17 -9 1 2.85 0.35
-17 9 -2 0.77 0.25
-17 9 19 1.4 0.26
17 9 -19 2.19 0.32
17 9 2 1.07 0.23
17 9 2 0.78 0.22
-17 -9 19 1.8 0.27
17 -9 -19 1.63 0.25
17 -9 2 1.31 0.27
-17 9 -3 1.61 0.3
-17 9 20 0.13 0.17
17 9 -20 0 0.23
17 9 3 1.85 0.28
17 9 3 1.09 0.25
-17 -9 20 0.07 0.16
17 -9 -20 0.08 0.17
17 -9 3 1.91 0.32
17 -9 3 1.47 0.25
-17 9 -4 0.06 0.22
-17 9 21 0.98 0.24
17 9 -21 1.03 0.3
17 9 4 0.06 0.19
17 9 4 0.14 0.19
-17 -9 21 1.11 0.25
17 -9 -21 0.72 0.21
17 -9 4 0.19 0.22
17 -9 4 0.08 0.16
17 -9 5 0.41 0.23
-19 9 9 -0.12 0.14
-19 9 10 0.2 0.16
19 9 -10 0.31 0.18
19 9 -9 0.22 0.18
19 -9 -10 0.38 0.18
19 -9 -9 -0.03 0.15
-19 9 8 4.11 0.33
-19 9 11 0.08 0.15
19 9 -11 0.05 0.17
19 9 -8 4.51 0.35
19 -9 -11 0.16 0.15
19 -9 -8 4.66 0.35
-19 9 7 0.25 0.17
-19 9 12 0.4 0.17
19 9 -12 0.57 0.2
19 9 -7 0.49 0.19
19 -9 -12 0.42 0.18
19 -9 -7 0.3 0.18
-19 9 6 0.03 0.15
-19 9 13 0.01 0.13
19 9 -13 -0.09 0.16
19 9 -6 -0.08 0.16
19 -9 -13 -0.02 0.14
19 -9 -6 -0.1 0.15
-19 9 5 1.11 0.22
-19 9 5 1.49 0.23
-19 9 14 0.02 0.15
19 9 -14 -0.2 0.16
19 9 -5 1.08 0.23
-19 -9 14 0 0.12
19 -9 -14 -0.06 0.14
19 -9 -5 1.26 0.24
-19 9 4 -0.15 0.14
-19 9 15 0.06 0.14
19 9 -15 0.04 0.2
19 9 -4 -0.06 0.16
-19 -9 15 0.01 0.12
19 -9 -15 -0.01 0.15
19 -9 -4 -0.08 0.15
-19 9 3 -0.01 0.15
-19 9 16 0.46 0.19
19 9 -16 0.6 0.22
19 9 -3 0.1 0.17
-19 -9 16 0.29 0.15
19 -9 -16 0.13 0.16
19 -9 -3 0.01 0.16
-19 9 2 0.58 0.2
-19 9 17 0.08 0.15
19 9 -17 -0.12 0.21
19 9 -2 0.47 0.19
-19 -9 17 0.02 0.14
19 -9 -17 0.15 0.17
19 -9 -2 0.5 0.2
-19 9 1 0.86 0.22
-19 9 18 0.36 0.19
19 9 -18 0.13 0.22
19 9 -1 0.62 0.21
-19 -9 18 0.58 0.18
19 -9 -18 0.34 0.18
19 -9 -1 0.8 0.23
-19 9 0 0.32 0.21
-19 9 19 -0.22 0.15
19 9 -19 0 0.21
19 9 0 0.25 0.18
19 9 0 0.34 0.2
-19 -9 19 0 0.15
19 -9 -19 0.14 0.17
19 -9 0 0.2 0.22
-19 9 -1 0.51 0.22
-19 9 20 -0.06 0.15
19 9 -20 -0.21 0.22
19 9 1 0.59 0.21
19 9 1 0.22 0.2
-19 -9 20 0.05 0.16
19 -9 -20 -0.03 0.16
19 -9 1 0.45 0.23
-19 9 -2 0.17 0.22
-19 9 21 0.76 0.24
19 9 -21 0.64 0.28
19 9 2 0.37 0.2
19 9 2 0.33 0.21
-19 -9 21 0.56 0.21
19 -9 -21 0.68 0.21
19 -9 2 0.18 0.22
19 -9 2 0.28 0.18
19 -9 3 0.17 0.22
-21 9 10 0.04 0.16
-21 9 11 4.07 0.35
21 9 -11 4.46 0.37
21 9 -10 0.05 0.17
21 -9 -11 4.36 0.36
21 -9 -10 0.05 0.15
-21 9 9 0.57 0.2
-21 9 12 0.41 0.18
21 9 -12 0.47 0.22
21 9 -9 0.53 0.21
21 -9 -12 0.31 0.18
21 -9 -9 0.43 0.18
-21 9 8 0.52 0.2
-21 9 13 0.1 0.15
21 9 -13 0.13 0.19
21 9 -8 0.4 0.2
21 -9 -13 -0.04 0.16
21 -9 -8 0.32 0.19
-21 9 7 0.98 0.23
-21 9 14 0.73 0.2
21 9 -14 0.62 0.22
21 9 -7 0.83 0.22
21 -9 -14 0.6 0.2
21 -9 -7 1.11 0.24
-21 9 15 1.97 0.28
21 9 -15 1.89 0.3
21 9 -6 0.49 0.2
21 -9 -15 1.64 0.26
21 -9 -6 0.23 0.19
-21 9 16 0.58 0.2
21 9 -16 0.61 0.25
21 9 -5 1.07 0.24
-21 -9 16 0.73 0.18
21 -9 -16 0.5 0.2
21 -9 -5 1.03 0.23
-21 9 4 0.01 0.17
-21 9 17 0.7 0.21
21 9 -17 0.63 0.24
21 9 -4 0.12 0.18
-21 -9 17 0.64 0.19
21 -9 -17 0.61 0.2
21 -9 -4 0.08 0.19
-21 9 3 0.65 0.22
-21 9 18 -0.16 0.16
21 9 -18 0.07 0.23
21 9 -3 0.65 0.22
-21 -9 18 -0.02 0.14
21 -9 -18 0.07 0.17
21 -9 -3 0.34 0.22
-21 9 2 0.06 0.19
-21 9 19 1.57 0.28
21 9 -19 1.5 0.31
21 9 -2 -0.04 0.16
-21 -9 19 1.4 0.24
21 -9 -19 0.97 0.24
21 -9 -2 -0.26 0.18
-21 9 1 0.23 0.2
-21 9 20 0.14 0.19
21 9 -20 -0.05 0.22
21 9 -1 0.16 0.18
-21 -9 20 0.07 0.16
21 -9 -20 0.01 0.17
21 -9 -1 0.18 0.21
-21 9 0 0.18 0.21
-21 9 21 0.87 0.24
21 9 -21 1.2 0.3
21 9 0 -0.01 0.17
-21 -9 21 0.76 0.21
21 -9 -21 0.61 0.22
21 -9 0 0 0.19
-23 9 11 2.82 0.31
-23 9 12 0.69 0.22
23 9 -12 0.71 0.24
23 9 -11 3.03 0.35
23 -9 -12 0.37 0.2
23 -9 -11 2.95 0.31
-23 9 10 0.07 0.18
-23 9 13 -0.08 0.17
23 9 -13 0.08 0.2
23 9 -10 0.12 0.19
23 -9 -13 0.18 0.16
23 -9 -10 -0.11 0.15
-23 9 9 -0.16 0.16
-23 9 14 1.12 0.25
23 9 -14 1 0.27
23 9 -9 -0.07 0.17
23 -9 -14 0.87 0.23
23 -9 -9 -0.14 0.15
-23 9 8 0.35 0.2
-23 9 15 1.84 0.28
23 9 -15 2.06 0.31
23 9 -8 0 0.17
23 -9 -15 1.38 0.25
23 -9 -8 0.1 0.18
-23 9 16 2.23 0.31
23 9 -16 3.29 0.37
23 9 -7 -0.07 0.16
23 -9 -16 2.86 0.33
23 -9 -7 -0.23 0.17
-23 9 17 2.12 0.31
23 9 -17 2.33 0.34
23 9 -6 0.56 0.22
23 -9 -17 1.31 0.25
23 -9 -6 0.33 0.21
-23 9 18 0.24 0.2
23 9 -18 0.13 0.24
23 9 -5 0.11 0.18
-23 -9 18 -0.08 0.14
23 -9 -18 -0.02 0.16
23 -9 -5 -0.21 0.16
-23 9 19 1.24 0.26
23 9 -19 1.34 0.31
23 9 -4 0.2 0.19
-23 -9 19 1.34 0.24
23 -9 -19 1.13 0.26
23 -9 -4 -0.03 0.2
-23 9 3 -0.06 0.18
-23 9 20 0.35 0.2
23 9 -20 0.06 0.23
23 9 -3 0.01 0.17
-23 -9 20 0.44 0.18
23 -9 -20 0.15 0.19
23 -9 -3 -0.18 0.19
-23 9 21 0.67 0.23
-23 -9 21 0.66 0.2
23 -9 -21 0.21 0.19
23 -9 -2 -0.01 0.21
-25 9 12 0.28 0.2
-25 9 13 -0.04 0.17
25 9 -13 -0.08 0.21
25 9 -12 0.19 0.21
25 -9 -13 -0.05 0.16
25 -9 -12 0.25 0.2
-25 9 11 1.07 0.24
-25 9 14 0.23 0.19
25 9 -14 0.13 0.23
25 9 -11 0.98 0.25
25 -9 -14 0.24 0.19
25 -9 -11 0.92 0.25
-25 9 10 1.09 0.25
-25 9 15 2.16 0.31
25 9 -15 2.16 0.32
25 9 -10 0.99 0.26
25 -9 -15 1.74 0.28
25 -9 -10 1.04 0.25
-25 9 16 0.49 0.23
25 9 -16 0.46 0.24
25 9 -9 0.14 0.21
25 -9 -16 0.4 0.2
25 -9 -9 0.41 0.22
-25 9 17 0.57 0.23
25 9 -17 0.53 0.26
25 9 -8 0 0.19
25 -9 -17 0.57 0.22
25 -9 -8 0.03 0.21
-25 9 18 0.06 0.19
25 9 -18 0.02 0.24
25 9 -7 -0.03 0.18
25 -9 -18 -0.07 0.17
25 -9 -7 0 0.2
-25 9 19 1.21 0.26
25 9 -19 1.34 0.31
25 9 -6 1.06 0.26
25 -9 -19 1.06 0.26
25 -9 -6 0.97 0.27
-25 9 20 0.12 0.2
25 -9 -20 0.15 0.19
25 -9 -5 0.11 0.23
-27 9 13 0.81 0.24
-27 9 14 0 0.19
27 9 -14 0 0.2
27 9 -13 0.86 0.26
27 -9 -14 -0.16 0.16
27 -9 -13 0.59 0.24
-27 9 12 -0.13 0.19
-27 9 15 0.91 0.24
27 9 -15 1.41 0.3
27 9 -12 0.01 0.21
27 -9 -15 1.09 0.25
27 -9 -12 0 0.18
-27 9 11 0.33 0.21
-27 9 16 -0.05 0.19
27 9 -16 0.08 0.23
27 9 -11 0.49 0.23
27 -9 -16 0.08 0.18
27 -9 -11 0.27 0.22
-27 9 17 -0.18 0.18
27 9 -17 0.24 0.25
27 9 -10 -0.1 0.2
27 -9 -17 0.15 0.2
27 -9 -10 0 0.21
-27 9 18 0.1 0.21
27 -9 -18 0.07 0.18
27 -9 -9 1.9 0.33
0 10 0 0.72 0.15
0 10 0 0.78 0.18
0 -10 0 0.74 0.16
0 10 -1 3.01 0.22
0 10 -1 3.61 0.29
0 10 1 3.03 0.23
0 10 1 3.89 0.3
0 -10 -1 4.06 0.27
0 -10 1 3.68 0.28
0 10 -2 0.15 0.11
0 10 -2 0.3 0.18
0 10 2 -0.04 0.11
0 10 2 0.25 0.15
0 -10 -2 0.24 0.13
0 -10 2 0.26 0.15
0 10 -3 1.46 0.24
0 10 3 1.43 0.19
0 10 3 1.55 0.21
0 -10 -3 1.9 0.21
0 -10 3 1.8 0.23
0 10 -4 0.42 0.18
0 10 4 0.29 0.14
0 10 4 0.69 0.17
0 -10 -4 0.52 0.13
0 -10 4 0.62 0.17
0 10 -5 3.71 0.31
0 10 5 3.16 0.26
0 10 5 3.67 0.28
0 -10 5 3.64 0.31
0 10 -6 -0.06 0.16
0 10 6 -0.03 0.13
0 10 6 0.01 0.13
0 -10 6 -0.16 0.14
0 10 -7 0.29 0.19
0 10 7 0.15 0.15
0 -10 7 0.02 0.14
0 10 -8 1.95 0.28
0 10 8 1.75 0.25
0 -10 8 2.09 0.27
0 10 -9 7.69 0.44
0 10 9 6.2 0.38
0 -10 9 7.18 0.4
0 10 -10 0.34 0.21
0 10 10 0.28 0.19
0 -10 10 0.4 0.2
0 10 -11 1.6 0.28
0 10 11 1.52 0.26
0 -10 11 1.49 0.27
0 10 -12 0.06 0.21
0 10 12 0.18 0.19
0 -10 12 0.03 0.17
0 10 -13 4.01 0.38
0 10 13 3.82 0.37
0 -10 13 4.23 0.39
0 10 -14 1.53 0.3
0 10 14 1.47 0.28
0 -10 14 1.33 0.27
0 10 -15 0.3 0.24
0 10 15 0.18 0.21
0 -10 15 0.03 0.21
-2 10 1 0.01 0.11
-2 10 1 0.11 0.15
2 10 -1 0.06 0.12
2 10 -1 0.14 0.16
-2 -10 1 0.08 0.12
2 -10 -1 0.08 0.14
-2 10 0 1.28 0.17
-2 10 0 1.25 0.21
-2 10 2 0 0.11
-2 10 2 -0.04 0.13
2 10 -2 -0.1 0.1
2 10 -2 -0.21 0.14
2 10 0 1.04 0.17
2 10 0 1.4 0.21
-2 -10 0 1.25 0.18
-2 -10 2 0.1 0.13
2 -10 -2 0.1 0.13
2 -10 0 1.12 0.2
-2 10 -1 6.1 0.29
-2 10 -1 7.43 0.37
-2 10 3 1.56 0.2
-2 10 3 2.05 0.24
2 10 -3 1.56 0.24
2 10 1 6.47 0.3
2 10 1 7.2 0.36
-2 -10 -1 8.19 0.33
-2 -10 3 1.87 0.23
2 -10 -3 2.06 0.24
2 -10 1 6.55 0.34
-2 10 -2 0.02 0.11
-2 10 -2 0.16 0.16
-2 10 4 0.37 0.15
-2 10 4 0.48 0.15
2 10 -4 0.12 0.17
2 10 2 0.03 0.12
2 10 2 0.13 0.15
-2 -10 -2 0.15 0.12
-2 -10 4 0.36 0.16
2 -10 -4 0.24 0.13
2 -10 2 -0.01 0.14
-2 10 -3 2.32 0.27
-2 10 5 0.02 0.11
-2 10 5 -0.11 0.11
2 10 -5 -0.08 0.15
2 10 3 2.03 0.24
2 10 3 2.36 0.25
-2 -10 5 -0.04 0.12
2 -10 -5 -0.07 0.11
2 -10 3 2.67 0.28
-2 10 -4 -0.1 0.14
-2 10 6 -0.1 0.12
2 10 -6 0.04 0.16
2 10 4 -0.03 0.13
2 10 4 -0.17 0.13
-2 -10 6 0.27 0.14
2 -10 -6 0.09 0.12
2 -10 4 -0.09 0.14
-2 10 -5 0.94 0.22
-2 10 7 0.07 0.15
2 10 -7 0.09 0.17
2 10 5 0.62 0.17
2 10 5 0.83 0.18
-2 -10 7 0.21 0.14
2 -10 5 0.83 0.19
-2 10 -6 1.34 0.25
-2 10 8 1.36 0.22
2 10 -8 1.38 0.25
2 10 6 1.63 0.23
2 10 6 1.38 0.2
-2 -10 8 1.33 0.22
2 -10 6 1.66 0.25
-2 10 -7 0.16 0.18
-2 10 9 3.65 0.32
2 10 -9 3.93 0.34
2 10 7 -0.28 0.13
-2 -10 9 4.37 0.33
2 -10 7 0.03 0.17
-2 10 -8 0.12 0.19
-2 10 10 0.09 0.16
2 10 -10 0.17 0.19
2 10 8 0.05 0.17
-2 -10 10 0.15 0.16
2 -10 8 0 0.16
-2 10 -9 1.28 0.27
-2 10 11 0.11 0.17
2 10 -11 0.19 0.2
2 10 9 1.11 0.23
-2 -10 11 0.05 0.18
2 -10 9 1.28 0.25
-2 10 -10 0.78 0.24
-2 10 12 1.36 0.25
2 10 -12 1.55 0.28
2 10 10 0.55 0.2
-2 -10 12 1.81 0.29
2 -10 10 0.55 0.23
-2 10 -11 0.18 0.21
-2 10 13 3.06 0.32
2 10 -13 3.09 0.35
2 10 11 0.51 0.21
-2 -10 13 3.38 0.36
2 -10 11 0.22 0.19
-2 10 -12 0.02 0.22
-2 10 14 0.3 0.19
2 10 -14 0.42 0.24
2 10 12 0.1 0.18
-2 -10 14 0.2 0.21
2 -10 12 -0.18 0.19
-2 10 -13 0.69 0.26
-2 10 15 1.02 0.26
2 10 -15 1.09 0.29
2 10 13 0.67 0.24
-2 -10 15 0.91 0.25
2 -10 13 0.36 0.23
-2 10 -14 0.64 0.26
-2 10 16 -0.01 0.18
2 10 -16 -0.07 0.23
2 10 14 0.26 0.22
-2 -10 16 -0.22 0.17
2 -10 14 0.38 0.23
-4 10 2 4.29 0.27
-4 10 2 5.95 0.34
4 10 -2 4.79 0.33
-4 -10 2 5.35 0.3
4 -10 -2 4.82 0.32
-4 10 1 0.04 0.12
-4 10 1 0.22 0.16
-4 10 3 14.15 0.44
-4 10 3 18.27 0.49
4 10 -3 16.42 0.53
4 10 -1 0.13 0.12
4 10 -1 0.28 0.17
-4 -10 1 0.02 0.12
-4 -10 3 18.14 0.5
4 -10 -3 16.07 0.48
4 -10 -1 0.03 0.15
-4 10 0 0.06 0.12
-4 10 0 0.15 0.16
-4 10 4 0.17 0.13
-4 10 4 0.35 0.14
4 10 -4 0.13 0.17
4 10 0 0.13 0.13
4 10 0 0.1 0.14
-4 -10 0 0.14 0.12
-4 -10 4 0.2 0.13
4 -10 -4 0.2 0.14
4 -10 0 0.16 0.16
-4 10 -1 2.61 0.24
-4 10 -1 2.97 0.29
-4 10 5 0.27 0.14
-4 10 5 0.29 0.15
4 10 -5 0.02 0.16
4 10 1 2.7 0.23
4 10 1 2.76 0.26
-4 -10 5 0.07 0.13
4 -10 -5 0.28 0.14
4 -10 1 3.21 0.3
-4 10 -2 0.42 0.14
-4 10 -2 0.36 0.18
-4 10 6 0.01 0.13
4 10 -6 0.13 0.18
4 10 2 0.42 0.15
4 10 2 0.25 0.15
-4 -10 6 0.05 0.13
4 -10 -6 0.06 0.12
4 -10 2 0.38 0.17
-4 10 -3 2.03 0.2
-4 10 -3 2.38 0.28
-4 10 7 2.25 0.25
4 10 -7 2.78 0.3
4 10 3 2.34 0.25
4 10 3 2.08 0.24
-4 -10 7 3.14 0.28
4 -10 -7 2.67 0.24
4 -10 3 2.52 0.29
-4 10 -4 3.03 0.32
-4 10 8 0.09 0.13
4 10 -8 0.14 0.17
4 10 4 2.03 0.25
4 10 4 2.11 0.25
-4 -10 8 0.19 0.14
4 -10 -8 0.16 0.12
4 -10 4 2.75 0.3
-4 10 -5 0.59 0.2
-4 10 9 2.67 0.28
4 10 -9 3.18 0.31
4 10 5 0.36 0.17
4 10 5 0.36 0.17
-4 -10 9 3.07 0.29
4 -10 5 0.33 0.18
-4 10 -6 0.68 0.21
-4 10 10 0.09 0.16
4 10 -10 -0.03 0.17
4 10 6 0.37 0.18
4 10 6 0.77 0.19
-4 -10 10 -0.02 0.13
4 -10 6 0.65 0.21
-4 10 -7 2.49 0.31
-4 10 11 -0.1 0.15
4 10 -11 -0.07 0.18
4 10 7 2.42 0.29
-4 -10 11 0.01 0.16
4 -10 7 2.78 0.32
-4 10 -8 2.01 0.29
-4 10 12 1 0.23
4 10 -12 1.02 0.25
4 10 8 1.98 0.27
-4 -10 12 1.43 0.26
4 -10 8 1.98 0.29
-4 10 -9 0.21 0.21
-4 10 13 3.46 0.34
4 10 -13 4.23 0.38
4 10 9 0.27 0.18
-4 -10 13 3.58 0.35
4 -10 9 0 0.2
-4 10 -10 -0.02 0.2
-4 10 14 0.19 0.18
4 10 -14 0.43 0.23
4 10 10 0.1 0.18
-4 -10 14 0.26 0.19
4 -10 10 -0.33 0.18
-4 10 -11 -0.2 0.19
-4 10 15 0.6 0.23
4 10 -15 0.8 0.26
4 10 11 0.08 0.18
-4 -10 15 0.49 0.21
4 -10 11 0 0.2
-4 10 -12 0.13 0.21
-4 10 16 0.05 0.18
4 10 -16 -0.17 0.22
4 10 12 -0.04 0.19
-4 -10 16 0.24 0.2
4 -10 12 -0.13 0.2
-4 10 -13 0.08 0.21
-4 10 17 0.82 0.25
4 10 -17 1.04 0.29
4 10 13 0.07 0.21
-4 -10 17 0.92 0.25
4 -10 13 0.26 0.24
-6 10 3 24.66 0.57
-6 10 3 32.17 0.64
6 10 -3 27.47 0.65
-6 -10 3 31.35 0.59
6 -10 -3 28.21 0.65
-6 10 2 6.33 0.33
-6 10 2 8.07 0.38
-6 10 4 3.28 0.27
-6 10 4 4.79 0.3
6 10 -4 4.13 0.33
6 10 -2 7.81 0.39
-6 -10 2 8.16 0.33
-6 -10 4 4.71 0.31
6 -10 -4 3.94 0.31
6 -10 -2 7.63 0.39
-6 10 1 -0.06 0.12
-6 10 1 0.15 0.15
-6 10 5 1.05 0.19
-6 10 5 1.76 0.21
6 10 -5 1.48 0.24
6 10 -1 0.05 0.12
6 10 -1 0.15 0.16
-6 -10 5 1.37 0.2
6 -10 -5 1.34 0.2
6 -10 -1 0.39 0.17
-6 10 0 2.28 0.23
-6 10 0 2.61 0.27
-6 10 6 3.24 0.26
6 10 -6 4.3 0.35
6 10 0 2.36 0.23
6 10 0 2.38 0.28
-6 -10 6 4.14 0.3
6 -10 -6 3.24 0.29
6 -10 0 2.82 0.29
-6 10 -1 2.85 0.25
-6 10 -1 3.37 0.3
-6 10 7 6.51 0.35
6 10 -7 7.63 0.4
6 10 1 3 0.26
6 10 1 2.84 0.29
-6 -10 7 7.8 0.37
6 -10 -7 6.84 0.34
6 -10 1 3.54 0.31
-6 10 -2 2.32 0.24
-6 10 -2 2.98 0.29
-6 10 8 0.08 0.14
6 10 -8 0.07 0.17
6 10 2 2.24 0.24
6 10 2 2.21 0.27
-6 -10 8 0.17 0.14
6 -10 -8 0.21 0.13
6 -10 2 2.89 0.29
-6 10 -3 5.8 0.31
-6 10 -3 6.19 0.37
-6 10 9 1.11 0.21
6 10 -9 1.12 0.22
6 10 3 6.6 0.36
6 10 3 6.59 0.37
-6 -10 9 1.34 0.21
6 -10 -9 1.09 0.18
6 -10 3 6.52 0.38
-6 10 -4 3.76 0.33
-6 10 10 0.18 0.16
6 10 -10 0.25 0.18
6 10 4 3.36 0.29
6 10 4 2.85 0.29
-6 -10 10 0.22 0.14
6 -10 -10 0.25 0.13
6 -10 4 3.43 0.33
-6 10 -5 0.67 0.21
-6 10 11 -0.02 0.15
6 10 -11 0.01 0.18
6 10 5 0.6 0.19
6 10 5 0.42 0.18
-6 -10 11 0.01 0.15
6 -10 5 0.78 0.22
-6 10 -6 1.17 0.25
-6 10 12 -0.08 0.15
6 10 -12 -0.07 0.17
6 10 6 1.04 0.22
6 10 6 0.9 0.2
-6 -10 12 -0.06 0.15
6 -10 6 1.22 0.25
-6 10 -7 7.85 0.45
-6 10 13 0.9 0.22
6 10 -13 1.3 0.26
6 10 7 7.22 0.41
-6 -10 13 1.19 0.23
6 -10 7 8.53 0.45
-6 10 -8 1.95 0.31
-6 10 14 0.23 0.18
6 10 -14 0.43 0.24
6 10 8 1.98 0.28
-6 -10 14 0.22 0.19
6 -10 8 1.89 0.29
-6 10 -9 0.37 0.23
-6 10 15 0.2 0.17
6 10 -15 0.38 0.23
6 10 9 0.2 0.19
-6 -10 15 -0.09 0.17
6 -10 9 0.39 0.22
-6 10 -10 -0.13 0.19
-6 10 16 0.38 0.21
6 10 -16 0.23 0.22
6 10 10 -0.04 0.16
-6 -10 16 0.13 0.19
6 -10 10 0 0.2
-6 10 -11 0.25 0.23
-6 10 17 0.51 0.23
6 10 -17 0.56 0.26
6 10 11 0.3 0.22
-6 -10 17 0.18 0.2
6 -10 11 0.16 0.22
-6 10 18 -0.09 0.19
6 10 12 0.43 0.23
-6 -10 18 -0.07 0.19
6 -10 12 0.67 0.27
-8 10 4 0.57 0.17
-8 10 4 0.62 0.18
8 10 -4 0.48 0.18
-8 -10 4 0.46 0.15
8 -10 -4 0.54 0.18
-8 10 3 1.75 0.22
-8 10 3 2.22 0.27
-8 10 5 1.25 0.2
-8 10 5 1.88 0.22
8 10 -5 1.58 0.24
8 10 -3 2.24 0.26
-8 -10 5 1.49 0.19
8 -10 -5 1.36 0.21
8 -10 -3 1.94 0.24
-8 10 2 -0.26 0.12
-8 10 2 -0.01 0.14
-8 10 6 4.1 0.3
8 10 -6 5.61 0.36
8 10 -2 0.05 0.14
-8 -10 6 5.33 0.31
8 -10 -6 4.71 0.32
8 -10 -2 0.08 0.15
-8 10 1 0.01 0.13
-8 10 1 0.21 0.16
-8 10 7 3.02 0.27
8 10 -7 4.45 0.34
8 10 -1 0.22 0.12
8 10 -1 0.18 0.15
-8 -10 7 4.32 0.29
8 -10 -7 3.54 0.29
8 -10 -1 0.24 0.15
-8 10 0 2.46 0.26
-8 10 0 3.04 0.3
-8 10 8 0.49 0.16
8 10 -8 0.59 0.2
8 10 0 3.17 0.26
8 10 0 2.42 0.27
-8 -10 8 0.62 0.17
8 -10 -8 0.76 0.17
8 -10 0 3.46 0.32
-8 10 -1 1.25 0.2
-8 10 -1 1.71 0.24
-8 10 9 1.42 0.22
8 10 -9 1.86 0.26
8 10 1 1.57 0.21
8 10 1 1.41 0.23
-8 -10 9 1.32 0.2
8 -10 -9 1.39 0.2
8 -10 1 1.79 0.25
-8 10 -2 -0.05 0.13
-8 10 -2 -0.05 0.16
-8 10 10 0.04 0.13
8 10 -10 0.07 0.18
8 10 2 0.04 0.14
8 10 2 -0.01 0.15
-8 -10 10 0.01 0.13
8 -10 -10 -0.02 0.12
8 -10 2 -0.06 0.14
-8 10 -3 0.38 0.19
-8 10 11 0.88 0.19
8 10 -11 1.28 0.25
8 10 3 0.5 0.17
8 10 3 0.21 0.17
-8 -10 11 1.25 0.21
8 -10 -11 0.83 0.17
8 -10 3 0.54 0.2
-8 10 -4 -0.04 0.17
-8 10 12 0.03 0.15
8 10 -12 0.07 0.19
8 10 4 0.25 0.16
8 10 4 0.08 0.15
-8 -10 12 -0.11 0.14
8 -10 4 0.1 0.18
-8 10 -5 0.2 0.19
-8 10 13 1.29 0.23
8 10 -13 1.78 0.28
8 10 5 0.36 0.18
8 10 5 0.33 0.17
-8 -10 13 1.82 0.26
8 -10 5 0.34 0.19
-8 10 -6 0.18 0.2
-8 10 14 0.36 0.19
8 10 -14 0.35 0.21
8 10 6 0.09 0.17
8 10 6 -0.03 0.15
-8 -10 14 0.3 0.18
8 -10 6 0.02 0.2
-8 10 -7 5.7 0.42
-8 10 15 0.31 0.19
8 10 -15 0.02 0.2
8 10 7 6.03 0.4
-8 -10 15 0.08 0.17
8 -10 7 6.78 0.45
-8 10 -8 -0.01 0.21
-8 10 16 0.19 0.19
8 10 -16 0.16 0.21
8 10 8 -0.06 0.18
-8 -10 16 0.02 0.18
8 -10 8 0.07 0.19
-8 10 -9 0.25 0.22
-8 10 17 1.26 0.26
8 10 -17 1.48 0.31
8 10 9 0.17 0.2
-8 -10 17 1.35 0.26
8 -10 9 0.28 0.23
-8 10 -10 0.6 0.26
-8 10 18 -0.24 0.15
8 10 -18 0.16 0.24
8 10 10 0.83 0.25
-8 -10 18 -0.07 0.18
8 -10 10 1.21 0.28
-10 10 5 0.07 0.14
-10 10 5 -0.08 0.12
10 10 -5 0.02 0.14
10 -10 -5 0.28 0.14
-10 10 4 0.25 0.15
-10 10 4 0.28 0.16
-10 10 6 -0.07 0.13
10 10 -6 0.09 0.17
10 10 -4 0.11 0.17
-10 -10 6 0.02 0.11
10 -10 -6 -0.03 0.12
10 -10 -4 0.24 0.15
-10 10 3 0.56 0.17
-10 10 3 0.67 0.17
-10 10 7 5.77 0.34
10 10 -7 6.78 0.39
10 10 -3 0.37 0.18
-10 -10 7 7.09 0.33
10 -10 -7 6.14 0.36
10 -10 -3 0.59 0.19
-10 10 2 0.58 0.16
-10 10 2 0.89 0.19
-10 10 8 0.03 0.13
10 10 -8 0.1 0.17
10 10 -2 0.57 0.19
-10 -10 8 -0.02 0.12
10 -10 -8 0.05 0.13
10 -10 -2 0.91 0.21
-10 10 1 2.81 0.26
-10 10 1 3.34 0.3
-10 10 9 0.47 0.17
10 10 -9 0.74 0.2
10 10 -1 3.04 0.28
-10 -10 9 0.54 0.16
10 -10 -9 0.37 0.16
10 -10 -1 3.25 0.31
-10 10 0 1.12 0.2
-10 10 0 1.22 0.23
-10 10 10 0.39 0.17
10 10 -10 0.35 0.19
10 10 0 1.22 0.19
10 10 0 0.94 0.21
-10 -10 10 0.47 0.16
10 -10 -10 0.35 0.15
10 -10 0 1.14 0.21
-10 10 -1 0.01 0.14
-10 10 -1 0.13 0.17
-10 10 11 0 0.15
10 10 -11 0.05 0.17
10 10 1 0.16 0.14
10 10 1 -0.07 0.15
-10 -10 11 0.11 0.13
10 -10 -11 0.14 0.14
10 -10 1 0.25 0.18
-10 10 -2 0.39 0.19
-10 10 12 -0.13 0.14
10 10 -12 -0.06 0.17
10 10 2 0.3 0.16
10 10 2 0.38 0.18
-10 -10 12 -0.03 0.12
10 -10 -12 0.03 0.13
10 -10 2 0.62 0.19
-10 10 -3 2.69 0.3
-10 10 13 0.26 0.17
10 10 -13 0.52 0.21
10 10 3 2.76 0.28
10 10 3 1.97 0.26
-10 -10 13 0.25 0.16
10 -10 -13 0.19 0.15
10 -10 3 2.78 0.33
-10 10 -4 0.17 0.19
-10 10 14 0.43 0.19
10 10 -14 0.39 0.21
10 10 4 0.27 0.17
10 10 4 0.08 0.16
-10 -10 14 0.58 0.19
10 -10 4 0.09 0.17
-10 10 -5 -0.09 0.2
-10 10 15 0.11 0.16
10 10 -15 0.1 0.21
10 10 5 0.18 0.18
10 10 5 -0.03 0.16
-10 -10 15 0.22 0.17
10 -10 5 0.25 0.22
-10 10 -6 1.43 0.28
-10 10 16 0.39 0.2
10 10 -16 0.37 0.23
10 10 6 1.53 0.26
10 10 6 1.24 0.25
-10 -10 16 0.35 0.18
10 -10 6 1.77 0.29
-10 10 -7 1.76 0.31
-10 10 17 0.87 0.24
10 10 -17 0.81 0.26
10 10 7 1.75 0.28
-10 -10 17 0.9 0.23
10 -10 7 2.35 0.34
-10 10 -8 0.52 0.25
-10 10 18 0.14 0.19
10 10 -18 0.1 0.23
10 10 8 0.57 0.23
-10 -10 18 0.18 0.19
10 -10 8 0.74 0.24
-10 10 -9 0.93 0.29
-10 10 19 0.15 0.18
10 10 -19 0.52 0.26
10 10 9 0.74 0.24
-10 -10 19 0.06 0.19
10 -10 9 1.12 0.29
-12 10 6 0.62 0.17
12 10 -6 0.82 0.2
12 -10 -6 0.37 0.17
-12 10 5 0.17 0.15
-12 10 7 1.65 0.23
12 10 -7 1.79 0.25
12 10 -5 0.04 0.15
12 -10 -7 2.09 0.26
12 -10 -5 0.16 0.16
-12 10 4 1.87 0.24
-12 10 4 2.36 0.25
-12 10 8 -0.16 0.12
12 10 -8 0.11 0.17
12 10 -4 1.94 0.27
-12 -10 8 -0.03 0.11
12 -10 -8 -0.09 0.13
12 -10 -4 2.05 0.26
-12 10 3 -0.01 0.13
-12 10 3 0.01 0.14
-12 10 9 1.06 0.2
12 10 -9 1.12 0.23
12 10 -3 0.1 0.15
-12 -10 9 1.22 0.19
12 -10 -9 0.78 0.19
12 -10 -3 -0.05 0.15
-12 10 2 -0.1 0.12
-12 10 2 -0.12 0.13
-12 10 10 0.72 0.19
12 10 -10 0.3 0.18
12 10 -2 -0.04 0.14
-12 -10 10 0.77 0.17
12 -10 -10 0.29 0.15
12 -10 -2 0.08 0.15
-12 10 1 1.46 0.22
-12 10 1 2.35 0.28
-12 10 11 1.09 0.22
12 10 -11 1.08 0.23
12 10 -1 1.58 0.24
-12 -10 11 1.13 0.2
12 -10 -11 0.86 0.19
12 -10 -1 1.8 0.26
-12 10 0 0.91 0.22
-12 10 12 0.79 0.19
12 10 -12 1.4 0.25
12 10 0 0.84 0.19
12 10 0 0.63 0.19
-12 -10 12 1.18 0.21
12 -10 -12 1.04 0.2
12 -10 0 0.77 0.2
-12 10 -1 0.98 0.22
-12 10 13 0.19 0.15
12 10 -13 0.55 0.22
12 10 1 1.04 0.19
12 10 1 0.85 0.21
-12 -10 13 0.33 0.17
12 -10 -13 0.47 0.17
12 -10 1 0.99 0.23
-12 10 -2 0.42 0.19
-12 10 14 0.2 0.17
12 10 -14 0.09 0.2
12 10 2 0.58 0.19
12 10 2 0.28 0.18
-12 -10 14 0.11 0.15
12 -10 -14 0.04 0.15
12 -10 2 0.16 0.18
-12 10 -3 4.89 0.38
-12 10 15 0.05 0.15
12 10 -15 0.03 0.2
12 10 3 5.72 0.37
12 10 3 4.9 0.37
-12 -10 15 0.19 0.16
12 -10 -15 0.02 0.14
12 -10 3 5.6 0.42
-12 10 -4 0.37 0.22
-12 10 16 0.09 0.17
12 10 -16 -0.06 0.2
12 10 4 0.5 0.19
12 10 4 0.53 0.21
-12 -10 16 -0.02 0.14
12 -10 4 0.58 0.25
-12 10 -5 0.56 0.24
-12 10 17 0.99 0.23
12 10 -17 1.18 0.29
12 10 5 0.64 0.22
12 10 5 0.57 0.22
-12 -10 17 1.49 0.27
12 -10 5 0.76 0.26
-12 10 -6 -0.09 0.2
-12 10 18 0.36 0.19
12 10 -18 0.05 0.23
12 10 6 0.21 0.19
12 10 6 0.08 0.18
-12 -10 18 0.3 0.19
12 -10 6 0.13 0.22
-12 10 -7 1.09 0.28
-12 10 19 0.24 0.21
12 10 -19 0.44 0.26
12 10 7 0.99 0.25
-12 -10 19 0.21 0.2
12 -10 7 1.11 0.28
-14 10 7 1.35 0.22
14 10 -7 1.48 0.24
14 -10 -7 1.56 0.24
-14 10 6 -0.04 0.13
-14 10 8 0.17 0.15
14 10 -8 0.17 0.17
14 10 -6 -0.01 0.17
14 -10 -8 0.07 0.15
14 -10 -6 0.12 0.16
-14 10 5 2.36 0.27
-14 10 9 1.31 0.23
14 10 -9 1.45 0.25
14 10 -5 2.47 0.3
14 -10 -9 1.52 0.23
14 -10 -5 2.63 0.3
-14 10 4 0.09 0.15
-14 10 4 0.06 0.14
-14 10 10 0.07 0.14
14 10 -10 0.1 0.18
14 10 -4 0.3 0.17
-14 -10 10 0.15 0.13
14 -10 -10 0.18 0.16
14 -10 -4 0 0.16
-14 10 3 0.03 0.14
-14 10 3 0.14 0.15
-14 10 11 0.39 0.18
14 10 -11 0.33 0.19
14 10 -3 0.21 0.17
-14 -10 11 0.5 0.16
14 -10 -11 0.29 0.17
14 -10 -3 0.17 0.16
-14 10 2 0.01 0.14
-14 10 2 -0.09 0.15
-14 10 12 0.01 0.15
14 10 -12 -0.12 0.17
14 10 -2 0.1 0.17
-14 -10 12 0.03 0.13
14 -10 -12 0.05 0.15
14 -10 -2 -0.02 0.15
-14 10 1 2.44 0.29
-14 10 13 0.57 0.19
14 10 -13 0.58 0.22
14 10 -1 1.82 0.27
-14 -10 13 0.93 0.2
14 -10 -13 0.83 0.2
14 -10 -1 1.94 0.28
-14 10 0 0.72 0.21
-14 10 14 0.86 0.22
14 10 -14 0.99 0.25
14 10 0 0.73 0.21
-14 -10 14 1.05 0.21
14 -10 -14 0.8 0.2
14 -10 0 0.65 0.22
-14 10 -1 1.07 0.24
-14 10 15 1.56 0.26
14 10 -15 1.56 0.29
14 10 1 1.43 0.23
14 10 1 0.93 0.22
-14 -10 15 1.33 0.23
14 -10 -15 1.4 0.24
14 -10 1 0.96 0.23
-14 10 -2 1.33 0.26
-14 10 16 0.24 0.18
14 10 -16 0.29 0.24
14 10 2 1.1 0.23
14 10 2 1.2 0.25
-14 -10 16 0.27 0.17
14 -10 -16 0.28 0.17
14 -10 2 1.31 0.28
-14 10 -3 4.51 0.4
-14 10 17 0.64 0.22
14 10 -17 0.94 0.27
14 10 3 4.48 0.35
14 10 3 3.86 0.35
-14 -10 17 0.64 0.19
14 -10 -17 0.53 0.2
14 -10 3 5 0.42
-14 10 -4 0.53 0.23
-14 10 18 0.08 0.18
14 10 -18 -0.02 0.22
14 10 4 0.53 0.21
14 10 4 0.55 0.22
-14 -10 18 0.18 0.17
14 -10 4 0.91 0.25
-14 10 -5 0.03 0.2
-14 10 19 0.31 0.21
14 10 -19 0.24 0.25
14 10 5 -0.03 0.18
14 10 5 -0.12 0.17
-14 -10 19 0.27 0.17
14 -10 5 0.17 0.22
-14 10 20 -0.07 0.18
14 10 6 0.46 0.22
-14 -10 20 0.12 0.18
14 -10 6 0.34 0.24
-16 10 8 0.06 0.14
16 10 -8 -0.06 0.16
16 -10 -8 0.02 0.14
-16 10 7 0.41 0.18
-16 10 9 0.08 0.14
16 10 -9 -0.08 0.16
16 10 -7 0.5 0.2
16 -10 -9 0.22 0.17
16 -10 -7 0.36 0.17
-16 10 6 0.03 0.15
-16 10 10 2.4 0.27
16 10 -10 2.59 0.3
16 10 -6 0.08 0.17
16 -10 -10 2.31 0.27
16 -10 -6 0.06 0.15
-16 10 5 2.58 0.28
-16 10 11 1.73 0.26
16 10 -11 1.83 0.28
16 10 -5 2.68 0.3
16 -10 -11 1.73 0.25
16 -10 -5 2.66 0.29
-16 10 4 0.37 0.18
-16 10 4 0.3 0.17
-16 10 12 0.05 0.16
16 10 -12 -0.17 0.16
16 10 -4 0.51 0.2
-16 -10 12 0.12 0.12
16 -10 -12 -0.01 0.15
16 -10 -4 0.39 0.19
-16 10 3 0.13 0.16
-16 10 3 -0.2 0.14
-16 10 13 0.72 0.2
16 10 -13 1.11 0.25
16 10 -3 -0.07 0.16
-16 -10 13 0.92 0.19
16 -10 -13 0.78 0.2
16 -10 -3 0.03 0.18
-16 10 2 -0.03 0.16
-16 10 14 0 0.17
16 10 -14 0 0.19
16 10 -2 -0.02 0.16
-16 -10 14 0.08 0.13
16 -10 -14 -0.01 0.15
16 -10 -2 0.09 0.17
-16 10 1 0.36 0.2
-16 10 15 0.92 0.23
16 10 -15 1.07 0.27
16 10 -1 0.36 0.2
-16 -10 15 0.93 0.21
16 -10 -15 0.98 0.22
16 -10 -1 0.33 0.2
-16 10 0 -0.15 0.16
-16 10 16 0.79 0.22
16 10 -16 0.76 0.26
16 10 0 0 0.18
-16 -10 16 1.24 0.23
16 -10 -16 1.05 0.22
16 -10 0 0.11 0.2
-16 10 -1 0.48 0.21
-16 10 17 -0.06 0.16
16 10 -17 0 0.22
16 10 1 0.17 0.18
-16 -10 17 0.11 0.16
16 -10 -17 0.27 0.18
16 -10 1 0.62 0.23
-16 10 -2 0.34 0.21
-16 10 18 1.92 0.29
16 10 -18 2.25 0.33
16 10 2 0.44 0.2
16 10 2 0.25 0.2
-16 -10 18 1.92 0.28
16 -10 -18 1.4 0.25
16 -10 2 0.2 0.22
-16 10 -3 0.37 0.23
-16 10 19 0.17 0.18
16 10 -19 0.23 0.25
16 10 3 0.63 0.21
16 10 3 0.48 0.22
-16 -10 19 0.1 0.17
16 -10 3 0.75 0.26
-16 10 20 0.01 0.17
16 10 -20 0.22 0.26
16 10 4 0.27 0.2
-16 -10 20 0.22 0.19
16 -10 4 0.2 0.23
-18 10 9 0.99 0.22
18 10 -9 0.74 0.22
18 -10 -9 0.86 0.22
-18 10 8 0.2 0.16
-18 10 10 0.26 0.17
18 10 -10 0.43 0.2
18 10 -8 0.3 0.19
18 -10 -10 0.36 0.18
18 -10 -8 0.08 0.17
-18 10 7 1.14 0.23
-18 10 11 1.11 0.24
18 10 -11 1.04 0.25
18 10 -7 1.2 0.24
18 -10 -11 1.01 0.22
18 -10 -7 1.23 0.23
-18 10 6 0.13 0.15
-18 10 12 0.47 0.19
18 10 -12 0.45 0.22
18 10 -6 0.24 0.18
18 -10 -12 0.3 0.19
18 -10 -6 0.04 0.18
-18 10 5 0.25 0.17
-18 10 13 0.14 0.18
18 10 -13 0.21 0.2
18 10 -5 0.25 0.19
18 -10 -13 0.07 0.16
18 -10 -5 0.16 0.19
-18 10 4 0.12 0.17
-18 10 14 3.52 0.32
18 10 -14 3.75 0.36
18 10 -4 0.45 0.2
-18 -10 14 3.83 0.3
18 -10 -14 3.51 0.33
18 -10 -4 0.19 0.2
-18 10 3 0.72 0.21
-18 10 15 -0.06 0.16
18 10 -15 -0.02 0.2
18 10 -3 0.57 0.22
-18 -10 15 -0.04 0.13
18 -10 -15 0.07 0.16
18 -10 -3 0.78 0.22
-18 10 2 0.24 0.19
-18 10 16 0.17 0.16
18 10 -16 0.19 0.22
18 10 -2 0.18 0.19
-18 -10 16 0.34 0.16
18 -10 -16 0.25 0.18
18 -10 -2 0.35 0.21
-18 10 1 0.04 0.18
-18 10 17 -0.2 0.16
18 10 -17 0.05 0.22
18 10 -1 0.19 0.2
-18 -10 17 0.02 0.15
18 -10 -17 -0.02 0.16
18 -10 -1 -0.08 0.2
-18 10 0 0.44 0.21
-18 10 18 0.34 0.2
18 10 -18 -0.11 0.22
18 10 0 0.42 0.21
-18 -10 18 0.16 0.16
18 -10 -18 0.16 0.17
18 -10 0 0.41 0.21
-18 10 -1 0.07 0.18
-18 10 19 0.01 0.18
18 10 -19 -0.1 0.23
18 10 1 0.17 0.19
-18 -10 19 -0.01 0.15
18 -10 -19 -0.09 0.16
18 -10 1 0.07 0.21
-18 10 20 -0.1 0.18
-18 -10 20 0.19 0.18
18 -10 -20 -0.07 0.17
18 -10 2 -0.16 0.2
-20 10 10 -0.17 0.15
20 10 -10 0.01 0.18
20 -10 -10 0 0.17
-20 10 9 0.99 0.23
-20 10 11 0.06 0.16
20 10 -11 0.28 0.21
20 10 -9 1.36 0.25
20 -10 -11 0.1 0.18
20 -10 -9 0.84 0.23
-20 10 8 -0.17 0.15
-20 10 12 2.52 0.31
20 10 -12 2.2 0.31
20 10 -8 -0.05 0.17
20 -10 -12 2.56 0.3
20 -10 -8 -0.03 0.16
-20 10 7 0.07 0.17
-20 10 13 3.58 0.35
20 10 -13 3.79 0.38
20 10 -7 0.02 0.17
20 -10 -13 3.45 0.33
20 -10 -7 -0.08 0.15
-20 10 6 -0.02 0.15
-20 10 14 0.45 0.2
20 10 -14 0.27 0.22
20 10 -6 0.07 0.18
20 -10 -14 0.09 0.18
20 -10 -6 -0.13 0.15
-20 10 15 -0.04 0.15
20 10 -15 -0.21 0.19
20 10 -5 -0.05 0.17
20 -10 -15 0.04 0.16
20 -10 -5 0.05 0.19
-20 10 16 0.14 0.17
20 10 -16 0.23 0.22
20 10 -4 0.06 0.18
-20 -10 16 0.12 0.16
20 -10 -16 0.15 0.18
20 -10 -4 0.02 0.19
-20 10 3 -0.12 0.16
-20 10 17 0.93 0.24
20 10 -17 1.15 0.29
20 10 -3 0.07 0.18
-20 -10 17 0.71 0.2
20 -10 -17 0.78 0.22
20 -10 -3 0.07 0.2
-20 10 2 0.12 0.19
-20 10 18 -0.04 0.16
20 10 -18 -0.06 0.22
20 10 -2 0.04 0.18
-20 -10 18 -0.05 0.14
20 -10 -18 -0.12 0.16
20 -10 -2 0.09 0.21
-20 10 1 0.18 0.2
-20 10 19 0.54 0.22
20 10 -19 0.54 0.27
20 10 -1 0.03 0.19
-20 -10 19 0.58 0.2
20 -10 -19 0.37 0.19
20 -10 -1 -0.05 0.21
-20 -10 20 0.07 0.16
20 -10 0 0.11 0.22
-22 10 11 0.32 0.2
22 10 -11 0.48 0.23
22 -10 -11 0.58 0.22
-22 10 10 -0.07 0.17
-22 10 12 0.82 0.22
22 10 -12 0.91 0.26
22 10 -10 -0.01 0.18
22 -10 -12 0.33 0.19
22 -10 -10 -0.05 0.18
-22 10 9 0.42 0.21
-22 10 13 2.59 0.31
22 10 -13 3.3 0.36
22 10 -9 0.39 0.21
22 -10 -13 2.86 0.32
22 -10 -9 0.54 0.22
-22 10 8 -0.13 0.16
-22 10 14 0.11 0.19
22 10 -14 0.22 0.22
22 10 -8 -0.15 0.18
22 -10 -14 0.15 0.18
22 -10 -8 -0.12 0.17
-22 10 7 0.01 0.17
-22 10 15 0.85 0.22
22 10 -15 1.09 0.28
22 10 -7 0.23 0.19
22 -10 -15 0.73 0.23
22 -10 -7 0.09 0.2
-22 10 16 0.35 0.21
22 10 -16 0.51 0.26
22 10 -6 -0.1 0.17
22 -10 -16 0.39 0.21
22 -10 -6 0.08 0.2
-22 10 17 0.68 0.22
22 10 -17 0.71 0.28
22 10 -5 0.26 0.19
22 -10 -17 0.67 0.24
22 -10 -5 -0.11 0.19
-22 10 18 -0.02 0.18
22 10 -18 0.01 0.24
22 10 -4 -0.03 0.17
22 -10 -18 0.24 0.2
22 -10 -4 -0.15 0.2
-22 10 19 1.1 0.26
22 10 -19 0.89 0.3
-22 -10 19 1.21 0.23
22 -10 -19 1.14 0.26
22 -10 -3 0.32 0.24
-24 10 12 -0.12 0.16
24 10 -12 0 0.21
24 -10 -12 -0.08 0.18
-24 10 11 -0.16 0.17
-24 10 13 0.41 0.2
24 10 -13 0.46 0.23
24 10 -11 0.07 0.19
24 -10 -13 0.54 0.23
24 -10 -11 0.03 0.19
-24 10 10 0.08 0.19
-24 10 14 0.17 0.19
24 10 -14 0.13 0.23
24 10 -10 0.08 0.2
24 -10 -14 0.19 0.2
24 -10 -10 -0.09 0.18
-24 10 9 -0.1 0.17
-24 10 15 0.46 0.22
24 10 -15 0.35 0.24
24 10 -9 0.05 0.2
24 -10 -15 0.42 0.22
24 -10 -9 -0.29 0.15
-24 10 16 0.15 0.2
24 10 -16 0.24 0.24
24 10 -8 0.08 0.19
24 -10 -16 0.1 0.18
24 -10 -8 -0.11 0.17
-24 10 17 0.18 0.21
24 10 -17 0.06 0.25
24 10 -7 0.95 0.25
24 -10 -17 0.11 0.18
24 -10 -7 0.65 0.25
-24 10 18 0.49 0.21
24 -10 -18 0.48 0.21
24 -10 -6 -0.08 0.22
-26 10 13 0.53 0.23
26 -10 -13 0.47 0.22
-26 10 12 0.28 0.22
-26 10 14 0.01 0.18
26 -10 -14 -0.02 0.18
26 -10 -12 0.07 0.21
26 -10 -15 -0.2 0.15
26 -10 -11 0.7 0.26
-1 11 0 2.15 0.22
-1 11 0 3.13 0.31
-1 11 1 0.97 0.18
-1 11 1 1.16 0.22
1 11 -1 0.98 0.21
1 11 0 2.55 0.24
1 11 0 3.04 0.31
-1 -11 0 3.01 0.29
-1 -11 1 1.37 0.21
1 -11 -1 1.19 0.2
1 -11 0 2.76 0.3
-1 11 -1 3.95 0.34
-1 11 2 1.84 0.22
-1 11 2 1.85 0.24
1 11 -2 1.99 0.27
1 11 1 3.66 0.27
1 11 1 3.85 0.32
-1 -11 -1 3.92 0.29
-1 -11 2 2.41 0.27
1 -11 -2 2.48 0.26
1 -11 1 3.78 0.31
-1 11 -2 1.35 0.23
-1 11 3 0.5 0.15
-1 11 3 0.26 0.16
1 11 -3 0.19 0.19
1 11 2 1.15 0.19
1 11 2 1.38 0.22
-1 -11 -2 1.76 0.21
-1 -11 3 0.21 0.16
1 -11 -3 0.26 0.15
1 -11 2 1.34 0.22
-1 11 -3 0.25 0.17
-1 11 4 1 0.18
-1 11 4 1.29 0.21
1 11 -4 1.12 0.24
1 11 3 0.17 0.13
1 11 3 -0.04 0.15
-1 -11 4 0.99 0.21
1 -11 -4 1.34 0.19
1 -11 3 0.09 0.14
-1 11 -4 0.02 0.17
-1 11 5 0.65 0.18
1 11 -5 1.11 0.23
1 11 4 0.11 0.13
1 11 4 0.01 0.14
-1 -11 5 0.9 0.2
1 -11 4 -0.09 0.15
-1 11 -5 0.01 0.17
-1 11 6 0.35 0.16
1 11 -6 0.42 0.2
1 11 5 -0.02 0.13
-1 -11 6 0.34 0.17
1 -11 5 0.1 0.16
-1 11 -6 0.33 0.2
-1 11 7 0.74 0.19
1 11 -7 0.99 0.24
1 11 6 0.33 0.17
-1 -11 7 0.85 0.21
1 -11 6 0.38 0.18
-1 11 -7 1.34 0.26
-1 11 8 0.06 0.15
1 11 -8 -0.06 0.18
1 11 7 0.95 0.21
-1 -11 8 -0.05 0.15
1 -11 7 1.1 0.23
-1 11 -8 1.18 0.26
-1 11 9 0.99 0.23
1 11 -9 1.44 0.27
1 11 8 0.47 0.2
-1 -11 9 1.29 0.25
1 -11 8 0.63 0.21
-1 11 -9 1.68 0.3
-1 11 10 1.19 0.25
1 11 -10 1.56 0.29
1 11 9 1.27 0.25
-1 -11 10 1.48 0.27
1 -11 9 1.43 0.26
-1 11 -10 8.38 0.49
-1 11 11 2.84 0.34
1 11 -11 2.52 0.34
1 11 10 6.76 0.41
-1 -11 11 2.87 0.35
1 -11 10 8.34 0.49
-1 11 -11 1.39 0.29
-1 11 12 0.88 0.24
1 11 -12 1.03 0.27
1 11 11 1.16 0.26
-1 -11 12 0.47 0.23
1 -11 11 1.24 0.28
-1 11 -12 0.27 0.24
-1 11 13 0.64 0.23
1 11 -13 0.27 0.24
1 11 12 0.06 0.19
-1 -11 13 0.25 0.22
1 -11 12 0.05 0.18
-1 11 -13 0.32 0.24
-1 11 14 0.26 0.21
1 11 -14 0.21 0.23
1 11 13 0.13 0.21
-1 -11 14 0.04 0.19
1 -11 13 0.29 0.23
-3 11 1 0.61 0.16
-3 11 1 0.55 0.18
-3 11 2 0.26 0.14
-3 11 2 0.41 0.17
3 11 -2 0.31 0.19
3 11 -1 0.54 0.2
-3 -11 1 0.65 0.17
-3 -11 2 0.36 0.16
3 -11 -2 0.49 0.17
3 -11 -1 0.69 0.19
-3 11 0 1.48 0.2
-3 11 0 1.66 0.25
-3 11 3 0.62 0.16
-3 11 3 0.63 0.18
3 11 -3 0.57 0.21
3 11 0 1.81 0.25
-3 -11 0 1.82 0.21
-3 -11 3 0.7 0.18
3 -11 -3 0.62 0.17
3 -11 0 1.68 0.24
-3 11 -1 0.54 0.2
-3 11 4 0.13 0.13
-3 11 4 0.18 0.15
3 11 -4 -0.16 0.17
3 11 1 0.33 0.15
3 11 1 0.49 0.19
-3 -11 4 0.02 0.15
3 -11 -4 0.13 0.14
3 -11 1 0.37 0.17
-3 11 -2 0.86 0.21
-3 11 5 1.25 0.21
3 11 -5 1.54 0.26
3 11 2 0.75 0.17
3 11 2 0.92 0.21
-3 -11 5 1.74 0.24
3 -11 -5 1.38 0.2
3 -11 2 0.91 0.22
-3 11 -3 1.37 0.24
-3 11 6 2.3 0.25
3 11 -6 2.79 0.32
3 11 3 1.37 0.21
3 11 3 1.28 0.22
-3 -11 6 2.8 0.29
3 -11 3 1.44 0.24
-3 11 -4 0.02 0.18
-3 11 7 0.42 0.17
3 11 -7 0.48 0.2
3 11 4 -0.02 0.13
3 11 4 -0.09 0.14
-3 -11 7 0.46 0.18
3 -11 4 -0.14 0.13
-3 11 -5 0.07 0.17
-3 11 8 0.16 0.15
3 11 -8 0.21 0.19
3 11 5 0.1 0.15
3 11 5 -0.04 0.15
-3 -11 8 0.25 0.17
3 -11 5 0.11 0.17
-3 11 -6 -0.02 0.17
-3 11 9 0.04 0.15
3 11 -9 0.08 0.19
3 11 6 0 0.15
-3 -11 9 0.4 0.18
3 -11 6 0.06 0.16
-3 11 -7 0.1 0.2
-3 11 10 0.62 0.2
3 11 -10 1.24 0.27
3 11 7 -0.23 0.14
-3 -11 10 1.12 0.23
3 -11 7 -0.02 0.18
-3 11 -8 0 0.19
-3 11 11 -0.13 0.16
3 11 -11 -0.15 0.19
3 11 8 -0.13 0.17
-3 -11 11 -0.24 0.16
3 -11 8 0.13 0.18
-3 11 -9 0.27 0.22
-3 11 12 0.36 0.19
3 11 -12 0.33 0.23
3 11 9 -0.09 0.18
-3 -11 12 0.29 0.21
3 -11 9 -0.03 0.2
-3 11 -10 0.22 0.23
-3 11 13 1.07 0.25
3 11 -13 1.64 0.3
3 11 10 0.55 0.22
-3 -11 13 1.08 0.26
3 -11 10 0.32 0.21
-3 11 -11 0.09 0.21
-3 11 14 -0.06 0.19
3 11 -14 0.15 0.22
3 11 11 0.13 0.19
-3 -11 14 0.09 0.2
3 -11 11 -0.2 0.2
-3 11 -12 0.13 0.23
-3 11 15 0.24 0.21
3 11 -15 0.11 0.24
3 11 12 0 0.2
-3 -11 15 -0.01 0.2
3 -11 12 -0.17 0.18
-5 11 2 0.05 0.13
-5 11 2 0.07 0.16
-5 11 3 1.58 0.21
-5 11 3 2.21 0.27
5 11 -3 2.4 0.29
5 11 -2 0.2 0.17
-5 -11 2 0.04 0.12
5 -11 -3 1.97 0.25
5 -11 -2 0.13 0.15
-5 11 1 3.06 0.26
-5 11 1 3.63 0.32
-5 11 4 1.19 0.2
-5 11 4 1.42 0.22
5 11 -4 1.37 0.24
5 11 -1 3.55 0.33
-5 -11 4 1.37 0.21
5 -11 -4 1.35 0.21
5 -11 -1 3.36 0.31
-5 11 0 9.98 0.39
-5 11 0 13.62 0.51
-5 11 5 4.57 0.31
5 11 -5 5.28 0.37
5 11 0 12.25 0.48
-5 -11 5 5.67 0.36
5 -11 -5 5.28 0.33
5 -11 0 12.11 0.49
-5 11 -1 1.89 0.23
-5 11 -1 2.1 0.28
-5 11 6 1.76 0.23
5 11 -6 2.35 0.3
5 11 1 2.42 0.25
5 11 1 2.37 0.29
-5 -11 6 2.07 0.26
5 -11 -6 2.03 0.25
5 -11 1 2.28 0.29
-5 11 -2 0.38 0.2
-5 11 7 1.48 0.23
5 11 -7 2.59 0.32
5 11 2 0.7 0.18
5 11 2 0.55 0.19
-5 -11 7 2.11 0.25
5 -11 -7 1.7 0.22
5 -11 2 0.45 0.19
-5 11 -3 0.61 0.21
-5 11 8 0.16 0.15
5 11 -8 0.3 0.19
5 11 3 0.93 0.19
5 11 3 0.61 0.19
-5 -11 8 0.35 0.17
5 -11 3 0.69 0.21
-5 11 -4 1.5 0.26
-5 11 9 0.15 0.16
5 11 -9 0.03 0.18
5 11 4 1.01 0.2
5 11 4 1.08 0.22
-5 -11 9 0.09 0.15
5 -11 4 1.11 0.22
-5 11 -5 2.06 0.28
-5 11 10 0.96 0.22
5 11 -10 1.17 0.26
5 11 5 1.98 0.26
5 11 5 1.99 0.26
-5 -11 10 1.41 0.23
5 -11 5 2.69 0.32
-5 11 -6 -0.1 0.17
-5 11 11 0.41 0.18
5 11 -11 0.51 0.22
5 11 6 0.03 0.16
-5 -11 11 0.57 0.2
5 -11 6 0.26 0.2
-5 11 -7 1.06 0.25
-5 11 12 -0.1 0.16
5 11 -12 -0.12 0.19
5 11 7 0.69 0.22
-5 -11 12 0 0.16
5 -11 7 0.79 0.23
-5 11 -8 0.07 0.22
-5 11 13 0.25 0.2
5 11 -13 0.4 0.23
5 11 8 0.03 0.19
-5 -11 13 0.23 0.18
5 -11 8 0.06 0.2
-5 11 -9 1.26 0.29
-5 11 14 0.19 0.18
5 11 -14 0.39 0.25
5 11 9 0.97 0.25
-5 -11 14 0.11 0.2
5 -11 9 1.26 0.29
-5 11 -10 1.01 0.29
-5 11 15 0.29 0.21
5 11 -15 0.49 0.24
5 11 10 0.62 0.24
-5 -11 15 0.39 0.22
5 -11 10 0.91 0.27
-5 11 16 1.07 0.27
5 11 11 0.96 0.26
-5 -11 16 1.27 0.27
5 -11 11 1.52 0.31
-7 11 3 -0.07 0.13
-7 11 3 0.13 0.16
-7 11 4 0.29 0.15
-7 11 4 0.09 0.15
7 11 -4 0.28 0.18
7 11 -3 0.03 0.17
-7 -11 4 0.14 0.13
7 -11 -4 0.14 0.16
7 -11 -3 0.1 0.15
-7 11 2 0.35 0.15
-7 11 2 0.1 0.16
-7 11 5 2.83 0.27
7 11 -5 3.1 0.32
7 11 -2 0.05 0.17
-7 -11 5 3.39 0.27
7 -11 -5 3.42 0.3
7 -11 -2 0.07 0.16
-7 11 1 3.15 0.28
-7 11 1 4.07 0.34
-7 11 6 2.42 0.26
7 11 -6 2.68 0.32
7 11 -1 3.37 0.31
-7 -11 6 2.97 0.27
7 -11 -6 2.45 0.27
7 -11 -1 3.12 0.3
-7 11 0 2.21 0.25
-7 11 0 2.6 0.32
-7 11 7 -0.02 0.14
7 11 -7 -0.12 0.16
7 11 0 2.37 0.29
-7 -11 7 -0.13 0.12
7 -11 -7 -0.07 0.13
7 -11 0 2.56 0.3
-7 11 -1 -0.03 0.13
-7 11 -1 0 0.17
-7 11 8 0.17 0.15
7 11 -8 0.1 0.18
7 11 1 0.07 0.13
7 11 1 0.07 0.16
-7 -11 8 0.01 0.14
7 -11 -8 0.14 0.14
7 -11 1 0.1 0.17
-7 11 -2 0.08 0.18
-7 11 9 0.22 0.16
7 11 -9 0.26 0.2
7 11 2 0.17 0.14
7 11 2 0 0.16
-7 -11 9 0.4 0.17
7 -11 -9 0.35 0.17
7 -11 2 0.17 0.18
-7 11 -3 0.51 0.2
-7 11 10 0.5 0.18
7 11 -10 0.89 0.23
7 11 3 0.44 0.18
7 11 3 0.15 0.17
-7 -11 10 0.8 0.2
7 -11 3 0.65 0.21
-7 11 -4 0.12 0.17
-7 11 11 3.05 0.31
7 11 -11 4.1 0.37
7 11 4 0.03 0.15
7 11 4 -0.18 0.15
-7 -11 11 3.84 0.33
7 -11 4 0.01 0.16
-7 11 -5 1.35 0.27
-7 11 12 0.21 0.17
7 11 -12 0.17 0.2
7 11 5 1.23 0.24
7 11 5 0.86 0.22
-7 -11 12 0.1 0.17
7 -11 5 1.31 0.25
-7 11 -6 1.14 0.26
-7 11 13 -0.03 0.15
7 11 -13 0.14 0.21
7 11 6 1.11 0.24
-7 -11 13 0.16 0.18
7 -11 6 1.27 0.27
-7 11 -7 0.08 0.21
-7 11 14 0.06 0.18
7 11 -14 0.67 0.24
7 11 7 0 0.18
-7 -11 14 0.48 0.21
7 -11 7 0.24 0.22
-7 11 -8 0.25 0.24
-7 11 15 1.06 0.26
7 11 -15 0.92 0.28
7 11 8 0.42 0.21
-7 -11 15 1.22 0.27
7 -11 8 0.05 0.23
-7 11 -9 1.68 0.32
-7 11 16 0.29 0.2
7 11 -16 0.45 0.26
7 11 9 1.95 0.31
-7 -11 16 0.36 0.21
7 -11 9 1.76 0.32
-7 -11 17 0.15 0.2
-9 11 4 0.86 0.19
-9 11 4 1.03 0.21
-9 11 5 1.25 0.21
9 11 -5 1.16 0.23
9 11 -4 0.84 0.21
9 -11 -5 1.43 0.23
9 -11 -4 1.11 0.22
-9 11 3 0.14 0.15
-9 11 3 0.13 0.16
-9 11 6 0.09 0.15
9 11 -6 0.24 0.18
9 11 -3 0.23 0.18
-9 -11 6 0.24 0.14
9 -11 -6 0.34 0.17
9 -11 -3 0.17 0.17
-9 11 2 -0.01 0.13
-9 11 2 0.22 0.17
-9 11 7 0.1 0.14
9 11 -7 0.09 0.19
9 11 -2 0.06 0.15
-9 -11 7 -0.23 0.11
9 -11 -7 -0.13 0.14
9 -11 -2 0.2 0.17
-9 11 1 0.53 0.18
-9 11 1 0.71 0.21
-9 11 8 1.11 0.21
9 11 -8 1.07 0.24
9 11 -1 0.82 0.21
-9 -11 8 1.08 0.2
9 -11 -8 0.95 0.2
9 -11 -1 0.71 0.19
-9 11 0 0.05 0.14
-9 11 0 0.16 0.17
-9 11 9 0 0.13
9 11 -9 0.07 0.19
9 11 0 0.08 0.17
-9 -11 9 -0.08 0.14
9 -11 -9 0.02 0.14
9 -11 0 0.34 0.18
-9 11 -1 0.45 0.16
-9 11 -1 0.57 0.2
-9 11 10 0.01 0.15
9 11 -10 0.12 0.18
9 11 1 0.48 0.2
-9 -11 10 0.06 0.15
9 -11 -10 0.09 0.15
9 -11 1 0.58 0.2
-9 11 -2 1.47 0.25
-9 11 11 2.68 0.28
9 11 -11 3.33 0.34
9 11 2 1.08 0.21
9 11 2 0.88 0.21
-9 -11 11 3.19 0.3
9 -11 -11 3.02 0.29
9 -11 2 1.4 0.25
-9 11 -3 -0.11 0.17
-9 11 12 0.4 0.19
9 11 -12 0.32 0.21
9 11 3 -0.05 0.15
9 11 3 0.01 0.16
-9 -11 12 0.27 0.17
9 -11 3 0.01 0.18
-9 11 -4 0.4 0.21
-9 11 13 0.11 0.16
9 11 -13 0 0.2
9 11 4 0.2 0.17
9 11 4 0.03 0.18
-9 -11 13 0.1 0.17
9 -11 4 0.44 0.2
-9 11 -5 2.82 0.35
-9 11 14 0.22 0.18
9 11 -14 -0.07 0.2
9 11 5 2.48 0.31
9 11 5 2.13 0.29
-9 -11 14 -0.03 0.16
9 -11 5 2.34 0.32
-9 11 -6 5.43 0.44
-9 11 15 1.11 0.25
9 11 -15 0.92 0.28
9 11 6 5.31 0.4
-9 -11 15 1.02 0.24
9 -11 6 5.37 0.42
-9 11 -7 0.32 0.24
-9 11 16 0.2 0.21
9 11 -16 0.26 0.24
9 11 7 0.28 0.21
-9 -11 16 0.33 0.21
9 -11 7 0.3 0.22
-9 11 -8 0.2 0.24
-9 11 17 0.29 0.2
9 11 -17 0.3 0.24
9 11 8 0.07 0.19
-9 -11 17 0.34 0.21
9 -11 8 0.03 0.21
-11 11 5 1.17 0.21
-11 11 6 0.08 0.14
11 11 -6 -0.1 0.16
11 11 -5 1.32 0.24
11 -11 -6 -0.1 0.15
11 -11 -5 1.37 0.23
-11 11 4 0.36 0.17
-11 11 7 -0.15 0.13
11 11 -7 0.03 0.17
11 11 -4 0.09 0.17
11 -11 -7 -0.04 0.15
11 -11 -4 0.25 0.18
-11 11 3 0 0.14
-11 11 3 -0.02 0.15
-11 11 8 0.47 0.18
11 11 -8 0.51 0.21
11 11 -3 -0.09 0.15
-11 -11 8 0.74 0.18
11 -11 -8 0.71 0.19
11 -11 -3 -0.06 0.16
-11 11 2 -0.14 0.13
-11 11 2 0.03 0.15
-11 11 9 0.25 0.15
11 11 -9 0.41 0.2
11 11 -2 -0.22 0.15
-11 -11 9 0.45 0.15
11 -11 -9 0.32 0.17
11 -11 -2 -0.09 0.14
-11 11 1 0.2 0.16
-11 11 1 0.34 0.18
-11 11 10 0.14 0.16
11 11 -10 0.13 0.19
11 11 -1 0.2 0.18
-11 -11 10 0.17 0.15
11 -11 -10 0.04 0.15
11 -11 -1 0.45 0.19
-11 11 0 0.08 0.15
-11 11 0 0.07 0.17
-11 11 11 -0.17 0.14
11 11 -11 -0.07 0.18
11 11 0 0.03 0.17
-11 -11 11 0 0.14
11 -11 -11 -0.03 0.15
11 -11 0 0.07 0.16
-11 11 -1 0.13 0.18
-11 11 12 0.03 0.15
11 11 -12 -0.09 0.18
11 11 1 -0.01 0.17
-11 -11 12 0 0.14
11 -11 -12 0.16 0.15
11 -11 1 0.34 0.19
-11 11 -2 0.11 0.19
-11 11 13 0.5 0.2
11 11 -13 0.71 0.24
11 11 2 -0.02 0.15
11 11 2 -0.11 0.15
-11 -11 13 0.58 0.19
11 -11 -13 0.52 0.19
11 -11 2 0.26 0.18
-11 11 -3 0.29 0.21
-11 11 14 1.22 0.24
11 11 -14 1.06 0.28
11 11 3 0.28 0.18
11 11 3 0.16 0.19
-11 -11 14 1.21 0.24
11 -11 3 0.27 0.22
-11 11 -4 1.04 0.27
-11 11 15 0.13 0.17
11 11 -15 -0.1 0.21
11 11 4 0.77 0.23
11 11 4 0.89 0.24
-11 -11 15 0 0.16
11 -11 4 0.94 0.27
-11 11 -5 0.5 0.25
-11 11 16 1.38 0.27
11 11 -16 1.35 0.3
11 11 5 0.66 0.22
11 11 5 0.46 0.21
-11 -11 16 1.49 0.27
11 -11 5 0.3 0.24
-11 11 -6 0.54 0.25
-11 11 17 0.12 0.19
11 11 -17 0.13 0.25
11 11 6 0.68 0.24
-11 -11 17 0.14 0.19
11 -11 6 0.59 0.25
11 -11 7 -0.01 0.22
-13 11 6 0.57 0.19
-13 11 7 0.59 0.19
13 11 -7 0.47 0.21
13 11 -6 0.68 0.22
13 -11 -7 0.61 0.2
13 -11 -6 0.71 0.21
-13 11 5 1.11 0.22
-13 11 8 0.6 0.19
13 11 -8 0.45 0.22
13 11 -5 1.21 0.24
13 -11 -8 0.22 0.17
13 -11 -5 0.86 0.22
-13 11 4 0.11 0.15
-13 11 9 1.52 0.24
13 11 -9 1.31 0.26
13 11 -4 0.09 0.17
13 -11 -9 1.33 0.23
13 -11 -4 0.15 0.16
-13 11 3 0.38 0.17
-13 11 3 0.5 0.18
-13 11 10 0.07 0.16
13 11 -10 0.08 0.19
13 11 -3 0.5 0.19
-13 -11 10 0.02 0.13
13 -11 -10 -0.13 0.14
13 -11 -3 0.43 0.2
-13 11 2 0.26 0.17
-13 11 2 0.2 0.18
-13 11 11 -0.08 0.15
13 11 -11 0.06 0.2
13 11 -2 0.43 0.19
-13 -11 11 0.16 0.14
13 -11 -11 -0.2 0.14
13 -11 -2 0.18 0.19
-13 11 1 0 0.15
-13 11 1 0 0.16
-13 11 12 1.1 0.22
13 11 -12 1.11 0.26
13 11 -1 -0.03 0.17
-13 -11 12 0.9 0.21
13 -11 -12 0.73 0.21
13 -11 -1 -0.01 0.17
-13 11 0 0.08 0.18
-13 11 13 1.18 0.24
13 11 -13 1.48 0.29
13 11 0 -0.09 0.17
-13 -11 13 1.26 0.23
13 -11 -13 1.12 0.23
13 -11 0 -0.21 0.17
-13 11 -1 0.13 0.18
-13 11 14 0.43 0.2
13 11 -14 0.28 0.23
13 11 1 0.05 0.17
-13 -11 14 0.6 0.19
13 -11 -14 0.39 0.19
13 -11 1 0 0.18
-13 11 -2 0.66 0.24
-13 11 15 0.37 0.19
13 11 -15 0.47 0.24
13 11 2 0.28 0.2
-13 -11 15 0.21 0.18
13 -11 -15 0.29 0.18
13 -11 2 0.68 0.24
-13 11 -3 1.67 0.29
-13 11 16 0.43 0.2
13 11 -16 0.46 0.24
13 11 3 1.37 0.26
13 11 3 1.01 0.26
-13 -11 16 0.26 0.18
13 -11 3 1.74 0.31
-13 11 -4 0.28 0.22
-13 11 17 1.1 0.26
13 11 -17 1.27 0.31
13 11 4 0.35 0.2
13 11 4 0.14 0.2
-13 -11 17 0.93 0.24
13 -11 4 0.07 0.22
-13 11 18 0.02 0.19
13 11 5 0.77 0.23
-13 -11 18 0.12 0.19
13 -11 5 1 0.27
-15 11 7 0.62 0.2
-15 11 8 1.19 0.24
15 11 -8 1.16 0.25
15 11 -7 1.01 0.23
15 -11 -8 1.38 0.25
15 -11 -7 0.87 0.23
-15 11 6 0.78 0.2
-15 11 9 3.31 0.32
15 11 -9 3.28 0.35
15 11 -6 0.6 0.21
15 -11 -9 3.3 0.34
15 -11 -6 0.69 0.22
-15 11 5 0.33 0.17
-15 11 10 0.82 0.21
15 11 -10 1.06 0.26
15 11 -5 0.36 0.2
15 -11 -10 1.15 0.24
15 -11 -5 0.19 0.19
-15 11 4 0.85 0.21
-15 11 11 0.63 0.2
15 11 -11 0.54 0.22
15 11 -4 0.88 0.23
15 -11 -11 0.22 0.18
15 -11 -4 1.11 0.24
-15 11 3 1.2 0.23
-15 11 12 -0.09 0.15
15 11 -12 -0.13 0.18
15 11 -3 1.27 0.25
-15 -11 12 0.12 0.14
15 -11 -12 0.08 0.17
15 -11 -3 1.28 0.25
-15 11 2 -0.05 0.15
-15 11 2 -0.06 0.17
-15 11 13 0.36 0.19
15 11 -13 0.52 0.23
15 11 -2 -0.08 0.16
-15 -11 13 0.41 0.17
15 -11 -13 0.57 0.2
15 -11 -2 0.08 0.18
-15 11 1 0.19 0.18
-15 11 14 0.1 0.17
15 11 -14 0.15 0.23
15 11 -1 -0.07 0.17
-15 -11 14 0.06 0.15
15 -11 -14 -0.15 0.15
15 -11 -1 0.03 0.18
-15 11 0 0.94 0.24
-15 11 15 0.46 0.2
15 11 -15 0.41 0.23
15 11 0 0.74 0.23
-15 -11 15 0.65 0.2
15 -11 -15 0.47 0.2
15 -11 0 0.78 0.25
-15 11 -1 0.09 0.2
-15 11 16 0.15 0.18
15 11 -16 0.16 0.23
15 11 1 0.07 0.19
-15 -11 16 -0.03 0.15
15 -11 -16 -0.04 0.16
15 -11 1 -0.1 0.2
-15 11 -2 0.19 0.22
-15 11 17 0.62 0.22
15 11 -17 0.47 0.25
15 11 2 0.43 0.21
-15 -11 17 0.73 0.22
15 -11 2 0.04 0.21
-15 11 -3 0.47 0.23
-15 11 18 0.35 0.21
15 11 -18 0.17 0.25
15 11 3 0.38 0.22
-15 -11 18 -0.01 0.16
15 -11 3 0.59 0.26
-17 11 8 0.36 0.18
-17 11 9 1.54 0.26
17 11 -9 1.98 0.3
17 11 -8 0.29 0.21
17 -11 -9 1.6 0.27
17 -11 -8 0.26 0.2
-17 11 7 1.18 0.24
-17 11 10 0.12 0.18
17 11 -10 0.19 0.2
17 11 -7 1.39 0.27
17 -11 -10 0.11 0.18
17 -11 -7 1.11 0.25
-17 11 6 -0.01 0.16
-17 11 11 1.44 0.26
17 11 -11 1.37 0.27
17 11 -6 -0.03 0.17
17 -11 -11 1.27 0.25
17 -11 -6 -0.05 0.18
-17 11 5 -0.05 0.17
-17 11 12 0 0.17
17 11 -12 0.09 0.21
17 11 -5 0.13 0.18
17 -11 -12 -0.05 0.17
17 -11 -5 -0.07 0.16
-17 11 4 0.59 0.21
-17 11 13 -0.01 0.17
17 11 -13 -0.03 0.2
17 11 -4 0.6 0.22
17 -11 -13 -0.07 0.16
17 -11 -4 0.53 0.21
-17 11 14 0.09 0.18
17 11 -14 -0.11 0.21
17 11 -3 2.07 0.31
17 -11 -14 -0.04 0.17
17 -11 -3 1.82 0.29
-17 11 2 0.08 0.18
-17 11 15 0.27 0.2
17 11 -15 0.45 0.24
17 11 -2 0.36 0.21
-17 -11 15 0.61 0.19
17 -11 -15 0.59 0.21
17 -11 -2 0.29 0.2
-17 11 1 0.17 0.17
-17 11 16 0.14 0.18
17 11 -16 -0.14 0.22
17 11 -1 -0.08 0.18
-17 -11 16 0.13 0.16
17 -11 -16 0.29 0.19
17 -11 -1 -0.22 0.19
-17 11 0 0.24 0.21
-17 11 17 0.11 0.18
17 11 -17 0.1 0.24
17 11 0 0.26 0.21
-17 -11 17 0 0.17
17 -11 -17 0.01 0.18
17 -11 0 0.17 0.22
-17 11 18 0.17 0.19
17 11 -18 0.13 0.24
-17 -11 18 0.09 0.17
17 -11 -18 0.02 0.17
17 -11 1 1.21 0.29
-19 11 9 -0.17 0.16
-19 11 10 0.4 0.2
19 11 -10 0.27 0.22
19 11 -9 -0.06 0.18
19 -11 -10 0.26 0.2
19 -11 -9 -0.07 0.18
-19 11 8 -0.12 0.16
-19 11 11 0.33 0.2
19 11 -11 0.46 0.23
19 11 -8 0.02 0.2
19 -11 -11 0.25 0.2
19 -11 -8 -0.04 0.18
-19 11 7 0 0.17
-19 11 12 -0.14 0.17
19 11 -12 0 0.19
19 11 -7 0.08 0.19
19 -11 -12 0.01 0.17
19 -11 -7 0.03 0.19
-19 11 6 0.05 0.17
-19 11 13 -0.07 0.17
19 11 -13 0 0.21
19 11 -6 -0.13 0.18
19 -11 -13 0 0.18
19 -11 -6 0.02 0.19
-19 11 5 -0.03 0.16
-19 11 14 0.04 0.18
19 11 -14 -0.19 0.21
19 11 -5 0.11 0.2
19 -11 -14 -0.05 0.17
19 -11 -5 -0.16 0.19
-19 11 15 -0.03 0.18
19 11 -15 0.14 0.22
19 11 -4 0.4 0.22
19 -11 -15 -0.23 0.16
19 -11 -4 0.15 0.21
-19 11 16 -0.07 0.18
19 11 -16 0.02 0.22
19 11 -3 0.18 0.2
19 -11 -16 0.12 0.19
19 -11 -3 0.34 0.23
-19 11 17 0.14 0.19
19 11 -17 0.01 0.24
19 11 -2 -0.06 0.19
-19 -11 17 0.17 0.16
19 -11 -17 0.24 0.2
19 -11 -2 0.08 0.21
19 -11 -1 0.38 0.24
-21 11 10 -0.02 0.18
-21 11 11 0.71 0.23
21 11 -11 0.85 0.25
21 11 -10 0.15 0.22
21 -11 -11 0.76 0.23
21 -11 -10 0 0.18
-21 11 9 -0.08 0.17
-21 11 12 0.37 0.21
21 11 -12 0.34 0.22
21 11 -9 0.24 0.21
21 -11 -12 0.21 0.19
21 -11 -9 -0.03 0.18
-21 11 8 0.1 0.18
-21 11 13 -0.03 0.18
21 11 -13 0.2 0.21
21 11 -8 0.23 0.2
21 -11 -13 0.06 0.2
21 -11 -8 -0.2 0.18
-21 11 7 0.71 0.22
-21 11 14 0.22 0.18
21 11 -14 0.04 0.21
21 11 -7 0.69 0.25
21 -11 -14 -0.07 0.18
21 -11 -7 0.71 0.25
-21 11 15 0.06 0.19
21 11 -15 0 0.21
21 11 -6 0.53 0.22
21 -11 -15 -0.09 0.19
21 -11 -6 0.49 0.24
-21 11 16 0.57 0.21
21 11 -16 0.83 0.28
21 11 -5 0.15 0.21
21 -11 -16 0.52 0.23
21 -11 -5 0.16 0.2
21 -11 -17 0.93 0.25
21 -11 -4 -0.07 0.19
-23 11 11 0.64 0.22
-23 11 12 0.16 0.19
23 11 -12 0.11 0.22
23 11 -11 0.32 0.23
23 -11 -12 0.13 0.21
23 -11 -11 0.4 0.22
-23 11 10 0.13 0.2
-23 11 13 0.11 0.19
23 11 -13 0.19 0.22
23 11 -10 -0.12 0.21
23 -11 -13 0.09 0.2
23 -11 -10 -0.1 0.18
-23 11 9 0 0.19
-23 11 14 0.56 0.23
23 11 -14 0.82 0.26
23 11 -9 -0.03 0.19
23 -11 -14 0.64 0.24
23 -11 -9 -0.03 0.2
23 -11 -15 -0.16 0.18
23 -11 -8 -0.01 0.19
0 12 0 0.61 0.21
0 -12 0 0.43 0.18
0 12 -1 0.96 0.23
0 12 1 0.87 0.22
0 -12 -1 0.87 0.2
0 -12 1 0.87 0.2
0 12 -2 1.61 0.26
0 12 2 1.09 0.19
0 12 2 1.47 0.24
0 -12 2 1.6 0.24
0 12 -3 -0.12 0.17
0 12 3 0.12 0.14
0 12 3 -0.02 0.17
0 -12 3 -0.02 0.14
0 12 -4 0.59 0.22
0 12 4 0.65 0.18
0 -12 4 0.82 0.22
0 12 -5 0.31 0.2
0 12 5 0.34 0.16
0 -12 5 0.17 0.16
0 12 -6 0.18 0.19
0 12 6 0.2 0.15
0 -12 6 0.12 0.17
0 12 -7 0.04 0.2
0 12 7 0.27 0.18
0 -12 7 0.01 0.18
0 12 -8 1.02 0.25
0 12 8 0.64 0.21
0 -12 8 1.34 0.26
0 12 -9 0.23 0.23
0 12 9 -0.1 0.17
0 -12 9 0 0.17
0 12 -10 1.31 0.29
0 12 10 0.88 0.24
0 -12 10 1.23 0.26
0 12 -11 0.13 0.23
0 12 11 -0.02 0.19
0 -12 11 0.03 0.19
0 12 12 0 0.21
0 -12 12 0.07 0.2
-2 12 1 0.02 0.17
2 12 -1 0.36 0.19
-2 -12 1 0.15 0.15
2 -12 -1 0.26 0.16
-2 12 0 0.07 0.17
-2 12 2 0.6 0.17
-2 12 2 0.78 0.21
2 12 -2 0.74 0.23
2 12 0 0.09 0.17
-2 -12 2 0.81 0.19
2 -12 -2 0.72 0.2
2 -12 0 0.12 0.16
-2 12 -1 1.43 0.26
-2 12 3 0.39 0.16
-2 12 3 0.74 0.2
2 12 -3 0.44 0.2
2 12 1 1.64 0.26
-2 -12 3 0.68 0.19
2 -12 -3 0.65 0.18
2 -12 1 1.62 0.26
-2 12 -2 6.33 0.41
-2 12 4 0.81 0.18
2 12 -4 0.94 0.24
2 12 2 6.53 0.39
-2 -12 4 0.9 0.21
2 -12 2 6.11 0.4
-2 12 -3 0.15 0.2
2 12 -5 1.29 0.26
2 12 3 0.64 0.17
2 12 3 0.5 0.19
-2 -12 5 1.07 0.23
2 -12 3 0.57 0.2
-2 12 -4 0.16 0.2
-2 12 6 -0.02 0.15
2 12 -6 -0.07 0.19
2 12 4 0.23 0.15
-2 -12 6 0.11 0.17
2 -12 4 0.22 0.17
-2 12 -5 -0.09 0.17
-2 12 7 0.76 0.2
2 12 -7 0.49 0.22
2 12 5 -0.01 0.15
-2 -12 7 0.89 0.21
2 -12 5 -0.18 0.14
-2 12 -6 -0.12 0.17
-2 12 8 -0.08 0.15
2 12 -8 0.01 0.21
2 12 6 -0.2 0.14
-2 -12 8 -0.01 0.16
2 -12 6 -0.17 0.16
-2 12 -7 -0.15 0.18
-2 12 9 0.95 0.23
2 12 -9 1.28 0.28
2 12 7 0.11 0.17
-2 -12 9 1.46 0.26
2 -12 7 0.02 0.18
-2 12 -8 0.43 0.24
-2 12 10 2.42 0.32
2 12 -10 2.24 0.33
2 12 8 0.09 0.19
-2 -12 10 2.27 0.32
2 -12 8 0.11 0.19
-2 12 -9 0 0.22
-2 12 11 0.19 0.2
2 12 -11 0.47 0.25
2 12 9 0.03 0.18
-2 -12 11 0.11 0.21
2 -12 9 -0.16 0.18
-2 12 -10 -0.04 0.22
-2 12 12 -0.03 0.18
2 12 -12 0.15 0.23
2 12 10 -0.15 0.17
-2 -12 12 0.1 0.19
2 -12 10 0.08 0.22
-2 12 13 0.07 0.2
2 12 11 0.4 0.23
-2 -12 13 0.18 0.21
2 -12 11 0.3 0.23
-4 12 2 1.25 0.21
-4 12 2 1.6 0.25
4 12 -2 1.75 0.28
4 -12 -2 1.99 0.26
-4 12 1 0.12 0.18
-4 12 3 0.26 0.16
-4 12 3 0.11 0.17
4 12 -3 0.1 0.18
4 12 -1 -0.04 0.18
-4 -12 3 0.17 0.16
4 -12 -3 0.13 0.16
4 -12 -1 -0.16 0.16
-4 12 0 0.49 0.21
-4 12 4 1.15 0.21
4 12 -4 1.54 0.27
4 12 0 0.46 0.19
-4 -12 4 1.3 0.22
4 -12 -4 1.33 0.22
4 -12 0 0.37 0.2
-4 12 -1 -0.08 0.18
-4 12 5 0.36 0.16
4 12 -5 0.2 0.19
4 12 1 0.21 0.18
-4 -12 5 0.44 0.18
4 -12 -5 0.13 0.16
4 -12 1 -0.12 0.16
-4 12 -2 0.07 0.2
-4 12 6 0.63 0.19
4 12 -6 0.34 0.21
4 12 2 0.3 0.19
-4 -12 6 0.31 0.17
4 -12 2 0.08 0.18
-4 12 -3 0.01 0.18
-4 12 7 -0.03 0.14
4 12 -7 0.12 0.21
4 12 3 0.1 0.15
4 12 3 0.06 0.17
-4 -12 7 -0.04 0.15
4 -12 3 0.03 0.18
-4 12 -4 0.96 0.24
-4 12 8 0.17 0.16
4 12 -8 -0.03 0.18
4 12 4 0.81 0.2
-4 -12 8 0.08 0.16
4 -12 4 0.96 0.24
-4 12 -5 0.38 0.21
-4 12 9 0.22 0.18
4 12 -9 0.13 0.21
4 12 5 0.05 0.17
-4 -12 9 0.08 0.15
4 -12 5 0.16 0.19
-4 12 -6 0.59 0.24
-4 12 10 0.07 0.16
4 12 -10 0.27 0.22
4 12 6 0.5 0.2
-4 -12 10 0.43 0.21
4 -12 6 0.4 0.2
-4 12 -7 0.9 0.26
-4 12 11 -0.05 0.16
4 12 -11 -0.12 0.19
4 12 7 0.43 0.21
-4 -12 11 0.2 0.2
4 -12 7 0.75 0.24
-4 12 -8 0.33 0.24
-4 12 12 1.58 0.28
4 12 -12 1.1 0.28
4 12 8 0.25 0.2
-4 -12 12 1.84 0.3
4 -12 8 0.08 0.22
-4 12 -9 0.12 0.23
-4 12 13 -0.08 0.18
4 12 -13 -0.04 0.22
4 12 9 0.07 0.2
-4 -12 13 0.25 0.21
4 -12 9 -0.1 0.2
-4 -12 14 0.04 0.2
4 -12 10 -0.05 0.22
-6 12 3 0.11 0.14
-6 12 3 0.26 0.18
6 12 -3 0.2 0.2
6 -12 -3 0.1 0.16
-6 12 2 3.56 0.3
-6 12 2 4.59 0.36
-6 12 4 3.58 0.3
6 12 -4 4.31 0.36
6 12 -2 4.41 0.36
6 -12 -4 3.93 0.33
6 -12 -2 4.32 0.36
-6 12 1 0.23 0.16
-6 12 1 0.58 0.21
-6 12 5 0.18 0.16
6 12 -5 0.38 0.2
6 12 -1 0.64 0.21
-6 -12 5 0.4 0.17
6 -12 -5 0.3 0.17
6 -12 -1 0.65 0.21
-6 12 0 0.64 0.21
-6 12 6 1.32 0.22
6 12 -6 1.62 0.28
6 12 0 1.14 0.23
-6 -12 6 1.5 0.23
6 -12 -6 1.1 0.22
6 -12 0 0.97 0.23
-6 12 -1 0.15 0.19
-6 12 7 0.21 0.16
6 12 -7 0 0.2
6 12 1 0.25 0.17
-6 -12 7 -0.02 0.16
6 -12 -7 0.21 0.16
6 -12 1 0.33 0.19
-6 12 -2 0.4 0.2
-6 12 8 1.97 0.26
6 12 -8 2.06 0.3
6 12 2 0.25 0.18
-6 -12 8 2.02 0.27
6 -12 2 0.27 0.2
-6 12 -3 0.14 0.19
-6 12 9 0.13 0.15
6 12 -9 -0.17 0.19
6 12 3 0.05 0.17
-6 -12 9 -0.04 0.15
6 -12 3 0.14 0.2
-6 12 -4 0.53 0.22
-6 12 10 0.12 0.16
6 12 -10 0.17 0.21
6 12 4 0.69 0.2
-6 -12 10 0.18 0.17
6 -12 4 0.52 0.21
-6 12 -5 0.28 0.22
-6 12 11 0.11 0.19
6 12 -11 0.13 0.21
6 12 5 0.22 0.19
-6 -12 11 0.21 0.18
6 -12 5 0.36 0.23
-6 12 -6 2.44 0.33
-6 12 12 2.09 0.31
6 12 -12 2.42 0.34
6 12 6 2.14 0.29
-6 -12 12 2.31 0.31
6 -12 6 2.64 0.35
-6 12 -7 1.91 0.32
-6 12 13 1.42 0.28
6 12 -13 1.49 0.3
6 12 7 1.71 0.29
-6 -12 13 0.97 0.25
6 -12 7 1.62 0.31
-6 12 -8 0.1 0.23
-6 12 14 0.14 0.2
6 12 -14 -0.12 0.21
6 12 8 0.02 0.19
-6 -12 14 0.24 0.19
6 -12 8 0.55 0.24
-8 12 4 1.09 0.21
8 12 -4 1.74 0.28
8 -12 -4 1.33 0.25
-8 12 3 0.51 0.18
-8 12 5 0.2 0.16
8 12 -5 0.03 0.18
8 12 -3 0.77 0.23
8 -12 -5 0.04 0.17
8 -12 -3 0.65 0.21
-8 12 2 0.99 0.2
-8 12 2 1.53 0.25
-8 12 6 0.16 0.16
8 12 -6 0.36 0.21
8 12 -2 1.34 0.26
8 -12 -6 0.19 0.17
8 -12 -2 1.53 0.26
-8 12 1 -0.1 0.14
-8 12 1 0.07 0.18
-8 12 7 0.08 0.15
8 12 -7 0.05 0.2
8 12 -1 0.41 0.2
-8 -12 7 0.02 0.15
8 -12 -7 -0.06 0.15
8 -12 -1 0.02 0.16
-8 12 0 0.22 0.18
-8 12 8 1.54 0.25
8 12 -8 1.5 0.28
8 12 0 0.21 0.19
-8 -12 8 1.67 0.25
8 -12 -8 1.55 0.25
8 -12 0 0.22 0.19
-8 12 -1 1.06 0.24
-8 12 9 0.68 0.2
8 12 -9 0.5 0.24
8 12 1 0.76 0.22
-8 -12 9 0.52 0.19
8 -12 -9 0.51 0.19
8 -12 1 1.04 0.25
-8 12 -2 0.64 0.23
-8 12 10 0.76 0.21
8 12 -10 0.32 0.23
8 12 2 0.59 0.22
-8 -12 10 0.84 0.21
8 -12 2 0.6 0.23
-8 12 -3 0.28 0.2
-8 12 11 0.04 0.17
8 12 -11 0.12 0.21
8 12 3 -0.25 0.17
-8 -12 11 -0.06 0.14
8 -12 3 0.11 0.2
-8 12 -4 1.15 0.28
-8 12 12 0.12 0.17
8 12 -12 0.12 0.23
8 12 4 1.04 0.23
-8 -12 12 0.29 0.19
8 -12 4 1 0.27
-8 12 -5 0.31 0.22
-8 12 13 0.76 0.24
8 12 -13 0.68 0.25
8 12 5 0.64 0.22
-8 -12 13 0.93 0.22
8 -12 5 0.6 0.23
-8 12 -6 1.14 0.29
-8 12 14 -0.11 0.18
8 12 -14 -0.06 0.21
8 12 6 0.92 0.24
-8 -12 14 -0.12 0.17
8 -12 6 1.36 0.29
-8 12 -7 -0.03 0.21
-8 12 15 0.1 0.19
8 12 -15 0.1 0.23
8 12 7 0.01 0.2
-8 -12 15 0.1 0.19
8 -12 7 -0.05 0.19
-10 12 5 -0.02 0.15
10 12 -5 0.09 0.18
10 -12 -5 0.01 0.17
-10 12 4 -0.07 0.14
-10 12 6 1.18 0.22
10 12 -6 0.99 0.25
10 12 -4 -0.04 0.18
10 -12 -6 0.92 0.23
10 -12 -4 -0.01 0.17
-10 12 3 0.58 0.19
-10 12 7 0.09 0.16
10 12 -7 0.03 0.19
10 12 -3 0.87 0.23
10 -12 -7 0.14 0.17
10 -12 -3 0.96 0.24
-10 12 2 2.93 0.3
-10 12 2 3.92 0.34
-10 12 8 0.28 0.17
10 12 -8 0.29 0.22
10 12 -2 3.85 0.36
10 -12 -8 0.42 0.2
10 -12 -2 3.51 0.35
-10 12 1 0.01 0.15
-10 12 1 0.08 0.17
-10 12 9 0.03 0.16
10 12 -9 0.23 0.21
10 12 -1 -0.11 0.17
-10 -12 9 -0.17 0.14
10 -12 -9 -0.04 0.16
10 -12 -1 0.01 0.18
-10 12 0 0.89 0.23
-10 12 10 0.91 0.22
10 12 -10 0.53 0.23
10 12 0 0.68 0.21
-10 -12 10 1.02 0.22
10 -12 -10 0.58 0.2
10 -12 0 0.61 0.23
-10 12 -1 1.72 0.28
-10 12 11 0.07 0.17
10 12 -11 0.19 0.21
10 12 1 0.85 0.24
-10 -12 11 0.22 0.17
10 -12 -11 0.09 0.17
10 -12 1 1.25 0.27
-10 12 -2 1.69 0.28
-10 12 12 -0.03 0.17
10 12 -12 -0.12 0.21
10 12 2 1.08 0.26
-10 -12 12 0 0.15
10 -12 2 1.41 0.27
-10 12 -3 0.53 0.23
-10 12 13 -0.03 0.17
10 12 -13 -0.08 0.22
10 12 3 0.1 0.2
-10 -12 13 0.11 0.17
10 -12 3 0.31 0.22
-10 12 -4 0.23 0.21
-10 12 14 0.16 0.19
10 12 -14 0 0.22
-10 -12 14 0.05 0.17
10 -12 4 0.16 0.22
-10 12 -5 0.29 0.23
-10 12 15 -0.01 0.19
10 12 -15 -0.15 0.22
10 12 5 0.35 0.2
-10 -12 15 0.03 0.18
10 -12 5 0.41 0.24
-12 12 6 0.6 0.2
12 12 -6 0.41 0.21
12 -12 -6 0.69 0.22
-12 12 5 0.54 0.2
-12 12 7 0.77 0.21
12 12 -7 1.38 0.27
12 12 -5 0.84 0.23
12 -12 -7 1.06 0.24
12 -12 -5 0.67 0.22
-12 12 4 -0.1 0.14
-12 12 8 0.64 0.21
12 12 -8 0.49 0.24
12 12 -4 0.17 0.2
12 -12 -8 0.61 0.21
12 -12 -4 -0.07 0.16
-12 12 3 -0.01 0.15
-12 12 9 0.61 0.21
12 12 -9 1.12 0.26
12 12 -3 -0.21 0.17
12 -12 -9 0.65 0.22
12 -12 -3 -0.06 0.18
-12 12 2 0.06 0.15
-12 12 2 0.11 0.17
-12 12 10 0.53 0.2
12 12 -10 0.24 0.22
12 12 -2 0.15 0.18
12 -12 -10 0.41 0.21
12 -12 -2 -0.2 0.17
-12 12 1 -0.08 0.14
-12 12 1 0 0.18
-12 12 11 0.38 0.2
12 12 -11 0.29 0.23
12 12 -1 0 0.18
-12 -12 11 0.25 0.16
12 -12 -11 -0.15 0.16
12 -12 -1 -0.13 0.19
-12 12 0 0.27 0.2
-12 12 12 0.78 0.22
12 12 -12 0.54 0.25
12 12 0 -0.02 0.17
-12 -12 12 0.66 0.2
12 -12 -12 0.62 0.21
12 -12 0 0.19 0.19
-12 12 -1 0.15 0.2
-12 12 13 0.1 0.18
12 12 -13 0.09 0.21
12 12 1 0.14 0.19
-12 -12 13 0.21 0.17
12 -12 1 0.05 0.2
-12 12 -2 0.15 0.21
-12 12 14 0.19 0.18
12 12 -14 -0.02 0.22
12 12 2 -0.09 0.18
-12 -12 14 0.12 0.17
12 -12 2 0.1 0.21
-12 12 -3 0.26 0.22
-12 12 15 0.05 0.18
12 12 -15 -0.25 0.22
12 12 3 0.19 0.2
-12 -12 15 0.03 0.18
12 -12 3 0.06 0.22
12 -12 4 -0.11 0.21
-14 12 7 0.29 0.19
14 12 -7 0.71 0.23
14 -12 -7 0.44 0.21
-14 12 6 0.02 0.17
-14 12 8 0.34 0.2
14 12 -8 0.35 0.23
14 12 -6 0.23 0.2
14 -12 -8 0.2 0.19
14 -12 -6 0 0.18
-14 12 5 0.79 0.22
-14 12 9 0.16 0.18
14 12 -9 0.26 0.22
14 12 -5 0.92 0.25
14 -12 -9 0.06 0.19
14 -12 -5 0.74 0.23
-14 12 4 0.75 0.21
-14 12 10 -0.06 0.16
14 12 -4 0.67 0.24
14 -12 -10 0.14 0.19
14 -12 -4 0.83 0.25
-14 12 3 0.45 0.19
-14 12 11 0.73 0.22
14 12 -11 0.51 0.24
14 12 -3 0.38 0.21
14 -12 -11 0.89 0.23
14 -12 -3 0.54 0.22
-14 12 2 -0.12 0.16
-14 12 12 0.45 0.2
14 12 -12 0.72 0.25
14 12 -2 0.12 0.2
14 -12 -12 0.52 0.22
14 -12 -2 -0.04 0.19
-14 12 1 0.03 0.18
-14 12 13 0.27 0.19
14 12 -13 0.1 0.23
14 12 -1 -0.07 0.19
-14 -12 13 0.19 0.17
14 -12 -13 0.06 0.18
14 -12 -1 0.18 0.19
-14 12 0 0.38 0.22
-14 12 14 0.12 0.17
14 12 -14 0.03 0.23
14 12 0 0.46 0.22
-14 -12 14 0.18 0.17
14 -12 -14 -0.02 0.17
14 -12 0 0.37 0.22
-14 12 -1 0.46 0.23
-14 12 15 0.61 0.23
14 12 -15 1.28 0.3
14 12 1 0.17 0.2
-14 -12 15 0.92 0.22
14 -12 1 0.24 0.22
14 -12 2 0.18 0.23
-16 12 8 -0.04 0.17
16 12 -8 -0.05 0.2
16 -12 -8 0.2 0.2
-16 12 7 0.35 0.19
-16 12 9 0.29 0.2
16 12 -9 0.43 0.22
16 12 -7 0.66 0.24
16 -12 -9 0.35 0.21
16 -12 -7 0.44 0.22
-16 12 6 0.39 0.2
-16 12 10 0.01 0.16
16 12 -10 0.19 0.22
16 12 -6 0.47 0.22
16 -12 -10 0.23 0.19
16 -12 -6 0.44 0.23
-16 12 5 0.24 0.19
-16 12 11 0.37 0.19
16 12 -11 0.65 0.26
16 12 -5 0.21 0.2
16 -12 -11 0.36 0.21
16 -12 -5 0.34 0.21
-16 12 4 -0.17 0.16
-16 12 12 1.1 0.26
16 12 -12 1.26 0.28
16 12 -4 -0.16 0.19
16 -12 -12 1.03 0.26
16 -12 -4 -0.01 0.2
-16 12 3 -0.15 0.16
-16 12 13 0.47 0.2
16 12 -13 0.59 0.26
16 12 -3 0.12 0.2
16 -12 -13 0.44 0.21
16 -12 -3 -0.15 0.17
-16 12 14 0.22 0.2
16 12 -14 0.11 0.24
16 12 -2 0.17 0.2
16 -12 -14 0.09 0.19
16 -12 -2 0.28 0.22
-16 12 1 0.14 0.19
-16 12 15 1.22 0.27
16 12 -15 1.45 0.31
16 12 -1 0.09 0.2
-16 -12 15 1.54 0.26
16 -12 -15 1.17 0.26
16 -12 -1 -0.16 0.2
-18 12 9 0.64 0.22
18 12 -9 0.85 0.27
18 -12 -9 0.25 0.2
-18 12 8 0.09 0.19
-18 12 10 0.27 0.2
18 12 -10 0.3 0.22
18 12 -8 0.16 0.21
18 -12 -10 0.12 0.19
18 -12 -8 0.13 0.19
-18 12 7 0.51 0.22
-18 12 11 -0.02 0.19
18 12 -11 0.03 0.22
18 12 -7 0.44 0.22
18 -12 -11 0.05 0.2
18 -12 -7 0.63 0.22
-18 12 6 -0.22 0.16
-18 12 12 0.24 0.19
18 12 -12 -0.02 0.21
18 12 -6 -0.11 0.2
18 -12 -12 0.08 0.18
18 -12 -6 -0.12 0.2
-18 12 5 -0.41 0.15
-18 12 13 0.37 0.21
18 12 -13 0.06 0.22
18 12 -5 0.14 0.2
18 -12 -13 0.06 0.19
18 -12 -5 0 0.2
-18 12 14 -0.04 0.18
18 12 -14 -0.06 0.22
18 12 -4 -0.15 0.19
18 -12 -14 0.07 0.19
18 -12 -4 -0.23 0.19
18 -12 -15 -0.21 0.17
18 -12 -3 -0.18 0.18
-20 12 10 1.61 0.29
20 12 -10 1.51 0.3
20 -12 -10 1.58 0.3
-20 12 9 0.58 0.23
-20 12 11 -0.05 0.19
20 12 -11 0.12 0.22
20 12 -9 0.85 0.26
20 -12 -11 0 0.19
20 -12 -9 0.63 0.25
-20 12 8 0.07 0.19
-20 12 12 0.6 0.24
20 12 -12 0.77 0.26
20 12 -8 0.03 0.2
20 -12 -12 0.55 0.24
20 -12 -8 -0.26 0.19
20 -12 -7 0.11 0.21
-1 13 0 0.2 0.19
-1 13 1 0.5 0.21
1 13 -1 0.65 0.24
1 13 0 0.1 0.19
-1 -13 1 0.38 0.19
1 -13 -1 0.27 0.18
1 -13 0 -0.09 0.16
-1 13 -1 0.99 0.25
-1 13 2 2.34 0.29
1 13 -2 1.97 0.31
1 13 1 0.92 0.24
-1 -13 2 1.98 0.27
1 -13 1 0.95 0.23
-1 13 -2 1.51 0.28
1 13 -3 1.19 0.27
1 13 2 1.43 0.26
-1 -13 3 1.05 0.23
1 -13 2 1.55 0.26
-1 13 -3 -0.12 0.19
1 13 -4 -0.03 0.21
-1 -13 4 0.27 0.19
1 -13 3 0.04 0.18
-1 13 -4 0.2 0.21
-1 13 5 0.36 0.17
1 13 -5 0.23 0.24
-1 -13 5 0.22 0.19
1 -13 4 0.4 0.2
-1 13 -5 -0.02 0.2
-1 13 6 -0.06 0.15
1 13 -6 0.11 0.2
1 13 5 0.07 0.16
-1 -13 6 0.1 0.18
1 -13 5 0.17 0.19
-1 13 -6 0.01 0.21
-1 13 7 0.02 0.16
1 13 -7 0.21 0.22
1 13 6 -0.11 0.15
-1 -13 7 -0.09 0.16
1 -13 6 -0.05 0.18
-1 13 -7 0.39 0.24
-1 13 8 0.69 0.22
1 13 -8 0.65 0.26
1 13 7 0.31 0.19
-1 -13 8 0.95 0.25
1 -13 7 0.37 0.21
-1 13 -8 0.51 0.24
-1 13 9 0.28 0.2
1 13 -9 0.39 0.25
1 13 8 0.38 0.2
-1 -13 9 0.1 0.2
1 -13 8 0.48 0.24
-1 13 -9 0.1 0.22
-1 13 10 0.2 0.2
1 13 -10 -0.02 0.21
1 13 9 0.15 0.2
-1 -13 10 0.08 0.21
1 -13 9 0.43 0.23
-3 13 1 0.46 0.21
-3 13 2 1.18 0.25
3 13 -2 0.97 0.26
3 13 -1 0.62 0.24
3 -13 -2 0.94 0.22
3 -13 -1 0.54 0.22
-3 13 0 -0.1 0.19
3 13 -3 1.82 0.3
3 13 0 -0.08 0.18
-3 -13 3 2.51 0.3
3 -13 -3 1.84 0.26
3 -13 0 -0.09 0.17
-3 13 -1 -0.22 0.18
3 13 -4 0.69 0.26
3 13 1 -0.05 0.18
-3 -13 4 0.89 0.22
3 -13 1 -0.05 0.17
-3 13 -2 -0.19 0.19
-3 13 5 -0.03 0.15
3 13 -5 0.04 0.21
3 13 2 -0.11 0.18
-3 -13 5 0.15 0.18
3 -13 2 0 0.18
-3 13 -3 -0.17 0.18
-3 13 6 0.73 0.21
3 13 -6 0.73 0.25
-3 -13 6 1.02 0.23
3 -13 3 0 0.18
-3 13 -4 -0.11 0.21
-3 13 7 -0.13 0.15
3 13 -7 -0.21 0.2
-3 -13 7 0.16 0.18
3 -13 4 -0.08 0.19
-3 13 -5 -0.04 0.21
-3 13 8 0.14 0.18
3 13 -8 0.11 0.23
3 13 5 -0.14 0.15
-3 -13 8 0.4 0.19
3 -13 5 0.18 0.18
-3 13 -6 0.86 0.26
-3 13 9 0.91 0.24
3 13 -9 0.81 0.26
3 13 6 0.7 0.22
-3 -13 9 0.81 0.24
3 -13 6 0.7 0.24
-3 13 -7 0.11 0.21
-3 13 10 0.22 0.2
3 13 -10 0.14 0.24
3 13 7 -0.1 0.17
-3 -13 10 0.21 0.2
3 -13 7 0.13 0.21
-3 13 11 0.7 0.25
3 13 8 0.06 0.19
-3 -13 11 0.05 0.2
3 -13 8 -0.05 0.21
5 13 -3 0.21 0.21
5 13 -2 0.53 0.23
5 -13 -3 -0.09 0.17
5 -13 -2 0.26 0.2
-5 13 1 0.59 0.22
-5 13 4 0.1 0.17
5 13 -4 0 0.21
5 13 -1 0.28 0.22
5 -13 -4 0.02 0.17
5 -13 -1 0.18 0.2
-5 13 0 1.88 0.3
-5 13 5 1.01 0.22
5 13 -5 0.83 0.26
5 13 0 1.6 0.28
-5 -13 5 0.82 0.21
5 -13 0 1.72 0.28
-5 13 -1 0.03 0.19
-5 13 6 1.99 0.27
5 13 -6 2 0.32
5 13 1 0.1 0.2
-5 -13 6 2.03 0.28
5 -13 1 0.02 0.18
-5 13 -2 -0.1 0.2
-5 13 7 0.11 0.17
5 13 -7 -0.03 0.22
5 13 2 0 0.19
-5 -13 7 -0.03 0.16
5 -13 2 -0.14 0.17
-5 13 -3 -0.02 0.2
-5 13 8 0.05 0.16
5 13 -8 -0.21 0.19
-5 -13 8 -0.11 0.15
5 -13 3 -0.11 0.19
-5 13 -4 0.8 0.24
-5 13 9 0.17 0.18
5 13 -9 -0.21 0.21
-5 -13 9 0.14 0.18
5 -13 4 0.82 0.26
-5 13 -5 -0.03 0.21
-5 13 10 0.28 0.2
5 13 -10 0.32 0.24
-5 -13 10 0.6 0.23
5 -13 5 -0.07 0.2
-5 13 -6 0.53 0.24
-5 13 11 -0.02 0.18
5 13 -11 0.11 0.24
5 13 6 0.26 0.19
-5 -13 11 0 0.19
5 -13 6 0.17 0.22
5 -13 7 0.23 0.23
-7 13 4 0.21 0.17
7 13 -4 0.38 0.22
7 13 -3 0.31 0.21
7 -13 -4 0.16 0.19
7 -13 -3 0.08 0.18
-7 13 5 0.48 0.19
7 13 -5 0.77 0.26
7 13 -2 0.43 0.22
7 -13 -5 0.6 0.22
7 -13 -2 0.34 0.21
-7 13 1 0.18 0.2
-7 13 6 1.38 0.24
7 13 -6 2.02 0.32
7 13 -1 0.35 0.22
7 -13 -6 1.87 0.27
7 -13 -1 0.08 0.2
-7 13 0 1.74 0.28
-7 13 7 0.22 0.17
7 13 -7 0.28 0.23
7 13 0 1.58 0.29
-7 -13 7 0.21 0.18
7 -13 0 1.61 0.27
-7 13 -1 0.81 0.23
-7 13 8 0.84 0.21
7 13 -8 0.81 0.27
7 13 1 0.48 0.22
-7 -13 8 0.8 0.22
7 -13 1 0.47 0.22
-7 13 -2 0.12 0.19
-7 13 9 0.47 0.2
7 13 -9 0.21 0.23
7 13 2 -0.15 0.18
-7 -13 9 0.52 0.21
7 -13 2 -0.1 0.17
-7 13 -3 0.21 0.21
-7 13 10 0.39 0.2
7 13 -10 0.23 0.23
-7 -13 10 0.51 0.21
7 -13 3 -0.28 0.16
-7 13 -4 1.15 0.28
-7 13 11 0.11 0.19
7 13 -11 0.33 0.25
-7 -13 11 0.09 0.18
7 -13 4 0.97 0.27
-7 13 -5 0.05 0.22
-7 13 12 1.23 0.26
7 13 -12 1.69 0.32
-7 -13 12 1.54 0.28
7 -13 5 0.16 0.23
-9 13 4 0.01 0.17
-9 13 5 0.27 0.18
9 13 -5 0.37 0.24
9 13 -4 -0.16 0.2
9 -13 -5 0.4 0.21
9 -13 -4 -0.17 0.18
-9 13 3 -0.18 0.14
-9 13 6 0.01 0.18
9 13 -6 0.08 0.21
9 13 -3 -0.1 0.2
9 -13 -6 0.1 0.19
9 -13 -3 -0.19 0.18
-9 13 7 0.47 0.19
9 13 -7 0.28 0.23
9 13 -2 -0.17 0.19
9 -13 -7 0.27 0.2
9 -13 -2 -0.05 0.18
-9 13 1 0.31 0.21
-9 13 8 -0.28 0.15
9 13 -8 -0.11 0.22
9 13 -1 0.15 0.19
9 -13 -8 0.2 0.19
9 -13 -1 -0.09 0.18
-9 13 0 0.36 0.2
-9 13 9 0.11 0.18
9 13 -9 0.04 0.22
9 13 0 0.52 0.23
-9 -13 9 -0.08 0.16
9 -13 0 0.58 0.23
-9 13 -1 1.05 0.25
-9 13 10 0.01 0.17
9 13 -10 -0.02 0.21
9 13 1 0.56 0.23
-9 -13 10 -0.16 0.15
9 -13 1 0.86 0.24
-9 13 -2 0.17 0.21
-9 13 11 -0.06 0.17
9 13 -11 -0.23 0.22
9 13 2 0.23 0.2
-9 -13 11 0.25 0.19
9 -13 2 0.11 0.22
-9 13 -3 -0.16 0.2
-9 13 12 0.36 0.21
9 13 -12 0.12 0.24
-9 -13 12 0.41 0.2
9 -13 3 0.23 0.23
9 -13 4 1.15 0.28
-11 13 5 0.09 0.17
-11 13 6 0.8 0.22
11 13 -6 0.77 0.27
11 13 -5 -0.02 0.21
11 -13 -6 0.68 0.23
11 -13 -5 -0.11 0.19
-11 13 4 0.01 0.16
-11 13 7 0.58 0.21
11 13 -7 0.87 0.26
11 13 -4 0.1 0.22
11 -13 -7 0.76 0.24
11 -13 -4 0.13 0.21
-11 13 3 -0.03 0.16
-11 13 8 1.69 0.27
11 13 -3 0.06 0.2
11 -13 -8 1.86 0.3
11 -13 -3 -0.03 0.2
-11 13 9 0.14 0.18
11 13 -9 0.03 0.22
11 13 -2 0.14 0.19
11 -13 -9 -0.02 0.18
11 -13 -2 -0.16 0.19
-11 13 10 0.1 0.18
11 13 -10 0.02 0.23
11 13 -1 0.33 0.21
11 -13 -10 0.08 0.18
11 -13 -1 0.39 0.23
-11 13 0 0.05 0.19
-11 13 11 0.01 0.17
11 13 -11 -0.16 0.2
11 13 0 0.15 0.21
11 -13 0 -0.01 0.21
-11 13 -1 0.17 0.21
-11 13 12 0.19 0.19
11 13 -12 -0.07 0.22
11 13 1 -0.15 0.19
-11 -13 12 0.12 0.18
11 -13 1 0.13 0.21
11 -13 2 -0.18 0.2
-13 13 6 0.17 0.19
-13 13 7 2.27 0.3
13 13 -7 2.61 0.35
13 13 -6 0.04 0.22
13 -13 -7 2.31 0.32
13 -13 -6 -0.05 0.2
-13 13 5 0.14 0.19
-13 13 8 1.88 0.29
13 13 -8 2.15 0.35
13 13 -5 0.42 0.23
13 -13 -8 2.02 0.31
13 -13 -5 0.35 0.23
-13 13 4 -0.18 0.16
-13 13 9 0.28 0.2
13 13 -9 0.19 0.24
13 13 -4 0.13 0.21
13 -13 -9 0.08 0.21
13 -13 -4 -0.02 0.2
-13 13 3 0.04 0.17
-13 13 10 0.06 0.18
13 13 -10 -0.14 0.23
13 13 -3 0.05 0.19
13 -13 -10 0.2 0.21
13 -13 -3 -0.1 0.2
-13 13 11 -0.05 0.18
13 13 -11 -0.05 0.22
13 13 -2 0.02 0.2
13 -13 -11 -0.03 0.2
13 -13 -2 -0.32 0.19
-13 13 12 0.19 0.2
13 13 -12 0.44 0.25
13 13 -1 0.03 0.2
13 -13 -12 0.24 0.21
13 -13 -1 -0.02 0.21
13 -13 0 0.07 0.2
-15 13 7 0.45 0.22
-15 13 8 3.44 0.36
15 13 -8 3.74 0.41
15 13 -7 0.93 0.28
15 -13 -8 3.96 0.41
15 -13 -7 0.46 0.23
-15 13 6 -0.07 0.18
-15 13 9 0.41 0.21
15 13 -9 0.49 0.27
15 13 -6 0.13 0.23
15 -13 -9 0.29 0.23
15 -13 -6 0.23 0.22
-15 13 5 0.09 0.18
-15 13 10 0.32 0.21
15 13 -10 0.23 0.25
15 13 -5 0.35 0.24
15 -13 -10 0.15 0.22
15 -13 -5 0.27 0.24
-15 13 4 1.01 0.25
-15 13 11 0.29 0.21
15 13 -11 0.17 0.25
15 13 -4 1.57 0.29
15 -13 -11 -0.11 0.19
15 -13 -4 1.45 0.3
15 -13 -3 0.02 0.21
0 14 0 3.61 0.39
0 14 -1 0.55 0.25
0 14 -2 -0.22 0.21
0 -14 2 -0.13 0.17
0 14 -3 -0.06 0.22
0 -14 3 -0.15 0.18
0 14 -4 0.73 0.27
0 -14 4 0.91 0.25
0 14 -5 0.27 0.24
0 -14 5 0.04 0.2
0 14 -6 0.22 0.23
0 -14 6 0.22 0.22
2 14 -1 0.61 0.24
-2 14 0 0.77 0.26
2 14 -2 0.35 0.23
2 -14 0 0.32 0.21
-2 14 -1 0 0.21
2 14 -3 1.32 0.29
2 -14 1 -0.16 0.18
-2 14 -2 0.4 0.25
2 14 -4 -0.11 0.22
-2 -14 4 0.17 0.2
2 -14 2 0.08 0.2
-2 14 -3 -0.09 0.22
2 14 -5 -0.06 0.23
-2 -14 5 0.01 0.18
2 -14 3 0.13 0.2
-2 14 -4 -0.28 0.22
2 14 -6 0.98 0.29
-2 -14 6 1.21 0.26
2 -14 4 0.07 0.2
-2 14 -5 0.23 0.24
-2 14 7 0.7 0.22
2 14 -7 0.63 0.27
-2 -14 7 0.41 0.22
2 -14 5 0.12 0.21
4 14 -2 0.24 0.21
4 -14 -2 -0.02 0.21
4 14 -3 -0.02 0.22
4 14 -1 0.18 0.23
4 -14 -1 -0.15 0.18
-4 14 0 -0.31 0.19
4 14 -4 1.25 0.3
4 14 0 0 0.2
4 -14 0 -0.22 0.19
-4 14 -1 0.27 0.23
4 14 -5 0.25 0.24
4 -14 1 0.16 0.21
-4 14 -2 0.07 0.22
4 14 -6 -0.13 0.21
-4 -14 6 0.07 0.18
4 -14 2 0.08 0.2
-4 14 -3 0.06 0.21
-4 14 7 0.25 0.2
4 14 -7 -0.11 0.22
-4 -14 7 0.27 0.2
4 -14 3 0.09 0.21
-4 14 8 0.14 0.18
-4 -14 8 -0.04 0.19
4 -14 4 0.73 0.26
6 14 -3 0.18 0.23
6 -14 -3 0.49 0.23
6 14 -4 4.01 0.42
6 14 -2 -0.17 0.19
6 -14 -4 4.34 0.39
6 -14 -2 -0.18 0.19
6 14 -5 1.05 0.28
6 14 -1 -0.06 0.21
6 -14 -1 -0.08 0.19
-6 14 6 0.52 0.2
6 14 -6 0.38 0.25
6 14 0 0.3 0.23
6 -14 0 0.27 0.23
-6 14 -1 -0.03 0.2
-6 14 7 0.26 0.19
6 14 -7 0 0.22
6 14 1 -0.2 0.19
6 -14 1 -0.18 0.19
-6 14 -2 0.54 0.24
-6 14 8 0.18 0.19
6 14 -8 -0.28 0.22
-6 -14 8 -0.11 0.18
6 -14 2 0.42 0.23
8 14 -4 0.54 0.25
8 -14 -4 0.24 0.21
8 14 -5 0.25 0.25
8 14 -3 0.08 0.22
8 -14 -5 0.06 0.2
8 -14 -3 -0.01 0.21
-8 14 6 0.1 0.19
8 14 -6 0.12 0.25
8 14 -2 -0.05 0.22
8 -14 -6 0.04 0.21
8 -14 -2 -0.27 0.19
-8 14 7 0.14 0.18
8 14 -7 0.05 0.24
8 14 -1 0.36 0.24
8 -14 -1 0.13 0.21
-8 14 8 -0.1 0.17
8 14 -8 -0.21 0.23
8 14 0 0.12 0.22
8 -14 0 0 0.21
10 14 -5 0.21 0.25
10 -14 -5 0.09 0.2
-10 14 6 0 0.18
10 14 -6 0.14 0.24
10 14 -4 0.03 0.21
10 -14 -6 0.35 0.23
10 -14 -4 -0.06 0.21
-10 14 7 0.2 0.2
10 14 -3 0.51 0.25
10 -14 -7 0.21 0.21
10 -14 -3 0.56 0.25
