#------------------------------------------------------------------------------
#$Date: 2019-05-13 10:49:06 +0300 (Mon, 13 May 2019) $
#$Revision: 215051 $
#$URL: file:///home/coder/svn-repositories/cod/cif/1/54/74/1547430.cif $
#------------------------------------------------------------------------------
#
# This file is available in the Crystallography Open Database (COD),
# http://www.crystallography.net/
#
# All data on this site have been placed in the public domain by the
# contributors.
#
data_1547430
loop_
_publ_author_name
'Anuradha R. Pallipurath'
'Jonathan M. Skelton'
'Mark R. Warren'
'Naghmeh Kamali'
'Patrick McArdle'
'Andrea Erxleben'
_publ_section_title
;
 Sulfamerazine: Understanding the Influence of Slip Planes in the
 Polymorphic Phase Transformation through X-Ray Crystallographic Studies
 and ab Initio Lattice Dynamics
;
_journal_name_full               'Molecular Pharmaceutics'
_journal_page_first              3735
_journal_page_last               3748
_journal_paper_doi               10.1021/acs.molpharmaceut.5b00504
_journal_volume                  12
_journal_year                    2015
_chemical_formula_moiety         'C11 H12 N4 O2 S'
_chemical_formula_sum            'C11 H12 N4 O2 S'
_chemical_formula_weight         264.303
_chemical_name_common            Sulfamerazine
_chemical_name_systematic        4-amino-N-(4-methylpyrimidin-2-yl)
_space_group_crystal_system      orthorhombic
_space_group_IT_number           61
_space_group_name_Hall           '-P 2ac 2ab'
_space_group_name_H-M_alt        'P b c a'
_symmetry_space_group_name_Hall  '-P 2ac 2ab'
_symmetry_space_group_name_H-M   'P b c a'
_atom_sites_solution_hydrogens   mixed
_cell_angle_alpha                90
_cell_angle_beta                 90
_cell_angle_gamma                90
_cell_formula_units_Z            8
_cell_length_a                   9.0963(2)
_cell_length_b                   11.5574(3)
_cell_length_c                   22.8612(7)
_cell_measurement_reflns_used    6223
_cell_measurement_temperature    174.9(3)
_cell_measurement_theta_max      28.9880
_cell_measurement_theta_min      3.8940
_cell_volume                     2403.39(11)
_computing_cell_refinement
;
'Fri Nov 28 20:15:03 2014'
;
_computing_data_collection
;
'Fri Nov 28 20:15:03 2014'
;
_computing_data_reduction
;
'Fri Nov 28 20:15:03 2014'
;
_computing_molecular_graphics    OSCAIL
_computing_structure_refinement  'SHELXL-2014/7 (Sheldrick, 2014)'
_computing_structure_solution    SHELXT
_diffrn_ambient_temperature      174.9(3)
_diffrn_detector_area_resol_mean 16.1048
_diffrn_measured_fraction_theta_full 0.999
_diffrn_measured_fraction_theta_max 0.922
_diffrn_measurement_device_type  'Xcalibur, Sapphire3'
_diffrn_measurement_method       '\w scans'
_diffrn_radiation_type           MoK\a
_diffrn_radiation_wavelength     0.71073
_diffrn_reflns_av_R_equivalents  0.0269
_diffrn_reflns_av_unetI/netI     0.0210
_diffrn_reflns_Laue_measured_fraction_full 0.999
_diffrn_reflns_Laue_measured_fraction_max 0.922
_diffrn_reflns_limit_h_max       11
_diffrn_reflns_limit_h_min       -12
_diffrn_reflns_limit_k_max       13
_diffrn_reflns_limit_k_min       -15
_diffrn_reflns_limit_l_max       31
_diffrn_reflns_limit_l_min       -26
_diffrn_reflns_number            20575
_diffrn_reflns_point_group_measured_fraction_full 0.999
_diffrn_reflns_point_group_measured_fraction_max 0.922
_diffrn_reflns_theta_full        25.242
_diffrn_reflns_theta_max         29.204
_diffrn_reflns_theta_min         2.986
_diffrn_source                   'Enhance (Mo) X-ray Source'
_exptl_absorpt_coefficient_mu    0.269
_exptl_absorpt_correction_T_max  1.00000
_exptl_absorpt_correction_T_min  0.98434
_exptl_absorpt_correction_type   multi-scan
_exptl_absorpt_process_details
;
crysalispro, agilent technologies,
version 1.171.37.31 (release 14-01-2014 crysalis171 .net)
(compiled jan 14 2014,18:38:05)
empirical absorption correction using spherical harmonics,
 implemented in scale3 abspack scaling algorithm.
;
_exptl_crystal_colour            Colourless
_exptl_crystal_density_diffrn    1.461
_exptl_crystal_description       Parallelepiped
_exptl_crystal_F_000             1104
_exptl_crystal_size_max          0.50
_exptl_crystal_size_mid          0.40
_exptl_crystal_size_min          0.20
_refine_diff_density_max         0.402
_refine_diff_density_min         -0.436
_refine_diff_density_rms         0.053
_refine_ls_extinction_coef       .
_refine_ls_extinction_method     none
_refine_ls_goodness_of_fit_ref   1.056
_refine_ls_hydrogen_treatment    mixed
_refine_ls_matrix_type           full
_refine_ls_number_parameters     176
_refine_ls_number_reflns         2998
_refine_ls_number_restraints     0
_refine_ls_restrained_S_all      1.056
_refine_ls_R_factor_all          0.0465
_refine_ls_R_factor_gt           0.0374
_refine_ls_shift/su_max          0.000
_refine_ls_shift/su_mean         0.000
_refine_ls_structure_factor_coef Fsqd
_refine_ls_weighting_details
'w=1/[\s^2^(Fo^2^)+(0.0463P)^2^+1.4827P] where P=(Fo^2^+2Fc^2^)/3'
_refine_ls_weighting_scheme      calc
_refine_ls_wR_factor_gt          0.0962
_refine_ls_wR_factor_ref         0.1021
_reflns_Friedel_coverage         0.000
_reflns_Friedel_fraction_full    .
_reflns_Friedel_fraction_max     .
_reflns_number_gt                2546
_reflns_number_total             2998
_reflns_threshold_expression     'I > 2\s(I)'
_cod_data_source_file            Exp_Form-II2FInHouse_Form-II_175K.cif
_cod_data_source_block           smz_fiilt175_a
_cod_depositor_comments
;

2019-03-25
Changing wrong Z value
                 miguel
;
_cod_original_formula_units_Z            6
_cod_database_code               1547430
_shelx_space_group_comment
;
The symmetry employed for this shelxl refinement is uniquely defined
by the following loop, which should always be used as a source of
symmetry information in preference to the above space-group names.
They are only intended as comments.
;
_shelx_estimated_absorpt_t_min   0.877
_shelx_estimated_absorpt_t_max   0.948
_shelxl_version_number           2014/6
_shelx_res_file
;
TITL smz_fiilt175_a.res in Pbca
REM Old TITL smz_fiilt175 in Pbca
REM SHELXT solution in Pbca
REM R1 0.103,  Rweak 0.308,  Alpha 0.032,  Orientation as input
REM Formula found by SHELXT:  C12 N3 O2 S
CELL  0.71073   9.0963  11.5574  22.8612   90.000   90.000   90.000
ZERR    6.000   0.0002   0.0003   0.0007    0.000    0.000    0.000
REM SG 61 8 8 Pbca P21/b21/c21/a PGmmm Orthorhombic
LATT 1
REM SG  ASUN  1  .5 .5 .5
REM SG  ORGN  at Inv.cen.
SYMM 0.5-X,-Y,0.5+Z
SYMM -X,0.5+Y,0.5-Z
SYMM 0.5+X,0.5-Y,-Z
SFAC C H N O S
UNIT 88 96  32  16  8
FMAP 2
PLAN -32
BOND $H
L.S. 12
SIZE    0.50  0.40  0.20
ACTA
CONF
HTAB
LIST 4
WGHT    0.046300    1.482700
FVAR       0.55486
S1    5    0.331694    0.345968    0.389636    11.00000    0.02158    0.02228 =
         0.01929   -0.00175   -0.00055   -0.00288
O2    4    0.196428    0.397104    0.409597    11.00000    0.02025    0.03651 =
         0.02352   -0.00170    0.00057   -0.00203
O1    4    0.341826    0.222784    0.386531    11.00000    0.03931    0.02192 =
         0.02688   -0.00101   -0.00069   -0.00593
N4    3    0.666618    0.426165    0.485363    11.00000    0.02182    0.02833 =
         0.02211   -0.00160   -0.00150    0.00144
N3    3    0.656011    0.284766    0.408752    11.00000    0.02608    0.02454 =
         0.02459   -0.00015    0.00183    0.00389
N2    3    0.451271    0.395319    0.437171    11.00000    0.02207    0.02568 =
         0.02210   -0.00785   -0.00255    0.00287
N1    3    0.454334    0.532315    0.154374    11.00000    0.04490    0.02983 =
         0.02791    0.00421    0.01134    0.00193
C1    1    0.374558    0.403619    0.321451    11.00000    0.02306    0.02303 =
         0.01974   -0.00113    0.00001   -0.00144
C2    1    0.447959    0.336502    0.280123    11.00000    0.03681    0.02383 =
         0.02781   -0.00103    0.00458    0.00706
AFIX  43
H2    2    0.477395    0.261709    0.289506    11.00000   -1.30000
AFIX   0
C3    1    0.476988    0.380677    0.225442    11.00000    0.03790    0.02865 =
         0.02692   -0.00259    0.00981    0.00546
AFIX  43
H3    2    0.527714    0.335751    0.198393    11.00000   -1.30000
AFIX   0
C4    1    0.431255    0.492453    0.209847    11.00000    0.02781    0.02714 =
         0.02315   -0.00017    0.00369   -0.00392
C5    1    0.357600    0.559080    0.252299    11.00000    0.03244    0.01968 =
         0.02920    0.00009    0.00382    0.00004
AFIX  43
H5    2    0.326767    0.633568    0.243008    11.00000   -1.30000
AFIX   0
C6    1    0.330446    0.515522    0.307513    11.00000    0.02572    0.02105 =
         0.02607   -0.00459    0.00446   -0.00121
AFIX  43
H6    2    0.282835    0.560851    0.335278    11.00000   -1.30000
AFIX   0
C7    1    0.598300    0.366005    0.443146    11.00000    0.02166    0.02216 =
         0.01929    0.00218    0.00061    0.00068
C8    1    0.808905    0.400541    0.493009    11.00000    0.02445    0.03514 =
         0.02491    0.00207   -0.00343    0.00002
AFIX  43
H8    2    0.861503    0.439977    0.521634    11.00000   -1.30000
AFIX   0
C9    1    0.880124    0.318307    0.460224    11.00000    0.02183    0.03855 =
         0.02834    0.00640    0.00157    0.00520
AFIX  43
H9    2    0.979093    0.301919    0.466186    11.00000   -1.30000
AFIX   0
C10   1    0.799458    0.260698    0.418012    11.00000    0.02770    0.02627 =
         0.02656    0.00604    0.00694    0.00566
C11   1    0.867210    0.167442    0.381406    11.00000    0.03632    0.03591 =
         0.04297   -0.00241    0.00869    0.01278
AFIX 137
H11A  2    0.821923    0.094609    0.390512    11.00000   -1.30000
H11B  2    0.970636    0.163130    0.389475    11.00000   -1.30000
H11C  2    0.852514    0.184794    0.340758    11.00000   -1.30000
AFIX   0
H1N2  2    0.418749    0.445209    0.459438    11.00000    0.04366
H1N1  2    0.517304    0.494144    0.133351    11.00000    0.04097
H2N1  2    0.445858    0.604325    0.146330    11.00000    0.04994
HKLF 4
  
REM  smz_fiilt175_a.res in Pbca
REM R1 =  0.0374 for    2546 Fo > 4sig(Fo)  and  0.0465 for all    2998 data
REM    176 parameters refined using      0 restraints
  
END
  
WGHT      0.0430      1.3039
  
REM Instructions for potential hydrogen bonds
EQIV $1 -x+1/2, y+1/2, z
HTAB C6 O1_$1
EQIV $2 -x+1, -y+1, -z+1
HTAB C8 O2_$2
EQIV $3 x+1, y, z
HTAB C9 O2_$3
HTAB N2 N4_$2
EQIV $4 x+1/2, y, -z+1/2
HTAB N1 O2_$4
EQIV $5 -x+1, y+1/2, -z+1/2
HTAB N1 O1_$5
HTAB N1 N3_$5
  
REM Highest difference peak  0.402,  deepest hole -0.436,  1-sigma level  0.053
Q1    1   0.3549  0.3772  0.3501  11.00000  0.05    0.40
Q2    1   0.4677  0.4438  0.2201  11.00000  0.05    0.28
Q3    1   0.4248  0.5090  0.1826  11.00000  0.05    0.25
Q4    1   0.3858  0.5190  0.2288  11.00000  0.05    0.24
Q5    1   0.8369  0.2860  0.4444  11.00000  0.05    0.24
Q6    1   0.4025  0.3734  0.3024  11.00000  0.05    0.24
Q7    1   0.3589  0.5375  0.2819  11.00000  0.05    0.23
Q8    1   0.4033  0.3595  0.4194  11.00000  0.05    0.23
Q9    1   0.3298  0.4468  0.3101  11.00000  0.05    0.23
Q10   1   0.6354  0.3838  0.4723  11.00000  0.05    0.22
Q11   1   0.3735  0.4594  0.3189  11.00000  0.05    0.22
Q12   1   0.2478  0.3766  0.3964  11.00000  0.05    0.21
Q13   1   0.8266  0.2144  0.3982  11.00000  0.05    0.21
Q14   1   0.3393  0.1998  0.3626  11.00000  0.05    0.21
Q15   1   0.7234  0.2627  0.4206  11.00000  0.05    0.20
Q16   1   0.4377  0.3580  0.2510  11.00000  0.05    0.20
Q17   1   0.7384  0.4194  0.4814  11.00000  0.05    0.19
Q18   1   0.8353  0.3404  0.4820  11.00000  0.05    0.19
Q19   1   0.8550  0.3874  0.4622  11.00000  0.05    0.19
Q20   1   0.6229  0.2767  0.3763  11.00000  0.05    0.19
Q21   1   0.8564  0.4728  0.5132  11.00000  0.05    0.19
Q22   1   0.3689  0.2725  0.3878  11.00000  0.05    0.18
Q23   1   0.3042  0.2700  0.3801  11.00000  0.05    0.17
Q24   1   0.6574  0.4194  0.4494  11.00000  0.05    0.17
Q25   1   0.6348  0.3265  0.4217  11.00000  0.05    0.17
Q26   1   0.7399  0.2846  0.4108  11.00000  0.05    0.17
Q27   1   0.3896  0.4816  0.1449  11.00000  0.05    0.16
Q28   1   0.2082  0.4737  0.4085  11.00000  0.05    0.16
Q29   1   0.2085  0.4014  0.4405  11.00000  0.05    0.15
Q30   1   0.8419  0.4408  0.5435  11.00000  0.05    0.15
Q31   1   0.0917  0.3799  0.4468  11.00000  0.05    0.15
Q32   1   0.3465  0.5234  0.1479  11.00000  0.05    0.15
;
_shelx_res_checksum              91735
_shelx_hkl_file
;
   0   0   4 2466.68   19.93
   0   0   4 2968.58   19.92
   0   0   5   15.58    3.36
   0   0  -5   12.49    2.95
   0   0   5   11.85    2.45
   0   0   6 7788.90   39.81
   0   0  -6 7662.85   42.05
   0   0   6 7824.29   43.12
   0   0   7   15.71    2.99
   0   0   7   20.60    1.58
   0   0   8 1217.19   18.40
   0   0   8 1171.09    9.46
   0   0   8 1266.44   20.03
   0   0   9   27.13    5.29
   0   0   9    6.72    2.30
   0   0  10 6022.98   45.86
   0   0  11  153.76    8.88
   0   0  12   -0.14    2.12
   0   0  13    1.35    3.19
   0   0  14  910.89   21.48
   0   0  15   27.67    4.94
   0   0  16   19.82    3.93
   0   0  17   10.62    5.35
   0   0  18 1623.10   33.37
   0   0  19   72.67    8.41
   0   0  20  192.12   12.57
   0   0  21   13.39    4.83
   0   0  22  280.34   15.80
   0   0  23   13.34    5.01
   0   0  24   84.89    9.71
   0   0  25    1.51    3.38
   0   0  26   68.45    9.01
   0   0  27    1.63    3.92
   0   0  28   77.29    9.87
   0   0  29   15.53    5.79
   0   0  30  470.97   25.11
   0   1   3    8.39    0.91
   0  -1   4    1.30    0.78
   0   1  -4    1.44    1.17
   0   1   4    1.26    0.96
   0  -1  -4   -0.28    1.27
   0   1   4    1.66    0.98
   0  -1   5    1.01    1.37
   0  -1  -5    2.11    1.03
   0   1   5    2.81    1.29
   0   1   5    1.91    1.34
   0   1  -5    2.62    1.71
   0   1   5    1.78    1.19
   0   1   6    1.01    1.55
   0   1  -6   -0.46    1.70
   0  -1   6   -0.20    1.61
   0  -1  -6   -0.69    1.20
   0   1   6   -0.40    1.24
   0   1   6    0.67    1.37
   0  -1   7    0.31    1.72
   0   1  -7    3.62    1.98
   0   1   7    1.20    1.23
   0  -1   7    1.95    0.92
   0  -1   7    1.00    1.54
   0   1   7    1.26    1.41
   0   1   7    0.09    1.08
   0  -1   8    0.80    0.78
   0   1  -8    3.25    1.97
   0   1   8    1.35    1.53
   0   1  -8    0.04    0.58
   0   1   8   -0.10    1.09
   0  -1   8   -0.18    1.47
   0  -1   8   -3.04    2.25
   0   1   8    3.10    1.32
   0   1   9    3.98    1.95
   0   1  -9    0.53    0.57
   0   1   9   -0.04    1.38
   0   1  -9   -0.13    1.90
   0  -1   9   -0.37    2.01
   0  -1   9    0.41    0.80
   0   1   9    0.00    1.34
   0   1 -10    0.82    0.56
   0  -1 -10   -0.04    0.42
   0  -1  10    0.35    0.72
   0  -1  10   -1.44    2.27
   0   1  10    0.97    1.81
   0   1 -10    2.22    2.35
   0  -1  11    0.59    0.79
   0   1  11   -0.97    1.92
   0  -1 -11    3.07    0.80
   0  -1  11    1.34    2.29
   0  -1  12    1.77    0.85
   0  -1  12    0.90    2.17
   0   1  12    0.38    0.61
   0  -1 -12    0.50    0.47
   0  -1  13   -0.26    0.63
   0  -1  13   -0.29    2.40
   0   1  13    1.21    2.11
   0  -1 -13    0.33    0.37
   0   1  13   -0.29    0.59
   0   1  14   -1.02    2.61
   0  -1 -14    0.31    0.30
   0   1  14   -0.04    0.61
   0   1  15    0.24    0.57
   0   1  15   -1.30    2.22
   0  -1  15    1.29    2.51
   0   1  16   -1.84    2.78
   0  -1  16   -0.31    2.91
   0  -1  17    1.25    2.98
   0   1  17    2.11    2.70
   0   1  18   -2.80    2.90
   0  -1  18   -1.58    3.33
   0  -1  19   -1.80    3.73
   0   1  19    3.39    3.34
   0  -1  20   -1.78    3.70
   0   1  20    2.24    3.56
   0  -1  21    1.22    3.10
   0   1  21   -6.48    4.58
   0   1  22   -4.09    3.38
   0  -1  22    1.68    3.40
   0  -1  23   -2.57    3.92
   0   1  23   -0.50    3.47
   0  -1  24    2.69    3.45
   0   1  24   -3.32    3.54
   0  -1  25    1.03    3.99
   0   1  25    2.86    3.19
   0   1  26   -3.42    3.18
   0  -1  26    0.45    3.79
   0  -1  27  -11.58    6.04
   0   1  27    1.04    2.99
   0  -1  28   -7.25    6.00
   0   1  28    1.26    3.10
   0  -1  29   -3.39    4.66
   0   1  29    1.38    3.49
   0   1  30   -9.00    4.63
   0   1  31    9.59    5.12
   0   2   0    9.42    0.95
   0  -2   0   10.04    1.59
   0   2  -1 8463.97   27.50
   0   2   1 8280.49   36.65
   0   2   2 4304.99   27.37
   0  -2  -2 4311.95   27.83
   0   2  -2 4380.34   22.88
   0   2   2 4295.52   27.57
   0  -2   2 4276.39   22.90
   0  -2  -2 4375.11   27.16
   0  -2  -2 4235.40   25.75
   0   2   2 4267.93   25.42
   0  -2  -3 9885.80   43.05
   0  -2  -3 9917.14   40.42
   0   2  -3 9704.01   38.50
   0   2   3 9999.00   40.10
   0  -2   3 9744.22   39.20
   0   2   3 9921.54   43.87
   0   2   3 9635.51   26.23
   0  -2  -3 9822.74   44.21
   0   2   3 9961.51   44.23
   0   2  -4 7932.86   38.55
   0  -2  -4 8131.37   42.23
   0   2   4 8243.00   41.96
   0  -2   4 7895.52   38.84
   0  -2  -4 7825.71   27.11
   0   2   4 8271.67   38.03
   0  -2  -4 7872.06   40.78
   0   2   4 8001.96   27.35
   0   2   4 8032.16   42.27
   0  -2  -5 8264.21   32.18
   0  -2   5 8672.27   44.42
   0   2   5 8580.01   46.32
   0  -2  -5 8173.03   44.84
   0   2  -5 8569.20   43.70
   0   2   5 8456.97   46.49
   0  -2  -5 8612.31   45.20
   0   2   5 8604.31   45.71
   0  -2  -6 8027.50   35.57
   0   2   6 8065.73   35.44
   0   2   6 8344.44   47.75
   0   2  -6 8171.19   46.47
   0   2   6 8377.02   49.10
   0  -2  -6 8133.18   47.36
   0  -2   6 8491.09   47.38
   0   2   6 8389.36   48.22
   0   2   7   99.94    5.60
   0   2   7   96.04    5.53
   0  -2  -7   90.84    4.25
   0   2   7   92.08    4.30
   0  -2   7   99.35    5.59
   0   2   7   89.38    2.64
   0  -2  -7   94.08    5.68
   0   2  -7   91.83    5.55
   0  -2  -8  575.83   11.38
   0  -2   8  618.28   14.62
   0   2   8  591.45   14.22
   0   2   8  569.69   13.26
   0   2   8  587.57   11.49
   0   2  -8  608.13   14.85
   0   2   8  587.37   14.05
   0   2   8  571.25    7.48
   0   2   9 2051.51   26.38
   0   2  -9 2053.02   28.44
   0   2   9 1977.57   22.72
   0  -2   9 1896.15   27.17
   0   2   9 1965.03   15.47
   0   2 -10 1042.49   21.34
   0   2  10  999.10   17.33
   0   2  10 1013.94   12.15
   0  -2  10  987.04   13.92
   0  -2  10 1007.83   21.05
   0   2 -11 1336.70   25.60
   0  -2  11 1353.35   16.54
   0   2  11 1374.18   15.20
   0  -2  11 1382.53   25.04
   0   2  11 1345.93   21.34
   0   2  12  616.97   10.99
   0   2  12  630.69   15.47
   0  -2  12  606.51   11.21
   0   2 -12  644.82   10.42
   0   2 -12  648.62   18.41
   0  -2  12  608.48   17.94
   0   2 -13  156.08   10.06
   0  -2  13  179.98   10.15
   0   2  13  170.71    8.75
   0  -2  13  155.63    5.74
   0   2 -13  162.39    5.24
   0   2  13  168.92    6.12
   0  -2 -14  853.15   11.11
   0  -2  14  895.69   22.68
   0   2  14  885.04   19.96
   0   2 -14  881.25   12.08
   0   2  14  889.00   14.72
   0  -2  14  887.37   13.60
   0   2  15   58.62    6.08
   0  -2 -15   32.22    2.09
   0  -2  15   47.23    6.42
   0   2  15   42.61    3.78
   0  -2  15   38.26    3.01
   0   2  16  111.11    5.81
   0   2  16  111.72    8.01
   0  -2  16  108.61    4.81
   0  -2 -16   95.68    3.31
   0  -2  16  138.07    9.98
   0   2  17  564.19   10.44
   0  -2  17  592.69   20.69
   0   2  17  579.46   18.32
   0   2  17  569.39   13.58
   0  -2  17  584.23   10.94
   0   2  18  384.84   15.82
   0   2  18  346.57   11.11
   0   2  18  338.55    7.88
   0  -2  18  393.06   17.70
   0  -2  19  849.84   26.66
   0   2  19  877.43   24.08
   0  -2  20  149.12   11.88
   0   2  20  157.73   11.01
   0   2  21   82.89    8.14
   0  -2  21   71.11    8.49
   0  -2  22   20.18    6.24
   0   2  22   13.45    4.67
   0  -2  23  660.28   25.92
   0   2  23  636.57   23.62
   0  -2  24   30.84    7.44
   0   2  24   32.96    6.49
   0   2  25   20.34    5.64
   0  -2  25   20.74    6.24
   0   2  26  149.10   12.50
   0  -2  26  163.66   14.40
   0  -2  27   22.72    6.78
   0   2  27   22.20    5.79
   0   2  28   16.77    5.27
   0  -2  28    6.62    4.34
   0  -2  29   87.52   11.50
   0   2  29  105.53   11.40
   0   2  30    5.44    4.29
   0  -3   0    2.69    2.32
   0  -3   0    7.44    2.30
   0  -3   0    4.57    1.28
   0   3   0    2.20    1.25
   0  -3  -1    2.13    1.63
   0   3   1    4.47    1.31
   0  -3  -1    1.19    2.24
   0   3   1    5.40    2.17
   0   3  -1    1.71    1.01
   0  -3   1   -0.61    1.19
   0   3   1    6.43    2.63
   0   3   2    4.15    2.18
   0  -3   2    0.04    1.08
   0  -3  -2   -1.35    1.75
   0   3   2    0.34    1.38
   0  -3  -2    1.20    2.09
   0   3  -2    2.42    1.25
   0  -3  -2    6.59    2.27
   0  -3   3   -0.18    1.12
   0  -3  -3   -2.01    1.69
   0   3   3    1.88    1.77
   0  -3  -3   -4.67    2.60
   0  -3  -3    0.35    0.71
   0   3   3   -1.44    2.30
   0  -3  -3    2.61    1.65
   0   3  -3   -0.38    1.37
   0   3   4    0.94    2.18
   0   3  -4    3.33    1.73
   0   3   4   -1.82    1.80
   0   3   4   -0.18    1.18
   0  -3   4    0.83    1.19
   0   3   4    1.33    0.83
   0  -3  -4   -0.85    1.64
   0  -3  -4    2.46    2.36
   0  -3  -4    0.14    0.73
   0  -3  -4   -0.30    1.47
   0   3   5    0.95    1.84
   0   3   5    4.30    2.28
   0   3  -5   -0.44    1.43
   0  -3  -5   -0.05    0.85
   0  -3  -5   -0.86    2.10
   0  -3  -5    1.04    1.23
   0   3   5   -1.10    1.59
   0   3   5    0.03    0.95
   0  -3   5    1.75    1.50
   0  -3  -5    0.49    1.86
   0  -3  -6    0.85    2.24
   0   3   6    3.47    1.75
   0   3   6    5.52    2.31
   0  -3  -6    1.39    1.98
   0   3  -6    2.17    1.80
   0  -3   6    3.92    1.70
   0  -3  -6    2.89    0.96
   0   3   6    3.75    1.85
   0   3   6    2.31    1.06
   0  -3  -7   -0.48    1.97
   0   3   7   -0.03    1.38
   0  -3  -7    0.08    0.79
   0   3   7    1.17    2.16
   0   3  -7    3.04    2.03
   0   3   7   -1.85    2.38
   0   3   7    0.82    1.29
   0  -3   7   -1.65    1.24
   0   3   8   -1.83    2.34
   0   3   8    0.22    1.28
   0  -3  -8    0.02    2.12
   0  -3  -8    0.26    1.02
   0   3   8   -1.04    2.17
   0   3  -8    0.53    1.84
   0  -3  -9    0.00    2.16
   0   3   9   -3.10    2.75
   0   3  -9    1.77    1.94
   0  -3  -9    0.48    0.88
   0   3   9    0.64    1.33
   0   3  10    0.61    2.63
   0   3  10    0.21    1.43
   0   3 -10   -2.39    2.35
   0  -3 -10   -0.68    1.44
   0  -3 -10   -1.99    2.82
   0   3 -11    0.08    2.30
   0  -3  11   -4.88    3.81
   0   3  11    1.32    1.75
   0  -3  12   -2.96    3.44
   0   3 -12    0.82    2.46
   0   3  12   -0.88    1.60
   0  -3  12    0.67    1.19
   0   3 -13    2.42    2.66
   0  -3  13    0.16    1.14
   0  -3  13   -1.32    2.77
   0   3  13    1.99    1.94
   0   3 -14    4.08    2.66
   0  -3  14   -4.61    3.71
   0  -3  14   -1.03    1.34
   0   3  14   -1.07    1.87
   0   3  14    0.13    0.74
   0  -3  15   -1.24    2.92
   0   3  15   -0.16    0.84
   0   3 -15    1.28    3.09
   0   3 -15   -0.48    1.00
   0   3  15   -1.44    2.18
   0  -3  15   -1.07    1.29
   0   3  16   -0.99    0.96
   0   3  16   -0.29    2.23
   0  -3  16    0.37    1.25
   0   3 -16    0.71    0.82
   0   3  17   -1.24    1.09
   0  -3  17   -0.89    1.17
   0   3  18    0.02    2.69
   0  -3  18    3.96    1.74
   0  -3  18   -0.38    3.51
   0  -3  19    1.06    1.31
   0  -3  19    1.71    4.01
   0   3  19    0.24    2.72
   0   3  20   -3.31    3.28
   0  -3  20   -5.34    4.82
   0   3  21    2.37    3.03
   0  -3  21   -1.73    3.77
   0  -3  22    5.63    4.02
   0   3  22   -1.85    2.76
   0  -3  23   -2.06    3.39
   0   3  23   -0.10    2.60
   0   3  24   -2.10    3.17
   0  -3  24    4.33    5.09
   0   3  25   -3.62    3.57
   0  -3  25   -0.24    4.01
   0   3  26   -1.54    3.24
   0  -3  26    2.33    4.57
   0  -3  27    1.70    3.55
   0   3  27   -1.44    2.87
   0  -3  28   -0.06    3.47
   0  -4   0 4265.48   25.35
   0  -4   0 4468.71   37.84
   0   4   0 4291.35   24.90
   0  -4   0 4372.88   37.39
   0  -4   1 1604.60   16.27
   0  -4  -1 1583.75   22.68
   0  -4  -1 1651.75   23.01
   0   4   1 1581.71   14.93
   0   4  -1 1570.06   15.89
   0   4   2 1743.45   16.12
   0  -4   2 1813.81   18.32
   0  -4  -2 1858.26   24.74
   0   4   2 1824.60   24.51
   0  -4  -2 1841.77   24.60
   0   4   2 1808.35   24.60
   0  -4  -2 1834.93   23.73
   0   4  -2 1757.67   18.08
   0  -4  -3  143.13    4.10
   0  -4  -3  145.16    7.20
   0  -4  -3  147.35    7.18
   0   4   3  149.52    7.41
   0  -4   3  146.09    5.66
   0  -4  -3  155.37    6.99
   0   4   3  145.65    7.11
   0   4  -3  146.26    5.73
   0  -4  -4  220.65    8.34
   0  -4   4  209.92    7.20
   0  -4  -4  217.40    8.85
   0   4  -4  195.84    7.04
   0  -4  -4  200.05    4.76
   0   4   4  203.79    8.61
   0  -4  -4  217.03    8.87
   0   4   4  210.99    8.86
   0   4   5  288.85    9.72
   0  -4  -5  275.38    9.46
   0   4   5  277.06   10.47
   0   4  -5  268.86    8.75
   0  -4  -5  290.80    5.92
   0  -4  -5  285.00   10.30
   0  -4   5  286.57    8.92
   0   4  -6  785.14   15.72
   0  -4  -6  772.70   17.49
   0   4   6  814.01   18.38
   0  -4   6  827.24   16.12
   0  -4  -6  808.28   18.26
   0  -4  -6  783.98   10.23
   0   4   6  785.32   16.29
   0   4   6  798.10   10.49
   0   4   7  351.75   11.12
   0   4   7  358.11   12.74
   0   4   7  353.72    7.66
   0   4  -7  371.65   11.45
   0  -4   7  399.82   11.89
   0  -4  -7  346.63   12.39
   0  -4  -7  355.78    7.56
   0  -4  -7  353.97   12.28
   0   4  -8  315.43   11.20
   0   4   8  316.13    7.78
   0  -4  -8  297.50    7.53
   0  -4  -8  312.62   11.85
   0   4   8  321.95   10.89
   0  -4  -8  311.52   12.03
   0   4   8  313.87   12.36
   0  -4  -9   29.07    2.64
   0   4   9   31.05    3.93
   0   4   9   31.72    4.65
   0  -4  -9   35.52    4.55
   0   4   9   31.63    2.84
   0   4  -9   31.60    4.37
   0   4 -10    0.42    2.37
   0  -4 -10    2.27    2.10
   0  -4 -10    0.31    0.89
   0   4  10    1.66    2.69
   0   4  10   -0.20    1.36
   0   4  10   -3.84    3.05
   0   4  11  107.85    8.16
   0  -4 -11  101.03    5.41
   0   4  11  101.46    5.70
   0  -4 -11  114.21    8.13
   0   4 -11  121.64    8.14
   0   4  11   99.68    6.53
   0   4  12    1.09    2.53
   0   4  12    3.68    2.08
   0   4 -12    0.24    2.67
   0  -4 -12    0.39    2.65
   0  -4  12    6.48    3.09
   0   4  12   -1.92    3.12
   0   4  13    3.70    2.06
   0   4  13   -1.93    3.38
   0   4 -13    6.97    3.19
   0   4  13   -2.79    2.79
   0  -4  13   -0.85    3.51
   0   4  14  198.48   12.02
   0   4  14  193.28    8.97
   0   4 -14  191.85   11.62
   0  -4  14  195.15   11.57
   0  -4  14  192.22    8.65
   0   4  15  111.78    9.36
   0  -4  15  107.20    6.45
   0   4  15  109.92    7.16
   0   4 -15  109.34    9.06
   0  -4  15  116.05    9.41
   0  -4  16  222.32   13.44
   0   4  16  242.29   10.85
   0   4  16  226.61   13.73
   0   4 -16  204.73   12.93
   0  -4  16  231.99    9.48
   0  -4  17  725.38   24.55
   0   4  17  738.96   25.15
   0  -4  17  730.13   16.78
   0   4  17  737.94   19.67
   0  -4  18 1842.90   39.40
   0   4  18 1812.93   40.22
   0  -4  18 1756.56   25.58
   0   4  18 1745.83   31.12
   0   4  19  515.36   17.85
   0  -4  19  530.09   22.55
   0   4  19  535.02   23.26
   0  -4  19  523.37   13.91
   0  -4  20   16.91    5.32
   0   4  20   23.66    5.09
   0   4  20   17.08    5.48
   0  -4  21   54.53    7.69
   0   4  21   59.30    6.77
   0   4  21   58.74    7.90
   0   4  22    8.50    3.83
   0   4  22   -0.94    3.78
   0  -4  22   -0.60    3.70
   0   4  23  121.36   10.08
   0  -4  23  132.08   12.26
   0   4  23  122.68   12.34
   0   4  24  387.16   22.06
   0  -4  24  377.48   21.52
   0   4  24  388.76   17.90
   0  -4  25  180.32   15.53
   0   4  25  166.02   12.31
   0   4  25  164.70   15.08
   0   4  26    9.90    3.97
   0  -4  26   16.87    6.21
   0   4  27   -2.02    4.91
   0  -4  27    4.34    5.28
   0  -5   0   16.80    4.18
   0   5   0    5.19    1.85
   0  -5   1   -0.04    1.13
   0  -5  -1    3.03    3.03
   0  -5   1   -0.66    2.47
   0   5   1   -2.16    1.40
   0   5  -1    0.05    1.11
   0   5   2    4.89    3.15
   0   5  -2    1.42    1.34
   0   5   2    1.29    1.29
   0  -5  -2    0.65    2.35
   0  -5   2   -0.93    1.25
   0  -5  -3   -0.38    2.70
   0   5  -3    2.28    1.47
   0  -5   3    2.56    1.43
   0   5   3    3.36    3.39
   0  -5  -4    0.37    0.71
   0  -5   4    1.30    1.41
   0  -5  -4   -1.82    2.83
   0   5  -4    0.54    1.28
   0   5   4   -0.39    2.52
   0   5  -5    0.11    1.43
   0  -5   5    0.33    1.18
   0  -5  -5    1.98    2.11
   0  -5  -5    0.57    0.68
   0   5   5   -3.75    3.25
   0  -5   6    0.40    1.28
   0  -5  -6    3.39    2.68
   0  -5  -6   -0.01    0.71
   0   5   6   -3.37    3.57
   0   5  -6    1.22    1.60
   0  -5  -7   -0.98    0.87
   0   5  -7   -4.66    2.19
   0   5   7   -3.90    3.23
   0  -5  -7   -0.58    2.60
   0  -5  -7    1.32    2.26
   0   5   8    2.65    2.92
   0  -5  -8    0.46    0.72
   0   5  -8   -0.10    1.94
   0  -5  -8    0.07    2.45
   0   5   8   -0.58    1.08
   0   5   8    2.22    3.31
   0  -5  -8   -0.38    2.42
   0   5   9    2.61    3.07
   0  -5  -9    0.41    0.88
   0   5   9    2.69    2.58
   0  -5  -9   -0.91    2.59
   0   5   9    0.63    1.14
   0   5  -9   -0.72    1.93
   0  -5  -9   -1.84    2.57
   0   5  10   -0.32    1.19
   0  -5 -10    0.00    2.48
   0   5  10    1.49    2.75
   0   5 -10   -0.98    2.16
   0  -5 -10    0.03    0.73
   0   5  10    6.68    3.42
   0  -5 -11    1.58    2.67
   0   5  11   -2.08    2.57
   0   5  11    1.22    1.47
   0   5 -11   -0.95    2.66
   0   5  11    1.83    2.97
   0  -5 -11    0.35    0.79
   0   5  12    0.66    2.50
   0   5  12    2.69    3.23
   0  -5  12   -4.30    3.29
   0  -5 -12   -5.23    3.25
   0   5 -12   -0.96    2.40
   0   5  12    1.69    1.53
   0  -5  13    1.00    3.11
   0   5  13    0.58    1.70
   0   5 -13   -0.80    2.89
   0   5  13   -0.56    3.12
   0  -5 -13   -0.37    2.69
   0   5  13   -2.10    3.17
   0   5  14   -3.25    3.77
   0   5  14   -0.46    2.22
   0  -5  14   -7.33    4.37
   0   5 -14   -5.98    3.68
   0   5  14    3.96    3.31
   0   5 -15    1.72    3.22
   0   5  15   -0.17    2.05
   0  -5  15   -3.57    4.00
   0   5  15   -5.29    4.02
   0   5  15   -1.05    3.91
   0   5  16   -6.17    3.86
   0   5 -16    2.20    3.21
   0  -5  16    2.54    2.29
   0   5  16    1.04    2.05
   0  -5  16   -2.85    3.27
   0   5  16   -6.33    4.83
   0   5 -17    2.29    3.93
   0   5  17   -2.87    3.48
   0   5  17    6.21    3.00
   0  -5  17    1.41    3.73
   0  -5  17   -0.32    1.76
   0   5  17   -8.16    4.60
   0   5  18   -1.46    3.16
   0  -5  18   -1.14    1.67
   0   5  18    1.54    2.76
   0  -5  18    2.84    4.14
   0   5  18   -4.03    3.97
   0  -5  19   -3.01    3.56
   0   5  19   -8.75    4.54
   0   5  19   -4.25    4.30
   0   5  19   -1.56    2.03
   0  -5  19    3.49    2.27
   0   5  20   -3.81    4.13
   0   5  20    2.11    2.44
   0   5  20   -0.87    3.91
   0  -5  20    2.83    3.93
   0   5  21    0.56    4.18
   0  -5  21   -1.20    3.86
   0   5  21   -3.43    3.62
   0   5  21    2.66    2.76
   0   5  22    4.36    2.81
   0  -5  22    3.88    3.91
   0   5  22   -5.71    4.86
   0   5  22   -2.76    4.03
   0   5  23   -9.87    5.11
   0   5  23   -7.44    5.35
   0  -5  23    4.08    4.64
   0   5  24   -6.31    4.06
   0  -5  24   -1.41    3.13
   0  -5  25    3.26    3.78
   0   5  25   -1.64    4.39
   0   5  26   -0.41    4.19
   0  -5  26    7.39    5.71
   0   5  27   -9.92    6.36
   0   6   0   32.71    2.74
   0  -6   0   40.53    5.63
   0  -6  -1 4193.93   45.43
   0   6   1 4168.50   29.18
   0  -6   1 4119.90   45.09
   0   6  -1 4122.60   30.97
   0  -6   2 1534.47   19.83
   0  -6  -2 1484.05   27.43
   0   6   2 1517.15   17.62
   0  -6   2 1504.68   27.48
   0   6  -2 1553.20   19.92
   0  -6   3  284.70    8.97
   0   6  -3  283.16    9.02
   0   6   3  291.31   12.81
   0   6   3  282.49    7.82
   0  -6  -3  266.58   11.64
   0  -6  -4  679.26   18.84
   0   6  -4  701.08   14.80
   0   6   4  740.52   20.18
   0  -6   4  752.22   15.17
   0  -6  -4  710.39   10.94
   0   6  -5   29.32    3.46
   0  -6  -5   26.65    2.10
   0  -6  -5   30.21    4.69
   0  -6   5   31.04    3.41
   0   6   5   23.24    4.66
   0   6  -6    2.18    1.64
   0   6   6    3.45    3.04
   0  -6  -6    3.97    1.01
   0  -6  -6    3.07    2.76
   0  -6  -7  350.65    7.33
   0  -6  -7  344.49   14.16
   0  -6  -7  346.31   14.37
   0   6  -7  360.68   12.26
   0   6   7  377.83   15.05
   0  -6  -8   82.99    7.31
   0   6   8   84.01    7.42
   0   6  -8   83.36    6.29
   0  -6  -8   86.41    7.51
   0  -6  -8   83.43    3.72
   0   6   9   34.13    5.14
   0  -6  -9   41.32    5.31
   0  -6  -9   30.60    4.88
   0   6  -9   42.36    4.80
   0   6   9   57.23    6.32
   0  -6  -9   42.06    2.80
   0  -6 -10   62.61    6.65
   0  -6 -10   55.81    6.40
   0   6  10   61.67    7.25
   0   6  10   63.66    6.65
   0  -6 -10   60.09    3.49
   0   6 -10   59.53    5.92
   0   6  11   13.23    4.41
   0   6  11    3.15    1.66
   0  -6 -11    2.08    1.06
   0   6  11    9.03    5.39
   0   6 -11    0.04    3.10
   0  -6 -11    7.89    4.09
   0   6  12 3820.99   46.64
   0   6 -12 3857.44   49.61
   0  -6  12 3894.96   51.46
   0   6  12 3844.73   53.87
   0  -6 -12 3975.39   53.06
   0   6  12 3849.69   32.41
   0   6  13    2.87    2.17
   0   6  13   16.13    6.06
   0  -6 -13    4.25    3.56
   0   6  13    7.72    4.14
   0   6 -13    4.29    4.65
   0  -6  13    7.45    6.86
   0   6  14  356.80   11.21
   0   6  14  351.27   17.23
   0  -6 -14  373.77   17.20
   0  -6  14  356.32   16.94
   0   6 -14  378.91   16.56
   0   6  14  366.03   15.28
   0   6  15  608.71   15.19
   0  -6  15  590.59   21.64
   0   6 -15  610.17   21.62
   0   6  15  629.85   19.92
   0   6  15  606.38   23.08
   0  -6 -15  596.85   22.19
   0   6  16   70.72    8.49
   0   6 -16   65.41    7.98
   0   6  16   65.11    5.38
   0  -6  16   69.28    8.40
   0   6  16   66.35    7.30
   0   6  17   83.84    8.07
   0   6 -17   85.64    9.22
   0  -6  17   80.00    6.84
   0  -6  17   86.17    9.56
   0   6  17   75.17    5.98
   0   6  17   80.11    9.53
   0   6  18  650.69   21.69
   0  -6  18  646.91   25.06
   0   6  18  656.96   17.81
   0   6  18  668.90   25.85
   0  -6  18  631.93   19.01
   0   6 -18  691.16   25.19
   0  -6  19  428.93   20.81
   0  -6  19  380.38   14.60
   0   6  19  399.79   17.57
   0   6  19  372.91   19.99
   0   6  20   86.78   10.83
   0   6  20   82.89    8.53
   0  -6  20   92.92   10.73
   0   6  21  512.99   24.54
   0  -6  21  533.02   24.54
   0   6  21  550.92   21.31
   0   6  22  390.23   18.19
   0  -6  22  355.50   20.73
   0   6  22  397.48   22.21
   0  -6  23   23.14    6.64
   0   6  23   22.43    6.68
   0  -6  24   72.41   10.23
   0   6  24   83.06   11.22
   0   6  25  218.23   17.78
   0  -6  25  232.88   17.91
   0   6  26  307.27   21.30
   0  -6  26  269.56   20.09
   0   7   0   -0.24    1.24
   0  -7   0    0.92    3.20
   0  -7   1    3.25    3.04
   0  -7  -1    7.13    3.74
   0   7   1    0.11    1.32
   0   7  -1    1.53    1.44
   0   7   2    2.31    1.60
   0  -7   2    4.53    1.83
   0  -7  -2    0.15    3.13
   0  -7   3    3.46    3.26
   0  -7  -3   -0.22    2.77
   0   7   3    0.50    1.39
   0   7  -3    0.66    1.74
   0  -7   3    1.57    1.49
   0   7   4    0.23    1.44
   0  -7  -4   -1.03    2.98
   0  -7  -4    0.10    0.85
   0  -7   4   -0.94    1.51
   0   7  -4   -0.94    1.43
   0  -7  -5    0.03    2.99
   0   7   5    1.46    1.80
   0  -7  -5    0.73    0.83
   0   7   5   -0.45    3.20
   0   7  -5    0.08    1.57
   0   7   6    5.33    4.22
   0  -7  -6    0.81    0.81
   0   7  -6   -0.69    1.94
   0  -7  -6    1.64    3.39
   0  -7  -7    2.51    3.04
   0  -7  -7    0.42    0.60
   0   7   7   -2.97    3.60
   0   7  -7    1.68    1.89
   0   7   8   -3.52    3.49
   0  -7  -8    1.40    2.86
   0  -7  -8    0.01    2.76
   0  -7  -8   -0.26    0.60
   0   7  -8   -0.26    1.97
   0   7  -9    0.52    2.17
   0   7   9   -0.36    3.77
   0  -7  -9    0.73    0.63
   0  -7  -9   -6.62    4.11
   0  -7  -9   -0.29    3.06
   0  -7 -10    0.43    3.05
   0   7  10   -1.40    4.06
   0  -7 -10    0.76    0.76
   0  -7 -10   -2.66    3.36
   0   7 -10    1.12    2.30
   0  -7 -11    0.55    3.09
   0   7  11   -2.50    4.27
   0   7 -11    1.78    3.05
   0  -7 -11    0.29    0.78
   0  -7 -11   -0.35    2.85
   0   7  12   -4.08    5.07
   0  -7 -12   -0.61    3.13
   0  -7  12   -2.91    3.71
   0   7 -12    1.39    3.13
   0   7  13    2.73    4.07
   0  -7  13   -2.36    3.86
   0  -7 -13    1.06    3.36
   0   7  13    8.06    4.17
   0   7 -13   -0.86    2.98
   0  -7 -14   -1.85    3.84
   0   7  14    1.04    3.54
   0   7 -14   -0.59    3.32
   0   7  14    2.34    1.74
   0  -7  14   -5.48    4.19
   0   7  14    3.94    3.93
   0  -7  15   -0.79    3.92
   0   7  15    4.72    3.62
   0  -7 -15   -3.75    3.80
   0   7  15    1.97    3.76
   0   7 -15    4.64    3.49
   0   7 -16   -1.19    2.78
   0  -7  16   -3.02    3.29
   0   7  16    1.36    2.91
   0   7  16    0.72    3.60
   0  -7 -16    2.87    2.76
   0   7  17    0.45    3.00
   0   7  17    1.75    4.30
   0  -7  17   -1.34    3.47
   0   7 -17    1.26    3.43
   0  -7  18    1.98    3.47
   0  -7  18   -0.03    1.90
   0   7 -18    5.25    4.26
   0   7  18   -0.80    3.99
   0   7  18    2.14    3.53
   0  -7  19    2.13    2.33
   0   7  19   -0.85    3.64
   0   7  19   -0.98    3.19
   0  -7  19    1.66    3.48
   0   7  20   -3.79    4.84
   0  -7  20   -1.15    4.38
   0   7  20   -1.05    3.44
   0   7  21    1.13    2.87
   0  -7  21   -1.54    4.37
   0   7  21   -2.44    4.29
   0  -7  22   -0.32    3.82
   0   7  22    0.70    3.73
   0  -7  23    5.53    4.35
   0   7  23    5.23    4.39
   0   7  24    3.75    4.59
   0  -7  24    4.04    3.98
   0   7  25    6.20    4.75
   0  -7  25   -4.41    4.95
   0  -8   0  484.21   18.26
   0   8   0  501.59   11.90
   0  -8  -1   22.01    4.46
   0  -8   1   30.41    5.56
   0   8  -1   19.81    2.68
   0   8   1   24.35    2.64
   0  -8   2   49.09    6.17
   0   8  -2   47.27    4.04
   0   8   2   46.66    3.61
   0  -8  -2   38.38    5.73
   0  -8   3    7.45    2.00
   0  -8  -3    1.11    3.00
   0  -8   3    4.64    3.15
   0   8   3    6.36    1.92
   0   8  -3    3.89    1.74
   0   8   4  216.39    7.77
   0  -8  -4  221.43    7.15
   0  -8  -4  214.69   12.45
   0  -8   4  220.21   12.79
   0   8  -4  233.55    9.35
   0  -8  -5   82.77    4.18
   0   8   5   76.04    4.85
   0   8   5   87.10    8.84
   0   8  -5   80.62    5.96
   0  -8  -5   81.23    8.06
   0   8   6  273.47    9.42
   0   8  -6  283.58   11.20
   0  -8  -6  293.68   14.87
   0  -8  -6  258.61    6.88
   0   8   6  268.05   14.72
   0   8   7 1309.18   31.93
   0   8  -7 1315.15   24.99
   0  -8  -7 1377.91   31.86
   0  -8  -7 1302.07   14.53
   0   8   8  589.49   21.81
   0  -8  -8  592.61   21.55
   0  -8  -8  550.25    9.09
   0  -8  -8  565.11   20.90
   0   8  -8  579.48   17.38
   0  -8  -9  216.30   13.42
   0  -8  -9  210.45   12.95
   0   8   9  224.94   13.79
   0   8  -9  206.21   10.99
   0  -8 -10  197.03   13.08
   0   8  10  194.49   13.19
   0   8 -10  189.60   11.11
   0  -8 -10  191.52   12.86
   0   8  11 1692.47   38.16
   0   8 -11 1611.10   32.73
   0  -8 -11 1655.95   37.42
   0  -8 -11 1677.07   37.40
   0  -8 -12   20.52    5.13
   0  -8  12   20.67    4.80
   0  -8 -12   24.81    5.48
   0   8 -12   34.14    5.83
   0   8  12   33.39    6.32
   0   8 -13  205.94   12.62
   0   8  13  196.02   13.81
   0  -8  13  206.61   13.07
   0  -8 -13  203.91   13.84
   0   8 -14  273.80   14.98
   0  -8 -14  251.45   15.74
   0  -8  14  246.76   14.97
   0   8  14  264.73   16.29
   0  -8 -15 1017.54   31.65
   0   8 -15  983.90   28.61
   0  -8  15  991.33   29.97
   0   8  15  999.65   31.74
   0  -8  16    8.30    6.01
   0   8  16    7.59    6.27
   0   8 -16    5.09    4.16
   0  -8 -16    6.34    4.64
   0   8 -17  840.59   27.98
   0   8  17  873.68   26.69
   0  -8 -17  850.27   30.39
   0  -8  17  836.38   29.44
   0   8  17  920.99   31.80
   0   8  18   94.77   11.64
   0  -8  18   82.48   10.16
   0  -8  18   81.77    8.21
   0   8  18   92.78    9.72
   0   8 -18   77.11    9.34
   0  -8  19  273.82   17.72
   0   8  19  291.39   16.11
   0  -8  19  274.23   14.53
   0   8  19  290.19   19.02
   0   8  20   10.07    4.39
   0   8  20   15.09    6.57
   0  -8  20    0.12    3.86
   0   8  21  275.44   19.30
   0  -8  21  275.84   18.54
   0   8  22   25.74    7.64
   0  -8  22   13.16    5.33
   0   8  23  193.43   17.06
   0  -8  23  180.09   15.88
   0   9   0    1.71    1.51
   0  -9   0    1.28    3.45
   0   9   1    0.36    1.28
   0   9  -1    1.35    1.38
   0  -9  -1    1.43    3.33
   0  -9   1    3.12    3.62
   0  -9  -2    0.80    3.19
   0   9   2   -1.24    1.42
   0   9  -2    2.18    1.78
   0  -9   2   -2.52    3.18
   0   9  -3   -1.67    1.69
   0  -9   3    2.41    3.29
   0   9   3    1.57    1.48
   0  -9  -3    1.38    3.24
   0   9   4    4.72    2.03
   0  -9   4    4.12    4.02
   0  -9  -4   -2.86    3.65
   0   9  -4   -0.73    1.60
   0   9   5   -0.39    1.91
   0  -9  -5    0.20    3.25
   0   9  -5   -1.99    1.87
   0  -9  -6   -0.72    3.18
   0   9   6   -0.19    1.57
   0   9  -6   -0.05    1.86
   0   9  -7   -0.02    2.34
   0   9   7    2.04    4.57
   0   9   7    4.39    2.15
   0  -9  -7    2.97    3.94
   0  -9  -8    6.71    4.10
   0   9   8    4.28    4.04
   0   9  -8    1.06    2.42
   0  -9  -8    3.03    3.20
   0   9   8    3.77    2.50
   0   9   9    6.86    4.66
   0   9  -9    1.18    2.61
   0  -9  -9    1.04    3.32
   0  -9  -9   -0.46    3.54
   0   9 -10   -1.24    2.85
   0  -9 -10    0.99    2.98
   0  -9 -10   -1.39    3.41
   0   9  10    4.88    4.80
   0  -9 -11   -0.44    3.17
   0   9  11   -0.59    3.82
   0  -9  11    0.12    2.96
   0  -9 -11   -1.72    3.28
   0   9 -11    2.29    2.25
   0  -9  12    9.27    4.01
   0   9  12    1.21    4.50
   0   9 -12   -1.33    2.49
   0  -9 -12   -0.24    2.85
   0  -9 -12    2.26    2.96
   0   9  13   -6.47    5.73
   0  -9 -13   -1.61    3.39
   0  -9 -13   -4.68    4.21
   0   9 -13   -0.63    2.68
   0  -9  13   -0.74    3.38
   0  -9 -14   -1.18    3.78
   0   9  14   -5.13    5.46
   0   9 -14   -2.88    2.90
   0  -9  14   -2.17    3.84
   0   9  15   -5.05    4.17
   0  -9  15   -5.95    4.30
   0   9 -15    2.33    3.22
   0  -9 -15   -1.80    3.19
   0  -9 -16   -4.57    4.30
   0   9 -16    1.77    3.38
   0   9  16   -2.09    4.42
   0  -9  16    0.74    3.66
   0  -9  17   -3.01    4.08
   0  -9 -17    5.41    4.10
   0   9 -17    0.39    2.87
   0   9  17   -8.55    5.50
   0   9  18   -5.09    4.49
   0  -9 -18   -0.25    3.44
   0   9 -18    1.58    3.34
   0  -9  18   -3.70    3.73
   0  -9  19   -0.49    2.59
   0  -9  19    3.84    3.96
   0   9  19    0.75    4.44
   0   9  20    4.94    4.85
   0  -9  20    3.42    4.15
   0  -9  21   -1.42    3.55
   0   9  21   -1.92    4.33
   0  -9  22   -1.19    4.41
   0   9  22   -0.67    4.58
   0 -10   0   33.52    6.65
   0  10   0   20.62    2.83
   0 -10  -1   15.14    4.40
   0  10   1   15.53    2.49
   0  10  -1   16.05    2.63
   0 -10   1   15.20    4.63
   0  10  -2   18.27    2.76
   0 -10   2   19.19    5.34
   0 -10  -2   25.46    5.10
   0  10   2   24.56    2.81
   0  10  -3    0.02    1.44
   0 -10   3   -1.32    3.35
   0 -10  -3   -3.34    4.02
   0  10   3   -1.03    1.65
   0  10  -4  335.55   12.15
   0 -10   4  336.56   17.87
   0 -10  -4  354.73   18.06
   0 -10  -5  317.33   17.30
   0 -10   5  302.84   17.12
   0  10  -5  310.90   12.10
   0  10  -6  314.44   12.76
   0 -10   6  308.92   17.29
   0 -10  -6  307.26   17.21
   0 -10  -7   98.91   10.09
   0  10  -7   98.25    7.47
   0 -10   7  105.92   10.75
   0  10   8  855.34   29.37
   0 -10  -8  859.37   28.76
   0 -10  -8  881.85   29.58
   0  10  -8  857.79   22.48
   0  10   9   93.10   10.34
   0 -10  -9   96.59   10.26
   0 -10   9   90.72    8.86
   0 -10  -9   95.38   10.05
   0  10  -9   88.84    7.78
   0  10  10    4.24    4.60
   0 -10 -10    3.09    3.58
   0 -10  10    2.16    2.99
   0  10 -10    2.48    2.71
   0 -10 -10   10.04    4.63
   0 -10 -11  428.67   21.34
   0 -10 -11  423.56   21.39
   0  10 -11  437.01   17.81
   0  10  11  433.52   21.87
   0 -10  11  432.09   19.34
   0 -10 -12  108.92   10.99
   0  10 -12  107.54    9.48
   0 -10  12   96.15    9.58
   0 -10 -12  108.89   11.35
   0  10  12  133.07   12.67
   0 -10 -13   51.03    7.97
   0 -10  13   53.53    7.51
   0  10  13   59.31    8.82
   0 -10 -13   56.29    8.31
   0  10 -13   59.05    7.66
   0  10 -14  368.07   17.84
   0 -10 -14  356.61   20.28
   0  10  14  386.11   21.42
   0 -10  14  353.09   18.68
   0 -10 -15   18.01    4.88
   0  10  15   14.52    5.41
   0  10 -15   15.29    5.21
   0 -10  15    9.47    4.44
   0  10  16   -2.73    4.12
   0 -10  16   -5.12    4.80
   0 -10 -16    0.10    2.95
   0  10 -16   -0.54    2.89
   0 -10 -17    9.27    4.59
   0 -10  17   15.60    5.22
   0  10 -17   14.68    4.51
   0  10  17   10.52    4.52
   0 -10  18  207.12   15.91
   0  10  18  210.75   17.18
   0 -10 -18  196.58   16.37
   0  10  19   21.43    6.84
   0 -10  19   21.23    6.18
   0 -10  19   15.05    4.34
   0 -10  20   -0.99    4.05
   0  10  20    3.42    3.99
   0 -10  21   76.39   10.87
   0 -11   0    1.07    3.46
   0 -11  -1    2.03    3.36
   0 -11   1    1.32    3.05
   0 -11   2   -0.98    3.52
   0 -11  -2   -2.03    4.13
   0 -11  -3   -5.34    4.54
   0 -11   3    3.18    3.83
   0 -11   4    2.09    4.25
   0 -11  -4   -0.12    3.73
   0 -11   5    3.19    4.14
   0 -11  -5    0.08    3.03
   0 -11  -6   -5.10    3.83
   0 -11   6    2.68    4.25
   0 -11   7    3.38    3.77
   0  11  -7    0.10    1.85
   0 -11   7   -1.86    2.95
   0 -11  -7    2.11    3.17
   0 -11  -8    4.88    3.92
   0  11  -8    2.86    2.61
   0 -11  -8   -0.22    3.19
   0 -11   8    2.55    3.56
   0 -11   8    0.95    2.74
   0 -11  -9    7.34    3.84
   0 -11   9   13.92    6.23
   0  11  -9    4.85    3.00
   0 -11   9    4.15    3.09
   0 -11  -9    4.54    4.12
   0 -11 -10    2.26    4.21
   0  11 -10    2.93    2.95
   0 -11 -10    1.53    3.18
   0  11  10    9.81    5.54
   0 -11  10   -3.27    3.41
   0 -11 -11   -3.17    3.55
   0 -11 -11    3.65    3.40
   0  11 -11    3.97    2.81
   0 -11  11    3.06    2.60
   0  11  11    5.25    5.14
   0  11 -12    2.62    2.40
   0 -11  12   -0.72    2.98
   0  11  12    6.56    5.00
   0 -11 -12    2.84    3.65
   0 -11 -12    3.30    3.61
   0 -11 -13   -1.24    2.76
   0  11  13   -2.71    4.33
   0  11 -13   -2.34    2.81
   0 -11  13    3.52    3.43
   0 -11 -13   -4.06    4.34
   0 -11  14   -4.54    3.82
   0  11 -14    3.54    2.97
   0  11  14    0.61    4.05
   0 -11 -14   -5.18    4.35
   0 -11 -14   -0.42    3.52
   0  11 -15    2.47    3.27
   0 -11 -15    0.14    3.76
   0 -11  15   -2.92    3.81
   0  11  15   -2.25    4.67
   0 -11  16   -4.38    3.89
   0 -11 -16    1.58    3.42
   0  11  16   -3.73    5.18
   0  11 -16   -3.48    3.25
   0 -11 -17   -1.70    3.54
   0  11  17    4.41    5.02
   0 -11  17   -5.12    4.33
   0 -11  18    3.58    4.00
   0 -11 -18   -2.93    4.35
   0  11  18    3.68    5.52
   0 -11  19   -1.16    3.07
   0 -11  19   -1.84    4.00
   0 -12   0  279.69   17.98
   0 -12  -1    5.97    3.95
   0 -12   1   -1.91    3.21
   0 -12   2    0.43    4.73
   0 -12  -2   -0.85    3.34
   0 -12   3  170.24   14.17
   0 -12  -3  149.01   13.27
   0 -12   4    9.59    3.51
   0 -12  -4    1.83    3.70
   0 -12   4    8.33    4.69
   0 -12  -5  157.33   13.73
   0 -12   5  153.61   10.49
   0 -12   5  147.35   13.40
   0 -12  -6    3.53    3.39
   0 -12   6    7.56    4.64
   0 -12   6    8.57    3.10
   0 -12  -7   44.68    7.74
   0 -12   7   41.03    6.04
   0 -12   7   59.01    9.04
   0 -12  -8   38.24    7.26
   0 -12  -8   38.67    7.15
   0 -12   8   31.71    5.35
   0 -12   8   49.77    8.54
   0 -12   9   33.30    7.40
   0 -12   9   20.99    5.01
   0 -12  -9   23.96    5.96
   0 -12  -9   25.16    6.69
   0 -12 -10  465.27   24.47
   0 -12  10  443.23   20.29
   0 -12 -10  436.08   23.68
   0 -12  10  439.55   23.87
   0 -12 -11  174.00   15.22
   0 -12 -11  209.11   16.48
   0 -12  11  177.48   13.27
   0 -12  11  189.88   16.14
   0 -12 -12   55.46    8.98
   0 -12  12   59.64    8.18
   0 -12 -12   67.13    9.85
   0  12  13   -2.83    3.98
   0 -12 -13   -0.64    3.98
   0 -12 -13   -1.96    3.67
   0 -12  13   -0.35    3.03
   0 -12 -14   20.44    5.71
   0 -12 -14   23.15    6.18
   0 -12  14   22.98    5.62
   0  12  14   28.21    7.85
   0 -12  15    1.31    3.28
   0 -12 -15    2.12    3.56
   0  12  15   -5.32    4.94
   0 -12 -16    0.78    3.79
   0 -12  16    5.06    4.34
   0 -12  17   12.60    4.73
   0 -12  18   11.50    4.72
   0 -13   0   -1.77    3.58
   0 -13  -1   -2.33    3.30
   0 -13   1   -3.05    3.51
   0 -13  -2   -7.83    4.71
   0 -13   2    3.72    3.64
   0 -13  -3   -2.52    4.65
   0 -13   3   -1.99    3.43
   0 -13  -4    5.49    4.53
   0 -13   4   -3.53    3.93
   0 -13  -5    0.50    3.02
   0 -13   5    6.47    5.16
   0 -13  -6    3.92    3.89
   0 -13   6   -0.09    3.97
   0 -13  -7    0.27    3.73
   0 -13  -7   -5.71    4.21
   0 -13   7   -2.00    3.30
   0 -13   8    3.00    4.42
   0 -13  -8   -0.93    3.46
   0 -13  -8    2.97    4.06
   0 -13   9    1.51    2.80
   0 -13  -9   -1.87    3.59
   0 -13   9    7.06    5.08
   0 -13  -9   -1.27    2.98
   0 -13 -10    2.31    4.38
   0 -13 -10    1.72    3.82
   0 -13  10   -0.36    4.18
   0 -13  10   -3.99    3.39
   0 -13 -11    6.38    3.74
   0 -13 -11    6.38    5.30
   0 -13  11    5.56    3.74
   0 -13  11   10.90    5.65
   0 -13 -12   -0.62    3.73
   0 -13 -12   -5.27    4.99
   0 -13  12   -0.87    2.72
   0 -13  12   -1.67    4.22
   0 -13 -13   -3.06    3.68
   0 -13  13   -3.85    3.78
   0 -13  14   -1.08    3.56
   0 -13  15   -3.21    3.33
   0 -13  16   -2.80    3.73
   0 -14   0   39.68    7.96
   0 -14   1   97.73   11.83
   0 -14  -1   95.15   11.84
   0 -14   2   -2.57    3.96
   0 -14  -2   -2.80    3.96
   0 -14   3   29.69    7.61
   0 -14  -3   18.14    5.37
   0 -14  -4   35.04    7.98
   0 -14   4   32.25    7.24
   0 -14   5    4.32    4.37
   0 -14  -5    0.80    3.44
   0 -14  -6   51.48    9.12
   0 -14   6   77.88   11.36
   0 -14  -7  166.73   15.65
   0 -14  -7  181.98   16.46
   0 -14   7  191.57   17.10
   0 -14  -8  169.85   16.12
  -1   0   3   21.99    2.32
   1   0   3   18.29    2.16
  -1   0   3    1.53    0.99
  -1   0   3    2.35    1.23
   1   0   3    3.48    0.79
  -1   0   4 1772.45   15.37
   1   0   4 1791.19   15.47
   1   0   4 1743.81   17.49
   1   0  -4 1776.32   15.41
   1   0  -4 1770.21   17.90
  -1   0  -4 1774.90   17.54
   1   0   4 1729.87   12.43
  -1   0   4 1735.49   16.72
  -1   0   4 1802.51   17.82
  -1   0   5    1.61    1.87
  -1   0  -5    4.62    1.63
  -1   0   5    3.42    1.41
   1   0  -5    5.35    1.35
   1   0   5    5.40    1.69
   1   0   5    4.41    0.99
   1   0   5    7.28    1.72
   1   0  -5    4.36    1.74
   1   0  -6 3335.25   22.65
  -1   0  -6 3421.73   28.80
  -1   0   6 3382.54   28.48
   1   0  -6 3331.08   28.55
   1   0   6 3416.60   28.75
   1   0   6 3248.99   22.51
   1   0   6 3288.58   22.61
  -1   0   6 3298.80   25.97
   1   0   7    1.07    1.28
   1   0   7    4.15    1.76
  -1   0   7   -1.92    2.23
  -1   0  -7    2.41    1.72
   1   0  -7    1.77    1.00
   1   0  -7    1.66    1.46
   1   0  -8 3383.45   32.36
  -1   0   8 3380.04   32.21
  -1   0  -8 3355.16   32.75
   1   0   8 3409.44   24.57
   1   0   8 3443.24   33.25
   1   0  -8 3307.45   23.74
   1   0  -9    1.86    1.20
  -1   0  -9    0.67    2.12
   1   0  -9   -1.08    1.53
  -1   0 -10    4.69    2.12
   1   0 -10    7.63    1.40
  -1   0  10    9.14    2.83
   1   0  10    8.03    1.49
   1   0 -11    0.03    0.74
   1   0  11    0.75    1.18
  -1   0 -11    0.62    2.25
  -1   0  12 1884.31   29.42
   1   0 -12 1841.95   19.33
  -1   0 -12 1822.77   29.96
   1   0  12 1813.27   19.53
   1   0  12 1750.85   27.49
   1   0 -13    6.27    1.94
   1   0  13   16.75    3.99
  -1   0 -14  871.14   22.34
  -1   0  14  860.65   21.52
   1   0  14  798.91   20.09
   1   0 -14  852.92   13.40
  -1   0 -15   14.94    6.17
   1   0  15    4.21    5.24
  -1   0  16 2309.56   38.26
   1   0  16 2392.35   37.08
  -1   0  17   98.87    9.53
   1   0  17   47.42    6.90
  -1   0  18    0.56    3.25
   1   0  18   -0.05    2.74
   1   0  19    2.15    3.33
  -1   0  19   -0.42    3.95
  -1   0  20  106.58    9.47
   1   0  20  137.55   10.57
  -1   0  21    0.42    3.32
   1   0  21    7.01    3.93
   1   0  22   94.04    9.39
  -1   0  22   75.50    8.80
  -1   0  23   10.38    5.20
   1   0  23    5.68    3.73
   1   0  24  444.01   20.88
  -1   0  24  455.70   21.74
   1   0  25   46.31    8.10
  -1   0  25   24.46    6.95
   1   0  26  648.91   26.58
  -1   0  26  618.12   26.52
   1   0  27   25.80    6.28
  -1   0  27   26.45    6.97
  -1   0  28    7.15    4.43
   1   0  28   12.86    5.20
   1   0  29    0.77    3.53
  -1   0  29   -1.25    4.25
  -1   0  30   48.60    8.80
   1   0  30   44.73    8.18
   1   1   1  500.64    5.72
  -1  -1   2 2842.02   19.69
  -1   1   2 2927.70   19.73
   1   1   2 2980.29   17.83
   1   1   2 2874.61   15.13
  -1   1   3  642.24   10.01
  -1   1  -3  569.30    9.79
   1   1  -3  558.99    9.16
   1   1   3  554.97    7.43
   1  -1  -3  634.27   10.12
  -1  -1   3  561.48    9.06
  -1  -1   3  555.84    9.44
  -1   1   3  671.52   10.78
   1   1   3  544.69    7.87
   1  -1   3  547.22    9.85
   1   1  -3  536.49    9.47
   1   1   3  560.09    8.64
  -1  -1   4  172.40    5.23
   1  -1   4  173.76    6.02
  -1  -1  -4  179.37    3.91
  -1  -1   4  183.38    6.11
   1   1   4  169.91    4.80
   1  -1  -4  180.45    4.91
  -1   1  -4  179.04    5.31
  -1   1   4  176.48    5.57
  -1   1  -4  179.16    6.15
   1  -1  -4  175.66    5.64
  -1  -1  -4  174.93    5.12
  -1  -1  -4  180.25    5.03
   1   1  -4  176.54    5.35
   1   1   4  171.11    5.10
   1   1  -4  172.96    5.92
  -1   1  -5  675.58   10.57
  -1   1  -5  652.79   12.40
   1  -1  -5  705.58   10.18
  -1   1   5  690.63   11.77
   1   1   5  669.78   11.16
   1   1  -5  676.19   10.61
   1   1  -5  692.52   12.63
  -1  -1   5  674.42   10.53
  -1  -1   5  678.40   12.48
  -1  -1  -5  660.00   10.49
  -1  -1  -5  683.00    7.10
  -1   1   5  664.07    9.97
   1  -1   5  697.08   12.91
   1  -1  -5  664.27   11.60
  -1  -1  -5  656.81   10.95
  -1  -1   6  149.34    6.52
   1   1  -6  147.28    6.32
  -1   1  -6  144.98    6.27
  -1  -1   6  140.43    4.99
  -1   1  -6  146.08    5.10
   1   1  -6  153.49    5.28
  -1   1   6  148.29    5.99
   1  -1  -6  151.08    6.00
  -1  -1  -6  151.27    5.93
  -1  -1   6  148.38    6.29
  -1  -1  -6  155.54    5.56
  -1  -1  -6  145.81    3.11
   1   1   6  148.99    5.53
  -1   1   6  152.31    5.11
   1   1   6  143.06    5.75
   1  -1   6  144.37    6.37
   1   1   7  403.78   10.24
   1   1  -7  377.50   10.58
   1  -1   7  423.52   11.52
   1   1  -7  396.24    8.57
  -1   1   7  387.98   10.11
  -1  -1   7  395.46   10.90
   1  -1  -7  409.35   10.39
  -1   1  -7  390.71   11.03
  -1  -1  -7  391.84   10.36
   1   1   7  399.50    9.48
  -1  -1   7  404.20   11.02
  -1   1  -7  393.96    8.49
  -1   1   7  396.82    8.67
  -1  -1   7  397.63    8.58
  -1   1   8  425.13   11.19
   1   1   8  436.50   11.48
  -1  -1   8  439.46   12.22
  -1  -1  -8  429.53   11.53
  -1   1   8  441.23    9.63
  -1  -1   8  435.92    9.25
   1  -1   8  442.44   12.39
   1   1   8  433.20   10.49
   1   1  -8  425.02    9.12
   1  -1  -8  443.47   11.37
  -1  -1   8  426.51   12.10
  -1   1  -8  424.56   12.28
   1   1  -8  446.49   12.13
  -1   1  -8  418.42    9.00
  -1  -1   9  115.04    7.02
  -1  -1  -9  111.04    6.42
  -1   1  -9  107.23    4.71
  -1  -1   9  106.82    4.78
   1  -1  -9  109.24    6.03
   1   1   9  113.70    5.81
   1   1   9  115.60    6.37
   1   1  -9  113.19    4.86
  -1   1   9  112.45    6.24
  -1   1   9  110.02    5.12
  -1   1  -9  101.05    6.49
   1  -1  -9  103.19    4.53
  -1   1  10   34.71    3.15
  -1  -1  10   33.51    2.85
   1   1  10   29.77    3.26
  -1   1  10   29.86    3.77
  -1  -1  10   34.18    4.55
   1   1  10   33.58    3.43
  -1   1 -10   29.95    4.03
  -1  -1 -10   29.40    3.99
   1  -1 -10   31.46    2.59
  -1   1 -10   30.63    2.61
   1   1  11  296.64   10.22
  -1  -1 -11  321.56   11.69
  -1  -1  11  300.22   11.95
  -1   1  11  314.97    9.41
  -1   1  11  295.66   11.05
   1   1  11  300.70   10.34
  -1   1 -11  323.29   12.59
   1  -1  11  285.24    4.66
   1  -1 -11  305.27    7.85
  -1  -1  11  304.03    8.25
  -1   1  12   45.00    5.43
   1   1  12   30.75    2.88
   1  -1 -12   37.71    2.92
  -1   1  12   37.50    3.59
  -1  -1  12   53.20    6.42
  -1  -1 -12   34.15    4.73
   1   1  12   35.61    4.32
  -1   1 -12   38.95    5.13
  -1  -1  12   37.43    3.15
   1   1  13  695.03   17.21
   1   1  13  711.67   13.09
  -1  -1  13  707.00   13.11
  -1   1  13  712.39   18.28
   1  -1 -13  720.94   12.32
  -1   1 -13  728.51   20.12
  -1   1  13  720.09   15.43
  -1  -1  13  729.73   19.66
   1  -1 -14   76.74    4.13
  -1  -1  14  102.86    8.73
  -1   1  14   86.50    7.66
   1   1  14   79.52    4.52
   1  -1  14   86.78    7.90
  -1   1  14   75.37    5.36
   1   1  14   97.18    7.09
  -1   1 -14   77.56    7.51
   1   1  15   92.15    7.20
   1  -1 -15   91.69    4.48
  -1   1  15   90.34    7.50
  -1   1 -15   99.72    8.53
   1   1  15   86.37    4.75
   1  -1  15   97.26    7.84
  -1  -1  15  106.82    8.69
   1  -1  16  185.19   10.98
   1  -1 -16  182.31    6.26
  -1   1  16  218.66   11.70
   1   1  16  197.43   10.62
  -1   1 -16  194.19   12.26
   1   1  16  184.22    6.96
  -1  -1  16  217.65   12.48
   1   1  17 1001.13   24.59
  -1  -1  17 1014.80   26.74
  -1   1  17 1048.18   25.70
   1  -1 -17  997.90   14.52
   1  -1  17  962.23   25.67
   1   1  17  995.35   16.01
  -1   1 -17  981.01   27.10
  -1  -1  18   41.82    7.24
   1  -1  18   24.13    6.93
   1   1  18   36.94    5.52
  -1   1  18   29.16    6.59
   1   1  19   24.77    5.02
  -1   1  19   26.61    5.61
   1  -1  19   21.50    5.41
  -1  -1  19   31.49    6.73
  -1   1  20  572.97   21.30
  -1  -1  20  626.84   22.81
   1  -1  20  592.23   22.01
   1   1  20  619.73   21.45
   1   1  21   37.34    6.31
   1  -1  21   30.00    6.20
  -1  -1  21   28.25    6.14
  -1   1  21   30.34    6.07
  -1  -1  22  139.13   11.96
   1   1  22  167.95   11.99
  -1   1  22  149.43   11.70
   1  -1  22  133.13   11.24
   1  -1  23  146.80   12.20
   1   1  23  133.48   11.06
  -1  -1  23  137.27   12.10
  -1   1  23  123.31   11.28
  -1   1  24    2.81    3.57
  -1  -1  24    4.24    4.14
   1  -1  24   12.85    5.21
   1   1  24    8.75    4.37
  -1   1  25  113.30   11.09
   1  -1  25  103.17   11.09
  -1  -1  25  114.11   11.54
   1   1  25  120.21   11.23
  -1  -1  26  129.35   12.70
   1  -1  26  134.79   12.62
  -1   1  26  117.09   11.80
   1   1  26  109.85   11.05
   1   1  27    8.60    4.20
  -1   1  27   12.02    5.15
  -1  -1  27   -4.11    4.28
   1  -1  27    1.12    4.38
  -1  -1  28   -0.73    3.90
  -1   1  28    3.70    3.57
   1  -1  28    6.64    4.92
   1   1  28   -3.66    4.16
  -1   1  29    3.96    3.88
  -1  -1  29    2.10    4.18
   1  -1  29    3.02    4.36
   1   1  29   -6.05    4.67
   1   1  30   -2.74    3.89
  -1   1  30   -0.25    3.61
   1  -1  30   -5.07    4.49
   1   1  31    8.92    3.86
  -1  -2   0   -0.34    0.75
   1  -2   0    1.28    1.03
  -1  -2   0    2.13    1.82
  -1   2   0    1.61    1.41
  -1   2   0    2.28    1.61
  -1   2   0    3.22    1.58
   1  -2   0    2.29    1.47
   1   2   0    0.96    0.65
   1   2   1  144.62    5.57
   1  -2   1  141.11    4.91
   1  -2   1  137.18    4.98
  -1   2   1  129.35    4.61
  -1  -2   1  146.78    4.19
  -1  -2  -1  122.19    3.96
   1   2  -1  136.12    4.06
  -1  -2   1  107.70    2.73
   1  -2  -1  136.66    5.04
  -1   2  -1  127.48    4.75
  -1  -2  -1  136.16    5.37
  -1  -2  -1  149.69    4.77
   1  -2  -1  141.13    4.94
   1  -2  -1  135.78    4.80
  -1  -2  -1  133.71    4.96
  -1   2   1  136.57    5.14
   1  -2   2  440.10    9.13
   1  -2  -2  446.43    8.38
  -1  -2   2  442.32    6.97
  -1  -2  -2  447.16    6.70
  -1   2   2  453.43    9.56
  -1  -2  -2  445.91    9.01
   1   2   2  452.68    9.15
   1   2  -2  446.67    8.23
   1  -2  -2  428.71    9.02
  -1  -2   2  443.30    8.21
   1   2   2  441.98    9.66
  -1  -2  -2  446.50    9.78
   1  -2  -2  438.97    8.93
  -1   2  -2  448.55    9.07
   1  -2  -2  458.81    9.57
  -1  -2  -2  447.82    8.30
   1   2   2  446.33    8.39
  -1   2   2  453.84    9.05
   1   2   3 8362.26   25.36
   1  -2  -3 8121.97   30.38
  -1   2   3 8593.71   43.93
  -1  -2  -3 8247.21   36.76
   1  -2  -3 8395.08   42.88
  -1   2   3 8458.49   37.21
  -1  -2   3 8097.63   34.69
  -1   2  -3 8539.09   41.72
   1   2  -3 8238.37   39.03
   1   2   3 8416.45   43.14
  -1   2   3 8224.75   42.35
  -1  -2  -3 8435.03   40.74
   1  -2   3 8274.14   41.48
   1  -2  -3 8517.61   41.86
   1  -2  -3 8251.75   41.95
   1   2   3 8383.63   40.77
  -1  -2  -3 8404.19   26.93
   1   2   3 8168.52   26.98
   1  -2  -3 8371.06   37.31
   1   2   3 8474.55   37.62
  -1  -2   3 8252.97   38.79
   1   2  -4  370.98    9.14
   1   2   4  375.81    6.97
   1  -2  -4  381.38    9.69
   1  -2  -4  387.20    9.81
   1   2   4  384.53    8.48
  -1  -2  -4  371.54    8.23
   1  -2  -4  363.52    6.57
  -1   2   4  367.91    9.70
   1  -2   4  382.30    9.47
   1   2   4  383.36    9.35
  -1  -2  -4  387.24    9.31
  -1   2   4  389.91    6.74
  -1   2   4  377.54    8.33
  -1  -2   4  383.91    8.64
  -1  -2   4  373.25    9.60
   1  -2  -4  380.64    8.28
  -1   2   4  368.90    9.61
  -1  -2  -4  419.95    7.38
  -1   2   4  364.51    9.38
  -1  -2   4  373.17    8.87
  -1   2  -4  386.48    9.55
  -1   2   5 7465.92   44.59
  -1  -2   5 7282.08   39.51
   1  -2  -5 7483.60   45.14
  -1   2   5 7568.10   45.99
   1   2   5 7431.06   35.15
  -1  -2  -5 7599.00   35.14
  -1   2   5 7596.42   30.91
  -1  -2   5 7355.54   42.91
   1   2  -5 7255.26   43.10
  -1   2  -5 7503.27   44.57
  -1  -2   5 7655.91   41.85
  -1   2   5 7141.80   37.67
   1   2   5 7330.97   42.43
   1   2   5 7381.19   39.05
   1  -2   5 7419.44   44.50
  -1   2   5 7513.48   45.41
  -1  -2  -5 7506.20   39.24
   1  -2  -5 7533.61   38.63
   1  -2  -6 1089.87   15.59
   1   2   6 1102.74   15.09
  -1   2   6 1149.14   18.87
   1  -2  -6 1096.61   12.66
  -1   2   6 1093.24   15.69
   1   2   6 1081.40   11.87
  -1   2   6 1149.15   18.72
   1   2   6 1118.59   17.66
  -1  -2  -6 1100.65   15.08
  -1  -2   6 1173.36   18.75
   1   2  -6 1084.62   17.99
   1  -2   6 1080.21   18.05
  -1   2   6 1132.72   12.78
  -1  -2   6 1123.16   17.45
  -1  -2  -6 1112.81   16.84
  -1  -2   6 1085.05   15.60
  -1   2  -6 1089.10   18.02
   1   2   6 1112.29   16.16
   1   2   7  398.96   11.26
   1   2   7  403.19   10.04
   1   2   7  402.43   10.33
  -1  -2   7  395.61    9.62
  -1  -2   7  422.85   11.85
  -1  -2  -7  390.04   10.48
  -1   2  -7  394.81   11.48
  -1  -2   7  411.70   11.24
   1  -2  -7  378.07    7.79
   1  -2   7  391.59   11.57
  -1   2   7  404.65   11.72
  -1   2   7  389.01   11.61
   1   2   7  388.47    8.10
  -1   2   7  392.20   10.08
   1  -2  -7  387.48   10.02
  -1   2   8   92.66    5.30
  -1  -2   8   97.42    4.95
   1   2   8   99.98    5.41
   1  -2  -8   93.62    5.31
  -1   2  -8   95.08    6.16
  -1  -2   8  116.01    7.01
   1   2   8   98.86    5.53
  -1  -2   8   98.92    5.93
   1   2   8   89.86    4.32
  -1  -2  -8   96.64    5.76
   1   2   9  598.74   13.96
  -1   2   9  569.98   13.44
  -1  -2   9  624.09   16.17
  -1   2  -9  560.67   15.35
   1   2   9  603.67   14.31
   1  -2  -9  574.37   13.46
  -1  -2   9  578.52   12.08
   1   2   9  607.14   14.18
   1   2   9  544.24   11.66
  -1  -2  -9  594.60   14.24
  -1   2  -9  564.82   11.60
  -1  -2  10 2880.03   35.43
   1   2  10 2757.83   27.40
  -1   2  10 2818.99   24.33
  -1  -2  10 2758.32   26.77
  -1   2  10 2798.20   31.12
   1  -2 -10 2826.34   30.90
  -1   2 -10 2828.05   26.23
  -1   2 -10 2789.53   35.51
  -1  -2  11  188.49    7.18
  -1   2 -11  183.55    6.79
  -1   2  11  193.92    8.64
  -1   2  11  186.47    6.66
   1   2  11  209.89    8.57
  -1   2 -11  180.91    9.77
  -1   2 -12   40.28    3.33
  -1  -2  12   56.77    6.70
  -1  -2  12   38.11    3.41
   1   2  12   59.41    5.05
  -1   2 -12   39.96    5.18
  -1   2  12   41.37    3.39
  -1   2  12   47.88    4.96
  -1   2 -13  781.75   21.34
   1  -2 -13  755.45   13.68
  -1  -2  13  779.53   20.83
  -1   2 -13  784.89   14.34
   1  -2  13  740.33   10.95
  -1   2  13  785.10   14.71
   1   2 -13  688.62    7.93
  -1   2  13  747.07   18.35
   1   2  13  759.45   17.29
  -1  -2  13  751.74   14.64
   1   2  14   94.81    6.87
  -1   2  14   82.58    7.26
  -1   2 -14   86.94    7.92
   1  -2 -14   80.29    4.53
   1  -2  14   76.43    3.53
  -1   2 -14   79.32    4.63
  -1  -2  14   97.93    8.77
  -1   2  14   80.52    5.09
  -1  -2  14   82.09    5.09
   1  -2  15  542.83   18.71
   1  -2  15  580.67    9.21
   1   2  15  590.35   16.70
  -1   2  15  601.81   14.08
  -1  -2  15  640.11   20.47
  -1   2 -15  634.32   20.67
  -1   2  15  618.55   18.23
   1  -2 -15  561.14   11.80
  -1  -2  15  609.11   13.50
  -1   2  16  188.28   10.60
   1  -2  16  187.00   11.51
   1  -2 -16  186.99    6.77
  -1   2  16  186.06    8.16
   1  -2  16  181.02    4.91
  -1   2 -16  212.66   12.67
   1   2  16  181.53    7.43
   1   2  16  209.51   10.59
  -1  -2  16  222.73   12.94
  -1  -2  16  189.35    7.68
   1  -2  17   90.76    3.18
  -1  -2  17  114.71    9.61
  -1  -2  17   99.69    5.61
   1   2  17  108.25    8.09
   1   2  17  103.64    5.69
  -1   2  17  103.65    8.27
  -1   2 -17  101.90    9.57
   1  -2  17   92.79    8.58
   1  -2 -17  102.61    5.00
  -1   2 -18   21.65    5.99
  -1  -2  18   22.45    5.51
   1   2  18   20.56    4.86
   1  -2  18   18.38    4.57
  -1   2  18   21.44    4.78
   1   2  18   15.74    2.45
  -1   2  19  103.35    9.63
   1   2  19   91.07    5.33
   1   2  19  121.11    9.58
   1  -2  19   80.26    9.23
  -1  -2  19  102.03   10.24
  -1   2  20 1305.21   31.19
   1   2  20 1353.06   30.35
  -1  -2  20 1321.57   34.07
   1  -2  20 1380.82   34.21
  -1   2  21  134.66   11.27
  -1  -2  21  136.85   12.55
   1  -2  21  131.89   11.57
   1   2  21  147.35   10.91
  -1   2  22   63.62    8.03
   1  -2  22   57.24    7.95
  -1  -2  22   70.01    9.04
   1   2  22   65.14    7.64
   1  -2  23  127.97   11.69
  -1  -2  23  127.51   11.90
   1   2  23  128.58   10.77
  -1   2  23  129.05   11.07
  -1  -2  24   53.07    8.37
   1   2  24   50.12    7.16
   1  -2  24   44.33    7.60
  -1   2  24   53.25    7.79
   1   2  25    6.28    3.92
  -1  -2  25   -2.88    5.03
   1  -2  25    9.82    4.48
  -1   2  25   10.00    4.85
   1   2  26   83.85    9.40
  -1  -2  26   97.18   11.33
   1  -2  26   98.90   11.24
  -1   2  26   92.94   10.32
   1  -2  27  184.59   15.67
   1   2  27  173.93   13.74
  -1   2  27  192.18   14.94
  -1  -2  27  200.08   16.25
   1   2  28   16.93    5.18
  -1   2  28   17.23    5.76
  -1  -2  28    3.72    4.32
   1  -2  28   17.80    5.95
   1   2  29   16.40    5.68
   1  -2  29   23.17    7.09
  -1   2  29   14.44    5.83
  -1  -2  29   14.74    5.62
  -1   2  30  119.08   12.85
  -1   2  31   67.66    9.95
  -1   3   0    2.80    1.77
   1  -3   0    1.62    1.29
   1  -3   0   -0.46    1.96
  -1  -3   0    6.87    2.86
  -1  -3   0    1.42    0.95
  -1   3   0    2.08    1.84
  -1   3   1 1959.59   21.66
   1  -3  -1 1942.23   21.61
   1  -3   1 1922.95   20.28
  -1  -3   1 1936.80   16.51
  -1   3  -1 1915.38   19.82
  -1  -3  -1 1951.51   23.16
  -1   3   1 1979.58   22.61
  -1   3   1 1942.36   19.69
  -1  -3  -1 1966.89   21.14
   1  -3  -1 1989.82   22.59
  -1  -3  -1 1946.99   11.62
   1  -3   1 1952.60   21.88
  -1  -3  -1 1985.71   22.35
   1  -3   1 1948.35   21.10
   1   3   2  419.79    9.96
  -1   3  -2  408.02    9.51
  -1  -3  -2  405.87   10.76
   1   3   2  419.53   10.56
  -1  -3   2  409.50    8.59
   1  -3   2  413.98    9.65
  -1   3   2  383.73    9.93
   1   3   2  424.56   11.00
  -1  -3  -2  399.21   10.19
   1  -3  -2  423.31   10.34
  -1  -3   2  398.07    6.80
  -1   3   2  402.18   10.57
   1  -3  -2  398.51   10.30
  -1  -3  -2  409.03    9.78
   1   3  -2  419.21    6.97
  -1  -3  -3 2833.41   28.63
  -1  -3   3 2742.08   20.64
   1  -3  -3 2684.46   27.35
  -1   3  -3 2749.04   25.68
   1   3   3 2836.19   26.13
   1  -3   3 2757.80   25.90
  -1  -3  -3 2756.22   25.68
   1   3  -3 2736.89   20.52
   1   3   3 2723.55   27.16
   1  -3  -3 2795.76   28.09
   1   3   3 2792.99   28.14
  -1   3   3 2747.03   27.11
  -1  -3  -3 2702.53   17.56
   1   3   3 2736.06   14.25
   1  -3  -3 2720.26   22.60
  -1   3   3 2828.16   28.58
   1  -3  -3 2808.71   22.99
   1  -3  -3 2813.03   27.55
  -1  -3  -3 2826.48   27.68
  -1  -3   3 2767.40   24.22
   1  -3  -4  324.14    7.96
  -1  -3  -4  317.27    9.14
  -1  -3  -4  322.79    9.66
  -1   3   4  335.46   10.21
   1   3   4  322.91    9.18
   1  -3  -4  325.76    9.84
  -1   3  -4  343.44    9.69
   1  -3  -4  327.17    9.99
  -1  -3   4  345.05    9.60
   1   3   4  320.45    9.74
  -1  -3  -4  316.79    5.31
  -1   3   4  319.18    9.82
   1   3   4  321.53    6.16
   1  -3  -4  316.22    7.84
   1  -3   4  337.13    9.55
   1   3  -4  342.62    8.32
   1  -3  -4  328.03   10.21
  -1   3   4  328.07    8.04
  -1  -3   4  325.51    8.02
   1   3   4  325.21   10.04
  -1  -3   5  877.25   15.80
  -1   3  -5  897.31   16.31
   1  -3  -5  866.12   13.04
   1  -3  -5  921.02   17.63
   1  -3  -5  856.14   13.33
   1   3   5  871.87   16.81
  -1   3   5  942.40   17.84
   1  -3   5  880.84   16.21
   1   3   5  879.15   11.75
  -1  -3   5  895.13   14.45
  -1   3   5  867.61   16.81
   1   3   5  878.17   16.73
  -1   3   5  880.28   13.61
  -1  -3  -5  916.65   16.93
   1   3   5  911.38   15.85
  -1  -3  -5  866.71   15.28
   1  -3  -5  870.96   17.03
  -1   3  -6  578.69   13.72
  -1   3   6  583.95   14.54
  -1  -3  -6  553.31   13.72
  -1   3   6  546.29   10.61
  -1   3   6  543.86   13.90
  -1   3   6  571.04   14.35
   1  -3  -6  560.45   14.27
   1   3   6  559.53   13.84
  -1  -3  -6  563.25   12.86
   1   3   6  550.00   12.68
  -1   3   6  538.59   11.17
  -1  -3   6  558.81   13.42
   1  -3  -6  561.88   11.23
   1  -3  -6  535.54   14.05
   1  -3   6  554.14   13.51
   1   3   6  550.92   10.42
   1   3   6  540.56    6.97
   1   3   6  570.89   13.94
  -1  -3   6  559.98   12.41
  -1  -3  -7   61.66    4.62
   1   3   7   63.78    4.06
   1  -3  -7   64.88    5.38
   1   3   7   67.79    5.25
  -1   3  -7   60.86    5.04
   1  -3  -7   62.31    3.12
  -1  -3  -7   61.68    4.97
   1   3   7   67.71    4.83
  -1   3   7   65.21    5.22
  -1   3   7   64.16    4.02
   1   3   7   68.97    3.13
  -1   3   7   66.79    4.36
   1  -3  -7   65.01    4.12
  -1  -3   7   87.60    6.40
  -1  -3   7   63.39    4.65
  -1  -3   8 2844.03   33.37
  -1   3   8 2893.27   28.20
   1  -3  -8 2898.70   21.11
  -1   3  -8 2949.63   34.06
  -1   3   8 2875.38   34.97
   1  -3  -8 2883.94   34.78
  -1  -3  -8 2849.44   32.25
   1   3   8 2816.38   21.52
   1   3   8 2905.17   33.83
   1   3   8 2947.27   28.38
  -1   3   8 2946.42   26.31
   1  -3  -8 2836.47   27.86
   1   3   8 3043.41   32.38
  -1  -3   8 2846.25   29.45
  -1   3   9  262.84    8.26
   1  -3  -9  265.64    9.08
  -1  -3  -9  247.49   10.04
   1   3   9  262.16   10.80
   1   3   9  273.41    9.38
  -1   3   9  275.03   11.38
   1   3   9  287.17    7.70
  -1   3  -9  254.77   10.89
  -1  -3   9  309.05   12.37
  -1   3   9  270.74    9.03
  -1  -3   9  258.22    9.06
   1   3  10  680.42   12.68
   1   3  10  693.93   15.77
  -1  -3  10  705.28   18.30
  -1   3  10  663.29   14.89
   1  -3 -10  659.82   14.90
  -1   3  10  678.41   13.84
  -1   3 -10  652.00   17.78
  -1  -3  10  665.02   14.62
  -1  -3 -10  652.45   16.74
   1   3  10  672.73   17.80
  -1  -3  11   95.65    7.83
  -1   3  11   80.88    5.71
  -1  -3  11   76.51    5.19
  -1  -3 -11   77.57    6.27
  -1   3 -11   85.68    6.96
   1   3  11   72.92    6.19
   1   3  11   84.41    5.07
  -1   3  12  170.37    8.34
   1   3  12  164.21    7.28
  -1  -3  12  161.02    9.75
   1   3  12  141.62    3.59
  -1   3 -12  167.36    9.96
  -1  -3  12  164.63    7.54
   1   3  12  171.42    9.74
  -1  -3  13    3.74    1.59
  -1  -3  13    8.72    3.79
   1   3  13    6.10    2.12
  -1   3  13    4.56    2.39
   1   3  13    4.28    0.88
  -1   3 -13    4.13    2.69
  -1   3 -13    5.46    1.48
   1   3  13    2.98    2.67
  -1   3 -14  112.99    8.79
  -1  -3  14  115.60    6.45
   1   3  14  116.83    6.88
  -1   3  14  120.10    7.79
   1   3  14  105.64    3.83
  -1  -3  14  119.38    8.94
  -1   3 -14  110.73    5.94
  -1   3 -15    5.55    3.47
   1  -3  15    4.10    1.39
  -1  -3  15    4.89    1.91
   1   3  15    4.14    1.05
  -1   3 -15    3.14    1.29
  -1  -3  15   11.24    4.71
  -1   3  15    4.24    3.03
   1   3  15    7.08    2.75
  -1   3 -16    1.12    0.89
   1  -3  16    0.82    1.20
   1  -3  16    1.20    3.21
  -1   3  16    0.29    2.36
   1   3  16    1.24    0.92
  -1  -3  16    4.44    3.51
  -1  -3 -16    0.53    0.41
  -1  -3  16    2.38    1.52
   1   3  16    2.37    2.41
   1   3 -16    1.31    0.73
  -1   3 -16    1.73    2.84
  -1   3  17   59.94    6.43
   1   3  17   71.73    6.44
  -1  -3  17   68.84    7.84
   1  -3  17   65.76    7.27
  -1  -3  17   68.35    5.22
  -1   3 -17   73.76    8.28
   1  -3  17   67.15    4.00
   1   3  17   64.42    3.65
   1  -3  18   77.22    4.12
   1   3  18   78.82    7.10
  -1   3  18   95.50    8.35
   1  -3  18   66.94    7.83
  -1   3 -18   87.30    9.52
  -1  -3  18   74.66    9.06
  -1  -3  18   81.38    5.63
  -1  -3  19  735.33   25.70
  -1  -3  19  750.41   16.71
   1   3  19  756.36   16.49
   1  -3  19  744.81   25.08
  -1   3 -19  782.15   26.50
  -1   3  19  763.86   22.67
   1   3  19  735.60   21.06
  -1  -3  20  131.28   11.78
  -1   3  20  134.68   10.31
  -1   3 -20  141.69   12.79
   1   3  20  133.41    9.66
   1  -3  20  120.13   10.98
   1   3  21  218.94   12.34
  -1   3  21  220.87   13.16
  -1  -3  21  226.99   15.06
   1  -3  21  233.18   15.10
  -1   3  22   43.65    6.78
   1   3  22   42.86    6.17
  -1  -3  22   47.91    7.96
   1  -3  22   42.21    7.41
   1   3  23   82.40    8.27
  -1  -3  23   86.97   10.29
   1  -3  23   83.27   10.07
  -1   3  23   94.02    9.36
  -1   3  24    3.93    3.53
  -1  -3  24    7.14    4.79
   1   3  24   -2.67    3.33
   1  -3  24    4.47    4.66
   1  -3  25   63.39    8.95
  -1  -3  25   50.90    8.40
  -1   3  25   59.90    8.03
   1   3  25   65.58    8.04
  -1   3  26   30.72    6.46
   1   3  26   32.99    6.08
   1  -3  26   30.07    6.91
  -1  -3  26   13.02    4.85
   1  -3  27    5.64    4.47
  -1   3  27    2.76    2.99
   1   3  27    3.96    3.65
  -1  -3  27    0.44    4.55
   1   3  28   -3.56    5.42
   1  -3  28    5.67    4.59
  -1   3  28    4.36    3.88
  -1  -3  28    3.79    3.68
  -1   3  29    5.39    4.35
  -1  -4   0    6.22    1.91
   1  -4   0    0.56    1.49
  -1  -4   0   -0.41    0.89
   1  -4   0   -1.07    2.14
  -1   4   0    1.52    1.42
  -1  -4   0    4.08    2.17
  -1  -4   1   12.02    1.22
   1   4  -1   12.69    1.27
  -1  -4  -1   11.63    2.29
  -1  -4  -1   15.46    1.38
  -1   4   1   14.76    2.78
   1  -4  -1   13.88    2.46
   1  -4   1   17.85    3.36
  -1   4   1   13.87    2.54
  -1  -4  -1   17.25    3.02
   1  -4   1   15.13    2.68
   1  -4   1   15.65    2.29
  -1   4  -1   14.49    2.41
  -1  -4  -1   15.36    2.98
   1  -4  -1   11.79    2.99
  -1  -4   1   18.29    2.10
  -1   4   1   16.26    3.14
   1   4  -2 2137.86   17.14
  -1   4   2 2218.90   27.13
   1  -4  -2 2211.38   27.69
  -1  -4   2 2167.66   17.12
  -1  -4   2 2196.55   21.31
  -1  -4  -2 2237.20   26.58
   1  -4  -2 2244.10   27.05
   1  -4   2 2228.02   27.23
  -1   4  -2 2200.54   23.98
  -1   4   2 2270.46   28.00
  -1  -4  -2 2265.49   27.63
   1  -4   2 2270.33   24.40
  -1  -4  -2 2199.94   27.93
   1   4   2 2203.42   27.53
   1   4   3   39.48    4.87
   1  -4  -3   36.77    3.68
   1  -4  -3   40.49    4.57
  -1   4   3   43.78    4.22
  -1   4  -3   33.02    3.19
  -1  -4  -3   33.22    3.72
  -1  -4  -3   36.37    3.73
   1  -4   3   31.34    3.06
   1   4   3   33.43    3.67
   1   4   3   38.50    4.33
  -1  -4   3   51.35    4.14
  -1   4   3   31.96    3.69
  -1  -4  -3   34.46    3.75
   1  -4  -3   36.10    2.97
   1   4  -3   37.83    2.80
  -1  -4   3   35.35    2.61
   1   4   4  753.89    9.14
   1   4   4  733.22   16.76
   1  -4  -4  771.34   14.46
   1  -4  -4  755.62   12.72
   1   4   4  757.93   16.74
   1   4   4  767.88   15.98
   1  -4  -4  760.89   17.16
   1   4  -4  762.11   12.82
  -1   4  -4  749.05   15.17
  -1   4   4  759.16   16.64
  -1  -4   4  760.31   14.75
  -1  -4  -4  734.72   15.69
  -1  -4  -4  788.08   17.02
   1  -4   4  765.15   15.22
   1  -4  -4  761.64   16.97
   1  -4  -4  810.76   17.06
  -1  -4   4  773.83   12.81
   1   4   5 1032.00   12.41
  -1  -4  -5  972.54   10.10
   1  -4  -5  982.86   19.96
  -1   4   5 1013.62   19.91
   1  -4   5 1034.86   18.55
   1  -4  -5 1010.12   16.39
   1  -4  -5 1015.37   19.92
  -1  -4   5 1023.79   17.89
   1   4  -5  968.82   15.96
  -1  -4   5 1027.71   16.01
  -1  -4  -5 1059.74   19.04
   1   4   5  996.44   19.64
   1   4   5 1020.90   19.73
   1  -4  -5 1020.94   15.01
  -1   4  -5  977.20   18.04
   1   4   5 1069.23   19.06
   1   4   6  535.72   13.95
   1   4   6  515.54   14.52
   1  -4  -6  510.96   14.73
   1  -4  -6  533.94   11.18
  -1  -4  -6  535.59   13.91
  -1   4  -6  522.68   13.86
  -1  -4   6  535.47   13.93
   1  -4  -6  524.09   11.93
  -1  -4   6  533.97   12.47
  -1   4   6  524.34   14.81
   1  -4  -6  523.22   15.10
  -1   4   6  529.26   11.28
   1   4   6  533.91   10.09
   1   4  -6  523.52   12.43
   1   4   6  544.82   14.81
   1  -4  -7 1170.92   22.92
  -1   4   7 1133.19   22.41
  -1  -4  -7 1104.29   20.60
   1   4  -7 1132.40   19.46
  -1  -4   7 1180.45   19.76
   1  -4  -7 1138.83   16.82
   1   4   7 1189.46   22.75
   1   4   7 1163.98   21.95
   1   4   7 1163.49   16.35
  -1   4   7 1146.17   17.12
  -1   4  -7 1148.76   21.22
   1  -4  -7 1143.14   22.70
   1   4   7 1052.57    9.60
  -1  -4   7 1157.26   21.26
  -1  -4  -8 2036.73   28.90
   1   4   8 2042.15   30.66
   1  -4  -8 2002.78   23.31
  -1   4   8 2077.33   24.71
  -1   4   8 2015.79   23.82
   1  -4  -8 2016.39   31.26
   1   4  -8 2082.11   27.87
  -1  -4  -8 1976.88   29.71
   1   4   8 2055.98   29.79
  -1   4   8 2098.97   31.50
   1   4   8 2092.81   23.60
   1   4   8 1939.54   15.49
  -1  -4   8 2037.15   29.79
  -1   4  -8 2038.44   29.52
  -1   4   9 1782.12   23.21
   1  -4  -9 1764.17   22.87
   1   4  -9 1750.96   27.05
  -1   4  -9 1746.20   28.52
   1   4   9 1789.89   16.81
  -1  -4  -9 1790.87   28.67
   1  -4  -9 1758.60   30.07
  -1  -4   9 1773.72   29.08
  -1   4   9 1796.68   30.34
   1   4   9 1733.74   28.01
   1   4   9 1791.42   23.59
  -1   4   9 1773.71   23.64
   1   4   9 1810.16   29.69
   1  -4  -9 1713.09   16.25
   1   4  10  558.43   16.47
  -1   4  10  578.89   13.77
  -1  -4  10  572.02   14.95
  -1  -4 -10  571.19   16.76
   1  -4 -10  598.95   18.16
  -1   4  10  589.81   18.11
  -1   4  10  576.16   13.80
   1   4  10  578.54   17.47
   1   4  10  586.52   14.44
  -1  -4  10  609.63   17.88
  -1   4 -10  582.18   17.21
   1  -4 -10  588.67   13.82
   1   4  10  566.20   10.57
  -1  -4  11    4.16    2.03
   1   4  11   -6.33    3.86
  -1   4  11   -0.81    3.17
  -1  -4 -11    0.77    2.10
   1   4  11    2.28    1.46
  -1   4 -11    5.50    2.74
  -1  -4  11   12.10    4.26
   1   4  11    1.56    2.43
  -1   4  11    1.90    1.78
  -1   4  11    0.21    1.93
  -1  -4  12  103.45    8.20
   1   4  12   90.19    5.11
  -1   4  12   89.43    5.92
  -1   4 -12  100.71    7.89
  -1  -4 -12   89.09    7.27
   1   4  12   86.44    7.46
  -1   4  12   96.99    7.98
  -1  -4  12   92.50    6.31
  -1   4  12   88.51    6.14
   1   4  13   88.20    7.93
   1   4  13   86.31    5.38
  -1  -4  13   86.90    6.30
  -1  -4 -13   84.50    7.19
  -1   4 -13   94.83    8.19
  -1   4  13   84.72    8.23
  -1  -4  13   97.91    8.53
  -1   4  13   86.95    5.95
  -1   4  13   84.72    6.25
  -1  -4  14  507.11   18.77
  -1   4  14  484.11   14.37
  -1   4  14  494.96   18.82
  -1  -4  14  515.42   14.88
   1   4  14  491.47   18.57
  -1   4 -14  505.53   18.55
  -1   4  14  499.58   15.26
   1   4  14  498.18   13.23
  -1   4  15   34.86    5.70
  -1  -4  15   55.94    7.46
  -1  -4  15   45.62    4.75
  -1   4 -15   48.68    6.79
  -1   4  15   34.76    4.09
   1   4  15   40.74    5.92
   1   4  15   46.07    4.44
  -1   4  15   42.27    5.28
  -1  -4  16   59.50    7.52
   1   4  16   42.76    4.70
  -1   4  16   34.39    4.38
   1   4  16   37.78    6.20
  -1   4  16   28.58    6.16
  -1   4 -16   39.17    6.40
  -1   4  16   42.52    5.43
  -1  -4  16   39.78    4.46
  -1   4 -17  391.29   18.09
  -1   4  17  401.91   18.91
   1   4  17  386.37   17.88
   1  -4  17  379.27   11.27
   1  -4  17  380.35   17.84
  -1  -4  17  381.13   12.99
  -1  -4  17  397.05   18.18
   1   4  17  367.30   13.31
  -1   4  17  396.22   15.13
   1  -4  18  272.89    9.51
  -1  -4  18  256.30   15.19
  -1  -4  18  272.68   11.06
   1   4  18  274.19   11.99
  -1   4  18  275.50   16.03
  -1   4  18  271.38   13.18
   1   4  18  275.87   15.96
  -1   4 -18  273.76   15.89
   1  -4  18  247.24   14.82
   1   4  19  156.23    9.42
  -1  -4  19  164.44   12.63
  -1   4  19  169.49   13.11
  -1  -4  19  162.73    8.61
   1  -4  19  155.09   12.07
  -1   4  19  157.46   10.42
   1   4  19  161.46   12.70
  -1   4 -19  160.17   12.75
  -1   4  20    1.87    3.90
  -1   4 -20    7.95    5.10
   1  -4  20    3.39    3.89
  -1  -4  20    5.89    4.72
   1   4  20    2.38    2.78
   1   4  20    5.47    3.31
  -1   4  20    9.85    3.98
  -1   4  21  105.97   11.00
  -1   4  21  122.95    9.74
   1   4  21  115.28    8.79
   1   4  21  127.93   11.76
   1  -4  21  125.50   11.53
  -1  -4  21  124.84   11.64
  -1   4  22   73.02    9.71
   1  -4  22   76.53    9.77
   1   4  22   81.91    9.78
  -1   4  22   78.31    8.28
   1   4  22   69.36    7.36
  -1  -4  22   73.28    9.61
   1   4  23  332.90   15.67
  -1   4  23  344.34   20.20
  -1   4  23  344.57   17.06
   1   4  23  346.24   20.08
  -1  -4  23  366.58   20.44
   1  -4  23  341.02   19.53
  -1   4  24    7.93    4.99
  -1  -4  24    6.41    5.69
   1  -4  24    3.72    4.93
  -1   4  24   13.36    5.21
   1   4  24    1.79    3.31
   1   4  25    0.09    3.54
  -1  -4  25   -0.20    4.03
  -1   4  25   -1.61    4.27
   1  -4  25    3.16    4.18
  -1   4  25    2.37    2.72
   1  -4  26   35.89    7.65
  -1  -4  26   29.56    6.88
  -1   4  26   29.29    6.93
  -1   4  26   40.79    6.86
   1   4  26   23.25    6.01
   1  -4  27   52.94    8.92
  -1   4  27   44.80    8.41
  -1  -4  27   30.36    7.38
   1   4  27   62.86    9.80
   1   4  28    0.33    4.43
   1   5   0   -0.01    0.55
  -1   5   0   -3.17    2.16
   1  -5   0   -0.26    2.42
  -1  -5   0    1.18    1.29
   1  -5   1  790.63   18.18
   1  -5  -1  737.02   17.70
   1   5  -1  745.67    9.54
   1   5   1  736.62    7.08
   1  -5   1  837.49   15.55
  -1  -5   1  764.65    9.68
  -1   5  -1  763.23   14.81
  -1   5   1  759.48   14.46
  -1  -5  -1  782.96   10.16
  -1  -5   1  744.52   12.42
  -1  -5  -1  776.09   17.48
   1   5  -2   11.12    1.54
  -1  -5   2   12.45    2.30
   1  -5  -2    7.63    2.94
  -1  -5  -2   16.20    3.49
  -1   5  -2    9.88    2.30
  -1   5   2   14.07    2.50
  -1  -5  -2    9.57    1.08
   1  -5   2   11.35    2.33
  -1  -5   2   11.57    1.56
   1  -5   2    9.99    2.85
  -1   5   2   12.73    3.34
  -1   5   3   27.23    4.17
  -1  -5  -3   24.88    3.63
   1  -5   3   23.55    2.96
  -1   5  -3   29.45    3.24
   1   5   3   26.93    1.65
   1   5   3   33.62    4.58
   1  -5  -3   20.05    3.17
   1   5  -3   25.37    2.33
   1  -5  -3   27.79    2.78
  -1  -5   3   28.05    3.09
  -1  -5   3   27.33    2.40
   1  -5  -4   99.15    7.09
  -1  -5   4   91.68    4.68
   1  -5  -4  100.89    5.01
   1  -5   4   90.61    5.63
  -1  -5  -4  100.94    6.65
   1   5  -4   92.12    4.82
  -1  -5   4   90.05    5.45
   1  -5  -4   97.47    6.04
   1   5   4   94.19    7.08
  -1   5  -4   91.55    5.74
  -1   5   4   84.85    6.40
  -1  -5   5   80.19    5.49
   1  -5  -5   78.53    6.16
   1   5   5   78.11    3.43
   1  -5  -5   87.20    4.65
   1  -5  -5   85.47    5.62
   1   5   5   85.80    6.98
  -1   5  -5   82.11    5.79
   1   5   5   80.38    6.34
  -1  -5  -5   81.86    6.21
  -1  -5   5   81.08    4.78
  -1   5   5   76.52    6.19
   1  -5  -5   82.95    6.59
   1   5  -5   79.20    4.90
  -1  -5  -6   80.08    3.12
   1  -5  -6   80.96    5.41
  -1   5   6   78.18    6.47
  -1  -5   6   85.26    5.98
   1   5  -6   74.88    5.06
   1   5   6   83.01    3.99
   1   5   6   79.25    6.74
  -1   5  -6   85.91    6.17
   1  -5  -6   85.98    6.81
   1  -5  -6   83.22    6.70
  -1  -5   6   85.73    5.23
   1   5   6   85.17    6.74
  -1  -5  -6   77.54    6.03
   1  -5  -6   81.14    4.53
   1  -5  -7   -1.06    1.23
  -1   5  -7   -0.73    1.93
   1  -5  -7    0.72    2.40
   1   5  -7    1.65    2.31
   1  -5  -7    1.01    2.51
  -1  -5   7   -0.86    2.14
   1   5   7    0.18    0.91
  -1  -5  -7   -3.05    2.57
  -1  -5  -7    0.53    0.46
  -1   5   7   -0.80    2.74
   1  -5  -7   -0.45    1.70
   1   5   7   -4.89    3.80
  -1  -5   7    1.36    1.26
   1   5   7    0.48    2.78
   1   5   8  727.92   19.17
   1  -5  -8  749.90   20.22
   1   5  -8  716.64   16.83
  -1  -5  -8  720.76   18.60
   1  -5  -8  724.71   14.07
  -1  -5  -8  734.51   19.73
  -1  -5   8  730.10   18.45
   1  -5  -8  733.51   19.88
   1   5   8  738.73   19.96
  -1   5   8  720.36   14.28
  -1   5  -8  746.58   18.68
  -1   5   8  743.53   20.33
   1   5   8  772.40   14.33
   1   5   9 1289.15   19.81
  -1  -5   9 1257.21   25.12
   1   5   9 1259.50   26.78
   1  -5  -9 1239.21   26.70
   1   5   9 1285.63   25.57
   1   5  -9 1291.47   23.64
  -1  -5  -9 1240.01   25.87
  -1  -5  -9 1262.39   25.27
  -1   5  -9 1263.52   25.21
  -1   5   9 1251.07   26.73
  -1   5   9 1243.54   19.42
   1  -5  -9 1231.33   18.88
   1   5   9 1183.47   11.73
   1  -5  -9 1251.73   26.61
  -1  -5  10    7.03    3.69
  -1   5 -10    0.37    2.29
  -1   5  10    4.15    3.37
  -1   5  10    5.21    2.04
   1   5 -10    7.35    3.60
  -1   5  10    7.14    3.40
   1   5  10    2.89    3.17
   1   5  10    5.26    1.85
   1   5  10    8.98    3.64
   1   5  10    3.15    0.99
   1  -5 -10    4.60    1.43
  -1  -5 -10    0.12    2.69
   1  -5 -10    3.92    1.01
  -1  -5 -10    4.79    2.92
   1  -5 -10   -0.94    3.00
  -1  -5 -11  143.60    9.38
  -1  -5  11  143.03    9.54
  -1   5  11  146.09   10.00
  -1   5  11  148.68    8.07
   1   5  11  157.70   10.27
   1   5  11  135.62    5.19
   1   5  11  129.34    8.59
  -1   5 -11  149.14    9.40
   1  -5 -11  137.01    9.66
  -1   5  11  146.78    7.41
   1  -5 -11  135.25    6.88
   1   5  12   -8.11    4.55
  -1   5 -12    2.36    3.05
  -1   5  12    4.93    3.62
  -1  -5 -12    4.35    2.90
  -1   5  12    1.56    2.20
   1   5  12    2.42    3.31
   1  -5 -12   13.54    3.89
  -1   5  12    3.36    2.26
  -1  -5  12    3.39    2.44
  -1  -5  12    3.85    3.06
   1   5  12    4.56    1.65
  -1  -5  13   72.34    7.34
   1   5  13   70.79    6.82
  -1   5 -13   83.23    7.94
  -1  -5 -13   88.31    7.81
  -1  -5  13   75.91    6.35
  -1   5  13   77.69    6.04
   1   5  13   71.15    7.47
  -1   5  13   78.08    6.23
  -1   5  13   77.15    7.92
   1   5  13   81.91    4.93
   1   5  14  235.08   13.39
  -1   5 -14  234.94   13.27
  -1  -5  14  233.59   13.25
  -1  -5 -14  224.36   12.45
  -1  -5  14  233.60   10.86
  -1   5  14  232.56   10.58
  -1   5  14  226.30   13.31
   1   5  14  226.63    8.51
   1   5  14  233.75   12.25
  -1   5  14  226.98   10.22
   1   5  15  124.91   10.12
  -1   5  15  134.67   10.87
  -1   5  15  126.69    8.06
   1   5  15  137.34    7.12
  -1  -5  15  125.90    8.16
  -1   5 -15  130.49   10.42
  -1  -5 -15  119.86    9.41
  -1  -5  15  127.87   10.33
   1   5  15  121.27    9.19
  -1   5  15  136.16    8.43
  -1   5  16   76.64    6.60
  -1   5 -16   82.07    8.79
   1   5  16   81.45    5.86
   1   5  16   70.34    7.18
  -1   5  16   84.39    8.88
  -1  -5  16   92.22    9.34
  -1   5  16   89.02    6.95
  -1  -5  16   84.73    6.92
   1   5  16   77.59    8.35
  -1  -5  17   57.71    7.68
   1   5  17   41.63    5.61
  -1   5 -17   44.17    6.86
  -1  -5  17   49.64    5.49
   1  -5  17   48.29    6.96
   1   5  17   40.49    6.30
  -1   5  17   48.92    5.45
   1   5  17   53.73    5.09
  -1   5  17   44.09    5.14
  -1   5  17   43.01    7.01
   1   5  18   -8.29    4.26
  -1  -5  18    2.33    1.96
   1   5  18    3.70    2.07
   1  -5  18   -1.63    3.94
   1   5  18   -0.47    3.35
  -1  -5  18    1.19    3.83
  -1   5  18    0.09    2.37
  -1   5  18   -2.56    4.23
   1  -5  18   -0.09    1.88
  -1   5 -18    2.45    3.28
  -1   5  18   -3.15    2.90
  -1   5  19   49.24    7.18
  -1   5  19   45.64    5.55
   1   5  19   49.73    5.26
   1   5  19   48.06    7.54
  -1  -5  19   44.14    5.04
   1   5  19   37.22    5.92
  -1   5  19   47.66    5.87
  -1  -5  19   55.28    7.73
  -1   5 -19   52.09    7.86
   1  -5  19   41.75    6.70
   1  -5  20  117.05   11.64
  -1   5  20  104.40   10.90
   1   5  20  109.86   11.20
  -1  -5  20   94.39    7.12
  -1   5 -20  121.46   11.45
  -1   5  20  107.15    8.42
  -1   5  20   96.71    8.36
   1   5  20  100.63    9.38
   1   5  20  111.35    8.04
  -1  -5  20  102.58   10.65
  -1   5  21   68.96    9.01
  -1   5  21   74.98    7.78
   1   5  21   61.37    7.69
  -1  -5  21   64.03    8.85
   1   5  21   74.12    9.15
  -1   5 -21   65.79    8.94
   1  -5  21   75.80    9.39
  -1   5  21   62.47    6.55
  -1  -5  22   24.66    6.26
   1  -5  22   14.22    5.32
   1   5  22   18.12    5.28
   1   5  22    4.26    3.12
  -1   5  22   20.61    5.69
  -1   5  22   26.94    5.26
  -1   5  23   40.98    6.07
  -1   5  23   42.34    7.43
  -1  -5  23   37.37    7.47
   1   5  23   47.82    8.14
   1  -5  23   46.51    8.15
   1   5  23   43.57    7.08
   1   5  24   -3.74    4.34
   1   5  24   -5.30    4.35
  -1   5  24    0.67    4.20
  -1  -5  24    5.85    4.36
   1  -5  24   -2.36    3.91
  -1  -5  25    4.58    5.17
   1   5  25    5.79    4.21
   1  -5  25    4.48    4.13
   1   5  25   -3.84    4.82
  -1   5  25    1.31    4.02
  -1  -5  26   43.02    7.97
   1   5  26   49.38    8.94
   1  -5  26   41.35    8.25
  -1   5  26   48.17    8.75
   1   5  27    9.07    4.71
  -1  -6   0    0.87    2.49
  -1   6   0    1.21    1.94
   1  -6   0   -0.22    2.40
   1   6   0   -0.88    0.82
  -1  -6   1 2216.10   23.42
  -1  -6  -1 2359.72   33.68
  -1  -6  -1 2233.32   19.41
  -1  -6   1 2196.97   18.14
   1   6  -1 2170.22   17.87
  -1   6  -1 2210.34   26.79
   1  -6  -1 2205.55   33.43
  -1   6   1 2195.05   26.23
  -1  -6   1 2201.36   32.95
   1   6   1 2161.84   14.38
   1  -6   1 2269.64   33.63
   1  -6   2   53.25    5.79
  -1  -6   2   57.33    4.65
  -1   6   2   46.77    4.23
  -1   6  -2   45.01    4.17
   1   6   2   40.34    1.94
  -1  -6  -2   52.53    5.70
   1  -6   2   46.40    4.21
  -1  -6  -2   46.71    2.53
   1  -6  -2   44.23    5.11
  -1  -6   2   44.87    2.91
   1   6  -2   45.29    2.96
  -1   6   3  559.59   17.15
   1   6   3  533.78    7.29
  -1  -6   3  571.10   11.10
  -1  -6   3  557.76   13.40
  -1   6  -3  569.27   14.26
  -1  -6  -3  574.39   16.93
   1   6  -3  553.55   11.06
  -1  -6  -3  529.53    6.89
   1  -6   3  548.55   16.83
   1  -6  -3  577.41   17.52
  -1   6   3  557.81   13.49
   1   6   4   44.43    2.48
  -1  -6  -4   42.32    4.91
  -1  -6   4   52.00    4.75
   1  -6  -4   43.79    3.58
   1   6   4   51.61    6.29
   1   6  -4   43.79    3.60
  -1  -6   4   47.34    3.60
   1  -6  -4   48.23    5.77
  -1   6  -4   49.28    4.58
  -1   6   4   49.00    5.93
  -1  -6   5 1526.28   21.13
   1   6   5 1466.90   28.65
  -1   6   5 1493.62   28.72
   1  -6  -5 1466.93   28.14
  -1  -6  -5 1514.57   27.79
  -1  -6   5 1454.79   23.86
   1   6  -5 1517.10   21.41
   1  -6  -5 1522.92   20.13
   1  -6  -5 1484.22   28.69
  -1   6  -5 1543.00   24.98
  -1  -6   6   58.01    4.49
   1   6   6   60.96    6.29
  -1  -6   6   65.42    6.06
   1  -6  -6   63.84    6.42
  -1   6  -6   58.64    5.41
   1   6  -6   62.12    4.85
  -1  -6  -6   60.74    6.06
   1  -6  -6   57.68    6.16
  -1   6   6   52.06    6.02
   1  -6  -6   64.10    4.17
   1   6   6   57.79    3.35
  -1  -6   7  280.99   11.51
   1   6   7  285.68   13.02
  -1  -6  -7  267.90    6.00
   1  -6  -7  264.74   12.76
   1   6   7  287.63   13.08
  -1   6  -7  271.17   11.42
  -1   6   7  260.16   12.47
   1   6  -7  275.23   10.43
   1   6   7  273.60    7.84
   1  -6  -7  270.11    8.58
   1  -6  -7  275.27   12.81
  -1  -6  -7  263.30   11.97
   1  -6  -8  205.13   11.48
  -1  -6  -8  201.97   10.74
  -1   6  -8  206.75   10.31
  -1  -6   8  202.19   10.42
   1   6   8  218.67   11.57
   1   6  -8  203.50    9.50
   1  -6  -8  209.06   11.47
  -1   6   8  206.69   11.36
   1   6   8  203.35   11.33
  -1  -6  -8  172.92    3.65
   1   6   8  208.67    7.37
   1  -6  -8  206.10    7.61
   1  -6  -9  758.66   22.17
  -1  -6  -9  785.75   21.60
   1   6   9  778.93   15.31
   1   6   9  759.23   22.22
   1  -6  -9  764.06   14.90
   1  -6  -9  753.42   22.27
  -1   6   9  738.09   22.17
  -1  -6   9  751.95   20.31
  -1  -6  -9  788.67   22.20
  -1   6  -9  773.59   20.20
   1   6   9  739.64   20.96
   1   6  -9  777.29   19.04
   1   6  10  206.69    8.47
  -1   6  10  206.00   12.42
  -1  -6 -10  204.86   11.74
  -1  -6  10  214.51   11.66
   1   6 -10  204.18   10.33
  -1   6 -10  206.64   11.10
   1   6  10  192.52   11.52
   1  -6 -10  200.95   11.91
   1  -6 -10  197.75    7.84
   1  -6 -10  200.36   11.86
  -1  -6 -10  191.76   11.09
   1   6  10  208.51   11.53
   1   6  11  496.70   17.76
   1  -6 -11  482.36   12.74
  -1  -6 -11  480.21   17.62
   1  -6 -11  532.67   19.44
   1   6  11  543.19   19.53
   1   6 -11  507.36   16.64
  -1  -6  11  518.78   18.18
  -1   6  11  487.93   13.27
   1   6  11  459.36    7.93
  -1  -6 -11  487.66   18.25
  -1   6 -11  491.61   17.62
   1  -6 -11  467.15    8.24
  -1   6  11  498.79   19.28
   1   6  12  589.10   20.98
   1  -6 -12  552.02   20.44
  -1   6  12  601.19   17.23
   1   6  12  541.65    9.78
  -1   6  12  578.41   20.95
  -1   6 -12  548.52   19.08
   1   6  12  572.88   19.47
  -1  -6 -12  535.35   19.54
  -1  -6  12  589.94   20.23
  -1   6  12  541.98   14.57
   1   6  13  319.91    8.37
   1  -6 -13  341.06   16.26
   1   6  13  312.69   14.70
  -1   6  13  342.52   13.31
   1   6  13  336.91   16.47
  -1   6  13  331.02   11.70
  -1   6 -13  340.78   15.52
  -1   6  13  334.51   16.40
  -1  -6  13  353.97   16.44
  -1  -6 -13  331.34   15.75
  -1   6 -14   42.53    6.15
   1   6  14   51.99    7.04
  -1  -6  14   42.17    5.43
  -1  -6  14   44.29    6.81
  -1  -6 -14   37.91    5.66
  -1   6  14   47.01    4.96
  -1   6  14   57.80    6.18
   1   6  14   48.84    6.43
  -1   6  14   51.33    7.27
   1   6  14   44.16    3.53
   1   6  15  267.82   15.25
  -1  -6  15  252.06   14.56
  -1  -6  15  257.45   12.46
  -1  -6 -15  245.73   14.01
  -1   6  15  258.46   15.19
   1   6  15  263.96    8.78
  -1   6  15  256.86   11.07
   1   6  15  247.98   13.49
  -1   6 -15  241.52   13.99
  -1   6  15  257.43   12.03
  -1   6  16    8.30    3.05
   1   6  16    7.64    3.71
  -1  -6  16   10.38    3.26
  -1   6  16   13.43    4.24
  -1  -6  16    8.79    4.23
  -1   6  16   10.54    5.00
  -1  -6 -16    1.66    3.07
  -1   6 -16    4.84    3.46
   1   6  16    9.07    2.22
   1   6  16    7.22    3.47
  -1   6 -17    0.02    3.36
   1   6  17    0.08    3.35
  -1   6  17    3.90    3.58
  -1   6  17    6.26    5.05
   1   6  17   -0.33    3.59
  -1  -6  17   -0.47    2.01
  -1  -6  17   -3.99    4.35
   1  -6  17   -3.65    4.29
  -1   6  17    1.16    2.66
  -1  -6  18   28.43    4.62
   1   6  18   22.15    4.55
  -1   6 -18   31.17    6.08
  -1  -6  18   29.99    5.53
  -1   6  18   33.32    5.11
   1   6  18   32.42    6.41
   1  -6  18   25.10    5.43
  -1   6  18   29.98    4.58
  -1   6  18   30.46    6.27
   1  -6  19   -4.98    4.32
  -1   6  19    1.09    2.25
  -1   6 -19   -0.43    3.51
  -1   6  19   -4.50    4.21
   1   6  19    0.58    3.45
   1   6  19   -4.50    3.83
  -1   6  19    2.42    2.69
  -1  -6  19    0.72    4.58
  -1  -6  19   -0.13    2.32
  -1   6  20  249.27   12.84
   1   6  20  260.69   17.11
  -1   6 -20  238.93   16.12
  -1  -6  20  250.70   12.46
   1   6  20  236.88   14.65
  -1   6  20  267.00   13.50
  -1  -6  20  247.97   16.49
  -1   6  20  237.77   16.65
   1  -6  20  233.15   15.96
  -1   6 -21    5.27    4.91
   1   6  21   -2.85    3.41
   1  -6  21   -1.37    3.60
   1   6  21    2.30    4.30
  -1   6  21    0.46    4.41
  -1  -6  21   -3.78    3.96
  -1  -6  22  200.42   15.75
  -1   6  22  189.94   15.50
   1  -6  22  180.41   14.77
   1   6  22  183.59   13.34
  -1   6 -22  205.52   16.06
   1   6  22  184.07   15.20
   1   6  23   26.39    7.49
  -1   6  23   29.70    7.39
   1   6  23   18.07    4.79
   1  -6  23   25.80    6.67
  -1  -6  23   29.87    7.36
   1  -6  24   47.30    8.39
  -1  -6  24   53.48    9.01
  -1   6  24   39.30    8.18
   1   6  24   58.15    9.43
   1   6  24   41.29    6.92
  -1  -6  25    7.66    5.30
   1   6  25   13.26    5.18
   1  -6  25   10.41    4.71
  -1   6  25    7.57    5.21
   1   6  26   20.18    7.21
  -1  -7   0    1.34    2.92
  -1   7   0    1.16    2.16
   1  -7   0    1.54    2.98
   1   7   0   -1.63    0.91
  -1  -7   0    0.45    1.21
   1  -7   1  204.87   11.28
   1   7  -1  203.34    5.90
  -1  -7   1  197.95    7.61
  -1  -7   1  223.75   11.58
   1   7   1  206.36    4.98
  -1   7   1  203.95    8.49
  -1  -7  -1  198.68    6.40
  -1   7  -1  209.68    8.72
  -1  -7  -1  215.48   11.47
   1  -7  -1  203.71   11.30
   1  -7   2   11.75    3.77
  -1   7   2    9.12    2.24
  -1  -7   2   15.64    4.25
   1   7  -2    9.50    1.65
  -1  -7  -2    8.61    1.34
  -1  -7   2   10.45    2.06
  -1  -7   2   11.73    1.80
  -1  -7  -2   14.85    3.96
   1   7   2   11.16    1.23
  -1   7  -2   11.23    2.38
   1  -7  -2   14.06    3.80
  -1   7   3   18.21    3.00
  -1  -7   3   18.01    2.77
  -1  -7  -3   16.63    1.50
  -1  -7   3   15.31    2.05
  -1  -7  -3   11.84    3.42
   1  -7  -3    9.55    3.43
   1   7  -3   16.61    2.24
  -1   7  -3   13.48    2.56
   1  -7   3   14.90    4.22
   1   7   3   14.88    1.41
   1   7  -4  176.49    7.23
  -1  -7  -4  152.43    3.36
  -1   7  -4  195.93    9.14
  -1  -7   4  193.20    8.79
  -1   7   4  215.24   11.89
  -1  -7   4  196.86    7.40
   1  -7  -4  177.72    7.46
  -1  -7  -4  185.60   10.67
  -1   7   4  188.02    8.42
   1  -7   4  181.86   10.90
   1   7   4  172.31    4.81
   1  -7  -4  182.69   10.93
  -1  -7  -5  715.21   20.64
  -1  -7   5  734.22   15.20
   1   7   5  709.41   10.66
  -1   7   5  713.74   21.49
   1  -7  -5  730.57   21.73
   1  -7  -5  730.09   14.70
  -1   7  -5  736.33   18.16
  -1   7   5  725.03   16.59
   1   7  -5  701.56   15.30
   1   7   5  741.02   21.87
  -1  -7   5  713.44   17.64
  -1   7   6  220.99   12.21
  -1  -7   6  219.85   10.35
  -1  -7  -6  228.97   11.96
   1  -7  -6  230.49   12.43
   1  -7  -6  232.43   12.56
   1   7  -6  228.88    9.31
  -1   7  -6  232.94   10.66
   1  -7  -6  220.00    8.07
   1   7   6  232.88   12.94
   1  -7  -7    3.37    2.79
   1  -7  -7    5.13    1.46
   1   7  -7    6.22    2.19
  -1   7  -7    3.48    2.37
  -1  -7  -7    8.66    3.38
   1  -7  -7    1.30    2.73
  -1  -7   7    6.54    2.62
   1   7   7    4.93    3.67
  -1   7   7    2.01    3.23
   1   7   7    5.02    1.28
   1  -7  -8  190.06   11.73
  -1   7  -8  184.53   10.19
  -1   7   8  179.63   11.47
  -1  -7  -8  197.90   11.49
   1   7   8  190.79    7.02
   1   7   8  178.79   11.63
   1   7  -8  184.97    9.34
   1  -7  -8  193.74   11.82
  -1  -7  -8  182.86    5.10
  -1  -7   8  178.71   10.15
   1  -7  -8  186.29    7.42
  -1  -7   9   52.53    6.08
  -1   7  -9   49.13    5.48
   1   7   9   57.30    7.27
   1   7  -9   50.23    5.24
   1   7   9   57.57    4.25
   1  -7  -9   60.82    6.97
   1  -7  -9   56.82    6.93
   1  -7  -9   54.23    4.09
  -1   7   9   52.62    6.49
  -1  -7  -9   54.84    6.58
  -1  -7  -9   60.79    7.09
   1   7  10  130.47    6.73
  -1  -7 -10  125.55   10.03
   1   7  10  131.04   10.59
  -1   7 -10  126.93    9.03
   1   7 -10  129.24    8.59
   1  -7 -10  123.72    6.15
   1   7  10  135.52   10.35
  -1  -7  10  135.99    9.56
  -1  -7 -10  127.21    9.78
   1  -7 -10  126.36   10.01
   1  -7 -10  121.93    9.95
  -1   7  10  117.97    9.98
   1  -7 -11   15.21    4.80
  -1   7  11   12.78    3.99
  -1  -7  11   10.54    3.66
   1   7  11   28.09    6.09
   1   7 -11   12.07    3.75
  -1  -7 -11   13.05    4.18
  -1   7 -11   16.58    4.24
   1   7  11   16.32    4.93
   1  -7 -11   15.63    2.47
   1  -7 -11   13.73    1.59
  -1  -7 -11    8.52    3.40
   1  -7 -11   17.05    5.07
   1  -7 -12   15.49    4.44
  -1  -7 -12   22.35    4.96
  -1  -7  12   21.52    4.86
  -1   7  12   21.78    5.56
   1   7  12   27.87    6.20
   1   7  12   11.21    3.61
  -1  -7 -12   14.57    3.69
   1   7 -12   16.32    3.89
  -1   7 -12   15.47    4.30
   1  -7 -12   12.36    1.31
   1  -7 -13  488.99   20.55
  -1  -7 -13  465.36   19.50
   1   7  13  453.23   19.62
  -1   7  13  483.28   20.62
  -1  -7  13  487.41   19.55
   1   7  13  483.49   19.10
  -1   7 -13  478.00   18.83
   1   7  14  682.94   24.81
   1   7  14  696.06   23.33
  -1   7  14  681.35   25.29
  -1  -7 -14  723.02   24.68
   1  -7 -14  702.90   25.11
  -1   7 -14  703.63   23.36
  -1  -7  14  748.34   24.66
  -1   7  14  702.27   17.17
  -1   7  15   11.58    5.00
  -1   7  15    6.90    2.66
  -1  -7  15    2.36    2.36
   1   7  15   18.38    5.97
  -1  -7  15    7.63    4.72
  -1  -7 -15    8.31    4.26
  -1   7 -15    8.10    4.29
   1   7  15    9.07    4.28
   1   7  16    6.82    4.16
  -1   7  16   12.11    4.15
  -1  -7  16    2.34    3.64
  -1   7  16    9.78    5.49
  -1   7 -16    3.23    3.99
  -1   7  16    4.36    2.65
   1   7  16    4.23    4.74
  -1  -7  16    1.60    2.57
  -1  -7 -16    3.36    3.25
  -1  -7  17  313.86   17.59
   1   7  17  306.65   16.22
   1  -7  17  293.59   17.08
  -1   7  17  308.02   14.38
  -1  -7  17  296.50   14.60
  -1   7  17  309.82   18.29
  -1  -7 -17  301.19   17.17
   1   7  17  348.06   18.89
  -1   7 -17  312.70   17.57
   1   7  18   91.56    9.44
  -1   7  18  108.72    9.13
  -1  -7  18   97.40    8.58
  -1   7  18  107.11   11.72
  -1  -7  18   96.42   10.45
   1   7  18  121.82   12.09
  -1   7 -18   97.36   10.40
   1  -7  18   93.85   10.35
   1   7  19  122.53   12.14
  -1  -7  19  131.73    9.96
   1  -7  19  135.35   12.39
  -1  -7  19  135.24   12.35
  -1   7  19  117.74   12.18
   1   7  19  134.62   11.24
  -1   7 -19  132.79   12.05
  -1   7  19  148.65   10.44
  -1   7 -20    5.28    4.10
  -1  -7  20    5.41    3.16
  -1  -7  20    5.84    4.17
   1   7  20    6.34    3.50
   1   7  20   12.37    5.54
  -1   7  20   11.83    5.76
   1  -7  20    4.50    3.83
  -1  -7  21    6.54    4.05
   1   7  21    6.13    3.49
   1  -7  21    2.08    3.54
  -1   7 -21   13.31    4.52
   1   7  21    9.85    5.30
  -1   7  22    2.01    5.21
  -1  -7  22    1.57    3.46
   1  -7  22    1.87    4.10
   1   7  22    3.87    4.79
  -1   7 -22    2.08    3.51
   1   7  22    1.10    3.36
  -1  -7  23  110.01   12.41
   1  -7  23  111.73   12.44
   1   7  23  120.55   13.05
  -1   7  23  108.83   12.67
   1   7  23  109.60   10.85
   1  -7  24    0.25    4.53
   1   7  24    7.12    4.79
  -1  -7  24   -2.82    4.52
  -1   7  24    4.34    4.15
   1   7  25   11.64    5.62
  -1  -8   0    4.49    1.98
   1  -8   0    3.15    3.84
   1   8   0   -0.86    0.93
  -1  -8   0    3.27    3.43
  -1   8   0    2.25    1.63
  -1  -8  -1 1252.22   17.25
   1   8  -1 1232.53   15.51
  -1   8  -1 1229.69   22.34
  -1  -8   1 1232.70   19.96
  -1  -8   1 1247.60   29.26
   1  -8   1 1274.83   29.80
  -1  -8  -1 1251.96   29.25
  -1   8   1 1294.39   22.28
   1  -8  -1 1277.63   29.74
   1   8   1 1254.38   13.28
   1   8  -2  118.40    5.28
   1  -8   2  125.64    9.82
  -1   8  -2  123.56    7.28
  -1  -8   2  131.02    7.11
  -1   8   2  122.88    6.99
  -1  -8  -2  120.97    9.43
  -1  -8   2  128.35    5.49
   1   8   2  120.30    3.89
  -1  -8  -2  119.80    4.84
  -1  -8   2  129.00    9.92
   1  -8  -2  121.93    9.68
   1   8   3   31.41    1.98
  -1  -8   3   31.89    3.77
  -1  -8  -3   31.59    2.27
  -1  -8   3   34.90    3.24
   1  -8   3   30.40    5.46
   1   8  -3   30.02    2.95
  -1  -8   3   40.91    6.07
  -1  -8  -3   31.00    5.21
  -1   8  -3   33.21    3.90
  -1   8   3   31.62    3.73
   1  -8  -3   30.04    4.89
   1  -8   4    9.35    4.06
   1  -8  -4    3.55    3.29
  -1  -8  -4    8.27    0.98
  -1   8   4   11.21    2.61
   1   8   4    8.74    1.24
  -1   8  -4    7.38    2.48
  -1  -8  -4    7.92    3.74
  -1  -8   4    7.79    2.39
   1   8  -4    8.75    2.02
  -1  -8   4    9.84    1.95
  -1  -8  -4    8.12    1.06
   1  -8  -4    8.14    1.94
   1  -8   5 1129.72   28.63
   1  -8  -5 1125.78   29.00
  -1  -8   5 1145.52   19.68
  -1   8  -5 1118.52   23.37
   1  -8  -5 1132.55   19.11
  -1  -8  -5 1154.05   28.27
  -1   8   5 1119.49   21.53
  -1  -8   5 1069.08   22.53
  -1   8   5 1137.30   29.00
   1   8  -5 1102.32   19.53
   1   8   5 1109.98   13.15
   1   8   6   30.37    2.51
   1  -8  -6   33.03    5.58
   1   8   6   37.88    6.90
   1  -8  -6   30.30    5.66
  -1  -8  -6   40.14    6.03
   1   8  -6   35.08    4.28
  -1   8   6   35.68    4.82
  -1   8   6   31.37    6.33
   1  -8  -6   29.29    3.20
  -1   8  -6   32.85    4.91
  -1  -8   6   30.90    4.95
  -1  -8   7  393.83   14.83
  -1  -8  -7  389.85   16.81
  -1   8  -7  401.06   15.00
   1   8   7  404.91    9.36
   1   8   7  416.52   18.20
   1  -8  -7  387.78   17.39
  -1   8   7  392.30   17.50
   1   8  -7  417.15   13.37
   1  -8  -7  405.37   11.13
   1  -8  -7  371.45   16.99
   1  -8  -8   25.55    2.84
   1   8  -8   30.92    4.53
  -1  -8  -8   25.87    5.22
  -1   8   8   31.60    6.49
  -1   8  -8   29.60    4.88
   1  -8  -8   23.21    5.25
  -1  -8   8   37.16    5.82
   1   8   8   30.04    6.64
   1  -8  -8   28.94    5.70
  -1  -8  -8   30.98    2.56
   1  -8  -9 2160.74   41.77
  -1   8  -9 2194.17   36.80
  -1  -8  -9 2209.24   40.63
   1   8   9 2223.41   42.29
   1  -8  -9 2178.52   42.14
  -1   8   9 2232.13   42.72
   1   8  -9 2206.12   33.52
  -1  -8  -9 2055.64   16.58
  -1  -8   9 2144.10   37.38
   1   8 -10   50.87    6.53
  -1  -8 -10   42.81    7.15
  -1  -8  10   54.92    7.64
   1  -8 -10   47.07    7.02
  -1  -8 -10   35.67    5.90
  -1   8 -10   42.60    6.07
  -1   8  10   49.26    7.48
   1   8  10   48.17    7.70
   1  -8 -10   44.46    7.15
  -1  -8 -11   15.49    4.32
   1   8 -11   23.08    4.45
  -1   8 -11   24.50    4.82
   1  -8 -11   18.82    5.10
  -1  -8 -11   22.67    5.62
  -1   8  11   20.96    5.78
   1  -8 -11   14.92    3.81
  -1  -8  11   19.05    4.70
   1   8  11   16.91    5.39
  -1  -8  12  287.75   14.97
  -1   8 -12  284.65   14.65
  -1  -8 -12  283.92   15.50
   1   8 -12  287.73   13.78
  -1  -8 -12  308.01   16.52
  -1   8  12  293.25   16.55
   1  -8 -12  285.56   16.19
   1   8  12  297.34   16.52
   1  -8 -12  304.30   16.57
  -1  -8  13  147.48   11.33
   1  -8 -13  163.47   12.66
  -1  -8 -13  159.41   12.30
   1   8  13  162.18   12.68
  -1   8  13  170.19   12.87
  -1   8 -13  165.07   11.57
   1   8  13  172.95   12.43
  -1  -8 -13  161.12   12.07
   1  -8 -14    5.61    4.05
   1   8  14   17.26    5.31
  -1  -8 -14    5.21    3.42
  -1  -8  14    4.78    3.43
  -1   8 -14    7.58    3.18
   1   8  14    2.75    4.36
  -1   8  14    4.77    4.18
  -1  -8  15  123.54   10.81
   1  -8 -15  127.91   11.67
  -1   8  15  129.09   11.97
  -1   8 -15  124.39   10.52
   1   8  15  144.19   11.60
  -1  -8 -15  112.50   10.83
   1   8  15  136.91   11.78
  -1  -8  16    5.49    4.50
  -1  -8  16   10.38    3.76
  -1   8 -16    4.55    3.65
   1   8  16    4.64    3.91
   1   8  16   10.98    5.14
  -1  -8 -16    4.02    2.89
  -1   8  16   12.19    5.30
  -1  -8 -17  268.04   16.95
  -1  -8  17  266.68   14.66
  -1   8  17  251.45   17.39
   1  -8  17  238.22   16.16
   1   8  17  251.13   16.80
   1   8  17  274.76   16.22
  -1   8 -17  249.55   15.92
  -1  -8  17  250.12   16.02
  -1  -8 -18    4.91    4.27
  -1   8 -18    5.83    3.89
  -1  -8  18    3.70    4.17
  -1   8  18    7.05    5.34
   1  -8  18    0.63    3.96
  -1  -8  18   -1.24    2.41
   1   8  18    6.02    4.50
   1   8  18    4.05    4.47
  -1   8 -19  398.63   20.95
   1   8  19  395.44   19.80
  -1  -8  19  414.35   18.35
  -1   8  19  420.93   22.84
  -1  -8  19  398.57   21.34
   1  -8  19  393.62   21.27
   1   8  19  452.76   23.27
   1   8  20    4.29    4.27
   1  -8  20   -2.12    3.40
  -1  -8  20    8.90    5.59
  -1   8 -20    0.68    3.35
  -1  -8  20    3.62    3.30
  -1   8  20    7.19    5.93
   1   8  20    2.77    5.08
   1   8  21  150.32   12.88
  -1   8  21  138.39   13.98
   1   8  21  157.39   14.76
   1  -8  21  135.27   13.28
  -1   8 -21  132.33   12.77
  -1  -8  21  157.12   14.06
  -1   8 -22   15.57    5.64
   1   8  22   10.59    5.22
   1  -8  22    8.17    4.46
  -1   8  22   15.56    6.09
  -1  -8  22   13.75    5.29
  -1   8  23  198.91   17.20
   1   8  23  186.71   16.75
   1  -8  23  193.80   16.57
  -1  -8  23  189.16   16.47
   1   8  24    8.64    5.58
   1  -9   0   -1.80    3.83
  -1  -9   0   -0.87    1.19
  -1   9   0   -1.36    2.01
  -1  -9   0    2.75    3.29
   1   9   0   -0.76    0.85
  -1  -9   1   64.61    5.02
  -1   9   1   69.38    5.56
  -1  -9  -1   71.05    4.43
   1   9   1   63.44    3.17
  -1  -9  -1   70.17    7.69
   1  -9   1   69.43    7.80
  -1   9  -1   64.73    5.56
   1  -9  -1   70.17    7.94
  -1  -9   1   84.16    8.86
   1   9  -1   65.92    3.80
  -1  -9  -2  125.33   10.21
   1   9   2  123.94    4.09
   1  -9   2  125.04   10.39
  -1  -9   2  122.57    7.03
   1  -9  -2  122.79   10.17
  -1   9   2  130.14    7.54
   1   9  -2  130.05    5.70
  -1   9  -2  124.17    7.60
  -1  -9  -2  123.89    5.35
  -1  -9   2  125.56   10.39
   1   9   3  210.16    5.19
  -1  -9   3  216.70    9.77
  -1  -9   3  203.58   13.18
  -1  -9  -3  219.21    6.22
   1   9  -3  218.41    8.00
  -1   9   3  216.56    9.53
   1  -9   3  232.10   13.81
  -1  -9  -3  220.81   13.31
  -1   9  -3  218.76   10.27
   1  -9  -3  244.06   14.30
  -1  -9  -4   85.52    8.63
  -1   9  -4   73.56    6.34
  -1  -9   4   83.53    9.15
   1  -9  -4   83.93    8.75
   1   9  -4   86.34    5.46
  -1  -9  -4   72.71    2.96
  -1   9   4   78.19    5.81
   1   9   4   76.39    3.19
   1  -9   4  101.52    9.61
  -1  -9   4   76.68    6.26
  -1   9   5   14.48    2.72
   1  -9  -5   12.11    4.17
   1   9  -5   18.59    2.99
  -1  -9  -5   13.06    3.88
   1   9   5   14.49    1.59
  -1   9  -5   12.32    3.02
   1  -9   5   13.77    4.74
  -1  -9   5   20.98    4.37
   1   9  -6  124.77    7.37
  -1   9   6  126.08   11.05
   1  -9  -6  122.82   10.26
  -1   9  -6  125.76    8.44
  -1  -9  -6  127.41   10.48
   1  -9   6  125.69   10.74
   1   9   6  125.96    4.74
   1  -9  -6  131.96   10.74
  -1  -9   6  123.62    8.58
  -1   9   6  132.46    7.93
  -1  -9  -7   -2.92    3.87
  -1   9  -7    1.78    2.53
  -1  -9   7   -2.66    2.47
   1  -9  -7   -2.84    4.64
  -1   9   7   -2.23    4.62
   1  -9   7    9.20    5.15
   1  -9  -7   -2.39    3.22
   1   9  -7   -0.30    1.73
  -1   9   7    6.95    2.97
   1  -9  -8   62.98    7.95
  -1   9  -8   53.70    6.26
  -1   9   8   65.20    8.96
   1  -9  -8   63.49    8.28
  -1  -9   8   47.31    6.45
   1   9   8   70.34    9.65
  -1   9   8   71.01    6.69
  -1  -9  -8   72.31    8.50
   1   9  -8   54.67    5.99
   1   9   9 1864.32   41.33
  -1  -9   9 1735.10   34.62
  -1   9   9 1847.37   40.60
   1  -9  -9 1873.84   41.08
   1   9  -9 1754.77   31.00
   1  -9  -9 1767.52   39.98
  -1   9  -9 1832.84   34.41
  -1  -9  -9 1836.28   39.38
   1  -9 -10   63.50    8.53
  -1  -9 -10   44.16    7.49
   1   9 -10   42.04    5.54
  -1  -9  10   49.69    7.15
   1  -9 -10   48.37    7.69
  -1  -9 -10   40.51    6.82
   1   9  10   59.65    9.08
  -1   9  10   56.40    8.92
  -1   9 -10   35.37    5.79
  -1   9  11   59.60    8.47
   1  -9 -11   49.58    7.35
  -1  -9 -11   64.81    8.22
  -1  -9 -11   50.68    7.11
   1  -9 -11   58.39    8.06
   1   9 -11   52.56    5.97
   1   9  11   65.23    8.74
  -1  -9  11   50.32    6.87
  -1   9 -11   66.88    7.52
  -1  -9 -12   15.45    4.82
  -1  -9 -12    9.24    3.53
  -1   9  12    9.72    4.03
   1  -9 -12    1.13    4.03
  -1   9 -12   14.78    4.07
   1   9  12    8.04    4.25
  -1  -9  12   16.38    4.56
   1  -9 -12    9.94    4.36
  -1  -9 -13    4.85    3.13
  -1   9 -13    7.00    3.15
  -1  -9 -13   11.83    4.27
   1   9  13    9.55    4.88
   1  -9 -13   10.47    4.22
  -1  -9  13   10.09    4.16
  -1   9  13    3.14    4.68
  -1   9 -14    9.20    4.11
   1   9  14    5.85    3.86
  -1  -9  14   11.53    4.27
   1  -9 -14   10.33    4.22
  -1  -9 -14    8.19    4.02
  -1   9  14   11.08    4.34
  -1  -9 -15   57.98    8.18
  -1   9  15   68.11    9.42
   1  -9 -15   60.90    8.56
  -1  -9  15   72.31    9.03
  -1   9 -15   61.65    7.95
   1   9  15   65.27    8.94
  -1  -9 -16  111.84   11.48
  -1  -9  16  116.26   10.43
  -1   9 -16  121.14   11.09
  -1  -9  16  120.86   11.63
   1  -9  16  116.56   11.45
   1  -9 -16  128.30   12.31
  -1   9  16  130.16   12.88
   1   9  16  133.73   12.63
  -1  -9  17   14.05    4.43
  -1   9 -17   23.75    5.40
  -1  -9  17   12.80    4.31
  -1  -9 -17   16.06    5.04
   1   9  17   11.43    5.64
  -1   9  17   17.66    5.25
   1  -9  17   12.53    5.03
   1  -9  18   81.34   10.25
  -1  -9 -18   80.38   10.18
   1   9  18   71.56    9.76
  -1   9 -18   81.95    9.88
   1   9  18  104.34   10.81
  -1  -9  18   89.20   10.58
  -1  -9  18   90.02    9.29
  -1   9  18   82.69   10.61
   1  -9  19   71.02    9.64
   1   9  19   95.40   10.39
  -1  -9  19   76.19    8.59
  -1   9 -19   77.63    9.77
   1   9  19   77.68   10.59
  -1   9  19   79.11   10.94
  -1  -9 -19   75.26   10.25
  -1  -9  19   90.64   10.88
   1   9  20   55.38    8.73
  -1  -9  20   42.69    6.74
  -1   9 -20   46.39    7.97
  -1   9  20   46.64    8.74
  -1  -9  20   49.19    8.46
   1  -9  20   40.60    7.84
   1   9  20   42.69    8.42
   1  -9  21  118.40   13.02
  -1   9  21  121.02   13.65
  -1   9 -21  122.56   12.53
  -1  -9  21  111.20   12.50
   1   9  21  123.68   12.10
   1   9  21  115.12   13.23
   1  -9  22   32.79    7.83
  -1  -9  22   25.03    7.22
  -1   9  22   33.33    7.99
   1   9  22   31.88    7.86
  -1   9 -22   28.22    7.09
  -1 -10   0   -1.36    3.17
  -1  10   0   -3.04    2.42
  -1 -10   0    0.78    1.19
   1 -10   0   -0.33    3.59
  -1  10   1  139.15    8.01
   1 -10  -1  120.97   10.90
   1 -10   1  141.84   11.71
  -1 -10  -1  142.41   11.42
  -1  10  -1  133.42    8.04
  -1 -10   1  132.89    7.38
  -1 -10  -1  137.94    6.47
  -1 -10   1  145.29   11.69
  -1 -10  -2   41.16    6.74
  -1 -10   2   44.77    4.61
   1 -10  -2   48.56    7.22
  -1  10  -2   47.86    5.13
  -1 -10   2   51.21    7.64
  -1  10   2   45.06    4.76
   1 -10   2   45.33    7.25
  -1 -10  -3  367.40   18.17
  -1  10   3  356.42   12.61
  -1 -10   3  353.05   18.13
   1 -10   3  356.68   18.03
   1 -10  -3  377.48   18.68
  -1  10  -3  369.35   13.83
  -1 -10   3  365.05   13.29
   1  10  -3  385.27   10.84
   1 -10   4   15.22    4.90
  -1  10  -4    6.97    2.77
  -1 -10   4   12.65    3.22
  -1 -10  -4    9.62    4.23
   1 -10  -4    8.03    3.45
  -1  10   4    7.13    2.67
  -1 -10   4   14.40    5.36
   1  10  -4   10.04    2.31
  -1  10   5  333.71   12.33
   1 -10  -5  325.98   17.68
  -1 -10   5  341.97   13.92
  -1 -10  -5  319.35   17.22
   1 -10   5  318.41   17.47
  -1  10  -5  310.74   13.37
  -1 -10   5  344.52   18.21
   1  10  -5  332.11   11.46
  -1  10  -6  190.99   10.81
   1 -10  -6  209.50   14.40
  -1 -10   6  181.64   10.71
   1 -10   6  190.76   13.83
   1 -10  -6  203.45   13.90
   1  10  -6  208.32    9.52
  -1 -10   6  203.65   14.46
  -1  10   6  190.54    9.58
  -1 -10  -6  215.30   14.36
  -1 -10   7  145.13   10.26
   1  10  -7  171.95    9.12
  -1 -10  -7  165.57   12.81
  -1  10   7  160.49    9.01
  -1  10  -7  173.27   10.68
   1 -10   7  165.91   13.02
   1 -10  -7  170.37   13.24
   1 -10  -7  158.42   12.70
  -1  10  -8   70.03    7.31
   1 -10   8   84.50    9.79
   1  10  -8   80.64    6.77
  -1 -10  -8   66.41    8.50
   1 -10  -8   66.76    8.75
  -1 -10   8   71.33    7.49
   1 -10  -8   73.27    9.00
  -1  10   8   82.92    6.83
  -1  10   8   80.37    9.88
  -1  10   9  143.62    9.06
   1 -10  -9  147.21   12.63
  -1  10   9  176.47   13.98
   1 -10  -9  160.91   13.00
  -1  10  -9  132.83    9.88
   1  10  -9  133.54    8.82
  -1 -10  -9  138.09   11.85
  -1 -10   9  142.97   10.67
   1  10   9  165.42   13.66
  -1 -10 -10  609.33   24.79
   1  10  10  649.46   26.25
   1  10 -10  625.88   19.52
  -1  10 -10  627.75   21.55
  -1 -10 -10  621.73   25.58
   1 -10 -10  633.45   25.43
  -1  10  10  627.44   18.96
  -1 -10  10  632.30   22.40
  -1  10  10  612.38   25.34
   1 -10 -10  633.64   25.76
   1  10  11   37.70    7.72
  -1  10 -11   28.59    5.29
  -1 -10  11   29.02    5.87
   1 -10 -11   33.52    6.66
   1 -10 -11   34.45    6.77
   1  10 -11   37.24    5.46
  -1  10  11   33.30    7.19
  -1 -10 -11   28.53    6.06
  -1 -10 -11   36.48    6.89
  -1  10  12  137.89   12.73
   1  10  12  133.68   12.72
  -1 -10  12  123.78   10.66
   1 -10 -12  134.20   12.47
  -1 -10 -12  124.52   12.12
  -1 -10 -12  118.84   11.19
  -1  10 -12  150.69   11.27
   1 -10 -12  121.90   11.60
   1 -10 -13  122.27   12.07
  -1 -10 -13  122.33   11.46
  -1 -10  13  129.41   11.19
  -1  10 -13  127.55   10.72
   1  10  13  126.14   12.83
  -1 -10 -13  128.56   12.23
   1 -10 -13  116.82   11.70
  -1  10  13  114.10   12.02
  -1 -10 -14   11.63    4.42
   1 -10 -14   11.03    4.32
  -1 -10 -14    9.57    3.89
  -1  10 -14    4.94    3.18
  -1 -10  14   10.93    4.25
  -1  10  14    3.82    4.66
   1  10  14   11.09    4.85
  -1 -10  15   -3.21    3.98
  -1  10 -15    1.73    3.13
  -1  10  15   -5.06    5.26
  -1 -10 -15   -1.51    3.60
   1 -10  15   -1.90    3.65
   1  10  15   -0.49    4.19
   1 -10 -15    1.99    3.36
  -1  10  16  207.56   16.49
  -1 -10  16  179.40   13.52
   1 -10 -16  173.44   15.00
   1  10  16  194.47   15.89
  -1 -10 -16  184.92   15.31
  -1  10 -16  189.75   14.11
  -1 -10  16  189.41   14.36
   1 -10  16  168.42   14.18
   1 -10 -17   37.11    7.38
  -1 -10  17   29.32    5.95
  -1 -10  17   40.95    7.35
  -1  10 -17   34.48    6.75
   1 -10  17   28.94    6.34
  -1 -10 -17   43.94    7.97
  -1  10  17   28.36    7.02
   1  10  17   37.56    7.53
  -1 -10  18   25.79    6.48
   1  10  18   21.81    6.33
  -1 -10  18   25.17    5.65
   1 -10  18   21.49    5.06
  -1  10 -18   22.76    5.78
  -1  10  18   28.63    6.90
  -1 -10 -18   21.62    6.16
  -1 -10  19   10.86    3.94
  -1 -10 -19    8.21    4.08
  -1  10 -19   17.79    5.52
  -1  10  19   16.29    5.78
  -1 -10  19   10.63    4.81
   1 -10  19   11.77    5.13
   1  10  19   13.68    5.47
   1  10  20  300.77   20.83
  -1 -10  20  271.61   19.36
  -1  10 -20  288.16   18.82
  -1  10  20  309.25   21.38
   1 -10  20  291.44   19.82
  -1  10 -21   12.25    5.58
   1 -10  21    6.96    5.31
  -1 -10  21   12.70    5.82
   1 -11   0   -1.04    3.44
  -1  11   0   -0.06    1.92
  -1 -11   0    0.23    3.24
  -1 -11   1    9.79    4.80
  -1  11  -1    4.92    2.14
  -1 -11  -1    1.61    3.58
   1 -11  -1    5.41    3.47
   1 -11   1    6.47    4.19
   1 -11  -2    2.89    3.67
  -1  11  -2    1.42    1.65
  -1 -11  -2   10.16    4.09
  -1 -11   2    0.82    1.62
   1 -11   2    2.65    4.37
  -1 -11   2    5.68    3.83
   1 -11  -3   86.75    9.86
   1 -11   3   83.57    9.78
  -1 -11   3   84.53   10.08
  -1  11  -3   91.52    7.23
  -1 -11  -3   88.87    9.77
  -1 -11   3   83.53    6.73
   1 -11   4   41.60    7.50
  -1 -11  -4   41.44    7.13
  -1 -11   4   47.38    5.22
  -1 -11   4   58.50    8.46
  -1  11  -4   55.41    6.05
   1 -11  -4   54.99    8.41
  -1 -11   5    4.78    2.35
  -1 -11  -5   -1.32    3.52
   1 -11  -5    0.21    3.86
  -1 -11   5    9.10    4.74
  -1  11  -5    5.99    2.69
   1 -11   5    3.64    3.92
   1 -11  -6   27.10    5.86
  -1 -11   6   28.56    4.66
  -1  11  -6   25.30    4.34
  -1 -11  -6   19.73    4.81
   1 -11  -6   20.97    5.49
  -1 -11   6   27.48    6.31
   1 -11   6   20.75    5.70
  -1 -11  -7   14.43    4.75
   1 -11  -7   30.62    6.50
  -1  11  -7   33.81    4.86
   1 -11   7   34.27    6.85
  -1 -11   7   28.12    4.83
  -1 -11   7   30.44    6.83
   1 -11  -7   33.17    6.78
  -1 -11  -8  250.26   16.43
  -1 -11   8  230.72   13.42
   1 -11  -8  243.11   16.36
   1 -11  -8  246.28   16.60
   1 -11   8  235.74   16.26
  -1  11  -8  238.49   13.10
   1 -11  -9   10.18    5.17
  -1 -11  -9    8.79    4.93
  -1 -11   9    7.16    3.52
  -1 -11  -9    8.87    4.72
   1 -11  -9    6.29    4.48
  -1  11  -9    9.59    3.47
   1 -11   9    5.90    4.59
  -1 -11  10  298.67   16.08
  -1 -11 -10  327.52   19.57
   1 -11 -10  311.24   18.97
  -1  11 -10  311.51   15.62
  -1  11  10  334.49   19.98
  -1 -11 -10  307.51   18.58
   1 -11 -10  340.32   19.91
   1 -11  10  308.30   18.85
   1  11  11   18.60    7.00
   1 -11 -11    5.91    4.21
  -1  11  11   18.36    6.19
  -1 -11 -11    8.77    4.64
   1 -11 -11    8.87    4.47
  -1 -11 -11    7.86    4.44
  -1  11 -11    8.41    3.24
  -1 -11  11    7.63    3.62
   1 -11 -12   82.47   10.35
  -1 -11 -12   82.37   10.31
  -1 -11  12   78.08    9.07
  -1 -11 -12   65.92    9.23
  -1  11 -12   70.45    8.15
   1  11  12   65.76   10.06
  -1  11  12   77.79   10.63
   1 -11 -12   73.04    9.66
  -1 -11 -13   19.19    6.20
   1 -11 -13   26.13    6.63
  -1  11  13   21.60    6.24
  -1 -11  13   26.72    5.69
   1 -11 -13   19.03    5.28
   1  11  13   23.65    6.94
  -1  11 -13   29.70    5.78
  -1 -11 -13   23.98    6.07
   1 -11 -14    7.02    4.45
  -1 -11 -14   -0.44    4.26
  -1  11 -14    4.08    2.91
  -1  11  14   14.11    5.74
   1  11  14    5.34    5.54
  -1 -11 -14    6.57    4.04
   1 -11  14   -3.42    3.73
  -1 -11  14    5.12    3.36
   1 -11  15   -7.71    4.79
   1  11  15   -1.45    4.31
  -1 -11  15    0.82    3.00
  -1 -11 -15   -0.09    3.57
  -1  11  15   -5.66    5.62
   1 -11 -15   -3.39    4.17
  -1  11 -15   -0.19    2.77
   1 -11  16   11.57    4.36
  -1 -11 -16    5.66    4.07
  -1  11 -16    4.74    2.65
  -1 -11  16    9.33    4.63
   1  11  16   12.74    5.10
  -1  11  16   10.28    5.36
   1 -11 -16    8.55    4.09
  -1 -11  17   36.06    7.26
  -1 -11  17   35.91    6.85
   1 -11 -17   30.27    7.28
  -1  11 -17   33.85    6.70
  -1 -11 -17   35.24    7.44
  -1  11  17   33.71    8.08
   1  11  17   31.26    7.63
   1 -11  17   38.41    7.46
  -1 -11  18   -0.97    3.32
   1 -11  18    2.38    3.97
  -1  11  18   -4.97    5.45
  -1 -11 -18   -2.39    3.91
   1  11  18    1.30    3.78
  -1  11 -18   -1.28    3.01
  -1 -11  18    5.75    4.03
  -1 -11 -19   36.68    7.57
  -1 -11  19   51.87    8.15
  -1  11 -19   36.40    7.08
   1 -11  19   29.83    7.39
  -1 -11  19   34.01    7.13
  -1 -11  20   35.79    7.92
  -1  11 -20   29.52    6.99
  -1  11 -21   24.79    6.55
   1 -12   0   -2.88    4.33
  -1 -12   0    0.32    3.17
  -1 -12  -1    5.69    4.29
   1 -12  -1   -1.72    3.50
  -1 -12   1   -6.00    4.08
   1 -12   1    0.92    3.72
  -1 -12   2   84.19   10.33
  -1 -12  -2   75.86    9.50
   1 -12  -2   64.89    9.06
   1 -12   2   73.46    9.88
  -1 -12   3   16.11    5.05
   1 -12   3   12.28    5.10
  -1 -12  -3    4.21    3.31
   1 -12  -3   11.77    5.04
   1 -12   4   -1.06    3.20
   1 -12  -4   -1.51    4.02
  -1 -12   4    5.20    4.29
  -1 -12  -4   -4.07    4.07
   1 -12  -5   10.40    4.20
   1 -12   5   14.10    5.21
  -1 -12  -5   10.53    4.73
  -1 -12   5   13.09    5.48
   1 -12   6   17.35    5.72
  -1 -12   6   16.87    3.63
   1 -12  -6    7.48    3.74
   1 -12  -6   14.02    5.11
  -1 -12  -6   15.55    5.06
  -1 -12   6   15.35    5.91
   1 -12  -7   35.32    7.15
   1 -12  -7   32.75    6.89
  -1 -12  -7   31.88    6.51
  -1 -12   7   32.75    5.25
  -1 -12   7   37.64    7.82
   1 -12   7   35.03    7.09
   1 -12  -8   51.44    8.43
  -1 -12  -8   53.84    8.64
   1 -12   8   51.23    8.45
  -1 -12   8   56.42    7.07
  -1 -12   8   54.21    8.96
   1 -12  -8   64.10    9.42
  -1 -12   9  150.48   11.41
  -1 -12  -9  159.80   14.47
   1 -12  -9  173.47   14.94
   1 -12   9  166.90   14.70
  -1 -12  -9  154.99   14.09
  -1 -12   9  169.87   14.94
   1 -12  -9  151.43   14.13
  -1 -12 -10   16.64    5.68
   1 -12 -10    8.19    4.36
   1 -12 -10   11.95    5.33
  -1 -12 -10   12.83    4.74
  -1 -12  10    9.52    4.03
   1 -12  10   13.86    5.21
  -1 -12 -11    8.42    4.48
   1 -12  11   10.20    4.75
  -1 -12 -11   12.54    5.54
   1 -12 -11    3.98    3.49
  -1 -12  11    3.49    2.80
   1 -12 -11    7.55    4.15
   1 -12 -12   14.62    6.03
  -1 -12 -12   10.67    4.97
  -1  12  12   15.45    6.15
   1 -12 -12   10.96    5.79
  -1 -12 -12    5.33    3.67
   1 -12  12    7.93    4.29
  -1 -12  12    8.62    3.96
  -1 -12 -13  243.47   18.48
   1 -12  13  238.61   16.50
  -1 -12  13  223.43   15.50
   1 -12 -13  252.34   18.78
   1 -12  13  239.89   18.05
  -1 -12 -13  250.44   18.20
   1 -12 -13  234.16   17.99
  -1  12  13  241.16   18.47
   1 -12 -14   -2.23    4.03
  -1 -12  14    3.46    4.12
  -1  12  14   15.52    6.41
   1  12  14    7.13    5.11
   1 -12 -14    0.38    3.42
  -1 -12 -14   -4.46    4.48
  -1 -12 -14   -3.48    3.73
   1 -12  14    4.59    4.23
  -1  12  15   -0.75    4.54
  -1 -12 -15   -1.08    4.89
  -1 -12  15   -2.82    3.92
   1 -12 -15    0.32    3.04
   1 -12  15   -0.08    3.54
   1  12  15    2.81    5.19
  -1 -12 -16  114.91   13.05
  -1  12 -16  120.07   11.64
  -1 -12  16  107.91   12.04
   1 -12  16  121.22   12.47
  -1 -12  17   49.36    8.28
  -1  12 -17   36.19    7.42
  -1 -12  17   21.29    6.05
   1 -12  17   44.97    8.37
  -1 -12  18   20.95    6.24
   1 -12  18   21.23    6.54
  -1 -12  18   22.84    6.26
  -1 -12  19  100.20   11.45
  -1 -13   0   -4.84    3.22
   1 -13   0   -0.23    4.20
   1 -13  -1   78.32   10.44
  -1 -13  -1   71.57    9.94
  -1 -13   1   77.55   10.42
   1 -13   1   91.68   11.37
   1 -13   2   26.05    6.15
  -1 -13   2   28.53    6.91
  -1 -13  -2   27.19    6.98
   1 -13  -2   20.19    5.85
  -1 -13  -3   31.00    7.14
   1 -13  -3   40.65    8.04
   1 -13   3   21.73    6.22
  -1 -13   3   28.88    6.86
  -1 -13  -4   59.64    9.09
   1 -13   4   87.91   11.21
   1 -13  -4   77.13   10.36
  -1 -13   4   78.90   10.81
  -1 -13   5    7.55    4.79
   1 -13  -5    0.91    3.24
   1 -13  -5    8.45    4.68
  -1 -13  -5    2.55    3.51
   1 -13   5   -2.07    4.24
  -1 -13   6    3.96    4.41
   1 -13  -6    2.04    3.58
  -1 -13  -6    2.12    4.45
   1 -13  -6    2.48    3.31
   1 -13   6    1.66    3.26
   1 -13  -7   10.57    5.35
   1 -13   7   21.96    6.20
   1 -13  -7   14.74    5.23
  -1 -13   7   15.76    5.86
  -1 -13  -7   12.60    5.30
  -1 -13  -8    7.25    4.27
   1 -13   8    7.55    4.79
   1 -13  -8    6.33    5.03
   1 -13  -8    6.32    4.33
  -1 -13   8   15.25    6.38
  -1 -13  -9  129.52   13.66
  -1 -13   9  112.82   12.95
   1 -13   9  131.90   13.81
  -1 -13  -9  107.08   12.09
   1 -13  -9  111.66   12.78
   1 -13  -9  110.12   12.54
  -1 -13  10   11.11    5.69
  -1 -13 -10   12.61    5.39
   1 -13  10   11.66    4.38
   1 -13 -10    6.83    4.78
  -1 -13 -10    3.77    3.57
   1 -13 -10    5.35    4.66
   1 -13  10    0.66    3.55
  -1 -13 -11    6.30    4.23
   1 -13  11    0.03    2.85
  -1 -13 -11   -0.48    3.78
   1 -13 -11    5.00    3.54
   1 -13 -11   -1.46    4.25
  -1 -13  11   -3.89    3.90
   1 -13  11    5.85    4.89
  -1 -13  12   50.70    7.57
   1 -13  12   58.01    8.29
  -1 -13 -12   78.15   11.10
   1 -13 -12   57.55    9.74
  -1 -13  12   68.91   10.81
   1 -13 -12   53.07    8.88
   1 -13  12   63.01   10.07
  -1 -13 -12   63.91   10.09
  -1 -13  13    0.99    3.34
   1 -13  13   -1.40    4.01
  -1 -13 -13   -5.07    4.91
   1 -13  13   -0.09    3.33
  -1 -13  14   25.06    6.15
   1 -13  14   28.76    6.58
  -1 -13 -14   19.14    5.52
  -1 -13  15  104.95   11.62
   1 -13  15  103.72   11.74
   1 -13  16    2.20    3.26
  -1 -13  16   10.03    5.00
  -1 -13  16    6.03    4.83
  -1 -13  17    6.65    4.39
  -1 -14   0   -3.96    4.14
   1 -14   0   -1.36    3.40
  -1 -14   1   42.64    8.16
  -1 -14  -1   31.58    7.23
   1 -14   1   37.19    7.58
   1 -14  -1   43.15    8.33
  -1 -14  -2   35.26    7.60
   1 -14   2   39.71    8.46
   1 -14  -2   37.82    7.43
  -1 -14   2   36.87    7.94
  -1 -14  -3   30.79    7.07
   1 -14   3   30.68    7.32
  -1 -14   3   34.00    7.87
   1 -14  -3   34.66    7.73
  -1 -14   4    0.76    3.45
   1 -14   4    4.38    4.59
   1 -14  -4    2.28    4.22
  -1 -14  -4   -0.15    4.04
  -1 -14   5  128.54   14.20
   1 -14  -5  123.89   13.37
   1 -14   5  117.62   13.40
  -1 -14  -5  130.39   13.92
   1 -14  -5  110.86   12.94
   1 -14  -6  144.26   14.87
   1 -14  -6  152.12   15.05
  -1 -14   6  125.06   13.86
   1 -14   6  140.89   14.54
  -1 -14  -6  124.16   13.52
   1 -14  -7    1.76    3.61
   1 -14   7    0.52    3.28
  -1 -14  -7    1.47    3.30
  -1 -14  -8    6.24    4.34
   1 -14  13   45.44    7.94
   1 -14  14   38.87    7.68
   2   0   0  851.89   12.89
   2   0   0  840.35   12.58
   2   0   0  857.06   12.85
   2   0  -1    1.08    1.56
  -2   0  -1    2.29    1.84
   2   0  -1    3.48    2.26
  -2   0   1    2.13    2.13
   2   0   1    0.26    1.33
   2   0  -1    7.26    1.82
   2   0   2 5840.21   31.77
  -2   0   2 5673.18   35.00
   2   0  -2 5786.82   34.95
  -2   0  -2 5653.98   32.71
   2   0   2 5830.33   34.84
   2   0  -2 5749.22   31.03
   2   0   2 5692.27   33.23
   2   0  -2 5815.90   23.14
   2   0  -2 5759.74   35.08
   2   0  -3    2.26    2.23
   2   0  -3    0.57    1.19
  -2   0   3   -0.91    1.10
  -2   0  -3    0.54    1.60
   2   0   3   -4.22    2.11
   2   0  -3    2.12    1.65
   2   0  -3    5.26    1.68
  -2   0   3    1.88    2.15
   2   0   4 3185.21   27.30
   2   0  -4 3112.25   21.30
  -2   0   4 3100.78   15.65
   2   0   4 3029.47   21.74
  -2   0   4 3140.13   28.25
   2   0  -4 3209.88   27.68
  -2   0  -4 3199.61   26.78
  -2   0   4 3144.46   27.70
   2   0   4 3132.32   26.77
   2   0  -4 3197.01   28.39
   2   0  -4 3169.45   26.91
  -2   0   5    0.13    1.35
   2   0   5    7.66    3.14
   2   0  -5    3.13    1.05
   2   0  -5    0.96    1.28
   2   0  -5   -0.04    1.47
   2   0   5    2.71    1.31
   2   0  -5    1.51    1.85
  -2   0   5    5.22    2.54
  -2   0  -5   -0.73    1.55
   2   0   5   -0.30    1.35
   2   0  -6  498.77    7.85
   2   0   6  506.97    8.15
   2   0   6  516.45   11.60
   2   0  -6  525.69   12.67
  -2   0   6  510.65   12.63
   2   0   6  526.52   12.37
  -2   0   6  524.06   12.10
   2   0  -6  520.70   11.32
  -2   0  -6  513.25   12.28
   2   0  -6  511.84   11.96
   2   0  -7    1.13    1.48
   2   0   7    2.05    0.91
   2   0   7    1.82    0.90
  -2   0  -7    1.63    1.98
   2   0  -7    2.25    1.50
   2   0   7    0.89    1.39
  -2   0   7    4.47    2.82
  -2   0   7    2.49    1.86
   2   0   7    1.81    2.10
  -2   0  -8 2236.84   28.08
   2   0   8 2384.60   28.71
   2   0   8 2264.75   19.96
   2   0   8 2179.97   15.21
   2   0  -8 2298.85   24.83
  -2   0   8 2324.18   27.32
  -2   0   8 2221.69   28.62
   2   0   8 2230.05   24.99
   2   0   9    0.13    0.94
  -2   0   9    1.45    2.98
  -2   0   9   -0.54    1.50
   2   0  -9    1.75    1.69
  -2   0  -9   -0.65    2.00
   2   0   9    1.92    2.33
   2   0   9   -0.34    0.49
   2   0  10 5431.44   40.30
  -2   0  10 5613.98   49.42
   2   0 -10 5618.40   40.22
  -2   0 -10 5548.60   48.51
   2   0  10 5535.23   36.33
   2   0 -11    1.62    1.82
   2   0  11    5.91    3.50
  -2   0  11    1.10    5.62
   2   0  11    1.87    1.97
  -2   0 -11    1.97    2.85
  -2   0 -12 1302.05   25.76
   2   0  12 1271.49   20.21
   2   0  12 1256.30   19.73
   2   0 -12 1265.76   19.73
  -2   0  12 1289.62   25.43
  -2   0 -13    3.71    3.73
   2   0 -13    0.51    1.34
   2   0  13    3.34    2.25
   2   0  13    3.03    2.70
  -2   0 -14 1965.57   34.51
  -2   0  14 1910.74   33.27
   2   0  14 1825.84   24.91
   2   0 -14 1909.67   24.89
   2   0 -15    1.83    1.74
  -2   0 -15    1.23    5.62
  -2   0 -16  103.69    8.96
   2   0 -16  105.99    6.07
  -2   0  16  107.07    8.65
   2   0 -17    0.25    1.08
  -2   0 -17    1.71    3.53
  -2   0  17    1.09    3.48
   2   0  17   -1.48    3.05
   2   0  18  154.62   10.64
  -2   0 -18  160.60   11.90
  -2   0  18  173.40   11.78
   2   0  19   -3.72    3.04
  -2   0  19    7.82    4.21
  -2   0 -19    0.39    3.46
  -2   0  20   79.04    8.41
   2   0  20   84.66    8.46
  -2   0  21    2.00    3.31
   2   0  21    2.64    3.28
   2   0  22    3.66    2.96
  -2   0  22    8.44    4.20
   2   0  23    2.06    3.68
  -2   0  23    5.82    3.98
   2   0  24   42.25    6.73
  -2   0  24   25.82    6.02
  -2   0  25    3.74    4.83
   2   0  25    1.74    3.58
  -2   0  26   81.52   10.35
   2   0  26   82.32    9.74
   2   0  27    9.95    4.85
  -2   0  27    3.30    5.24
  -2   0  28    5.38    4.77
   2   0  28    0.60    3.55
  -2   0  29   12.19    5.90
   2   0  29    2.41    3.54
   2   0  30   27.39    6.88
   2   1   0 8770.01   42.20
  -2   1   0 8829.65   42.61
  -2   1   0 8696.56   43.63
  -2  -1   0 8771.10   42.26
   2  -1   0 9004.20   32.74
   2   1   0 9000.16   40.31
   2   1   0 8873.72   39.02
  -2  -1   0 8934.57   39.14
   2   1   0 9043.80   42.13
  -2   1   0 8763.47   32.82
  -2   1   0 8937.10   24.55
   2  -1   1 7265.37   40.25
  -2   1   1 7075.97   37.31
  -2   1   1 7450.25   26.80
  -2  -1  -1 7343.23   27.28
  -2  -1   1 7527.22   35.66
  -2   1  -1 7008.91   23.97
  -2  -1   1 7140.33   36.60
  -2  -1  -1 7255.51   37.49
   2   1  -1 7354.64   39.38
  -2   1  -1 7274.20   39.71
  -2   1   1 7188.93   32.75
  -2   1  -1 7192.90   27.15
  -2  -1  -1 7278.81   32.28
  -2  -1   1 7268.10   39.31
   2   1   1 7331.21   37.48
   2   1  -1 7064.48   38.63
   2   1  -1 7181.13   36.52
   2  -1  -1 7348.68   40.38
   2   1  -1 7241.68   34.71
   2   1   1 7427.39   34.61
   2  -1   1 7470.61   27.37
  -2   1  -1 7218.14   39.61
   2   1   2   43.14    3.20
   2   1  -2   50.82    3.49
   2   1  -2   76.23    4.62
  -2   1  -2   50.13    3.58
  -2  -1  -2   49.13    2.99
  -2  -1   2   82.75    6.08
  -2   1   2   42.51    3.71
  -2  -1  -2   94.73    5.16
  -2  -1   2   43.95    3.61
  -2   1   2   45.39    3.06
  -2  -1  -2   49.46    2.47
  -2   1   2   53.07    3.54
   2  -1   2   48.17    2.23
  -2  -1   2   41.16    2.84
   2  -1  -2   42.82    3.57
   2   1   2   46.73    2.46
   2  -1   2   43.10    3.51
  -2   1  -2   35.39    2.81
   2   1  -2   43.17    3.66
   2   1   2   43.21    2.87
  -2  -1   2   42.78    3.32
   2   1   3 2909.76   22.45
   2   1  -3 2924.57   25.77
  -2   1   3 2857.25   22.68
   2  -1  -3 2972.79   26.83
  -2  -1   3 2950.85   27.03
  -2  -1  -3 2966.13   22.14
  -2  -1  -3 2851.00   22.27
   2   1   3 2933.65   19.25
  -2   1  -3 2930.06   26.54
   2  -1   3 2963.48   26.93
  -2  -1   3 2910.04   26.03
   2   1  -3 2948.71   26.16
  -2  -1   3 2795.10   25.38
  -2   1   3 2808.19   26.39
   2   1  -3 2908.00   26.70
  -2   1  -3 2991.54   26.47
   2   1   3 2937.25   22.35
  -2  -1  -3 2833.86   19.19
  -2  -1   3 2829.87   21.46
   2   1   3 2896.09   13.91
   2  -1   4 2738.17   26.88
   2   1   4 2733.85   15.56
  -2   1   4 2678.59   21.37
  -2  -1  -4 2726.72   22.75
  -2  -1   4 2675.29   25.56
   2   1   4 2710.54   21.05
  -2   1   4 2700.47   26.66
  -2  -1  -4 2695.72   20.94
  -2   1  -4 2700.64   26.68
  -2  -1   4 2774.89   27.37
   2   1  -4 2731.77   25.75
   2  -1  -4 2754.48   26.48
   2   1   4 2698.28   22.93
   2   1   4 2712.37   20.31
   2   1  -4 2698.12   26.84
   2   1  -4 2757.86   26.54
  -2   1  -4 2707.42   25.73
  -2  -1   4 2596.27   26.03
  -2   1  -5    5.67    1.79
  -2   1   5    8.35    2.35
   2  -1  -5   10.29    2.27
  -2  -1  -5   10.34    1.58
  -2   1  -5   11.65    2.05
   2   1   5    8.17    1.76
  -2  -1   5   10.30    2.14
  -2   1   5   20.41    2.22
   2   1   5   10.36    1.30
  -2  -1   5   21.49    4.25
   2  -1  -5   12.73    2.38
   2   1   5    8.69    1.33
  -2  -1  -5   10.95    2.06
  -2  -1   5   11.63    2.70
   2   1   5    9.09    1.56
   2  -1   5    7.96    2.23
   2   1  -5    8.41    1.89
   2   1  -5   13.34    2.35
   2  -1  -6   16.06    2.57
  -2  -1  -6    7.57    1.62
  -2   1   6    6.98    2.31
  -2  -1   6   23.78    4.08
  -2   1  -6   10.22    1.98
   2  -1  -6   10.78    2.16
  -2   1  -6    9.31    2.36
  -2   1   6    9.69    1.53
  -2  -1  -6    7.26    1.95
  -2  -1   6   10.88    2.58
   2   1  -6   11.10    2.37
  -2  -1   6   10.91    2.17
   2  -1   6    9.22    2.04
   2   1   6    9.49    1.35
   2   1   6    9.03    1.96
   2   1   6    9.50    1.36
   2   1  -6    8.12    1.80
  -2  -1  -6    9.79    1.49
  -2   1   7  142.06    7.03
   2   1  -7  144.27    7.15
  -2  -1   7  141.26    7.08
  -2  -1  -7  136.43    4.23
  -2   1  -7  146.53    6.31
  -2  -1  -7  134.21    6.45
   2  -1   7  141.52    7.16
   2   1  -7  141.40    6.30
  -2   1  -7  139.99    7.25
  -2  -1   7  148.32    7.09
   2   1   7  135.44    6.42
  -2  -1   7  139.24    6.26
   2  -1  -7  139.50    6.26
   2  -1  -7  148.14    6.95
  -2   1   7  136.56    4.45
  -2  -1  -7  136.07    5.29
  -2   1   8 1231.40   12.73
  -2   1   8 1288.93   21.41
   2  -1  -8 1298.11   19.24
  -2  -1  -8 1258.50   12.13
  -2  -1   8 1237.66   18.83
   2  -1  -8 1283.12   19.00
  -2  -1  -8 1291.54   17.16
   2   1  -8 1304.91   19.19
  -2   1  -8 1252.74   21.82
  -2  -1  -8 1291.00   20.45
  -2   1  -8 1304.08   19.22
   2   1   8 1275.97   20.61
  -2  -1   8 1268.52   22.18
  -2   1   8 1308.08   19.45
  -2  -1   8 1312.23   21.65
  -2   1  -9    5.17    1.60
  -2   1   9    8.95    1.17
  -2  -1   9    3.85    3.11
   2   1  -9    6.85    1.75
  -2   1   9    7.27    2.66
   2  -1  -9    4.42    1.34
  -2   1   9    7.65    2.03
  -2   1  -9    7.53    2.80
   2   1  -9    5.64    0.91
  -2  -1  -9    4.95    2.20
  -2  -1   9    4.16    2.10
  -2   1  10  762.59   15.88
   2   1  10  746.43   15.33
  -2  -1  10  746.75   15.35
  -2  -1 -10  749.82   17.27
  -2  -1  10  734.99   18.41
   2  -1 -10  745.95   14.99
   2   1 -10  670.23    7.21
   2   1 -10  759.32   15.24
  -2   1 -10  760.06   18.53
  -2   1 -10  763.79   15.25
  -2   1  10  698.53    8.63
  -2   1  10  749.09   17.79
  -2   1  11    1.22    0.51
  -2   1  11    2.10    1.51
  -2  -1  11    2.62    2.13
   2   1 -11    1.65    1.44
  -2   1  11    5.36    4.40
   2  -1 -11    3.27    1.51
   2   1  11    1.78    1.25
  -2  -1 -11    5.22    2.86
   2   1  11    2.29    2.21
  -2   1 -11    9.00    3.60
  -2   1  12 2152.49   32.37
   2   1  12 2170.61   27.04
   2   1  12 2245.50   28.10
  -2  -1  12 2187.78   26.92
   2  -1 -12 2185.62   26.21
   2   1 -12 2245.46   26.91
  -2  -1 -12 2239.43   33.10
  -2  -1  12 2280.59   34.75
  -2   1 -12 2249.98   34.59
   2   1 -13   12.90    2.69
   2  -1 -13    6.36    1.68
   2   1  13   10.10    2.59
  -2   1 -13   13.65    3.69
  -2   1  13   14.62    5.21
  -2  -1 -13   11.10    4.72
  -2  -1  14 1120.62   26.10
   2   1  14 1099.35   19.80
   2  -1 -14 1075.23   18.82
  -2   1  14 1088.26   24.69
   2   1 -14 1083.46   19.23
  -2   1 -14 1042.59   25.49
  -2  -1 -14 1076.96   25.08
   2   1  15  476.51   13.28
  -2  -1  15  511.34   18.50
  -2  -1 -15  462.29   17.47
  -2   1 -15  486.85   18.24
   2  -1 -15  470.16   12.49
   2   1  15  428.46   15.20
  -2   1  15  493.17   17.51
  -2  -1 -16  113.49    9.74
   2   1  16  124.68    8.46
  -2  -1  16  140.12   10.14
   2  -1 -16  112.11    6.21
  -2   1  16  118.04    9.26
   2   1  16  119.31    6.79
  -2   1 -16  120.14   10.01
  -2   1  17   82.31    8.96
   2   1  17   51.63    4.64
  -2  -1 -17   58.29    7.67
   2   1  17   61.42    6.37
   2  -1 -17   48.61    4.16
  -2   1 -17   52.68    6.94
  -2  -1  17   72.24    8.70
   2   1  18 1460.50   23.58
  -2   1  18 1440.77   32.30
  -2  -1  18 1460.22   33.72
   2   1  18 1424.09   29.72
   2  -1  18 1485.14   32.78
  -2   1 -18 1441.37   34.30
  -2   1 -19   29.09    6.45
  -2  -1  19   46.01    8.16
   2   1  19   34.24    5.80
  -2   1  19   52.34    8.25
   2  -1  19   32.00    6.59
  -2   1  20  148.57   11.34
  -2  -1  20  147.85   11.64
   2   1  20  143.66   10.48
   2  -1  20  146.81   11.25
  -2   1 -20  132.90   11.28
  -2   1  21  119.48   11.13
  -2  -1  21  122.21   11.26
   2   1  21  112.83    9.95
   2  -1  21  109.36   10.31
  -2   1 -21  112.75   11.15
  -2  -1  22  331.96   18.21
   2   1  22  328.38   16.48
   2  -1  22  324.79   17.65
  -2   1  22  366.25   18.50
  -2   1  23   78.29    9.36
   2   1  23   83.12    8.98
  -2  -1  23   64.70    8.70
   2  -1  23   89.29    9.66
  -2  -1  24   33.72    7.38
   2   1  24   25.05    5.42
   2  -1  24   19.64    5.44
  -2   1  24   36.89    7.38
  -2  -1  25  185.01   15.29
   2   1  25  184.21   13.81
  -2   1  25  170.48   14.12
   2  -1  25  193.33   14.88
  -2  -1  26  560.53   26.41
   2  -1  26  587.35   25.74
   2   1  26  565.02   24.25
  -2   1  26  586.35   25.86
   2   1  27   88.47   10.33
  -2  -1  27   82.89   11.28
   2  -1  27   78.55   10.81
  -2   1  27  102.43   12.11
  -2  -1  28  519.49   26.35
  -2   1  28  513.20   25.46
   2   1  28  507.27   24.06
   2  -1  28  492.74   24.83
   2  -1  29  266.96   19.07
  -2  -1  29  268.12   19.75
  -2   1  29  273.66   19.30
   2   1  29  277.44   18.24
   2  -1  30   41.30    8.92
   2   1  30   36.34    7.63
  -2   1  30   40.36    8.78
   2   2   0 1358.19   18.33
  -2   2   0 1348.19   18.60
  -2  -2   0 1365.18   17.91
  -2   2   0 1357.88   13.90
   2  -2   0 1392.79   14.65
   2   2   0 1346.30   17.02
  -2  -2   0 1341.16   14.67
  -2  -2   0 1344.53   17.29
  -2  -2   0 1387.25   18.49
   2  -2   0 1374.58   16.09
   2  -2   0 1348.83   13.93
   2   2   0 1348.33   18.12
   2   2   0 1381.60   14.77
  -2   2   0 1334.64   16.05
   2  -2  -1  270.27    8.34
  -2  -2   1  281.28    8.52
   2   2  -1  271.24    7.01
   2  -2   1  270.08    5.89
  -2   2   1  259.55    7.48
   2   2  -1  276.72    8.45
  -2  -2  -1  275.06    7.49
  -2   2   1  264.83    7.13
  -2  -2  -1  268.59    6.22
   2  -2  -1  264.28    7.07
  -2  -2  -1  271.16    8.18
   2  -2   1  257.58    5.99
   2  -2   1  275.80    8.68
   2   2   1  266.12    7.33
  -2  -2  -1  270.21    5.31
   2   2   1  269.42    8.45
  -2   2  -1  263.24    8.40
  -2  -2   1  270.56    7.09
  -2  -2   1  267.94    8.12
   2   2  -1  267.13    8.26
  -2  -2  -1  264.33    7.06
  -2   2  -1  273.36    7.02
   2   2   1  263.00    6.14
   2  -2  -1  263.10    7.45
  -2   2   1  270.02    6.66
   2  -2   1  273.74    6.99
   2  -2  -1  262.70    6.51
  -2  -2   1  272.07    8.19
   2   2  -1  270.98    8.02
  -2  -2  -2    9.95    1.29
   2   2  -2    8.27    1.57
   2   2   2   10.78    1.47
  -2   2   2   11.17    2.18
   2  -2   2   12.04    1.94
   2   2   2   12.86    2.14
  -2   2   2    9.47    1.94
   2  -2  -2    8.43    1.94
   2   2   2    5.99    2.61
   2   2  -2   16.78    2.88
   2  -2  -2   11.91    2.37
   2   2   2   12.74    2.06
  -2  -2   2   12.18    2.62
  -2  -2   2   10.43    2.26
  -2   2   2    8.95    1.76
  -2  -2   2   10.77    2.22
   2  -2   2    7.09    1.90
  -2  -2   2   12.68    2.29
   2   2   2    9.14    1.52
  -2   2  -2    6.55    2.03
  -2  -2  -2    9.20    1.59
  -2  -2  -2    9.64    1.58
   2   2  -3 3696.52   29.51
   2  -2  -3 3720.56   30.87
  -2   2   3 3669.03   30.70
  -2   2   3 3582.64   29.94
   2   2   3 3679.15   32.96
  -2  -2   3 3667.39   31.25
  -2  -2  -3 3657.86   27.95
   2   2  -3 3716.86   31.46
   2   2   3 3595.54   21.75
  -2  -2  -3 3630.26   22.70
   2   2   3 3624.50   26.80
   2  -2   3 3703.31   32.36
  -2  -2   3 3738.31   32.51
  -2   2   3 3684.59   27.87
  -2  -2  -3 3683.79   21.87
  -2  -2  -3 3662.04   26.92
   2   2   3 3601.64   22.13
  -2   2  -3 3670.01   31.98
   2   2   3 3755.92   25.44
  -2   2   3 3600.02   30.91
   2  -2  -3 3735.68   31.16
  -2  -2   3 3639.28   29.20
  -2   2   4 2957.87   26.86
   2  -2   4 2995.37   29.89
   2   2   4 2913.64   25.17
   2  -2  -4 3007.36   28.47
  -2   2   4 3011.98   29.31
  -2  -2   4 2934.16   27.74
  -2  -2  -4 2931.54   21.53
  -2   2   4 2944.53   28.78
  -2  -2   4 2987.11   30.13
   2   2  -4 3010.72   28.84
   2   2   4 2905.34   21.56
   2   2   4 2979.94   21.42
  -2  -2  -4 2879.06   21.02
  -2   2   4 2919.59   28.25
  -2  -2  -4 2937.78   24.61
  -2   2  -4 2956.23   29.59
   2   2  -4 2964.08   28.28
  -2  -2  -4 2936.23   25.25
  -2  -2   4 2892.05   28.58
  -2   2   5 1873.02   24.34
  -2  -2   5 1849.18   23.08
   2  -2   5 1920.25   24.88
   2   2   5 1874.82   18.92
  -2   2   5 1983.86   25.08
  -2   2   5 1855.85   23.22
  -2  -2  -5 1836.22   18.67
  -2   2  -5 1886.66   24.66
   2   2   5 1853.89   18.00
   2   2   5 1832.10   21.19
  -2  -2  -5 1842.19   19.05
   2  -2  -5 1869.97   23.22
  -2  -2   5 1879.53   23.65
   2   2  -5 1926.53   23.42
  -2  -2  -5 1802.90   17.82
  -2  -2   5 1914.45   25.02
   2   2  -5 1938.19   23.85
  -2   2   6  536.74   12.98
  -2  -2   6  504.54   12.88
   2   2  -6  537.60   13.25
  -2  -2  -6  518.16    9.88
   2   2   6  498.77   10.73
  -2   2  -6  547.11   12.71
  -2   2   6  555.25   13.87
  -2  -2   6  515.83   12.47
  -2  -2  -6  520.10   10.81
   2   2   6  517.67   10.14
   2  -2  -6  545.15   12.81
  -2   2  -6  541.75   13.83
   2  -2   6  522.37   13.68
   2   2   6  501.56   11.75
   2  -2  -6  529.46   11.48
  -2   2   6  552.08   13.91
   2   2  -6  543.89   12.64
  -2  -2   6  535.18   13.68
   2  -2  -7  748.12   15.62
  -2   2  -7  678.18   16.30
  -2   2  -7  670.45   14.21
   2   2   7  670.98   13.31
  -2  -2  -7  657.90   13.14
  -2  -2  -7  662.23   13.25
  -2  -2   7  639.33   14.15
   2   2  -7  698.97   14.59
   2  -2  -7  653.79   13.07
  -2  -2   7  676.40   15.81
   2   2   7  668.37   14.27
  -2   2   7  673.27    7.71
  -2   2   7  666.61   15.04
  -2  -2  -7  655.81   10.78
   2   2   7  664.65   12.29
  -2  -2  -8    2.91    1.86
  -2  -2   8    4.13    2.00
  -2   2   8    2.65    2.06
  -2   2   8    3.08    0.80
   2   2   8    3.23    1.68
   2   2   8    5.90    1.62
  -2   2  -8    5.63    2.76
   2  -2  -8    4.19    1.90
  -2   2  -8    3.77    1.46
  -2  -2  -8    4.49    1.70
  -2  -2  -8    3.03    1.01
  -2  -2   8    2.65    2.16
   2   2   8    4.65    1.50
   2   2  -8    3.62    1.44
   2   2   9   25.38    3.18
  -2  -2   9   25.32    3.79
   2  -2  -9   21.14    2.65
  -2  -2  -9   25.87    2.09
   2   2   9   23.38    2.81
  -2  -2  -9   23.97    3.10
  -2   2  -9   26.14    4.10
  -2  -2   9   20.78    2.94
  -2   2   9   22.63    3.47
   2   2   9   22.23    3.06
  -2  -2  -9   24.14    3.24
  -2   2  -9   25.25    3.00
  -2  -2 -10    9.80    1.31
  -2  -2  10    7.15    3.78
  -2  -2 -10    9.82    2.30
   2   2  10   10.29    2.09
  -2   2 -10    8.78    3.24
  -2  -2  10   11.19    2.34
  -2  -2 -10    8.54    2.63
  -2   2  10   15.26    3.36
  -2   2 -10    6.92    1.74
  -2   2  11  625.24   16.79
  -2  -2  11  602.80   17.75
  -2  -2  11  607.13   14.67
  -2  -2 -11  636.23   16.38
  -2  -2 -11  592.04    8.44
  -2   2 -11  599.55   18.01
   2   2  11  619.74   15.03
  -2   2 -11  644.44   14.80
  -2  -2 -12    4.44    0.81
  -2  -2  12    3.49    1.82
  -2   2 -12    7.38    3.04
  -2   2  12    5.27    3.88
  -2  -2 -12   11.00    3.49
  -2  -2  13 1960.87   34.34
  -2   2 -13 1947.37   34.38
   2   2  13 1988.27   27.64
   2  -2 -13 1990.07   26.37
  -2   2  13 1998.81   32.01
  -2  -2  13 1981.52   27.17
  -2  -2 -13 2008.86   31.53
  -2  -2  14   25.91    7.31
   2   2  14   10.65    4.29
  -2   2  14   16.09    3.95
  -2  -2 -14   15.89    5.01
  -2  -2  14   13.58    3.29
  -2   2 -14   14.36    4.38
   2   2  15   28.78    4.04
  -2   2  15   30.59    5.00
  -2  -2  15   32.81    5.25
  -2  -2  15   31.84    3.85
  -2   2 -15   30.42    5.34
  -2   2  15   26.64    1.67
   2   2  15   32.93    3.86
   2   2  16  104.45    6.64
  -2  -2  16  100.26    8.69
  -2   2  16  108.28    8.63
   2   2  16  112.15    7.75
  -2  -2  16  121.81    7.15
   2  -2  16  103.42    3.28
  -2   2 -16  108.08    9.26
   2   2  17    0.40    2.12
  -2  -2  17   -3.82    4.11
   2   2  17   -1.57    1.81
  -2   2  17    0.25    2.99
  -2  -2  17    0.85    1.82
  -2   2 -17    2.10    3.67
  -2   2 -18   47.48    7.10
   2   2  18   39.89    5.33
   2   2  18   45.60    4.58
  -2   2  18   46.88    6.65
  -2  -2  18   27.16    5.44
   2   2  19   88.17    7.72
   2  -2  19   88.81    8.84
   2   2  19   82.78    6.08
  -2   2  19   85.29    8.80
  -2  -2  19   89.14    9.15
  -2   2 -19   95.71    9.97
   2   2  20    1.55    1.61
  -2  -2  20   -2.03    3.94
   2   2  20   -0.95    2.30
   2  -2  20   -2.46    3.58
  -2   2  20    5.43    4.57
  -2   2 -20    2.78    3.98
  -2  -2  21  150.79   12.54
   2   2  21  142.59   10.51
   2  -2  21  147.58   11.75
  -2   2 -21  134.79   12.34
  -2   2  21  146.38   11.70
  -2  -2  22   97.85   10.29
   2   2  22   93.97    8.68
  -2   2 -22   86.50    9.71
   2  -2  22   85.22    9.47
  -2   2  22   85.58    9.19
   2   2  23    5.43    3.21
  -2  -2  23    1.52    3.92
   2  -2  23    4.22    3.85
  -2   2  23    2.46    3.50
  -2  -2  24    3.21    3.91
   2  -2  24   10.59    4.76
  -2   2  24    6.88    3.64
   2   2  24    8.38    3.90
   2  -2  25    9.62    4.74
  -2  -2  25    4.85    4.85
  -2   2  25    3.37    3.98
   2   2  25    5.60    3.87
   2   2  26   27.29    5.71
   2  -2  26   31.04    6.88
  -2   2  26   25.31    6.34
  -2  -2  26   17.83    5.67
  -2  -2  27   42.18    8.21
  -2   2  27   67.48    9.25
   2   2  27   48.15    7.28
   2  -2  27   50.63    8.70
  -2   2  28   21.01    6.17
   2  -2  28   14.44    5.53
  -2  -2  28   12.30    5.68
   2  -2  29   76.07   10.63
  -2   2  29   77.84   10.62
  -2   2  30   15.33    6.09
  -2  -3   0 1030.34   12.90
  -2   3   0 1054.03   17.85
   2   3   0 1073.61   13.03
  -2  -3   0 1078.63   16.53
   2  -3   0 1084.28   16.92
  -2  -3   0 1062.49   17.74
   2  -3   0 1062.70   15.38
   2  -3   0 1081.01   15.48
  -2   3   0 1041.50   16.56
  -2  -3   0 1088.22   18.67
  -2   3   1  571.29   11.59
   2  -3   1  592.20   12.29
  -2   3   1  576.80   12.78
  -2  -3   1  608.17   14.04
  -2  -3  -1  595.18   12.59
   2  -3  -1  595.83   11.79
  -2  -3   1  580.97   13.42
  -2   3   1  577.60   13.31
  -2  -3  -1  572.56   13.01
   2   3   1  566.07   13.99
  -2  -3  -1  631.58   14.29
   2   3   1  581.36    8.73
  -2  -3  -1  570.03    8.72
   2  -3   1  593.16   11.30
   2   3  -1  575.79   10.48
  -2  -3  -1  591.55   11.67
   2  -3  -1  583.64   12.80
  -2  -3   1  579.66   10.48
  -2   3  -1  577.79   13.35
   2  -3  -1  583.48   11.89
   2  -3   1  602.22   13.52
  -2   3  -1  598.18   12.48
  -2  -3   1  584.99   12.60
   2  -3   2   33.27    3.37
   2  -3  -2   35.16    3.47
  -2  -3   2   32.15    2.85
   2   3  -2   30.54    2.78
  -2  -3  -2   29.18    1.48
  -2  -3   2   36.91    3.97
   2  -3  -2   30.10    3.55
  -2  -3   2   32.88    3.69
  -2  -3  -2   32.91    3.51
   2  -3  -2   32.29    3.25
   2  -3   2   31.74    3.43
   2   3   2   33.50    4.35
  -2  -3   2   34.98    3.37
  -2  -3  -2   34.99    3.24
  -2  -3  -2   37.26    3.68
  -2   3   2   32.35    3.35
  -2  -3  -2   32.07    2.77
  -2  -3  -2   29.36    3.04
   2  -3  -2   34.23    3.06
  -2   3  -2   33.63    3.83
  -2   3   2   29.45    3.06
  -2  -3  -2   31.10    1.95
   2   3   2   32.15    1.96
  -2  -3  -3   86.36    2.85
  -2  -3   3   86.67    4.85
   2   3  -3   87.86    4.79
   2  -3   3   92.02    5.15
  -2   3   3   86.92    5.07
  -2   3   3   91.58    5.34
  -2  -3   3   86.49    5.38
   2  -3  -3   97.88    5.55
   2  -3   3   93.28    5.56
   2  -3  -3   85.08    5.49
  -2   3  -3   95.54    5.83
  -2  -3  -3   87.24    4.68
   2  -3  -3   90.35    5.17
   2   3   3   81.75    2.86
  -2  -3  -3   84.97    4.95
  -2  -3  -3   87.76    5.01
  -2   3   3   91.81    5.53
   2  -3  -3   90.61    4.98
   2   3   3   86.21    2.89
   2   3   3   82.89    5.10
   2   3   3   87.61    6.00
   2   3   4   28.85    2.84
  -2  -3  -4   28.97    3.06
  -2  -3  -4   26.62    2.80
  -2  -3  -4   27.21    1.95
   2   3   4   26.51    1.95
  -2   3   4   22.71    3.01
  -2   3  -4   27.02    3.50
   2   3  -4   27.79    3.01
  -2   3   4   31.12    3.43
   2  -3  -4   30.54    3.18
  -2   3   4   28.34    3.25
  -2   3   4   27.59    3.34
   2  -3  -4   27.38    3.65
   2  -3  -4   23.28    3.33
   2   3   4   28.21    2.37
  -2  -3   4   24.31    2.83
   2   3   4   26.99    3.20
   2  -3   4   28.24    3.39
  -2  -3   4   27.40    3.50
   2   3   4   24.53    1.61
   2   3   4   23.41    3.43
   2  -3  -5  211.70    5.54
   2   3   5  206.78    8.10
   2   3   5  211.84    9.20
  -2  -3   5  206.90    8.15
  -2   3   5  214.08    8.60
  -2   3   5  236.98    9.20
  -2  -3   5  220.79    7.43
   2  -3  -5  218.80    8.17
  -2   3  -5  217.99    9.02
  -2  -3   5  219.99    8.75
   2   3   5  223.41    5.89
  -2   3   5  222.07    8.40
   2  -3  -5  206.38    8.92
   2  -3  -5  213.53    8.96
  -2  -3  -5  224.01    8.32
   2   3   5  220.76    7.46
  -2  -3  -5  207.74    7.22
   2   3   5  222.20    5.97
  -2  -3  -5  214.76    5.94
   2   3  -5  217.29    8.37
  -2   3   6  353.98   11.46
  -2  -3  -6  347.76    8.39
  -2  -3  -6  375.49   11.21
   2   3   6  364.75   11.11
   2   3   6  349.58   12.17
  -2  -3   6  363.56   10.32
  -2   3  -6  362.66   11.93
  -2  -3  -6  352.18    9.38
   2  -3  -6  366.73   10.68
   2   3   6  371.57    8.60
  -2  -3   6  345.00   11.16
   2   3   6  369.74    9.86
  -2  -3   6  354.06   11.17
   2   3   6  357.42    7.11
  -2  -3  -6  342.00    9.54
  -2   3   6  354.92   10.80
  -2   3   7   21.46    3.44
   2   3   7   22.87    1.98
   2   3   7   20.11    2.43
   2  -3  -7   21.04    2.92
   2   3   7   20.60    2.60
  -2  -3  -7   21.12    2.92
  -2  -3   7   24.97    3.93
  -2   3  -7   15.62    3.22
   2   3   7   18.86    4.26
  -2  -3  -7   21.18    2.82
  -2  -3  -7   15.04    2.34
  -2   3   7   17.53    3.08
  -2  -3   7   28.42    3.76
  -2  -3   7   29.10    3.25
  -2  -3  -8  656.49   15.34
  -2  -3   8  668.03   17.31
  -2  -3   8  667.81   15.74
  -2  -3  -8  641.62   12.23
  -2   3   8  672.55   17.10
  -2   3   8  655.08   15.60
  -2  -3  -8  625.36   13.49
   2   3   8  640.22   15.90
   2   3   8  683.55   14.56
   2  -3  -8  641.54   13.04
   2   3   8  679.70   13.74
  -2   3  -8  678.92   17.53
  -2  -3  -9  363.71   11.88
  -2  -3   9  376.99   12.02
   2   3   9  374.62   10.94
  -2   3   9  388.97   12.36
  -2  -3  -9  379.38    9.21
  -2   3  -9  391.11   13.83
   2  -3  -9  360.00    9.99
  -2  -3  -9  368.53   10.95
  -2   3   9  386.04    8.31
   2   3   9  390.21   11.55
   2   3   9  370.25   12.67
  -2  -3   9  382.81   13.66
  -2  -3 -10  153.85    7.96
  -2  -3  10  160.53    8.04
   2   3  10  156.36    8.59
  -2   3  10  158.58    5.63
   2   3  10  169.14    7.82
  -2  -3  10  178.90    9.98
  -2  -3 -10  159.44    5.84
  -2   3  10  168.98    8.46
  -2   3 -10  174.41    9.67
  -2  -3 -10  160.32    7.74
   2  -3 -10  157.82    6.76
  -2   3  11  446.29    9.96
   2   3  11  414.52   10.73
  -2  -3 -11  402.09   13.32
  -2  -3  11  435.30   13.20
  -2  -3 -11  411.10    9.11
   2   3  11  437.13   14.84
  -2   3 -11  439.95   15.88
   2  -3 -11  413.95   10.99
  -2  -3  11  435.76   15.61
  -2   3  11  445.74   14.11
  -2   3 -12    5.78    3.72
  -2  -3 -12    4.16    2.22
  -2  -3  12    4.49    2.18
  -2  -3  12   13.66    5.08
  -2   3  12    3.55    1.36
  -2   3  12    3.91    2.44
  -2  -3 -12    6.00    1.32
   2   3  12    4.90    1.93
   2   3  12    3.94    2.19
  -2  -3  13  116.37    7.12
  -2  -3  13  116.49    9.10
  -2   3  13  109.75    5.60
   2   3  13  112.72    6.31
  -2  -3 -13  112.76    7.68
  -2   3  13  122.92    7.98
   2   3  13  105.96    8.01
  -2  -3 -13  114.97    4.40
  -2   3 -13  113.76    8.89
  -2   3 -14   10.33    3.59
  -2  -3  14    9.02    2.75
  -2   3  14   10.55    3.43
  -2  -3 -14    9.72    1.25
   2   3  14   11.29    3.60
  -2  -3  14   20.14    5.15
   2   3  14    9.83    2.63
  -2  -3 -15   87.31    3.06
   2   3  15   83.70    7.77
  -2   3 -15   96.41    8.64
  -2  -3  15  100.58    8.93
  -2  -3  15  101.66    6.85
  -2   3  15   93.93    7.78
   2   3  15   92.97    6.36
  -2  -3  16    2.58    3.91
  -2   3 -16   -0.10    3.25
   2   3  16    3.73    2.32
  -2  -3  16    1.43    1.69
  -2   3  16    3.58    3.46
   2   3  16    0.14    3.10
  -2  -3  17  384.45   17.72
   2   3  17  385.53   14.01
  -2  -3  17  386.56   13.48
  -2   3 -17  415.84   18.70
  -2   3  17  394.38   16.28
   2   3  17  375.52   17.10
  -2  -3  18  159.50   12.18
  -2   3  18  145.84   10.48
   2   3  18  156.36    9.53
  -2  -3  18  149.25    8.68
  -2   3 -18  150.97   12.09
   2   3  18  151.94   11.64
   2   3  19  306.35   13.59
   2   3  19  301.22   12.01
  -2  -3  19  296.96   16.57
  -2   3 -19  312.37   17.29
  -2  -3  19  308.67   12.19
  -2   3  19  307.39   15.44
   2   3  19  307.42   16.23
   2   3  20   60.20    7.76
  -2   3  20   69.80    7.89
   2   3  20   57.68    5.39
  -2   3 -20   70.59    9.19
   2  -3  20   50.28    7.08
   2   3  20   66.71    6.82
  -2  -3  20   55.62    5.30
  -2  -3  20   61.25    8.47
   2   3  21    6.06    3.17
   2   3  21   -5.30    4.15
  -2   3 -21    1.12    3.95
  -2   3  21    4.97    3.71
   2  -3  21   -1.61    3.58
  -2  -3  21    2.69    3.86
  -2   3  22  105.44    9.85
  -2  -3  22  101.59   10.42
   2   3  22   94.37    8.55
  -2   3 -22   95.33   10.64
   2  -3  22  110.56   10.63
   2   3  22   91.74    9.68
  -2   3 -23    7.32    5.21
  -2  -3  23    6.00    4.89
   2  -3  23    5.70    3.97
  -2   3  23    3.86    3.47
   2   3  23    4.55    3.09
   2   3  23    1.33    3.58
  -2  -3  24   17.17    5.93
   2   3  24   29.02    5.69
  -2   3  24   24.93    5.90
   2   3  24   35.60    7.27
   2  -3  24   22.58    6.04
   2   3  25  268.71   15.25
  -2   3  25  269.05   16.73
   2  -3  25  277.39   18.26
  -2  -3  25  268.98   18.53
   2   3  25  266.89   18.22
   2   3  26    5.80    4.63
  -2  -3  26    8.67    5.10
   2  -3  26    0.79    4.07
  -2   3  26   11.70    4.96
  -2  -3  27    5.32    4.08
   2   3  27    7.92    3.95
   2   3  28   62.38    9.83
   2  -3  28   86.94   11.76
  -2   3  28   76.59   10.02
  -2   3  29  229.79   16.99
   2   4   0    4.30    1.08
  -2  -4   0    7.68    1.47
   2  -4   0    4.52    2.24
  -2  -4   0    1.78    1.21
  -2  -4   0    2.94    1.78
  -2   4   0    5.24    2.02
   2  -4   0    3.10    1.25
  -2   4   0    1.63    1.87
   2   4  -1    6.60    1.37
  -2  -4  -1    6.14    1.21
   2   4   1    5.46    1.04
   2  -4   1   10.42    2.76
  -2   4   1    7.38    2.57
  -2  -4   1    6.35    1.64
  -2  -4  -1    8.65    2.32
   2  -4  -1    4.73    2.01
  -2  -4  -1    6.09    1.57
   2  -4  -1    3.63    1.85
  -2   4   1    4.57    1.81
  -2  -4  -1    7.19    1.97
   2  -4   1    8.73    2.14
  -2  -4   1    5.29    0.82
  -2   4  -1    6.32    2.18
   2  -4   1    5.16    2.29
   2  -4  -1    8.47    2.10
  -2   4   1    2.18    2.06
   2  -4   2  106.55    5.70
  -2   4   2  106.77    6.46
  -2  -4  -2  100.21    3.25
   2  -4  -2  105.66    6.45
  -2  -4   2  101.74    5.01
   2   4   2  104.02    3.19
   2   4  -2  103.34    4.91
   2  -4  -2  106.45    5.88
   2  -4  -2  101.27    6.01
   2   4   2  117.16    7.50
  -2  -4   2   98.78    3.60
   2  -4   2  105.94    6.18
   2  -4   2  104.02    6.13
  -2  -4  -2  102.04    5.07
  -2  -4  -2  102.89    6.02
  -2   4  -2  111.17    6.41
  -2  -4  -2  108.98    6.04
  -2   4   2   92.01    5.81
  -2   4   3   99.39    6.07
   2   4   3  123.36    6.91
   2   4   3  118.59    7.47
  -2   4  -3  107.93    6.45
   2   4  -3  113.02    5.54
   2  -4  -3  109.86    6.49
   2  -4  -3  108.60    6.82
  -2  -4  -3  110.33    6.34
   2  -4   3  104.94    6.29
  -2  -4   3  107.85    5.49
   2  -4  -3  112.84    6.21
  -2  -4  -3  109.46    4.98
  -2  -4  -3  110.74    6.02
  -2  -4   3  109.69    4.36
   2  -4  -3  108.30    5.89
   2   4   4  375.64   11.92
  -2  -4   4  372.04   10.83
  -2  -4  -4  333.13    8.10
   2   4   4  352.82    5.67
   2   4  -4  391.93   10.94
   2  -4  -4  383.84   12.55
   2   4   4  391.96   13.26
  -2  -4   4  384.58   12.31
  -2   4  -4  383.44   12.13
  -2   4   4  377.43   11.93
  -2  -4   4  361.94    8.87
   2  -4  -4  398.53   12.01
  -2  -4  -4  377.54   10.96
   2  -4  -4  369.51   12.01
   2  -4  -4  395.38   11.11
  -2   4  -5   24.06    3.59
  -2  -4   5   20.42    3.48
  -2  -4  -5   32.79    3.60
   2   4   5   30.83    4.56
   2   4  -5   26.37    3.15
  -2   4   5   25.37    3.80
   2  -4  -5   21.30    3.70
   2   4   5   37.78    4.28
   2   4   5   22.82    1.88
   2  -4  -5   28.95    3.85
   2  -4  -5   37.44    3.11
  -2  -4   5   27.49    3.38
  -2  -4   5   31.00    2.98
   2  -4  -5   35.11    3.57
   2   4   5   28.13    3.16
  -2   4  -6  724.35   17.52
   2  -4  -6  710.99   12.44
   2   4   6  715.72   11.03
  -2   4   6  732.01   15.77
  -2  -4   6  730.86   14.69
  -2   4   6  717.25   17.49
   2   4   6  719.13   15.54
   2  -4  -6  730.59   18.00
   2   4   6  703.34   16.99
  -2  -4  -6  702.30   15.40
   2   4   6  690.48   18.20
  -2  -4   6  710.21   16.39
   2  -4  -6  714.09   15.38
   2  -4  -6  716.17   18.10
  -2  -4   6  706.23   17.06
  -2   4   7  362.06   11.48
  -2  -4   7  367.99   12.52
   2   4   7  331.10    5.10
   2   4   7  359.34    8.77
   2  -4  -7  369.61   13.36
   2   4   7  353.96   11.32
  -2  -4   7  363.44   11.09
  -2  -4   7  372.61   12.72
  -2   4   7  362.65   12.85
  -2  -4  -7  352.20   11.19
  -2   4  -7  379.83   13.28
   2  -4  -7  368.53   11.28
   2   4   7  360.51   13.38
   2   4   7  360.33   12.57
  -2  -4   8 1004.97   21.54
  -2  -4  -8  980.60   19.34
   2   4   8  993.14   10.50
   2   4   8 1040.91   16.24
  -2   4   8 1019.43   19.65
  -2   4   8 1003.70   22.16
   2   4   8 1014.27   21.59
   2   4   8 1028.25   22.81
  -2  -4   8 1020.51   21.03
  -2   4  -8 1034.51   22.55
   2   4   9  202.47    7.76
   2  -4  -9  197.87    7.44
   2   4   9  197.38    5.44
  -2  -4   9  195.05    9.44
   2   4   9  211.53   10.42
  -2  -4  -9  201.50    9.82
  -2   4   9  198.47   10.41
   2   4   9  204.22   10.59
  -2   4  -9  214.60   10.86
  -2  -4   9  215.55   10.72
  -2   4   9  202.27    9.07
   2   4  10  345.30   10.82
   2   4  10  331.36   13.60
   2   4  10  336.41    7.83
  -2   4 -10  333.27   13.77
  -2  -4 -10  334.92   12.73
  -2   4  10  334.78   12.11
  -2   4  10  341.03   13.86
  -2  -4  10  348.17   13.76
   2  -4 -10  341.99    9.72
  -2  -4  10  351.64   12.65
   2   4  10  345.99   13.45
  -2   4  11   -3.09    3.68
  -2  -4  11   -1.99    2.06
  -2  -4  11    7.56    4.39
   2   4  11    1.93    1.39
   2  -4 -11    2.02    1.17
  -2  -4 -11    0.25    2.06
   2   4  11   -1.69    2.37
  -2   4  11   -0.25    2.15
  -2   4 -11   -1.75    3.10
  -2   4  11    2.88    2.12
  -2   4  12   15.66    3.79
   2   4  12   22.25    2.58
   2  -4 -12   19.46    2.50
  -2  -4  12   19.14    4.47
  -2  -4 -12   20.35    3.62
  -2  -4  12   18.74    3.49
  -2   4 -12   25.69    4.80
   2   4  12   17.11    3.92
  -2   4  12   19.79    2.93
  -2   4  12   20.47    3.83
   2   4  13    9.41    2.22
   2   4  13    6.92    2.93
  -2  -4  13    5.00    2.20
  -2  -4  13    8.55    3.55
  -2   4 -13    4.14    3.02
  -2   4  13    0.29    3.54
  -2  -4 -13    8.34    3.04
  -2   4  13    5.95    2.89
  -2   4  13    6.49    2.25
  -2  -4 -13    4.81    1.46
  -2   4  14  128.29    8.55
  -2  -4  14  129.71   10.07
  -2   4 -14  118.45    9.51
  -2  -4 -14  119.07    5.43
  -2  -4  14  135.70    8.26
   2   4  14  124.64    9.34
  -2   4  14  118.46    9.64
   2   4  14  128.94    6.69
  -2  -4 -14  128.99    8.89
  -2   4  14  129.58    6.75
   2   4  15  403.73   12.28
  -2   4  15  399.98   15.41
  -2  -4 -15  402.01    9.44
  -2   4  15  388.10   17.40
  -2  -4  15  409.80   14.37
  -2  -4  15  400.77   17.70
   2   4  15  417.84   17.32
  -2   4  15  422.00   12.33
  -2   4 -15  412.62   17.98
  -2   4  16   71.05    5.35
  -2  -4  16   84.46    8.92
  -2  -4  16   68.40    6.14
  -2  -4 -16   73.04    3.81
  -2   4  16   69.99    6.92
  -2   4  16   61.13    7.26
   2   4  16   73.21    5.79
  -2   4 -16   73.64    8.31
   2   4  16   62.51    7.41
   2   4  17    4.94    2.42
  -2  -4  17    3.10    3.25
   2   4  17   -3.55    3.72
  -2   4 -17    0.38    2.98
  -2  -4  17   -0.14    2.25
  -2   4  17   -3.59    3.75
  -2   4  17   -1.22    2.37
  -2   4  17   -1.76    4.89
  -2   4  18    6.36    3.12
  -2  -4  18    6.89    3.94
  -2  -4  18    9.99    2.71
  -2   4  18    5.59    2.04
  -2   4 -18    4.31    3.17
   2   4  18   11.35    2.98
   2   4  18    6.94    3.18
  -2   4  19   -3.29    2.84
  -2   4  19   -0.85    2.81
  -2  -4  19   -1.39    4.14
   2   4  19    1.75    2.27
  -2   4 -19    0.93    2.97
  -2  -4  19    2.23    2.15
   2   4  19   -0.07    3.65
  -2  -4  20  197.76   10.43
  -2   4 -20  185.52   13.92
  -2   4  20  173.63   11.88
  -2  -4  20  172.70   13.39
   2   4  20  185.15   10.44
   2  -4  20  195.33   14.16
   2   4  20  181.07   13.56
   2   4  21    9.61    3.01
  -2   4  21   12.74    4.68
   2  -4  21    3.65    3.21
   2   4  21    5.10    4.20
  -2   4 -21   14.81    5.91
  -2  -4  21   13.63    5.74
   2   4  22   83.10    7.64
  -2  -4  22   87.13   10.32
   2  -4  22   80.72    9.52
   2   4  22   78.75    9.57
  -2   4  22   79.05    8.75
  -2   4 -22   86.03   10.25
  -2   4  23   22.67    5.73
  -2   4 -23   22.76    6.25
  -2   4  23   23.42    5.36
  -2  -4  23   20.47    5.36
   2  -4  23   18.14    5.36
   2   4  23   17.90    5.35
  -2   4  24   28.36    5.63
   2   4  24   37.01    7.56
  -2   4  24   22.53    6.22
  -2  -4  24   32.36    7.01
   2  -4  24   27.37    6.40
  -2   4 -24   34.57    7.94
  -2  -4  25   57.85    9.30
  -2   4  25   61.63    8.39
   2  -4  25   64.79    9.35
   2   4  25   49.23    8.53
  -2   4  25   46.88    8.23
  -2   4  26   -0.04    3.47
  -2   4  26   -2.00    5.14
   2  -4  26   -0.81    3.45
  -2  -4  26    1.36    4.56
   2   4  26   -0.67    4.08
  -2  -4  27   33.42    7.49
   2  -4  27   50.26    8.97
   2   4  27   26.45    6.49
  -2   4  27   29.55    6.09
  -2   4  27   25.04    6.73
   2   4  28   42.08    8.56
   2  -5   0 4180.58   42.59
  -2   5   0 4182.27   39.14
  -2  -5   0 4081.51   27.53
  -2  -5  -1   15.12    3.39
   2  -5   1   12.86    3.33
   2  -5  -1   11.40    2.89
  -2  -5   1   11.36    1.94
  -2  -5   1    9.80    0.94
  -2   5   1    8.30    2.53
  -2   5  -1    8.11    2.18
  -2  -5  -1   12.41    1.60
  -2  -5   2  124.62    5.78
   2  -5   2  130.98    7.61
  -2   5   2  133.89    7.71
   2  -5  -2  135.59    7.58
  -2  -5  -2  135.65    7.47
  -2   5  -2  140.88    7.62
  -2  -5  -2  141.23    6.40
   2  -5  -2  128.57    7.71
  -2  -5   2  137.48    4.26
  -2  -5  -2  123.49    3.67
  -2   5   2  129.20    7.28
  -2  -5   3   82.97    5.18
   2  -5  -3   76.28    6.12
  -2   5  -3   76.23    6.03
   2  -5   3   78.33    6.05
   2  -5  -3   82.49    5.44
   2  -5  -3   81.37    6.58
  -2  -5   3   81.20    3.76
  -2  -5  -3   75.97    5.73
  -2  -5  -3   75.60    4.54
  -2   5   3   82.36    6.28
   2  -5  -4  130.16    8.18
   2  -5  -4  111.80    7.32
  -2   5  -4  121.61    7.38
  -2  -5  -4  121.42    5.36
   2  -5   4  123.16    7.63
   2   5   4  120.32    8.61
  -2  -5   4  126.49    6.71
   2  -5  -4  124.15    6.64
  -2  -5  -4  111.65    6.85
  -2   5   4  121.42    7.61
  -2  -5   4  120.75    5.17
   2   5   4  128.89    8.09
  -2  -5  -5  390.52   12.68
   2   5   5  360.23    5.98
   2   5   5  412.16   14.69
  -2  -5   5  385.05    9.97
   2   5   5  408.92   13.98
   2  -5  -5  393.66   11.07
   2  -5  -5  393.67   13.68
   2  -5  -5  390.85   14.03
  -2   5   5  380.68   13.39
  -2  -5  -5  389.80    8.91
   2  -5  -5  400.64   11.83
  -2   5  -5  402.82   13.40
  -2  -5   5  386.60   12.12
  -2   5   6   59.42    5.82
   2  -5  -6   63.73    5.92
   2   5   6   60.39    5.82
   2   5   6   53.60    5.94
   2   5   6   60.63    3.00
   2  -5  -6   57.96    5.96
  -2   5  -6   62.76    5.69
  -2  -5   6   62.97    5.59
  -2  -5  -6   57.16    5.19
  -2  -5   6   62.23    4.38
   2  -5  -6   60.11    4.37
   2  -5  -6   58.73    4.61
   2  -5  -7  516.44   12.39
  -2  -5   7  539.04   15.65
  -2  -5   7  535.22   13.57
   2   5   7  534.93   16.58
   2  -5  -7  502.89   16.58
  -2  -5   7  523.01   16.01
  -2  -5  -7  521.33   14.98
   2  -5  -7  510.12   16.93
  -2   5   7  537.61   16.85
   2   5   7  537.06   10.04
  -2   5  -7  575.85   16.90
   2   5   7  529.30   17.22
  -2  -5   8 1862.21   30.35
  -2   5  -8 1796.61   30.76
   2  -5  -8 1790.78   31.94
   2   5   8 1791.10   30.80
   2  -5  -8 1854.81   32.69
   2   5   8 1816.73   20.36
  -2  -5   8 1726.61   29.39
  -2  -5  -8 1747.32   28.31
  -2   5   8 1756.45   26.23
   2   5   8 1801.45   31.89
  -2   5   8 1802.30   31.44
   2   5   9    0.08    3.11
   2   5   9   -1.20    2.96
  -2  -5  -9    2.46    2.33
  -2   5  -9    4.66    3.15
   2   5   9    1.81    1.27
   2  -5  -9   -0.13    2.59
  -2  -5   9    3.69    3.01
  -2   5   9    3.43    3.16
  -2   5   9    4.09    2.28
   2   5  10  283.92   13.36
  -2  -5  10  305.55   13.41
   2  -5 -10  291.60    9.06
  -2  -5 -10  303.35   12.28
  -2  -5 -10  301.82   13.24
  -2   5 -10  302.47   13.50
   2   5  10  300.41    9.74
  -2  -5  10  292.18   12.57
  -2   5  10  289.77   13.60
   2   5  10  307.89   13.68
   2   5  10  268.16    5.51
  -2   5  10  308.14   11.51
   2   5  11  108.50    4.14
  -2  -5 -11  108.53    8.18
  -2  -5  11  106.17    7.80
   2  -5 -11  113.46    5.66
  -2   5  11  113.17    7.48
   2   5  11   96.93    8.27
  -2   5 -11  108.48    8.57
   2   5  11  109.22    6.36
   2   5  11  110.45    8.76
  -2   5  11  118.74    9.10
  -2  -5  11  110.92    8.86
  -2   5 -12   22.88    4.61
  -2   5  12   25.13    4.02
  -2  -5  12   24.07    4.33
   2   5  12   22.95    2.28
   2  -5 -12   22.06    2.57
  -2  -5 -12   25.59    4.34
  -2  -5  12   27.24    5.10
   2   5  12   20.01    3.93
  -2   5  12   19.71    4.23
   2   5  12   23.84    4.69
  -2   5  13  109.09    6.70
  -2   5 -13   96.12    8.87
  -2   5  13   88.41    8.51
  -2  -5 -13  106.87    8.48
  -2  -5  13  103.24    7.79
   2   5  13  115.34    9.29
  -2  -5  13  110.25    9.31
   2   5  13   99.71    4.91
   2   5  13  100.37    8.82
  -2   5  13  100.60    7.65
   2   5  14  672.82   13.55
  -2  -5  14  661.69   22.72
  -2   5  14  693.08   16.32
  -2   5  14  680.74   23.03
  -2  -5 -14  670.66   21.29
  -2  -5  14  707.94   20.05
  -2   5 -14  704.10   22.97
   2   5  14  673.75   21.94
   2   5  14  703.38   22.67
  -2   5  14  688.19   19.50
   2   5  15  210.43    8.13
  -2   5  15  232.94   10.02
  -2  -5  15  224.56   11.63
  -2  -5 -15  216.69   12.66
  -2   5  15  226.95   14.47
  -2  -5  15  239.69   14.45
   2   5  15  231.08   13.56
  -2   5  15  237.50   11.97
   2   5  15  221.35   13.02
  -2   5 -15  222.60   13.87
   2   5  16   15.60    2.64
  -2   5  16   20.10    3.81
   2   5  16    7.20    4.14
  -2  -5 -16   13.66    2.31
  -2  -5  16   18.63    3.63
  -2  -5  16   17.01    5.16
  -2   5 -16   17.45    4.69
   2   5  16   18.81    4.94
  -2  -5 -16   14.69    3.58
  -2   5  16   15.10    4.33
  -2   5  16    7.77    3.52
  -2   5  17   23.55    4.45
  -2   5  17   19.55    4.52
  -2  -5  17   35.25    6.96
   2   5  17   28.96    3.58
  -2   5 -17   27.64    5.78
  -2  -5  17   29.53    4.46
  -2   5  17   34.31    4.46
   2   5  17   28.40    5.43
   2   5  17   16.96    4.52
  -2   5  18  129.53    8.02
  -2  -5  18  127.38   11.11
  -2   5  18  138.27   10.02
   2   5  18  132.23    7.71
   2   5  18  125.64   11.00
  -2   5  18  139.86   11.94
  -2  -5  18  138.13    9.22
  -2   5 -18  121.14   11.23
   2   5  19  184.35   13.60
  -2  -5  19  202.73   11.21
  -2   5 -19  192.37   14.40
  -2  -5  19  183.12   13.68
  -2   5  19  189.33   14.16
  -2   5  19  206.15   12.37
  -2   5  20   49.07    7.73
  -2   5 -20   52.16    7.92
   2   5  20   57.18    7.81
  -2  -5  20   65.77    6.54
  -2   5  20   74.78    7.94
  -2  -5  20   62.28    8.57
  -2   5  21   16.45    4.77
  -2  -5  21    7.19    4.08
   2  -5  21    5.40    3.70
  -2   5  21   10.62    4.16
  -2   5 -21   11.64    5.50
   2   5  21   14.85    5.33
   2  -5  22  248.41   16.92
  -2   5 -22  263.74   17.63
   2   5  22  238.17   16.68
  -2   5  22  231.49   16.77
  -2  -5  22  248.79   17.27
  -2   5  22  258.79   14.73
  -2   5  23   -1.85    3.36
  -2   5 -23    4.51    4.42
  -2   5  23    3.90    3.94
  -2  -5  23   -5.85    4.75
   2  -5  23    8.16    5.78
   2   5  23    5.50    4.02
  -2  -5  24   49.34    8.34
  -2   5 -24   48.85    8.40
   2  -5  24   51.90    8.84
  -2   5  24   50.80    7.35
   2   5  24   46.09    7.97
  -2   5  24   36.99    7.34
  -2  -5  25   -4.27    4.71
   2  -5  25   -4.21    3.57
  -2   5  25   -3.06    3.92
   2   5  25    1.77    3.15
  -2  -5  26   90.72   11.66
   2  -5  26   95.33   11.96
   2   5  26   87.79   11.11
  -2   5  26   82.19   11.50
   2   5  27   16.37    5.30
   2   5  27   16.50    6.34
  -2  -6   0  697.80   12.09
   2  -6   0  681.17   18.80
  -2   6   0  680.63   16.84
  -2  -6   0  718.94   18.78
   2  -6   1   30.41    4.53
  -2  -6  -1   29.34    2.32
   2  -6  -1   29.02    4.38
  -2  -6  -1   32.63    4.58
  -2   6  -1   29.22    4.11
  -2   6   1   26.45    3.55
  -2  -6   1   27.34    2.84
   2  -6   2   19.30    3.77
   2  -6  -2   18.20    3.13
  -2  -6   2   19.11    2.73
  -2  -6   2   20.58    1.72
  -2  -6  -2   17.53    1.57
  -2   6   2   20.28    3.57
  -2   6  -2   26.50    4.03
  -2  -6  -2   20.57    3.89
  -2  -6  -3   49.26    5.19
  -2  -6   3   48.08    4.34
   2  -6  -3   50.45    5.51
   2  -6  -3   52.28    5.87
  -2   6   3   50.75    5.72
   2  -6   3   54.03    5.80
  -2  -6   3   51.48    3.06
  -2   6   3   49.24    5.07
  -2  -6  -3   53.02    4.14
  -2   6  -3   46.04    4.98
  -2  -6   4  275.27    7.90
  -2   6  -4  276.25   11.48
   2  -6  -4  289.94   12.51
  -2  -6  -4  282.56   11.89
  -2  -6   4  280.96   10.18
   2  -6   4  283.43   12.25
   2  -6  -4  280.60   12.78
  -2  -6  -4  276.16    8.83
  -2   6   4  278.10   12.26
  -2   6   5  134.97    8.76
  -2   6  -5  147.19    8.62
  -2  -6  -5  139.33    8.51
   2  -6  -5  147.19    9.17
   2   6   5  154.62    9.82
   2   6   5  164.72   10.67
  -2  -6   5  141.88    6.27
   2  -6   5  149.99    9.37
  -2  -6  -5  141.13    5.97
   2  -6  -5  151.24    9.53
  -2  -6   5  146.77    7.88
  -2  -6   6   12.33    2.17
  -2  -6  -6   13.50    1.92
   2   6   6   12.98    3.73
  -2  -6  -6   13.28    3.09
   2   6   6   17.15    4.59
   2  -6  -6   13.61    3.59
   2  -6  -6   13.54    3.51
  -2   6   6   10.66    3.13
   2   6   6   12.12    1.26
  -2  -6   6   15.01    3.41
  -2   6  -6   12.92    3.07
   2   6   7  204.72   11.31
   2   6   7  226.70   12.27
   2   6   7  208.05    5.88
   2  -6  -7  211.12   11.36
  -2   6   7  197.28   10.97
  -2   6  -7  201.35   10.61
  -2  -6   7  210.70   10.22
   2  -6  -7  211.09   11.65
  -2  -6  -7  212.32   10.57
   2   6   8   12.49    4.35
   2   6   8   11.27    4.14
   2  -6  -8    7.64    3.09
  -2   6  -8   12.76    3.41
  -2   6   8    3.68    3.58
   2   6   8   11.87    1.72
  -2  -6   8   15.11    3.75
   2  -6  -8    3.83    2.49
  -2  -6  -8    6.81    2.81
   2   6   9   17.91    4.48
  -2  -6   9   20.33    4.19
  -2  -6  -9   23.71    4.17
  -2   6  -9   26.25    4.63
   2   6   9   16.18    4.35
   2  -6  -9   19.71    3.99
   2  -6  -9   15.77    3.74
  -2   6   9   22.64    5.04
   2   6   9   25.05    2.67
  -2  -6   9   23.17    4.35
   2  -6 -10   58.60    6.69
  -2  -6 -10   70.00    7.08
  -2  -6  10   58.09    6.29
  -2   6 -10   76.91    7.27
  -2  -6 -10   54.71    6.10
   2   6  10   68.51    7.65
  -2  -6  10   59.56    6.59
   2   6  10   49.37    6.43
   2   6  10   54.78    4.09
  -2   6  10   61.26    7.32
  -2  -6 -11  646.07   19.86
  -2  -6  11  626.28   20.56
  -2  -6 -11  659.27   21.16
   2  -6 -11  657.78   22.04
   2   6  11  659.14   21.45
  -2  -6  11  690.16   20.44
   2   6  11  662.69   15.08
   2  -6 -11  676.54   13.87
  -2   6  11  656.88   22.03
  -2   6  11  663.49   17.55
  -2   6 -11  676.69   21.34
   2   6  11  640.77   21.30
   2   6  12  198.76   12.26
  -2  -6  12  207.64   12.39
  -2  -6  12  210.42   11.57
  -2   6  12  202.33    9.95
   2   6  12  171.89    3.98
  -2   6  12  198.28   12.65
   2  -6 -12  205.98    7.52
  -2   6 -12  204.80   12.37
   2   6  12  219.29   12.78
  -2  -6 -12  209.18   12.13
   2  -6 -13  148.57    6.20
  -2   6  13  142.46   11.28
   2   6  13  144.03   10.61
   2   6  13  161.37   11.64
  -2  -6  13  147.43   10.04
  -2   6 -13  147.36   10.91
  -2  -6  13  152.11   10.88
  -2   6  13  142.98    8.78
  -2  -6 -13  171.25   11.29
   2   6  13  139.40    4.52
  -2   6 -14  354.90   17.06
  -2  -6  14  349.91   16.96
   2   6  14  368.53   17.45
   2   6  14  328.57    7.98
  -2  -6  14  342.49   14.91
  -2   6  14  369.69   14.09
   2   6  14  350.10   16.69
  -2  -6 -14  352.39   16.27
  -2   6  14  355.21   17.51
   2   6  15  167.15   12.70
  -2   6 -15  153.90   11.64
   2   6  15  153.43   11.64
  -2  -6 -15  164.36   11.64
  -2   6  15  174.68   12.97
  -2  -6  15  159.40   10.43
  -2   6  15  175.52   10.12
  -2  -6  15  174.53   12.56
  -2   6  16  238.40   15.12
  -2  -6 -16  223.50   13.65
  -2   6 -16  225.21   14.35
  -2  -6  16  233.09   12.62
   2   6  16  213.63   14.07
  -2   6  16  232.01   11.96
   2   6  16  213.33   13.65
  -2  -6  16  234.08   14.71
  -2   6  17    7.93    3.27
  -2  -6  17    1.72    3.57
  -2  -6  17    1.35    2.85
   2   6  17   -1.16    3.56
  -2   6 -17   -0.30    3.60
   2   6  17    1.16    3.93
  -2   6  17   10.23    4.80
  -2   6  17    6.90    3.04
  -2  -6 -17    3.78    2.97
  -2   6 -18  109.38   10.62
   2   6  18  107.47   10.71
   2   6  18  100.06    9.70
  -2   6  18  103.45   10.58
  -2  -6  18  105.42    8.64
  -2  -6  18  104.34   10.32
  -2   6  18  109.92    9.03
  -2   6  19   15.22    3.99
   2   6  19   11.53    3.29
  -2  -6  19   20.75    5.81
   2   6  19   21.10    5.50
  -2  -6  19   16.86    3.51
  -2   6  19   24.94    5.50
  -2   6 -19   28.53    6.17
  -2  -6  20    1.69    3.95
  -2   6 -20    7.48    4.51
   2   6  20    2.91    3.86
  -2   6  20    2.16    3.16
  -2  -6  20   -2.18    2.47
  -2   6  20   -1.36    4.29
   2   6  20   -3.55    4.28
   2   6  21   13.81    4.23
  -2  -6  21   16.57    5.70
   2  -6  21    9.21    4.16
  -2   6 -21   19.61    5.97
   2   6  21   13.42    5.72
  -2   6  21   13.85    4.06
  -2   6  21   18.71    5.78
  -2  -6  22  117.96   12.18
   2  -6  22  116.27   12.18
  -2   6 -22  115.23   12.31
   2   6  22  114.36   11.31
   2   6  22  115.90   12.06
  -2   6  22  106.91   11.96
  -2  -6  23   31.57    7.14
   2   6  23   39.00    7.98
  -2   6 -23   39.61    8.45
   2   6  23   29.78    6.50
   2  -6  23   33.52    7.35
  -2   6  23   31.15    6.97
   2  -6  24  185.48   15.79
   2   6  24  195.02   16.11
  -2  -6  24  175.21   15.48
   2   6  24  192.06   15.27
  -2   6 -24  183.36   16.03
  -2   6  24  192.74   16.63
  -2   6 -25    8.58    6.21
   2   6  25    5.33    5.40
   2  -6  25    0.75    3.99
   2   6  25   -1.14    3.65
  -2   6  25    2.85    4.63
  -2  -6  25    2.85    4.01
   2   6  26   37.72    7.24
   2   6  26   49.78    8.94
   2  -7   0    7.72    3.22
  -2  -7   0    8.34    1.79
  -2  -7   0   13.66    3.79
  -2   7   0   12.66    3.42
  -2  -7  -1  948.75   23.21
  -2  -7   1  922.20   16.06
  -2  -7  -1  922.29   13.14
   2  -7   1  926.63   23.81
   2  -7  -1  928.34   23.80
  -2   7   1  914.48   20.30
  -2  -7   1  928.77   23.43
  -2   7  -1  920.99   20.56
  -2  -7  -2  274.72    6.20
  -2  -7   2  282.12    9.57
   2  -7   2  277.69   13.25
   2  -7  -2  273.59   13.23
  -2  -7   2  276.22    6.10
  -2   7   2  289.21   11.45
  -2  -7  -2  273.95   12.61
  -2   7  -2  295.71   11.92
  -2  -7  -3  790.64   21.36
  -2  -7   3  762.36   16.63
  -2   7  -3  768.48   19.27
   2  -7  -3  783.80   21.44
   2  -7   3  796.69   22.00
  -2  -7   3  787.45   12.00
  -2   7   3  763.85   18.75
   2  -7  -3  800.35   22.56
   2  -7  -4  177.10   11.14
  -2   7   4  170.00    9.10
  -2  -7   4  175.66    8.62
  -2  -7  -4  167.83    7.50
   2  -7  -4  175.54   10.58
  -2  -7   4  172.90    6.33
  -2  -7  -4  167.28   10.02
   2  -7   4  175.24   10.64
  -2   7   4  181.17   10.97
  -2   7  -4  171.53    9.42
  -2  -7   5  232.44   10.35
  -2   7   5  242.00   12.83
  -2  -7  -5  238.91   11.90
  -2   7   5  244.43   11.16
   2  -7  -5  243.15   12.70
   2  -7  -5  268.15   13.50
  -2   7  -5  248.34   11.50
   2  -7   5  239.47   12.50
  -2  -7  -5  238.89    8.49
  -2  -7   5  234.16    8.13
  -2  -7   6  345.43   10.64
  -2   7   6  321.93   14.62
   2  -7  -6  357.39   15.27
   2   7   6  360.03   15.68
  -2  -7   6  360.92   13.19
   2  -7   6  344.12   15.08
   2  -7  -6  336.25   15.44
  -2  -7  -6  341.34   14.23
  -2  -7  -6  337.61    9.38
  -2   7  -6  353.20   14.00
   2  -7  -7  919.56   25.04
   2   7   7  902.56   10.62
  -2  -7   7  922.38   22.18
   2   7   7  961.87   25.73
  -2  -7  -7  940.77   14.32
   2  -7  -7  917.26   25.70
  -2  -7  -7  915.10   23.82
  -2   7  -7  955.48   23.62
  -2   7   7  909.52   24.81
  -2   7   8  160.32   11.00
   2   7   8  182.28   12.20
  -2  -7   8  174.21   10.24
  -2  -7  -8  165.62   10.49
   2  -7  -8  189.66   11.79
   2   7   8  173.23   11.46
   2  -7  -8  173.71   11.55
  -2   7  -8  160.31   10.25
   2   7   8  165.62    5.45
   2  -7  -9  145.83   10.74
   2   7   9  141.97    5.68
  -2  -7   9  130.91    9.27
  -2   7  -9  134.80    9.56
  -2   7   9  130.96   10.17
   2   7   9  131.43   10.14
  -2  -7  -9  144.21    9.86
   2   7   9  148.48   11.09
   2  -7  -9  138.05   10.52
   2  -7 -10   92.59    9.06
  -2   7  10   96.15    9.25
  -2   7 -10   87.48    8.42
   2   7  10   93.29    9.24
   2   7  10  115.41   10.31
  -2  -7  10  104.60    9.00
   2  -7 -10   81.21    8.83
  -2  -7 -10   86.75    8.17
   2   7  11 2514.54   44.15
  -2   7  11 2397.98   43.75
  -2   7 -11 2474.44   41.85
  -2  -7 -11 2510.37   43.66
  -2  -7  11 2474.56   41.17
   2  -7 -11 2544.48   45.04
   2   7  11 2425.63   43.63
  -2  -7  11 2480.89   41.04
  -2  -7 -11 2477.95   41.19
  -2  -7  12  561.50   20.57
  -2   7 -12  524.69   20.10
  -2  -7 -12  552.95   20.81
   2  -7 -12  535.17   21.44
  -2  -7  12  550.00   19.56
   2   7  12  551.46   21.00
  -2  -7 -12  528.22   19.37
   2   7  12  522.17   20.69
   2  -7 -12  515.50   11.96
  -2   7  12  525.27   21.54
  -2  -7  13  176.02   11.31
  -2  -7  13  192.72   12.75
  -2  -7 -13  183.60   12.35
  -2   7 -13  192.31   12.53
  -2   7  13  211.74   14.02
   2  -7 -13  186.66    6.93
   2   7  13  189.01   12.83
   2   7  13  183.16   12.63
  -2  -7  14  147.39   11.44
  -2   7  14  158.86   12.60
  -2  -7 -14  139.55   10.96
  -2  -7  14  128.45   10.11
   2   7  14  122.44   10.68
   2   7  14  148.45   11.68
  -2   7  14  152.52    9.19
  -2   7 -14  143.20   11.15
  -2  -7  15   13.97    4.59
  -2   7  15   10.61    3.37
  -2  -7  15   13.69    3.99
  -2  -7 -15   10.20    3.97
   2   7  15   13.10    4.90
   2   7  15    4.43    3.92
  -2   7  15   15.66    5.67
  -2   7 -15    6.54    3.61
  -2  -7  16  202.32   13.92
  -2   7 -16  211.95   14.20
  -2  -7  16  205.90   12.54
  -2  -7 -16  219.27   14.27
  -2   7  16  197.00   10.85
   2   7  16  205.98   14.52
  -2   7  16  211.53   15.06
   2   7  16  209.48   14.02
  -2  -7  17  244.68   15.78
  -2   7 -17  232.44   15.39
  -2  -7  17  257.05   14.02
  -2   7  17  260.53   12.67
  -2   7  17  254.39   16.75
   2   7  17  261.30   16.51
  -2  -7 -17  244.66   15.34
   2   7  17  233.69   15.11
  -2  -7  18   85.09    8.23
  -2  -7  18   98.12   10.52
   2   7  18   87.69    9.73
  -2  -7 -18  100.61   10.31
  -2   7 -18   97.19   10.37
  -2   7  18  102.40   11.39
   2   7  18   76.00    9.97
  -2   7  18   85.04    7.78
  -2  -7  19   91.93   10.49
   2   7  19   76.89    9.31
   2   7  19   80.15   10.16
  -2   7 -19   82.71   10.00
  -2  -7  19   77.14    7.94
  -2   7  19   83.35   10.30
  -2  -7  20   -0.09    2.30
  -2   7 -20   -0.56    3.51
   2   7  20   -0.94    4.63
  -2  -7  20    4.33    3.87
   2   7  20    8.94    5.29
  -2   7  20    9.43    5.08
  -2   7 -21  158.37   14.08
  -2  -7  21  162.33   14.44
   2  -7  21  157.31   14.21
   2   7  21  156.80   14.20
  -2   7  21  153.01   14.33
   2   7  21  163.13   13.34
   2   7  22    5.06    3.41
  -2   7 -22    1.77    3.91
  -2  -7  22    5.25    3.93
   2  -7  22    7.48    3.98
  -2   7  22    5.32    4.92
   2   7  22    6.41    5.47
  -2   7  23   -1.23    4.45
  -2  -7  23    4.95    5.08
   2  -7  23    2.35    3.90
  -2   7 -23   -2.23    3.96
   2   7  23   -4.34    4.98
   2   7  23    2.19    4.14
   2   7  24   11.29    5.28
   2   7  24    4.49    4.49
  -2   7 -24    0.79    3.62
  -2  -7  24    2.82    5.08
   2  -7  24    4.89    4.24
  -2   7  24    6.01    5.05
   2   7  25  159.47   15.41
  -2   7 -25  179.20   16.33
   2   7  25  171.85   14.77
  -2   8   0   25.11    4.23
  -2  -8   0   19.68    2.50
   2  -8   0   22.71    4.74
  -2  -8   0   22.77    4.92
  -2  -8  -1   13.90    4.13
   2  -8  -1   12.71    4.15
  -2  -8  -1   15.06    1.94
  -2  -8   1   14.23    2.51
   2  -8   1   15.81    4.37
  -2  -8   1   14.72    4.68
  -2   8   1   15.98    3.31
  -2   8  -1   12.86    3.23
   2  -8   2   48.03    6.54
  -2  -8  -2   40.27    2.58
  -2   8   2   36.95    4.28
  -2  -8  -2   34.55    5.37
  -2  -8   2   45.18    4.28
   2  -8  -2   40.79    5.72
  -2   8  -2   41.58    5.08
  -2  -8   2   40.09    2.41
  -2  -8   2   49.35    6.43
  -2  -8   3  203.23    9.10
   2  -8   3  214.82   12.56
  -2   8  -3  209.88   10.77
  -2  -8   3  206.11    6.27
  -2  -8  -3  211.47   12.29
  -2   8   3  201.68   10.10
   2  -8  -3  196.50   12.34
   2  -8   4  241.35   13.31
  -2  -8   4  252.73    7.79
  -2   8   4  242.39   11.25
  -2  -8   4  236.84   10.29
  -2  -8  -4  252.68   13.19
   2  -8  -4  245.66   13.39
   2  -8  -4  268.93   14.46
  -2   8  -4  239.47   11.57
  -2  -8  -5  266.39   13.55
  -2  -8   5  264.16   11.31
  -2   8   5  286.38   14.74
   2  -8  -5  269.20   14.05
   2  -8  -5  289.72   15.04
  -2   8  -5  269.86   12.53
   2  -8   5  281.97   14.33
  -2  -8  -5  257.10    9.53
  -2   8   5  264.39   12.05
  -2  -8   5  277.54    8.91
  -2   8   6    8.92    3.85
  -2  -8  -6    4.00    2.83
  -2  -8   6    5.71    2.97
  -2  -8  -6    3.09    1.50
   2  -8  -6    3.72    3.31
   2  -8  -6    8.63    4.24
  -2   8   6    2.09    3.89
   2  -8   6    2.26    3.55
  -2  -8   6    0.60    1.10
  -2   8  -6    1.02    2.76
   2   8   7  121.62   10.35
   2  -8  -7  102.87    9.23
  -2   8  -7   98.16    8.21
  -2  -8   7   97.10    7.81
   2  -8   7  106.94    9.53
  -2   8   7   89.46    8.83
  -2  -8  -7   97.20    8.66
  -2  -8  -7  103.97    5.35
   2  -8  -7  104.70    9.45
  -2  -8   8    5.82    3.67
  -2  -8  -8   -2.71    3.68
   2  -8  -8    1.49    3.43
   2  -8  -8    2.62    3.04
  -2   8   8   -4.74    4.25
  -2   8  -8    1.29    3.23
  -2  -8  -8   -1.10    1.03
   2   8   8    0.99    3.92
   2  -8  -9  123.31   10.48
  -2  -8   9  139.72   10.03
  -2   8  -9  129.23    9.63
   2   8   9  138.10   11.11
  -2  -8  -9  129.02    9.96
  -2   8   9  115.81   10.24
   2  -8  -9  137.16   11.12
  -2  -8  10   91.08    8.51
   2  -8 -10   93.26    9.21
   2   8  10   95.70    9.52
  -2   8  10   87.14    9.20
   2  -8 -10  102.41    9.94
  -2   8 -10   92.80    8.61
  -2  -8 -10   83.23    8.22
  -2   8  11   -3.78    5.06
  -2  -8  11   13.84    4.61
  -2  -8 -11    0.03    2.96
  -2  -8 -11    0.92    3.08
   2  -8 -11    0.07    3.30
   2  -8 -11    0.04    3.46
  -2   8 -11    2.60    3.33
   2   8  11    0.85    3.71
  -2  -8  12   32.36    5.91
  -2  -8 -12   36.40    6.42
   2   8  12   27.69    6.03
   2  -8 -12   36.26    6.52
  -2  -8 -12   28.86    5.26
  -2  -8  12   38.90    6.21
   2   8  12   52.57    7.76
  -2   8 -12   40.57    6.60
  -2   8  12   35.21    6.10
   2   8  13    7.99    4.16
  -2   8  13    1.19    5.10
  -2  -8  13    9.66    4.19
  -2  -8 -13    8.21    3.94
  -2   8 -13   13.83    4.35
  -2  -8 -13    5.55    2.65
  -2  -8  13    9.04    3.63
   2   8  13   15.30    5.61
   2  -8 -13    9.46    3.49
  -2   8 -14   45.34    7.06
  -2  -8  14   49.23    7.32
  -2  -8 -14   47.91    7.28
   2  -8 -14   41.69    7.14
   2   8  14   44.93    7.36
  -2   8  14   33.78    6.31
   2   8  14   35.65    6.32
  -2  -8  14   32.43    5.63
  -2   8  15  381.53   20.03
  -2  -8  15  378.76   19.18
   2   8  15  379.98   19.28
  -2  -8 -15  382.47   19.17
  -2  -8  15  359.87   17.54
  -2   8 -15  412.41   19.53
   2   8  15  374.87   19.66
  -2  -8  16    8.69    4.95
   2   8  16   10.45    5.25
  -2   8 -16    2.42    3.26
  -2  -8 -16    2.19    3.35
  -2   8  16   11.44    5.62
   2   8  16   -4.95    4.85
  -2  -8  16    2.05    2.63
   2   8  17  133.67   12.65
  -2  -8  17  126.26   11.78
   2   8  17  117.86   11.53
  -2   8 -17  141.61   12.19
  -2  -8  17  138.59   11.30
  -2  -8 -17  147.51   12.65
  -2   8  17  147.22   13.32
   2   8  18   54.17    8.34
   2   8  18   55.98    8.91
  -2  -8  18   49.10    7.98
  -2   8 -18   55.44    8.62
  -2  -8 -18   56.42    8.36
  -2  -8  18   50.24    7.13
  -2   8  18   54.97    9.01
   2   8  19  119.84   11.74
  -2  -8 -19  114.60   11.64
  -2  -8  19  128.19   12.56
  -2   8  19  127.06   13.12
  -2  -8  19  114.21   10.24
  -2   8 -19  122.79   12.31
   2   8  19  118.29   12.11
  -2  -8  20    0.56    2.44
  -2  -8  20   -5.82    4.18
   2  -8  20   -2.57    4.34
  -2   8  20    5.00    5.36
  -2   8 -20    2.30    4.25
   2   8  20    4.25    4.08
   2   8  20   -1.91    4.15
  -2   8  21  247.91   18.64
   2  -8  21  217.85   16.96
  -2   8 -21  228.80   17.27
   2   8  21  234.83   16.56
  -2  -8  21  213.13   16.62
   2   8  21  229.25   17.43
  -2   8 -22    0.94    4.19
  -2  -8  22    9.96    5.39
   2  -8  22    4.82    4.89
   2   8  22    0.78    3.76
   2   8  22   -2.11    3.76
  -2   8  22   10.88    6.25
  -2   8 -23   45.02    8.18
  -2  -8  23   49.51    9.35
   2  -8  23   32.62    7.51
  -2   8  23   40.12    8.68
   2   8  23   36.76    7.36
   2   8  23   52.39    9.04
   2   8  24   35.84    8.32
  -2   8 -24   21.21    6.66
   2   8  24   25.07    6.80
  -2   9   0   26.65    4.46
   2  -9   0   23.22    5.36
  -2  -9   0   33.24    5.95
  -2  -9   0   25.11    2.80
  -2  -9  -1  226.29    7.28
  -2  -9  -1  233.67   13.74
  -2  -9   1  235.67   13.82
   2  -9   1  234.02   14.05
  -2   9  -1  230.48   11.44
   2  -9  -1  220.04   13.59
  -2  -9   1  219.15    8.79
  -2   9   1  213.71   10.88
  -2  -9  -2   19.45    4.81
  -2  -9  -2   13.23    1.66
   2  -9  -2   10.50    4.14
  -2  -9   2   15.72    2.89
  -2  -9   2   15.15    4.61
   2  -9   2   11.45    4.06
  -2   9  -2    9.80    3.09
  -2   9   2   20.85    4.19
  -2  -9   3  534.86   21.03
  -2   9  -3  538.39   17.71
  -2  -9   3  539.07   15.25
  -2   9   3  531.62   16.79
   2  -9  -3  502.10   20.69
  -2  -9  -3  533.66   20.50
   2  -9   3  532.76   20.83
  -2  -9  -4  147.25   10.87
   2  -9  -4  139.73   10.80
  -2  -9   4  143.80    8.48
  -2   9   4  128.34    8.44
   2  -9  -4  137.15   11.23
  -2   9  -4  135.47    9.10
   2  -9   4  133.51   10.85
   2  -9   5   19.63    5.29
  -2  -9  -5   13.87    3.98
   2  -9  -5   23.15    5.55
   2  -9  -5   22.89    5.14
  -2   9  -5   20.11    3.93
  -2  -9   5   21.58    3.98
  -2   9   5   17.08    3.77
  -2   9   6  337.28   17.11
  -2  -9   6  341.90   14.08
   2  -9  -6  338.14   17.15
   2  -9  -6  335.30   17.21
  -2  -9  -6  361.83   17.08
  -2   9  -6  341.10   14.96
   2  -9   6  347.20   17.32
  -2   9   6  336.82   14.16
  -2  -9   7 1562.20   30.65
  -2   9  -7 1548.73   32.35
   2  -9   7 1518.77   35.65
   2  -9  -7 1547.78   36.22
  -2   9   7 1505.92   36.44
   2  -9  -7 1537.94   36.96
  -2   9   7 1512.15   29.94
  -2  -9  -7 1563.65   35.45
  -2  -9   8  615.27   20.10
  -2   9  -8  631.60   21.06
   2  -9  -8  616.08   23.39
   2  -9  -8  637.13   24.45
  -2   9   8  615.06   23.51
  -2   9   8  620.04   19.45
  -2  -9  -8  612.92   22.52
   2  -9   8  638.16   23.52
  -2  -9   9   35.24    5.75
  -2  -9  -9   29.91    5.60
   2  -9   9   28.13    6.31
   2  -9  -9   22.71    5.41
  -2   9   9   36.52    7.25
   2  -9  -9   22.43    5.39
   2   9   9   33.78    7.24
  -2   9  -9   19.24    4.34
  -2  -9  10  502.40   19.30
   2  -9 -10  487.63   21.63
  -2   9 -10  500.43   19.90
  -2  -9 -10  499.19   20.60
   2   9  10  525.33   22.52
  -2   9  10  494.51   21.57
   2  -9 -10  505.27   22.20
  -2   9  11   78.33    9.29
  -2  -9  11  106.43    9.53
  -2  -9 -11   96.94    9.89
  -2  -9 -11   99.23    9.52
   2   9  11   99.93   10.55
   2  -9 -11   99.66   10.20
  -2   9 -11   75.85    8.46
   2  -9 -11   94.17    9.80
   2  -9 -12   -5.42    4.75
  -2   9 -12   -1.26    3.49
  -2  -9  12    3.24    3.33
  -2  -9 -12   -4.35    3.92
  -2   9  12   -1.03    4.26
  -2  -9 -12   -1.08    3.63
   2  -9 -12    0.41    3.50
  -2  -9  12   -0.56    3.36
   2   9  12    1.93    4.01
  -2   9 -13  244.60   14.93
  -2  -9 -13  228.51   14.77
  -2   9  13  239.06   15.97
   2  -9 -13  239.71   16.23
  -2  -9 -13  226.54   15.52
  -2  -9  13  233.39   14.73
  -2  -9  13  259.34   15.43
   2   9  13  234.24   16.02
  -2  -9  14   47.18    7.29
   2  -9 -14   33.07    6.44
  -2   9  14   25.04    5.54
  -2  -9 -14   39.13    6.72
  -2  -9  14   36.90    6.40
   2   9  14   38.73    7.54
  -2   9 -14   33.93    6.06
   2   9  15  164.15   13.81
  -2  -9  15  166.29   13.16
   2   9  15  176.45   13.98
  -2   9  15  162.80   14.05
  -2  -9  15  168.15   12.65
  -2  -9 -15  169.71   13.87
  -2   9 -15  153.02   12.29
  -2  -9  16   85.57   10.06
   2   9  16   84.48   10.27
  -2  -9  16   70.75    8.62
   2   9  16   76.21   10.28
  -2   9 -16   83.67    9.56
  -2  -9 -16   81.40    9.93
  -2   9  16   83.91   10.48
  -2  -9  17  421.26   21.62
  -2   9 -17  407.93   21.31
  -2  -9 -17  399.37   21.50
  -2  -9  17  385.69   19.38
  -2   9  17  389.95   22.03
   2   9  17  408.65   21.22
   2   9  17  374.71   21.43
  -2  -9  18   19.76    6.31
   2   9  18   27.95    7.13
  -2  -9 -18    8.11    4.32
  -2   9  18    2.19    4.04
   2   9  18   10.38    5.76
  -2   9 -18   14.33    5.20
  -2  -9  18   15.93    5.15
   2   9  19   53.17    8.53
  -2  -9  19   42.39    6.62
  -2  -9  19   43.68    8.08
  -2   9 -19   46.60    7.87
  -2  -9 -19   50.23    8.34
   2   9  19   45.71    8.64
  -2   9  19   50.48    8.58
  -2  -9  20    8.00    5.43
   2  -9  20   -4.42    3.76
  -2  -9 -20    4.64    3.93
  -2   9 -20   14.22    5.54
  -2  -9  20    2.21    3.01
   2   9  20    2.08    4.04
  -2   9  20   13.77    7.00
   2   9  20    3.06    4.33
  -2   9  21   55.68    9.60
  -2  -9  21   64.98    9.78
   2  -9  21   70.59   10.65
  -2   9 -21   59.65    9.08
   2   9  21   66.10   10.41
   2   9  21   68.24    9.93
  -2  -9  22   86.58   11.30
   2   9  22   88.58   11.80
   2   9  22  101.13   11.71
  -2   9 -22   89.48   11.32
  -2   9 -23   34.28    7.77
   2   9  23   32.25    7.53
  -2 -10   0   88.21    5.26
  -2  10   0   87.68    7.42
   2 -10   0   85.19    9.16
  -2 -10   0   81.01    9.08
  -2 -10   1   13.75    5.15
  -2 -10  -1    7.61    3.02
   2 -10   1    5.58    3.47
  -2 -10   1   10.52    2.35
  -2  10  -1   10.01    2.94
   2 -10  -1    7.27    3.43
  -2  10   1   15.71    3.57
  -2 -10  -2    0.72    3.16
   2 -10   2   -0.63    3.18
  -2  10   2    6.85    3.24
  -2 -10   2    3.92    4.07
  -2  10  -2   -0.72    2.17
  -2 -10   2    1.82    1.81
   2 -10  -2    2.41    3.17
  -2 -10   3    7.21    4.20
   2 -10   3    4.75    3.78
  -2 -10   3    2.59    1.95
   2 -10  -3   -0.60    3.92
  -2 -10  -3   -1.70    3.39
  -2  10   3    4.10    2.98
  -2  10  -3    0.93    2.41
   2 -10  -4   86.96    9.37
  -2 -10   4   91.44    7.17
   2 -10  -4   95.64    9.51
  -2 -10   4   96.45   10.00
  -2 -10  -4   96.77    9.39
  -2  10   4   88.13    7.05
   2 -10   4   91.89    9.71
  -2  10  -4   91.91    7.81
  -2 -10   5   29.21    4.56
   2 -10  -5   30.26    6.08
  -2  10  -5   23.76    4.69
   2 -10   5   32.50    6.37
  -2 -10  -5   26.01    5.51
   2 -10  -5   23.20    5.35
  -2  10   5   22.79    4.08
  -2 -10   5   35.14    7.03
  -2 -10   6  147.17    9.54
  -2 -10  -6  147.37   11.86
   2 -10   6  142.21   11.93
  -2  10  -6  136.42    9.87
   2 -10  -6  155.37   12.23
   2 -10  -6  153.22   12.60
  -2  10   6  147.66    9.54
  -2 -10   7    0.27    2.15
  -2 -10  -7    1.60    3.39
   2 -10  -7   -0.95    3.24
   2 -10  -7    0.44    3.45
   2 -10   7    6.74    4.72
  -2  10  -7    2.32    2.72
  -2  10   7    1.08    2.91
  -2 -10  -8   17.69    5.05
  -2  10   8   21.21    6.26
   2 -10  -8   13.11    4.66
  -2  10   8   13.09    3.61
  -2 -10   8   11.03    3.89
   2 -10  -8   13.36    4.99
   2 -10   8   15.04    5.09
  -2  10  -8    7.80    3.22
  -2 -10   9    2.55    2.56
  -2  10  -9   -0.15    3.13
  -2 -10  -9   -0.02    2.76
   2 -10  -9    2.63    3.48
   2 -10  -9    3.77    3.79
   2 -10   9    6.86    4.30
  -2  10   9    2.68    3.02
  -2  10   9    6.62    4.97
  -2 -10  10   -0.86    2.77
  -2 -10 -10    2.89    3.37
   2 -10 -10   -1.38    3.21
   2 -10 -10   -0.02    3.70
   2 -10  10   -5.95    4.24
  -2  10  10    4.37    3.66
  -2  10  10   -1.15    3.63
  -2  10 -10   -2.16    3.03
  -2 -10  11  158.24   11.75
   2 -10 -11  142.36   12.81
  -2 -10 -11  169.66   13.64
  -2  10 -11  148.25   11.36
   2  10  11  169.28   14.21
  -2  10  11  153.34   13.58
  -2 -10 -11  145.73   12.30
   2 -10 -11  147.24   13.13
   2 -10 -12   76.10    9.61
  -2 -10  12   81.76    8.87
   2 -10 -12   83.53   10.13
  -2 -10 -12   75.36    9.42
   2  10  12   90.43   10.68
  -2  10 -12   84.13    9.08
  -2  10  12   85.36   10.31
  -2 -10 -12   80.83    9.69
  -2 -10 -13   10.04    4.51
   2 -10 -13   13.05    4.82
  -2 -10 -13   11.05    4.19
  -2 -10  13    5.36    3.46
   2  10  13    6.47    4.55
  -2 -10  13   11.91    4.22
  -2  10  13    6.13    3.64
  -2  10 -13   13.48    4.42
  -2 -10  14   38.16    6.77
  -2 -10 -14   37.62    6.87
  -2  10 -14   46.53    7.12
   2 -10 -14   42.81    7.83
  -2 -10 -14   44.36    7.37
  -2  10  14   43.62    7.89
  -2 -10  14   44.09    7.34
   2  10  14   54.44    9.10
  -2 -10  15   80.28    9.55
  -2 -10  15   81.51    9.59
  -2 -10 -15   72.77    9.53
   2 -10 -15   61.62    9.06
   2  10  15   74.99   10.29
  -2  10  15   77.51   10.35
  -2  10 -15   71.53    9.15
  -2 -10  16   44.20    8.04
  -2 -10 -16   31.69    6.61
   2  10  16   32.58    7.64
  -2  10  16   34.28    7.31
  -2  10 -16   32.43    6.52
  -2 -10  16   32.19    6.26
  -2  10  17   -1.30    4.33
  -2 -10  17    8.19    4.75
  -2 -10 -17   -1.04    2.99
  -2 -10  17    4.74    3.94
  -2  10 -17    0.98    3.01
   2  10  17   -1.59    3.59
  -2 -10 -18   48.36    8.38
  -2 -10  18   59.53    8.94
  -2  10 -18   63.48    9.18
   2  10  18   67.28   10.29
  -2 -10  18   52.64    7.98
  -2  10  18   62.14   10.02
  -2  10 -19   66.66    9.65
   2 -10  19   70.28   10.38
  -2 -10 -19   59.74    9.29
  -2 -10  19   62.60    9.32
   2  10  19   72.00   10.50
  -2 -10  19   69.47    9.09
  -2  10  19   60.45    9.75
  -2  10 -20    7.04    4.31
  -2 -10 -20    7.60    4.07
  -2 -10  20   11.18    5.05
  -2  10  20    4.94    3.88
   2 -10  20    8.15    4.73
  -2 -10  20    7.66    4.10
   2  10  20    9.14    5.82
  -2  10 -21   39.72    7.86
  -2 -10  21   33.14    7.72
   2  10  22  187.18   16.00
  -2  10 -22  184.59   16.18
  -2 -11   0  352.16   18.93
   2 -11   0  353.97   19.36
  -2  11   0  358.72   14.92
   2 -11   1   27.09    6.14
  -2 -11  -1   30.93    6.34
   2 -11  -1   24.44    5.61
  -2  11  -1   26.27    4.32
  -2 -11   1   32.09    6.41
  -2  11   1   29.85    4.56
   2 -11   2   -4.30    4.40
  -2  11  -2   -1.06    2.46
   2 -11  -2    1.95    3.34
  -2 -11  -2    2.10    3.52
  -2  11   2    2.61    2.54
  -2 -11   2    8.61    4.74
   2 -11   3   16.47    5.45
  -2 -11  -3   15.73    4.95
   2 -11  -3   11.83    5.09
  -2  11   3   18.27    4.25
  -2 -11   3   20.17    6.24
  -2  11  -3   18.16    4.54
  -2 -11   4  925.49   31.14
  -2 -11   4  914.65   22.29
  -2  11  -4  883.75   24.61
   2 -11  -4  885.89   29.72
  -2 -11  -4  909.98   30.37
   2 -11  -4  882.06   30.85
   2 -11   4  873.23   30.34
  -2  11   4  896.93   23.21
  -2 -11  -5   28.37    6.21
  -2 -11   5   37.11    5.30
   2 -11   5   30.91    6.73
  -2 -11   5   31.85    6.75
   2 -11  -5   27.87    6.32
   2 -11  -5   34.13    6.89
  -2  11  -5   36.45    5.57
  -2  11   5   31.28    5.05
  -2 -11   6  196.19   11.37
   2 -11  -6  191.65   14.30
   2 -11   6  184.46   14.32
  -2 -11  -6  192.07   14.30
  -2 -11   6  190.75   14.68
  -2  11  -6  197.71   12.05
  -2  11   6  194.16   11.11
   2 -11  -6  170.59   13.99
   2 -11  -7  270.70   17.63
  -2 -11   7  271.27   13.78
   2 -11  -7  299.88   18.03
  -2  11  -7  289.08   14.95
  -2 -11  -7  310.86   18.00
  -2  11   7  268.93   13.29
   2 -11   7  262.01   17.13
   2 -11   8   20.05    5.39
  -2 -11   8   23.37    4.86
  -2  11  -8   19.50    4.32
   2 -11  -8   32.14    6.81
   2 -11  -8   20.25    5.43
  -2 -11  -8   19.80    5.30
  -2 -11   9   66.09    7.59
   2 -11  -9   73.05    9.42
   2 -11  -9   67.37    9.35
  -2 -11  -9   65.77    8.80
  -2  11  -9   60.77    7.49
   2 -11   9   66.75    9.25
  -2  11   9   78.33   10.14
  -2 -11 -10  349.92   19.59
  -2 -11  10  346.62   17.10
   2 -11 -10  350.44   20.13
  -2  11 -10  356.92   17.78
   2 -11 -10  351.89   20.59
   2 -11  10  348.70   20.11
  -2  11  10  380.31   21.56
  -2 -11  11    3.07    3.14
  -2  11  11    6.34    4.46
  -2 -11 -11    9.63    4.59
   2 -11 -11   11.36    4.51
   2 -11 -11    7.36    4.53
  -2 -11 -11    2.62    3.55
   2 -11  11    9.71    5.09
  -2  11 -11    4.87    3.23
  -2 -11  12   69.23    8.39
  -2 -11 -12   68.38    9.46
   2 -11 -12   73.72   10.01
   2 -11 -12   85.41   10.82
  -2  11 -12   81.35    8.85
  -2  11  12   78.56   10.38
   2 -11  12   81.89   10.24
  -2 -11 -12   83.28    9.91
  -2 -11  13   53.51    8.17
  -2  11 -13   47.59    7.29
   2 -11 -13   53.20    8.81
  -2 -11 -13   44.70    7.69
  -2 -11  13   50.73    7.67
   2  11  13   45.57    8.81
   2 -11  13   45.23    8.19
  -2  11  13   53.76    9.36
  -2 -11 -13   55.46    8.78
   2 -11 -13   63.57    9.54
  -2 -11  14  112.34   11.14
  -2  11 -14  136.32   11.95
  -2 -11 -14  130.57   12.89
   2 -11 -14  146.24   13.97
   2  11  14  140.42   14.13
  -2 -11  14  130.57   12.27
  -2  11  14  142.26   14.09
  -2 -11 -14  119.19   11.88
   2 -11 -15   23.84    6.36
  -2 -11  15   28.52    6.44
  -2  11 -15   23.96    5.58
   2  11  15   27.22    7.20
  -2 -11 -15   26.47    6.55
  -2  11  15   24.68    7.16
  -2 -11  15   19.47    5.22
  -2  11  16   57.87    9.40
  -2 -11  16   59.91    8.79
  -2 -11  16   58.55    8.69
  -2 -11 -16   54.33    8.86
  -2  11 -16   64.20    9.04
   2 -11 -16   74.47   10.87
   2  11  16   72.00   10.37
   2  11  17    7.35    5.44
  -2 -11  17   17.66    5.75
  -2 -11 -17   -0.43    3.44
  -2 -11  17   17.07    5.71
  -2  11  17    4.34    4.61
  -2  11 -17    3.97    3.97
  -2 -11  18   51.71    8.36
  -2 -11  18   59.73    9.21
   2 -11  18   48.39    8.92
  -2 -11 -18   55.81    9.31
  -2  11  18   56.89   10.12
  -2  11 -18   49.87    7.97
   2  11  18   55.83    9.70
  -2  11 -19    0.53    3.54
  -2 -11  19    0.76    3.38
  -2 -11  19    2.13    3.22
  -2 -11 -19    0.68    2.92
  -2  11 -20    7.76    4.34
  -2 -11  20    7.46    3.71
  -2  11 -21    8.35    4.97
  -2 -12   0   96.21   10.93
   2 -12   0  102.41   11.32
  -2 -12  -1   33.09    7.38
   2 -12   1   23.99    6.30
   2 -12  -1   34.93    7.20
  -2 -12   1   29.74    6.62
  -2 -12   2   24.40    6.57
   2 -12   2   32.40    6.65
   2 -12  -2   26.31    6.50
  -2 -12  -2   33.04    6.73
   2 -12   3   28.03    6.39
  -2 -12  -3   26.55    6.17
  -2 -12   3   26.91    6.45
   2 -12  -3   39.77    7.05
   2 -12  -3   27.80    6.74
  -2 -12   4   30.20    7.19
  -2 -12  -4   15.54    5.64
   2 -12  -4   17.32    5.62
   2 -12  -4   22.40    5.86
   2 -12   4   19.26    5.94
  -2 -12  -5    7.04    3.43
   2 -12  -5   18.73    5.78
  -2 -12   5   15.30    5.43
   2 -12  -5    8.55    3.80
  -2  12  -5   14.98    3.85
   2 -12   5    8.58    4.36
   2 -12   6    4.62    4.03
  -2 -12  -6   -2.31    3.38
  -2 -12   6    3.15    4.07
   2 -12  -6    4.85    4.02
  -2  12  -6    0.54    2.51
   2 -12  -6    5.20    3.82
   2 -12   7    4.86    3.58
  -2 -12  -7    3.51    3.53
   2 -12  -7    1.07    3.06
  -2  12  -7    1.95    2.51
   2 -12  -7    1.99    3.89
  -2 -12   7    1.70    3.86
   2 -12   8   13.46    5.29
  -2 -12  -8   18.71    5.48
   2 -12  -8   19.64    6.45
   2 -12  -8   13.08    4.60
  -2  12  -8   16.61    4.31
  -2 -12   8   24.21    6.51
   2 -12   9   36.13    7.47
  -2 -12   9   39.04    6.08
  -2 -12  -9   36.32    7.35
   2 -12  -9   37.97    7.67
   2 -12  -9   38.76    7.54
  -2  12  -9   40.06    6.29
  -2 -12  10    0.47    3.06
  -2 -12 -10    3.00    3.73
  -2 -12 -10   -0.32    2.83
   2 -12 -10   -2.63    3.57
   2 -12 -10   -4.44    4.30
  -2  12 -10   -0.69    2.55
   2 -12  10    3.70    4.16
  -2 -12  11   45.05    7.09
  -2 -12 -11   49.19    8.41
   2 -12 -11   40.58    7.61
   2 -12 -11   41.39    7.84
  -2  12 -11   49.42    7.09
  -2 -12 -11   63.17    9.16
   2 -12  11   53.71    8.93
  -2 -12  12   13.84    4.94
  -2 -12 -12   18.81    5.97
  -2 -12 -12   13.97    5.22
   2 -12 -12   21.65    6.31
   2 -12  12   20.07    6.07
   2 -12 -12   17.85    5.93
  -2  12  12   13.80    6.02
  -2  12 -12   15.11    4.59
  -2  12 -13   12.81    4.59
  -2 -12  13   10.95    4.62
  -2 -12 -13   14.47    5.32
   2 -12 -13    9.26    4.12
  -2 -12 -13    3.13    3.10
   2 -12 -13    6.55    4.91
  -2 -12  13    1.48    3.67
  -2  12  13    4.62    5.40
   2 -12  13    4.27    3.85
   2 -12 -14   20.52    6.11
  -2 -12  14    5.24    3.99
  -2 -12 -14    3.23    3.82
   2 -12  14    6.01    4.41
  -2  12  14    7.75    4.94
  -2 -12 -14    5.34    3.51
  -2 -12  14    8.41    4.47
  -2  12 -14   16.12    5.07
  -2 -12  15   25.33    6.09
   2 -12  15   20.14    6.39
  -2  12 -15   14.61    4.69
  -2 -12 -15   21.18    5.94
   2 -12 -15   18.24    5.81
  -2 -12  15   15.63    5.42
   2  12  15   20.49    7.10
  -2  12  15   12.72    5.55
  -2  12 -16    5.50    3.38
  -2 -12  16    3.97    3.76
  -2 -12  16    3.74    3.45
   2 -12  16   -0.18    4.07
  -2 -12  17    1.72    3.45
   2 -12  17   -4.94    4.46
  -2  12 -17    3.03    3.51
  -2 -12  17   -1.33    3.36
  -2  12 -18   15.92    5.00
  -2 -12  18    4.90    4.17
  -2 -12  18   14.08    4.87
  -2  12 -19   21.72    5.92
  -2 -12  19   29.68    6.83
  -2 -13   0  334.68   20.70
   2 -13   0  348.52   21.44
  -2 -13   1   66.74    9.81
  -2 -13  -1   59.67    9.19
   2 -13  -1   55.36    9.11
   2 -13   1   67.96   10.17
  -2 -13   2    7.42    4.36
   2 -13   2    7.67    3.75
  -2 -13  -2    3.70    3.70
   2 -13  -2   15.59    5.27
  -2 -13   3    7.59    4.17
   2 -13   3   12.67    5.08
   2 -13  -3   10.15    4.88
   2 -13  -3   10.74    5.18
  -2 -13  -3   10.05    4.74
   2 -13   4   47.43    8.41
  -2 -13  -4   54.00    8.57
   2 -13  -4   53.37    8.94
   2 -13  -4   58.26    8.92
  -2 -13   4   67.49    9.98
  -2 -13   5    9.54    4.44
   2 -13   5    7.45    4.65
   2 -13  -5    6.37    3.92
  -2 -13  -5    7.76    4.66
   2 -13  -5    8.85    4.50
  -2 -13  -6   38.15    8.23
   2 -13  -6   41.57    8.18
  -2 -13   6   40.27    8.34
   2 -13   6   34.09    7.28
   2 -13  -6   43.67    8.19
   2 -13  -7  185.44   15.78
  -2 -13   7  205.98   17.00
   2 -13   7  202.94   16.52
  -2 -13  -7  198.12   16.13
   2 -13  -7  205.95   16.93
   2 -13   8    4.90    4.01
  -2 -13  -8    7.41    4.06
   2 -13  -8    5.56    4.20
   2 -13  -8    6.58    4.53
  -2 -13   8    2.67    4.19
   2 -13   9   82.15   11.07
  -2 -13  -9   60.45    9.24
   2 -13  -9   69.28   10.07
   2 -13  -9   71.73   10.38
  -2 -13   9   90.78   12.17
  -2 -13 -10   29.86    7.33
  -2 -13 -10   23.68    6.73
   2 -13 -10   29.94    7.00
   2 -13 -10   28.69    7.26
  -2 -13  10   24.53    6.71
   2 -13  10   15.05    5.29
   2 -13  11   82.95   11.15
   2 -13 -11   73.63   10.33
  -2 -13 -11   79.65   11.09
  -2 -13 -11   80.07   10.57
   2 -13 -11   86.20   11.73
  -2 -13  11   72.55   10.95
   2 -13  12   27.33    7.28
  -2 -13 -12   21.33    6.03
  -2 -13  13    0.11    3.23
  -2 -13 -13    2.74    3.92
   2 -13  13   10.23    5.58
  -2 -13 -14    4.92    4.19
  -2 -13  14    6.49    4.51
  -2 -13  15   35.52    6.99
   2 -13  15   35.25    7.66
  -2 -13  16   13.29    4.99
  -2 -14   0   85.49   11.45
   2 -14   0   98.25   12.16
  -2 -14  -1    0.91    3.13
   2 -14   1    7.37    4.54
   2 -14  -1    8.03    4.76
  -2 -14   1    3.91    4.20
  -2 -14   2    6.29    4.91
   2 -14   2   -3.09    3.66
  -2 -14  -2    0.24    3.70
   2 -14  -2    3.67    4.19
   2 -14  -2    0.23    3.66
   2 -14   3   65.78    9.95
  -2 -14  -3   59.51    9.42
   2 -14  -3   73.96   10.98
  -2 -14   3   71.12   10.44
   2 -14  -3   69.05    9.99
  -2 -14   4   29.05    7.06
   2 -14   4   25.66    7.26
  -2 -14  -4   19.10    5.49
   2 -14  -4   21.53    6.25
   2 -14  -4   24.26    6.77
  -2 -14   5    6.45    5.81
   2 -14   5    4.76    3.76
  -2 -14  -5    0.73    3.79
   2 -14  -5   -0.21    3.14
   2 -14  -5   -1.61    3.71
   2 -14   6    9.41    5.22
  -2 -14  -6    4.44    4.42
   2 -14  -6    2.87    3.83
  -2 -14  -7   57.63    9.61
   2 -14  -7   49.02    8.88
  -2 -14  -8   18.91    6.38
  -2 -14  -9    5.73    4.70
   2 -14  13   23.10    5.59
   3   0   0   16.74    2.92
   3   0   0    6.70    1.90
   3   0   0   14.73    2.55
  -3   0   0    4.96    2.34
   3   0  -1    1.56    1.73
   3   0  -1    4.55    2.50
   3   0   1    5.14    2.56
   3   0   1    0.99    1.79
   3   0   1    3.17    1.83
   3   0  -1    0.71    1.85
  -3   0  -1    0.07    0.55
  -3   0   1   -3.06    2.60
  -3   0  -1   -0.03    1.88
   3   0  -2 1019.49   16.62
   3   0   2 1053.02   18.08
   3   0   2 1062.86   16.82
   3   0  -2 1049.61   17.94
  -3   0  -2 1000.28   16.75
  -3   0   2 1007.93   17.96
   3   0   2 1055.22   17.20
   3   0  -2 1035.14   12.72
   3   0  -2 1020.79   17.73
   3   0  -3    0.47    2.09
   3   0  -3   -0.74    1.68
  -3   0  -3    2.45    2.36
   3   0   3    4.43    2.59
   3   0  -3    0.21    1.49
   3   0   3    2.05    1.45
   3   0  -3    0.15    1.58
   3   0  -3    1.91    1.27
  -3   0   3    0.53    2.30
   3   0   3    4.87    2.09
   3   0   4   30.11    2.93
   3   0  -4   29.18    3.79
   3   0   4   28.40    3.38
   3   0   4   22.87    3.33
   3   0  -4   25.18    2.89
   3   0  -4   27.24    3.11
  -3   0  -4   36.08    4.12
   3   0   4   32.49    2.00
  -3   0   4   25.52    3.59
   3   0  -4   31.17    3.43
   3   0   5   16.43    2.95
   3   0  -5    1.07    1.19
   3   0   5    9.29    2.05
   3   0  -5    2.51    2.45
   3   0   5   11.50    2.52
   3   0  -5    1.99    1.75
  -3   0   5   -1.18    2.21
  -3   0  -5    5.49    2.46
   3   0  -6   65.85    3.97
   3   0   6   70.72    5.50
  -3   0   6   62.40    5.44
   3   0   6   67.01    4.02
  -3   0  -6   59.70    2.28
   3   0  -6   68.58    5.32
  -3   0   6   65.11    2.73
   3   0  -6   70.45    5.02
   3   0   6   69.62    5.02
  -3   0  -6   53.97    4.64
   3   0   7   -0.03    1.97
   3   0   7    0.78    0.86
   3   0  -7    1.05    2.02
  -3   0  -7    0.71    2.03
  -3   0   7    2.86    1.11
   3   0  -7    2.04    1.10
   3   0   8   18.41    3.16
   3   0   8   21.35    2.21
   3   0  -8   22.13    3.55
  -3   0   8   14.46    3.78
  -3   0  -8   22.12    3.51
   3   0   9   -2.78    2.22
   3   0   9   -0.99    0.97
  -3   0  -9   -1.10    2.15
   3   0  10  169.07    5.45
   3   0  10  167.63    8.38
  -3   0  10  175.17    9.80
  -3   0 -10  176.60    9.18
  -3   0  11    0.38    2.90
   3   0  11    1.20    2.47
   3   0  11    1.20    0.94
  -3   0 -11    2.82    2.44
  -3   0  12    8.80    3.52
   3   0  12    9.75    2.64
   3   0  12   12.46    1.39
  -3   0 -12   12.40    3.63
   3   0  13   -0.43    0.53
   3   0  13   -0.84    1.93
  -3   0  13   -3.54    3.67
  -3   0 -13   -4.25    3.05
  -3   0  14    3.17    3.49
   3   0  14    1.83    1.55
  -3   0 -14    1.17    2.69
   3   0  14    5.50    2.60
   3   0  15    2.69    1.59
  -3   0 -15   -1.51    3.19
  -3   0  15    3.30    4.04
   3   0  15    0.81    2.01
  -3   0  16   15.40    5.08
  -3   0 -16    6.43    3.30
  -3   0  17    7.16    5.91
  -3   0 -17   -0.71    3.37
  -3   0  18  708.92   24.14
  -3   0 -18  707.77   24.18
  -3   0 -19    7.96    5.24
  -3   0  19   19.29    6.33
  -3   0 -20    2.32    3.69
  -3   0  20    1.87    3.61
   3   0  20   -4.28    3.13
  -3   0  21    1.14    3.45
   3   0  21   -0.77    2.87
  -3   0 -21    1.94    3.31
  -3   0  22    4.80    4.35
   3   0  22    4.26    2.73
  -3   0 -22    7.50    4.27
  -3   0  23    7.90    4.82
   3   0  23   -0.04    3.34
   3   0  24   13.03    4.44
  -3   0  24   14.15    5.43
  -3   0  25   -6.03    5.01
   3   0  25   -1.38    3.65
  -3   0  26   37.85    7.67
   3   0  26   33.06    6.67
   3   0  27   -2.72    3.41
  -3   0  27   -0.39    3.79
   3   0  28    6.40    4.43
  -3   0  28    1.77    4.37
   3   0  29   -2.00    3.33
   3   0  30   15.25    5.37
  -3   1   0    2.40    1.46
  -3   1   0   -0.07    0.84
   3   1   0    1.71    2.15
  -3  -1   0    0.42    1.78
   3   1   0    3.91    1.91
   3  -1   0   -1.97    1.76
   3   1   0   -0.25    1.31
  -3   1   0    0.61    0.53
  -3   1   0   -0.39    2.07
  -3  -1   0    1.48    1.76
   3   1  -1  899.28   16.45
  -3   1  -1  881.18   16.56
  -3  -1   1  880.44   15.85
  -3  -1  -1  864.27    9.93
  -3   1   1  851.25   12.59
   3   1  -1  887.85   15.63
  -3  -1  -1  859.29   16.01
   3  -1  -1  886.98   16.83
   3   1   1  908.91   15.90
  -3   1  -1  884.51   16.62
  -3   1  -1  861.79   10.43
   3   1   1  879.13   15.13
   3   1  -1  856.42   16.44
  -3   1   1  885.20    9.73
  -3  -1   1  887.49   16.73
   3   1  -1  856.04   14.13
   3  -1   1  869.38   16.33
  -3  -1  -1  852.91   14.23
  -3   1   1  845.51   15.67
   3   1  -2 1813.85   23.03
  -3   1   2 1782.30   22.30
   3   1  -2 1750.67   23.89
  -3  -1  -2 1772.04   22.33
  -3  -1   2 1784.36   24.16
  -3   1  -2 1724.44   13.54
   3   1   2 1785.86   21.95
  -3  -1  -2 1747.31   13.87
   3  -1   2 1812.40   23.99
   3  -1   2 1805.78   24.14
   3   1  -2 1820.51   23.72
   3   1   2 1798.42   21.50
  -3   1  -2 1740.19   23.63
  -3   1   2 1792.25   19.75
   3   1  -2 1733.17   19.42
   3  -1   2 1808.32   13.70
   3   1   2 1800.59   20.90
  -3  -1  -2 1748.87   20.38
  -3   1  -2 1815.76   24.01
  -3   1   2 1765.75   24.27
   3  -1  -2 1822.37   24.41
  -3  -1   2 1746.83   22.92
   3  -1   3 3735.79   34.76
  -3  -1   3 3643.72   34.65
   3   1  -3 3754.50   34.55
   3   1   3 3681.86   31.02
   3  -1   3 3729.09   35.17
   3  -1  -3 3711.49   35.39
   3   1   3 3675.90   30.47
   3   1  -3 3807.99   34.19
   3   1  -3 3616.37   34.99
   3   1   3 3699.14   21.19
  -3  -1   3 3658.60   27.46
   3  -1   3 3645.73   18.54
  -3  -1  -3 3536.87   29.57
  -3  -1  -3 3550.71   20.92
  -3   1  -3 3624.07   34.39
  -3   1   3 3609.99   35.32
  -3   1   3 3647.89   31.32
  -3   1  -3 3663.18   34.64
  -3  -1  -3 3619.54   31.20
  -3  -1   3 3547.57   33.92
   3  -1   4    9.56    1.12
  -3   1  -4   13.70    2.63
   3  -1  -4   11.27    2.43
   3   1  -4   11.33    2.53
   3   1   4    7.88    1.81
  -3   1   4   19.30    2.77
  -3  -1   4   10.80    2.30
  -3  -1   4   13.04    3.17
  -3  -1  -4   12.71    2.50
  -3  -1   4   16.94    4.19
  -3   1  -4   17.51    3.38
   3   1  -4   20.03    3.05
   3   1   4   12.07    2.13
  -3   1   4   15.12    3.46
   3  -1   4   10.41    2.36
  -3  -1  -4   12.01    2.39
   3   1  -4   11.88    3.28
  -3  -1   4   11.74    1.85
   3   1   4    6.36    1.07
   3  -1   5  591.81   14.40
  -3   1   5  562.92   11.94
  -3   1   5  553.64   14.72
  -3  -1   5  556.36   10.55
   3   1   5  554.00    9.74
  -3  -1   5  570.22   14.49
  -3   1  -5  571.53   14.11
  -3  -1   5  585.99   14.52
   3   1  -5  571.38   13.95
  -3  -1  -5  542.18   12.50
   3   1   5  567.86   12.77
   3   1   5  567.21   11.70
   3  -1  -5  556.72   13.88
  -3   1  -5  583.00   14.47
   3   1  -5  562.85   14.65
   3   1   5  509.89    5.95
  -3  -1  -5  557.66   11.74
   3  -1   6 2216.78   28.27
   3   1  -6 2129.03   22.38
  -3  -1   6 2174.18   20.71
  -3  -1  -6 2116.97   22.60
  -3  -1   6 2227.24   28.44
  -3   1  -6 2169.95   28.95
   3   1   6 2198.42   22.68
  -3  -1   6 2174.07   29.09
  -3   1   6 2188.00   29.68
  -3   1   6 2180.50   22.77
  -3  -1  -6 2161.44   26.13
   3  -1  -6 2157.32   27.78
   3   1   6 2165.35   14.81
   3   1   6 2261.10   26.37
   3   1   6 2176.69   21.11
   3   1  -6 2171.90   29.24
  -3   1   7  332.88    8.81
  -3  -1  -7  327.82   10.86
   3  -1   7  364.91   11.91
   3   1  -7  335.60    8.67
  -3   1  -7  327.52   11.72
  -3  -1  -7  332.91    7.82
  -3  -1   7  343.47   11.57
   3   1   7  335.12   10.80
   3   1   7  339.07    6.77
  -3  -1   7  353.71   12.36
   3   1   7  345.07    8.76
   3   1   7  323.43    8.82
   3  -1  -7  333.64   11.24
   3   1   7  342.32   11.64
  -3   1   7  332.99   12.01
  -3  -1   8  928.85   20.65
  -3   1   8  904.37   13.99
   3   1  -8  901.01   13.68
  -3   1   8  905.67   20.32
  -3  -1  -8  911.53   18.44
   3   1   8  954.25   19.27
  -3  -1   8  938.43   19.12
  -3  -1  -8  908.65   13.44
   3   1   8  899.52   13.79
   3   1   8  929.39   16.09
   3  -1  -8  921.48   18.84
  -3   1  -8  872.12   19.65
   3   1   8  919.83   12.60
  -3  -1   9  376.45   13.76
  -3   1   9  357.72    8.60
   3   1   9  395.88   12.69
   3   1  -9  375.74    8.51
  -3  -1   9  389.27   12.62
  -3  -1  -9  366.44    9.06
  -3   1  -9  376.35   13.39
   3   1   9  365.72    8.47
  -3   1   9  379.01   13.66
  -3  -1  -9  398.81   12.84
   3   1   9  376.34    8.97
   3  -1  -9  378.67   12.39
  -3  -1  10 1061.42   23.53
   3   1 -10 1028.03   13.38
   3   1  10 1014.51   20.67
  -3   1  10  995.99   13.78
   3  -1  10 1032.42   12.50
  -3  -1  10 1052.80   20.84
   3   1  10 1007.15   13.38
  -3   1  10 1032.11   22.82
  -3  -1 -10 1042.50   21.42
  -3   1 -10 1046.96   22.98
   3   1  10 1000.03   15.88
   3  -1 -10 1026.76   20.83
   3   1 -11    4.22    1.02
  -3  -1  11    4.13    2.58
  -3  -1  11    5.75    4.21
   3  -1  11    4.93    1.32
   3  -1  11    2.78    1.07
  -3  -1 -11    5.80    2.61
  -3   1 -11    6.77    3.08
   3   1  11    4.67    2.50
  -3   1  11    4.46    3.83
  -3   1  12 1963.09   33.14
   3   1  12 1858.22   28.55
   3  -1  12 1891.18   20.37
   3  -1  12 1840.18   18.13
  -3   1 -12 1851.09   32.99
  -3  -1  12 1881.15   33.29
  -3  -1 -12 1969.08   31.74
   3  -1  13  513.28   11.46
   3   1  13  518.77   15.43
   3  -1  13  479.28    8.64
  -3   1  13  519.95   18.20
  -3   1 -13  495.17   17.82
  -3  -1 -13  496.26   16.90
  -3  -1  14   34.56    5.92
   3   1  14   31.98    4.28
   3  -1  14   32.77    3.30
   3  -1  14   30.35    2.02
  -3   1  14   32.72    5.98
  -3  -1 -14   30.28    4.69
  -3   1 -14   32.89    5.71
  -3   1  15  144.91   10.81
   3  -1  15   96.11    2.82
  -3  -1 -15  124.15    9.28
  -3   1 -15  125.13    9.90
   3   1  15  108.51    7.44
  -3  -1  15  140.23   11.18
   3  -1  15  117.13    6.31
  -3  -1  16 1263.96   30.61
   3   1  16 1211.63   24.27
  -3  -1 -16 1232.37   29.69
  -3   1  16 1202.55   29.69
  -3   1 -16 1251.98   30.54
  -3  -1  17  210.51   13.72
   3   1  17  180.90    9.59
  -3   1  17  212.55   13.30
  -3   1 -17  179.95   13.03
  -3  -1 -17  171.60   12.31
   3   1  18    4.45    2.42
  -3   1 -18    3.11    3.27
  -3  -1  18    8.42    4.74
  -3  -1 -18    7.67    4.13
  -3  -1  19   43.90    7.56
  -3  -1 -19   35.28    6.30
   3   1  19   27.28    4.15
   3   1  19   18.92    4.22
  -3   1  19   33.24    6.71
  -3   1 -19   22.82    6.03
   3   1  20  509.73   19.30
  -3   1  20  494.19   21.36
  -3  -1  20  524.89   22.08
  -3  -1 -20  514.31   21.45
  -3   1 -20  508.62   22.33
  -3   1  21   45.84    8.53
   3   1  21   50.77    7.19
   3  -1  21   39.28    6.74
  -3  -1  21   43.38    7.77
  -3   1 -21   45.57    8.57
  -3   1  22  206.84   14.86
  -3  -1  22  210.31   15.38
   3   1  22  198.66   12.94
   3  -1  22  183.13   13.36
  -3   1 -22  190.11   15.04
  -3  -1  23  428.95   21.73
   3   1  23  395.29   18.72
   3  -1  23  401.67   19.99
  -3   1  23  432.59   21.45
  -3   1 -23  422.47   21.76
  -3   1  24  123.27   12.15
   3   1  24  113.07   10.59
   3  -1  24  103.81   10.92
  -3  -1  24  106.96   12.02
   3  -1  25    1.45    3.02
  -3  -1  25    6.81    4.71
   3   1  25    0.93    3.33
  -3   1  25    4.89    4.43
  -3  -1  26  235.33   17.67
   3   1  26  209.55   14.95
   3  -1  26  207.97   15.95
  -3   1  26  226.18   16.83
  -3  -1  27   92.67   11.80
   3   1  27   91.83   10.33
   3  -1  27   78.10   10.14
  -3   1  27   87.74   11.42
   3  -1  28   31.22    7.04
   3   1  28   40.47    7.24
  -3  -1  28   43.35    8.77
  -3   1  28   44.49    8.61
  -3   1  29   36.99    7.86
   3  -1  29   30.77    7.38
   3   2   0   -0.81    1.40
  -3   2   0    2.86    2.59
   3   2   0   -1.32    1.89
   3   2   0    0.95    2.18
   3  -2   0    1.08    1.20
   3  -2   0    0.61    0.76
   3   2   0    0.13    1.44
  -3   2   0    2.57    1.12
  -3   2   0    0.22    1.17
  -3   2   0   -0.98    1.05
  -3  -2   0    0.33    1.58
  -3   2   0    0.39    1.37
  -3  -2   0   -2.72    2.15
   3  -2  -1    2.11    1.46
  -3   2  -1    3.54    1.10
  -3   2   1    1.03    1.08
   3   2   1    4.30    1.38
  -3   2  -1    4.68    1.82
  -3   2   1    3.19    1.41
  -3   2   1    2.76    1.26
   3   2   1    3.09    1.93
   3   2  -1    0.83    2.17
   3   2  -1    5.63    2.44
  -3   2  -1    4.02    1.18
  -3  -2  -1    3.49    1.74
  -3  -2   1    2.28    1.99
  -3  -2  -1    2.83    2.07
   3   2  -1    1.55    1.39
  -3  -2   1    0.47    1.93
  -3  -2   1    1.66    1.49
   3  -2   1    4.05    1.45
  -3   2   1    2.98    1.36
  -3  -2  -1    2.18    1.25
  -3  -2  -1    2.25    1.20
   3   2  -1    3.99    1.60
   3   2   1   -1.52    2.83
  -3   2  -1    3.59    2.51
  -3   2   1    5.76    2.96
   3  -2   1    4.13    0.98
   3   2   1    1.87    1.17
   3  -2  -1    3.89    1.65
  -3   2  -2  273.16    9.69
   3   2  -2  264.99    8.72
   3  -2   2  262.23    7.01
  -3   2   2  255.76    8.21
  -3  -2   2  259.04    9.65
  -3  -2  -2  255.73    8.94
   3   2  -2  265.99    9.56
   3   2   2  272.68    9.16
  -3  -2   2  256.95    9.45
   3   2   2  255.75    9.55
  -3   2  -2  261.46    9.89
   3  -2   2  268.04    5.59
  -3  -2  -2  268.08    7.23
  -3  -2  -2  265.92    7.30
  -3   2   2  263.67    8.40
   3   2   2  244.19    8.61
   3  -2   2  262.73    9.76
  -3  -2   2  253.00    8.57
   3   2  -2  263.76    9.56
  -3   2   2  258.93    7.00
  -3  -2   2  255.32    8.80
   3  -2  -2  281.90   10.00
   3   2   2  266.48    7.81
  -3  -2  -3  559.55    8.55
  -3   2   3  574.91   13.01
  -3  -2   3  597.65   14.61
  -3  -2  -3  573.55   13.18
   3   2   3  584.65   13.13
  -3  -2   3  575.93   13.48
   3   2   3  592.51   11.25
  -3   2   3  572.18   13.11
   3   2  -3  593.51   13.50
  -3  -2  -3  568.40   10.71
   3  -2  -3  619.71   14.91
  -3  -2   3  598.23   14.66
  -3   2  -3  589.17   14.72
   3  -2   3  565.06   10.15
  -3   2   3  573.32   14.58
  -3  -2  -3  571.18   10.90
   3   2   3  571.59   11.33
  -3  -2   3  591.14   12.85
   3   2  -3  579.38   14.44
  -3   2   3  578.63   11.34
  -3  -2   4  891.66   15.74
  -3   2  -4  865.82   18.21
  -3  -2  -4  864.40   15.67
  -3  -2   4  889.43   18.16
  -3   2   4  876.33   16.87
   3   2   4  878.25   15.70
  -3  -2   4  877.62   17.32
   3  -2   4  874.16   12.50
   3   2   4  869.47   13.67
  -3  -2  -4  851.43   10.53
  -3  -2  -4  877.95   14.00
  -3  -2  -4  870.99   13.71
   3   2   4  861.47   14.10
  -3   2   4  858.60   14.94
  -3   2   4  860.42   16.80
  -3   2   4  870.10   18.14
   3   2  -4  908.55   17.39
   3   2  -4  895.86   18.72
  -3  -2  -5  383.45    9.76
  -3  -2   5  366.27   11.82
  -3  -2   5  381.74   10.43
  -3  -2   5  385.83   12.19
  -3  -2  -5  366.08   10.06
  -3   2   5  386.43   11.77
   3   2   5  387.41   10.23
  -3   2  -5  361.06   12.20
   3   2   5  366.21    9.37
   3   2   5  383.05    9.76
  -3   2   5  381.09   12.36
  -3  -2  -5  356.15    7.10
  -3   2   5  392.72   11.83
  -3  -2   6    4.69    2.63
   3   2   6    2.83    1.81
  -3  -2   6    4.33    2.49
  -3  -2  -6    6.29    1.85
   3   2   6    2.68    1.48
   3   2   6    4.18    1.17
  -3   2   6    5.69    2.90
  -3  -2  -6    2.54    1.67
   3  -2  -7  265.32    9.78
  -3  -2   7  267.91   10.94
  -3  -2  -7  270.84    8.34
  -3  -2   7  268.09   10.40
   3   2   7  265.04    7.00
  -3  -2  -7  269.20    9.16
  -3   2  -7  263.02   11.08
   3   2   7  278.77    9.05
   3   2   7  250.62    9.02
  -3   2   7  279.72   11.17
   3   2   8  404.46   11.48
  -3  -2   8  427.41   14.24
  -3   2  -8  422.09   14.57
  -3  -2  -8  418.34   11.87
  -3  -2  -8  395.91   10.59
  -3  -2   8  406.73   13.17
  -3  -2  -8  413.33    9.99
   3   2   8  404.76   11.75
   3   2   8  408.93    9.31
   3  -2  -8  405.38   12.36
  -3   2   8  415.37   13.89
  -3   2   8  415.26   10.38
  -3   2   9    4.29    1.40
  -3   2   9    2.55    2.62
  -3  -2   9    9.54    3.58
   3   2   9    3.33    1.96
   3  -2  -9    5.76    1.97
   3   2   9    5.68    1.46
  -3  -2  -9    6.40    1.56
  -3  -2  -9    3.78    1.30
  -3  -2   9    3.19    1.88
  -3   2  -9    5.95    3.04
  -3  -2  -9    4.39    2.06
  -3   2  10    0.09    2.61
  -3   2  10    0.38    0.81
   3   2  10    0.07    0.93
   3  -2 -10   -1.46    2.03
  -3  -2 -10    0.47    1.07
  -3   2 -10   -1.24    2.92
  -3  -2 -10    0.69    1.22
  -3  -2  10   29.12    3.96
  -3  -2  10   32.75    5.36
  -3  -2 -10   -1.01    1.95
   3   2  10   -2.13    2.09
  -3   2  11   29.56    4.73
  -3  -2 -11   26.83    3.81
  -3  -2 -11   27.69    2.47
  -3   2  11   30.75    2.75
   3   2  11   31.87    3.30
  -3  -2  11   24.98    3.72
   3  -2 -11   30.03    3.70
  -3  -2 -11   29.50    3.43
  -3   2 -11   32.05    4.63
  -3  -2  11   34.14    5.23
  -3   2  11   25.10    1.67
   3   2  11   30.58    3.76
  -3   2  12   99.76    4.59
  -3  -2  12  108.00    8.53
   3   2 -12   94.69    4.16
  -3  -2 -12  106.45    7.37
  -3  -2  12   98.79    6.91
  -3   2  12  103.55    7.90
   3   2  12  107.80    7.23
   3   2  12  109.88    6.24
  -3   2 -12  107.94    8.50
  -3   2  13   58.24    3.45
   3   2 -13   56.47    3.00
  -3   2  13   61.73    6.45
   3   2  13   52.72    5.27
  -3  -2  13   59.33    7.03
  -3  -2 -13   58.11    5.93
  -3  -2  13   67.16    5.89
   3   2  13   54.89    5.74
  -3   2 -13   51.25    6.38
  -3   2  14  119.81    8.94
  -3  -2  14  112.56    9.14
  -3   2  14  102.65    4.25
   3   2  14  103.01    7.27
  -3   2 -14  106.49    9.09
  -3  -2  14  111.82    7.64
   3  -2  14  106.90    5.72
   3   2 -14  102.28    3.47
   3   2  14  103.97    7.88
  -3  -2 -14  110.27    8.31
  -3  -2  15  101.02    9.36
   3   2  15   99.69    7.32
  -3   2  15   99.96    3.84
  -3  -2 -15  106.66    8.36
  -3  -2  15  114.61    7.76
   3  -2  15   94.49    5.61
  -3   2 -15  107.74    9.42
  -3   2  15  123.84    9.38
  -3   2  16  192.16   11.94
  -3  -2  16  182.51   12.44
   3   2  16  177.86    9.64
  -3   2 -16  195.68   12.44
  -3  -2 -16  188.52   11.33
  -3  -2  16  192.07   10.05
   3  -2  16  170.29    7.88
  -3   2  17   90.43    8.85
   3   2  17   89.29    7.03
  -3   2 -17   85.51    9.06
   3   2  17   96.32    7.37
  -3  -2  17  102.77   10.04
  -3  -2 -17   90.85    8.50
  -3  -2  18  145.61   11.42
   3   2  18  137.03    8.64
   3   2  18  132.67    9.12
  -3   2  18  133.14   10.64
  -3   2 -18  136.08   11.26
  -3  -2 -18  127.97   10.27
   3   2  19    2.19    1.96
   3   2  19   -1.68    2.62
  -3   2 -19    3.73    3.71
  -3   2  19    0.50    3.88
  -3  -2  19    1.65    3.61
  -3   2  20   43.67    7.06
  -3  -2  20   37.31    6.81
   3   2  20   41.50    5.70
   3   2  20   40.52    5.00
  -3   2 -20   34.05    6.40
   3   2  21   80.93    7.97
  -3   2 -21   66.89    8.79
  -3  -2  21   75.12    9.22
  -3   2  21   82.30    9.51
   3   2  21   77.79    6.66
  -3   2  22   19.39    5.92
  -3  -2  22   16.52    5.52
   3  -2  22   12.09    5.03
   3   2  22   14.86    3.89
  -3   2 -22   16.90    5.23
  -3   2  23    4.62    3.65
  -3  -2  23    3.72    4.12
   3   2  23   10.24    3.77
   3  -2  23    4.05    3.15
  -3   2 -23    7.82    4.69
  -3   2  24   -5.12    4.32
  -3  -2  24   -3.51    3.75
   3   2  24    1.83    2.40
   3  -2  24   -2.36    3.26
  -3   2 -24    5.55    4.95
  -3   2  25   18.27    6.24
  -3  -2  25    5.35    4.45
   3   2  25    6.27    3.91
   3  -2  25   10.63    4.92
  -3   2 -25    5.41    4.23
  -3   2  26    0.50    3.46
  -3  -2  26   -1.95    3.54
   3   2  26    1.79    2.59
   3  -2  26    1.27    3.59
   3   2  27   40.97    7.66
  -3   2  27   36.21    7.58
  -3  -2  27   50.56    9.33
   3  -2  27   33.59    7.43
   3   2  28    3.36    3.64
  -3   2  28   10.08    5.14
   3  -2  28   12.69    5.37
  -3   2  29   -4.20    4.75
   3   2  29    0.80    3.70
  -3  -3   0    1.21    1.60
  -3  -3   0    0.96    1.71
  -3   3   0    1.58    1.37
   3   3   0    0.52    1.11
   3  -3   0    1.08    1.65
   3  -3   0   -0.34    1.22
   3   3   0    3.33    1.81
  -3  -3   0   -2.19    2.05
  -3  -3   0    2.51    2.39
  -3   3   0    1.67    2.48
   3  -3   0    0.13    0.94
   3   3   0    3.59    2.66
  -3  -3  -1   99.13    5.33
   3  -3  -1  102.28    5.79
   3   3   1   86.97    6.22
   3   3  -1   97.43    5.04
  -3  -3  -1  101.08    4.01
   3   3   1   92.41    5.62
  -3  -3   1  103.57    5.44
   3  -3   1   97.63    4.57
  -3   3   1  101.99    5.65
  -3  -3   1  109.25    6.89
  -3  -3  -1   97.68    6.35
  -3  -3   1  102.61    6.07
  -3   3   1   92.37    4.80
   3  -3  -1   95.73    4.76
   3  -3   1   90.93    4.38
  -3   3   1  103.88    6.81
   3  -3   1   94.45    5.23
   3   3   1  101.11    4.76
  -3   3  -1   90.47    6.32
  -3  -3   1   96.69    6.02
  -3   3  -1   98.74    5.28
  -3  -3  -1   90.49    4.68
  -3  -3   2  923.53   16.31
   3   3   2  908.46   13.53
  -3  -3  -2  934.17   11.98
   3  -3   2  929.51   15.74
  -3   3   2  951.82   17.56
   3   3  -2  947.94   16.37
  -3  -3  -2  957.98   16.25
   3   3   2  942.65   19.53
  -3   3   2  940.31   16.74
   3  -3   2  941.07   13.01
  -3   3   2  941.38   15.43
  -3  -3   2  941.31   19.08
  -3  -3  -2  894.53   17.82
   3  -3   2  920.11   13.59
  -3  -3  -2  918.36   14.27
   3  -3  -2  954.56   17.66
  -3   3  -2  937.22   19.27
   3  -3  -2  953.08   15.55
  -3  -3   2  982.29   18.74
   3   3   2  942.05   16.76
  -3  -3   3  166.19    7.53
   3  -3   3  178.89    6.90
  -3  -3   3  186.56    8.17
  -3   3   3  183.17    8.13
   3   3  -3  180.30    7.53
   3  -3   3  179.84    5.37
  -3   3   3  170.22    7.58
   3   3   3  180.69    7.32
  -3  -3   3  187.84    9.08
  -3  -3  -3  177.06    8.05
   3   3   3  173.90    8.75
   3  -3   3  178.95    6.15
  -3  -3  -3  181.64    5.48
  -3  -3  -3  174.66    7.07
  -3   3   3  171.79    7.04
  -3   3  -3  175.11    8.66
   3   3   3  169.16    5.77
   3  -3  -3  167.96    7.79
  -3  -3  -3  172.40    6.15
   3   3   4  568.03   15.97
  -3  -3   4  559.60   14.19
  -3   3  -4  571.05   15.62
  -3  -3   4  586.45   14.56
  -3  -3  -4  563.95   12.81
   3  -3   4  567.03    9.00
   3   3  -4  588.14   14.19
  -3  -3  -4  570.93   11.04
  -3   3   4  554.10   13.23
  -3  -3  -4  588.52   14.17
  -3  -3   4  604.56   15.99
  -3  -3  -4  554.87   10.16
   3   3   4  557.73   12.31
   3   3   4  556.00   10.35
   3   3   4  557.52   10.32
   3   3   4  562.08   13.01
   3  -3   4  583.50   12.45
  -3  -3  -5 3389.73   26.82
  -3  -3   5 3382.90   37.68
  -3  -3  -5 3413.50   33.26
  -3  -3   5 3381.67   35.06
   3   3   5 3434.95   29.77
   3  -3   5 3425.11   30.59
   3   3   5 3419.70   32.69
   3   3   5 3429.77   39.75
  -3   3   5 3413.08   33.96
  -3  -3  -5 3497.36   32.79
  -3  -3  -5 3346.34   27.24
  -3  -3   5 3385.69   36.04
  -3   3   5 3432.85   37.46
   3   3   5 3473.79   25.75
   3   3   5 3507.59   27.12
  -3   3  -5 3431.82   39.10
  -3  -3  -6  952.43   15.10
  -3  -3  -6  977.16   17.52
   3   3   6  963.96   14.97
  -3   3   6  935.02   18.80
  -3  -3  -6  960.81   17.79
   3   3   6  943.79   17.70
  -3  -3   6  919.91   19.43
  -3  -3   6  970.62   20.47
  -3   3   6  929.47   20.10
   3   3   6  965.52   15.40
  -3  -3  -6  925.22   14.67
  -3   3  -6  965.14   21.23
   3   3   6  936.98   15.17
  -3  -3   7   81.15    6.37
   3   3   7   81.13    4.68
  -3  -3   7   75.68    6.22
  -3  -3  -7   90.66    5.44
  -3  -3  -7   82.51    4.84
  -3  -3  -7   79.78    4.57
  -3   3   7   83.86    6.10
   3   3   7   82.88    4.95
  -3   3  -7   73.42    6.26
   3   3   7   71.79    5.17
  -3   3   7   90.68    6.88
  -3  -3   8  422.69   14.49
   3   3   8  421.40   10.80
  -3   3   8  435.49   14.45
  -3  -3   8  420.69   13.77
  -3  -3  -8  406.82   10.97
   3   3   8  440.96   11.64
   3  -3  -8  425.16   12.56
  -3   3   8  428.06   13.93
  -3  -3  -8  423.15   11.35
  -3   3  -8  443.99   15.11
   3   3   8  436.99   13.22
  -3  -3   9 1333.04   26.21
  -3  -3  -9 1306.15   21.21
   3   3   9 1306.24   23.21
  -3  -3  -9 1291.68   22.08
  -3  -3   9 1284.58   24.56
  -3  -3  -9 1270.01   18.87
   3   3   9 1303.31   19.62
  -3   3   9 1309.97   25.46
  -3   3  -9 1303.97   26.95
   3   3   9 1317.84   21.28
   3  -3  -9 1292.72   22.06
  -3  -3  10  223.89   11.35
  -3  -3 -10  213.74    9.12
  -3  -3 -10  216.99    9.25
  -3  -3  10  223.78   10.46
  -3  -3 -10  200.26    7.41
  -3   3 -10  223.10   11.54
   3   3  10  215.70    8.35
   3   3  10  221.70   10.06
   3  -3 -10  220.53    9.35
  -3   3  10  222.90   10.90
  -3   3 -11   41.97    5.55
  -3  -3  11   34.01    5.16
  -3  -3 -11   42.92    4.43
   3  -3 -11   38.88    4.17
  -3  -3 -11   41.75    3.39
  -3  -3  11   44.42    4.97
   3   3  11   33.35    4.28
  -3  -3 -11   42.44    4.64
  -3   3  11   38.14    5.05
   3   3  11   43.64    4.07
  -3  -3 -12    2.29    2.15
  -3   3  12    2.44    2.74
  -3  -3  12    1.01    3.87
  -3  -3 -12    2.28    1.44
   3  -3 -12    0.88    1.81
  -3  -3 -12    1.24    2.02
  -3  -3  12    0.45    2.03
  -3   3 -12    0.62    2.68
  -3   3  12    4.34    1.29
   3   3  12    1.53    2.19
  -3  -3  13  551.30   19.36
  -3   3  13  559.26   18.09
  -3   3 -13  537.29   19.53
  -3  -3 -13  523.90   10.69
  -3  -3  13  559.97   17.10
  -3  -3 -13  556.92   16.18
  -3   3  13  534.11    9.53
  -3  -3 -13  533.15   16.64
   3   3  13  557.26   17.79
  -3   3  14   -1.77    3.13
  -3  -3 -14    5.51    3.22
  -3   3  14    2.67    1.19
  -3  -3  14    8.46    4.80
  -3   3 -14    2.37    3.49
  -3  -3 -14    0.31    0.78
  -3  -3  14    0.23    2.19
   3   3  14   -0.12    2.90
  -3   3 -15  413.25   17.98
  -3  -3  15  404.11   17.75
   3   3  15  398.86   16.27
   3   3  15  387.07   13.23
  -3  -3 -15  368.84    7.78
  -3  -3  15  418.69   15.18
  -3  -3 -15  410.39   15.46
  -3   3  15  395.81   16.34
  -3   3  15  405.26    9.60
  -3   3  16    5.47    4.40
  -3   3 -16    3.04    3.71
   3   3 -16    1.99    0.70
   3   3  16    0.49    1.84
  -3  -3  16    1.25    2.05
  -3   3  16    1.17    1.35
  -3  -3  16    5.75    4.85
   3   3  16    1.21    2.94
  -3   3  17  485.82   19.37
   3   3  17  505.17   19.65
  -3  -3  17  481.89   20.44
   3   3  17  490.83   16.70
   3   3  17  505.72   16.11
  -3  -3  17  515.91   17.09
  -3   3  17  506.21   11.97
  -3   3 -17  480.94   20.66
  -3  -3  18  175.71   13.08
   3   3  18  174.72   10.06
  -3  -3  18  162.54    9.84
   3   3  18  164.49    9.69
  -3   3 -18  174.49   12.96
   3   3  18  169.91   11.77
  -3   3  18  173.82   11.98
  -3  -3  19  203.56   14.05
   3   3  19  189.23   10.60
   3   3  19  195.12   10.96
  -3  -3  19  192.29   10.70
  -3   3 -19  194.35   13.96
  -3   3  19  189.41   12.74
   3   3  19  182.23   12.64
   3   3  20   13.74    5.27
  -3   3  20    8.68    4.37
  -3  -3  20   17.88    5.85
   3   3  20   16.96    3.57
   3   3  20   12.18    3.77
  -3   3 -20   13.45    5.15
   3   3  21   93.81    7.56
   3   3  21   92.91    8.18
  -3  -3  21   96.91   10.63
  -3   3 -21  102.14   10.94
   3   3  21   84.32    9.12
  -3   3  21  105.73   10.14
  -3   3  22   32.22    6.47
  -3  -3  22   38.57    7.42
   3   3  22   29.17    5.02
  -3   3 -22   39.89    7.32
   3   3  22   33.27    6.33
  -3  -3  23  163.05   14.20
   3   3  23  165.05   11.28
   3  -3  23  172.45   14.26
  -3   3 -23  166.56   14.56
  -3   3  23  174.14   13.61
   3   3  23  154.56   13.17
   3   3  24    0.82    3.06
  -3   3  24    2.21    4.10
  -3   3 -24    2.44    4.27
   3  -3  24    3.57    3.66
  -3  -3  24   10.23    4.98
   3   3  25    5.35    3.52
  -3   3  25   17.03    4.93
   3  -3  25   13.43    4.73
  -3   3 -25   11.15    4.81
  -3  -3  25   14.65    5.81
  -3   3  26   45.83    7.84
  -3  -3  26   49.43    8.85
   3  -3  26   56.81    8.96
   3   3  26   61.18    9.00
  -3   3  27   98.26   11.52
  -3  -3  27   97.35   12.18
   3  -3  27   86.88   10.96
   3   3  27  107.38   12.13
  -3   3  28   27.17    6.93
   3  -3  28   27.49    6.91
   3   3  28   25.08    6.98
  -3   3  29   14.34    5.70
  -3  -4   0   -0.44    1.43
   3   4   0    5.83    1.44
   3  -4   0   -2.36    2.22
   3  -4   0   -0.79    1.55
  -3  -4   0    2.65    3.00
  -3  -4   0    0.79    0.91
  -3   4   0   -2.81    2.68
   3  -4   0    0.91    1.24
  -3   4   1  388.77   13.31
   3   4   1  401.06    9.08
  -3  -4  -1  389.21   11.88
   3   4  -1  400.38   10.22
  -3  -4   1  363.50   10.06
   3   4   1  374.78   13.43
   3  -4   1  388.61   10.38
   3  -4  -1  392.06   11.31
   3  -4   1  395.82   10.71
  -3  -4   1  386.92   13.20
  -3   4   1  400.26   11.18
  -3   4  -1  393.30   13.30
   3  -4  -1  390.87   12.30
   3  -4   1  397.89   11.92
   3  -4  -1  378.85   10.79
  -3  -4  -1  377.88    6.43
  -3  -4  -1  403.46   13.10
  -3  -4  -1  396.91   11.64
  -3   4  -1  399.70   11.90
  -3  -4  -1  383.47    9.07
   3   4   2    0.54    0.88
   3  -4   2    2.57    1.38
   3  -4   2    0.41    1.74
   3  -4  -2    1.77    1.19
   3   4  -2    2.29    1.31
  -3  -4  -2    4.53    2.56
   3  -4  -2   -1.63    2.30
   3  -4   2    3.41    1.46
   3   4   2    6.49    3.67
  -3  -4   2    5.29    2.13
   3  -4  -2    2.81    1.74
  -3  -4   2    4.28    3.24
  -3  -4  -2   -0.31    1.36
  -3  -4  -2    2.29    1.58
  -3  -4  -2    1.13    0.58
  -3   4   2    2.30    1.89
  -3   4   2    6.56    3.37
  -3   4  -2   -1.62    3.05
  -3  -4  -2    0.58    1.06
  -3  -4  -2    0.24    1.56
  -3  -4   3   82.27    5.43
   3   4   3   77.54    3.60
   3   4  -3   77.56    5.15
   3  -4   3   78.97    4.92
   3  -4  -3   72.83    5.52
   3  -4  -3   70.62    5.60
  -3  -4  -3   85.72    6.30
  -3  -4   3   88.27    6.75
  -3  -4  -3   74.78    2.98
   3  -4   3   74.14    5.30
  -3   4   3   72.11    5.18
  -3   4  -3   81.83    6.54
   3  -4  -3   80.20    5.28
   3   4   3   76.71    6.44
  -3  -4  -3   74.00    4.86
   3   4   4 1193.10   13.39
  -3  -4   4 1232.02   20.96
   3  -4   4 1228.05   20.77
  -3   4   4 1218.66   21.46
   3  -4  -4 1219.48   22.38
  -3  -4  -4 1220.67   21.76
   3   4   4 1193.44   13.06
  -3   4  -4 1238.58   23.94
  -3  -4   4 1233.47   23.84
  -3  -4  -4 1237.07   12.87
  -3  -4  -4 1202.53   18.98
   3  -4  -4 1272.95   23.64
   3   4   4 1193.86   24.56
   3  -4   5   35.07    3.97
   3   4   5   33.75    4.78
  -3  -4   5   29.19    3.78
   3  -4  -5   29.89    4.29
  -3  -4  -5   32.35    3.38
  -3  -4  -5   42.14    4.72
   3   4   5   31.76    3.08
  -3  -4  -5   30.77    2.37
   3   4   5   29.48    2.17
   3   4   5   31.76    2.43
  -3  -4   5   38.13    5.31
  -3   4  -5   32.48    4.50
   3   4   5   34.66    4.31
  -3   4   5   31.78    4.08
  -3  -4   6  218.63    9.91
  -3  -4  -6  239.82    6.86
  -3   4   6  241.20   10.26
   3   4   6  242.22    6.99
   3  -4  -6  230.97    6.34
  -3  -4   6  228.75   10.75
   3   4   6  243.72   10.06
  -3   4  -6  228.88   10.86
  -3  -4   6  231.80    8.66
  -3  -4  -6  237.76    8.70
   3   4   6  228.42   11.19
   3   4   6  225.49    5.80
   3   4   6  232.80    7.61
  -3  -4  -6  235.00    9.46
  -3  -4  -7  150.89    6.01
  -3  -4   7  143.56    8.35
   3   4   7  144.19    5.90
  -3  -4   7  144.10    8.67
  -3  -4  -7  142.93    7.42
   3   4   7  138.15    6.75
   3   4   7  131.30    4.62
  -3   4  -7  134.20    8.62
  -3   4   7  133.87    8.12
   3   4   7  130.06    8.68
  -3   4   7  132.11    8.03
  -3  -4  -7  134.03    6.75
   3   4   7  138.49    5.70
   3   4   7  137.97    7.91
  -3  -4   8   81.79    7.06
  -3  -4  -8   72.52    4.63
   3   4   8   68.48    5.99
  -3  -4   8   78.72    6.72
  -3  -4  -8   78.86    5.71
   3   4   8   80.58    5.36
  -3  -4  -8   74.81    5.25
   3   4   8   76.66    7.21
   3   4   8   72.48    4.62
  -3   4   8   78.23    6.51
  -3   4  -8   71.23    6.82
   3   4   8   76.83    4.17
  -3   4   8   80.22    6.57
  -3  -4   9  876.77   21.91
  -3   4  -9  846.06   22.46
   3   4   9  876.75   16.78
   3   4   9  895.75   20.85
  -3  -4   9  870.45   21.27
  -3  -4  -9  866.42   17.39
  -3   4   9  887.34   21.16
   3   4   9  831.45   22.70
  -3   4   9  888.58   21.97
  -3  -4  -9  896.46   16.62
   3   4   9  896.03   13.50
   3   4   9  864.46   17.84
   3  -4 -10    0.00    1.70
   3   4  10    1.06    0.98
  -3  -4  10    1.58    3.27
  -3  -4  10   -1.50    2.41
  -3  -4 -10    1.88    1.86
  -3  -4 -10    1.69    1.56
  -3   4  10    1.43    2.74
  -3   4  10   -1.56    2.64
  -3   4 -10    2.74    2.83
   3   4  10    1.85    1.54
  -3  -4 -10    2.23    1.74
   3   4  10    3.72    2.80
  -3   4  11   -6.85    3.61
  -3   4  11    0.53    2.76
   3   4  11   -0.15    0.84
  -3  -4  11   -2.35    3.56
  -3  -4 -11    2.07    1.69
  -3   4 -11    1.50    2.59
  -3  -4  11   -2.74    2.85
  -3  -4 -11   -1.82    1.62
  -3  -4 -11    0.78    1.73
   3  -4 -11   -1.52    1.67
   3   4  11    0.75    2.57
  -3   4  12   15.55    3.79
   3   4  12   16.74    1.90
  -3  -4  12   15.33    3.63
   3  -4 -12   19.06    3.03
  -3  -4 -12   17.07    3.30
  -3   4 -12   14.71    3.36
  -3  -4  12   13.77    3.31
  -3  -4 -12   16.69    2.60
   3   4  12   19.40    3.98
  -3   4  12   15.00    3.74
  -3   4  13    1.20    3.59
   3   4  13   10.46    1.52
  -3   4  13   11.98    3.61
   3   4  13   10.10    2.03
   3  -4 -13    7.80    2.20
  -3  -4 -13   12.13    3.22
  -3  -4  13   10.07    3.12
  -3  -4  13    5.34    3.14
  -3   4 -13   10.60    4.01
  -3  -4 -13   12.36    2.21
   3   4  13   12.77    3.76
  -3   4 -14   -1.53    3.15
  -3  -4  14   -3.79    4.28
   3   4  14   -0.17    1.63
  -3  -4 -14    3.09    2.31
  -3  -4  14    3.64    2.61
  -3  -4 -14    1.81    1.09
   3   4  14    3.01    1.01
  -3   4  14    4.92    3.33
  -3   4  14   -3.20    4.18
   3   4  14    2.14    2.54
  -3   4  15    4.06    3.64
  -3  -4  15   -0.62    3.40
  -3   4  15   -3.84    4.59
   3   4  15   -0.29    1.42
  -3   4  15    3.21    1.87
  -3  -4  15    5.48    2.84
  -3  -4 -15    0.62    0.95
  -3  -4 -15    1.94    2.32
  -3   4 -15   -0.22    2.99
   3   4  15    0.76    2.85
  -3   4  16   36.59    5.81
  -3   4  16   42.81    6.23
  -3   4  16   47.26    3.79
  -3  -4  16   46.13    6.82
   3   4  16   40.83    4.30
  -3  -4 -16   42.88    3.15
  -3  -4  16   36.68    5.13
  -3   4 -16   40.55    6.45
   3   4  16   46.03    6.47
  -3   4 -17   16.05    4.60
  -3  -4  17    9.83    4.03
   3   4  17   17.97    3.16
  -3  -4  17   11.17    3.10
   3   4  17   20.28    4.84
  -3   4  17   14.05    4.42
  -3   4 -18   -3.34    3.62
  -3  -4  18   -1.44    3.78
   3   4  18    0.27    2.01
  -3  -4  18   -1.71    2.14
  -3   4  18   -6.34    3.66
   3   4  18    5.90    3.34
  -3   4  19    6.99    3.72
  -3  -4  19    9.73    4.16
   3   4  19    9.62    2.85
  -3  -4  19    8.54    2.98
  -3   4 -19    4.88    3.88
   3   4  19    6.33    2.81
   3   4  20   74.83    7.04
   3   4  20   76.96    6.76
  -3  -4  20   79.58    9.57
  -3  -4  20   81.34    7.48
  -3   4  20   79.58    8.65
  -3   4 -20   71.77    9.12
   3   4  20   76.44    8.93
  -3   4  21   15.47    4.73
  -3  -4  21   14.03    5.11
  -3   4 -21   24.90    6.54
   3   4  21   17.18    3.54
  -3  -4  21   16.64    3.54
   3   4  21   20.74    5.36
  -3   4  22   -4.44    3.83
  -3  -4  22    0.75    4.61
  -3   4 -22   -3.94    4.28
   3   4  22   -0.49    3.15
  -3   4  23   13.62    4.39
  -3  -4  23    7.65    3.83
   3  -4  23    4.30    3.49
  -3   4 -23   17.75    5.64
   3   4  23   11.55    5.05
  -3   4  24    0.84    3.65
  -3  -4  24   -2.68    5.07
   3  -4  24    2.02    4.09
  -3   4  24   -1.17    4.82
  -3   4 -24    7.68    4.93
   3   4  24   -3.23    4.20
  -3  -4  25   -4.39    3.52
   3  -4  25   -1.74    3.53
  -3   4  25   -3.97    5.29
  -3   4 -25   -0.96    3.83
  -3   4  25   -0.70    3.74
   3   4  25    0.41    3.03
  -3   4  26   12.40    4.66
  -3  -4  26   18.50    5.96
   3  -4  26   15.52    4.67
   3   4  26   10.88    4.69
  -3   4  26   17.76    5.84
  -3   4 -26   16.80    5.93
  -3   4  27    3.88    3.47
   3  -4  27    2.16    4.24
   3   4  27    5.05    4.27
  -3   4  28    4.07    3.68
   3   4  28   12.31    4.94
  -3  -5   0   -1.06    1.41
  -3  -5   0    0.08    0.30
   3  -5   0   -1.08    2.24
  -3  -5   0    0.72    0.44
   3   5   0    0.16    0.90
   3  -5   0    0.97    1.56
  -3   5   0   -4.55    3.13
  -3  -5   0    4.67    3.38
  -3  -5   1  388.42   10.62
   3   5   1  389.61    8.94
   3   5  -1  397.88   10.38
  -3  -5  -1  408.36   12.77
   3  -5   1  409.33   12.02
   3  -5  -1  414.58   12.90
  -3  -5   1  396.22   14.44
  -3  -5  -1  398.22   14.07
   3  -5   1  392.51   13.26
   3  -5  -1  413.88   13.80
  -3   5  -1  384.57   13.57
  -3   5   1  391.16   13.84
  -3  -5  -1  399.13    9.20
  -3  -5   1  383.07    6.70
  -3  -5   2  698.00   15.01
  -3  -5  -2  713.53   15.96
  -3  -5   2  688.27   10.45
  -3   5   2  696.22   16.88
   3   5   2  687.92   10.79
   3   5  -2  713.52   14.63
  -3  -5  -2  705.93   16.52
   3  -5  -2  719.85   17.33
   3   5   2  711.28   19.66
  -3  -5   2  729.93   19.33
  -3  -5  -2  695.37   18.16
  -3   5   2  705.91   18.71
   3  -5   2  744.43   16.50
  -3   5  -2  691.67   18.46
   3  -5  -2  697.66   18.36
  -3  -5  -2  660.95   10.87
   3  -5   2  706.17   17.49
  -3  -5  -3   21.46    2.85
  -3  -5  -3   26.60    3.85
  -3  -5   3   33.48    3.90
  -3   5   3   23.85    4.24
   3   5   3   21.60    1.82
  -3  -5   3   26.05    2.42
   3   5  -3   21.66    2.98
   3   5   3   32.11    5.57
   3  -5  -3   25.27    4.14
  -3  -5   3   43.81    6.85
   3  -5  -3   25.34    3.91
   3  -5   3   27.55    3.91
  -3  -5  -3   29.61    4.54
  -3   5   3   23.56    4.81
  -3   5  -3   23.26    4.25
  -3  -5  -4   22.12    3.38
   3   5   4   20.29    1.60
  -3  -5   4   22.97    3.35
   3   5   4   22.78    4.64
   3  -5  -4   15.77    3.34
   3  -5  -4   20.27    3.69
  -3  -5   4   22.20    3.91
  -3  -5   4   21.51    2.44
  -3  -5  -4   20.54    3.66
   3  -5   4   23.17    3.68
  -3   5  -4   19.48    3.90
  -3   5   4   20.38    3.50
   3   5   5  397.32   15.50
   3  -5   5  412.51   13.72
  -3  -5   5  403.89   13.10
   3  -5  -5  422.16   14.63
   3   5   5  391.30    5.77
  -3  -5   5  419.41   15.00
  -3  -5  -5  416.28   13.73
   3   5   5  384.39    6.71
  -3  -5   5  415.22   10.89
   3  -5  -5  426.90   15.24
   3   5   5  443.74   14.70
  -3  -5  -5  416.73   12.73
  -3   5   5  402.53   13.96
  -3   5  -5  405.64   14.72
   3   5   6  327.76   12.98
   3   5   6  327.57   14.25
  -3  -5   6  316.23   12.08
   3  -5  -6  331.55    9.34
   3  -5  -6  321.10   13.11
  -3  -5   6  312.85   13.36
  -3  -5  -6  340.76   12.26
  -3   5  -6  339.32   13.66
   3  -5   6  369.99   13.05
  -3  -5  -6  323.16   11.39
  -3  -5   6  336.57   10.44
  -3   5   6  339.87   13.04
   3   5   6  322.74    7.08
   3  -5  -6  326.03   13.71
  -3  -5   7  150.50    8.70
   3   5   7  150.90    5.40
  -3  -5   7  149.37    9.54
  -3  -5  -7  161.10    8.66
   3  -5  -7  151.03    6.08
   3   5   7  156.59    9.12
  -3  -5  -7  147.06    7.83
  -3   5  -7  161.90    9.84
   3   5   7  157.60   10.24
  -3   5   7  146.78    9.15
   3  -5  -7  157.00    9.70
   3   5   8  411.54    9.87
  -3  -5   8  420.76   14.89
  -3   5   8  433.46   15.59
  -3  -5   8  417.10   15.54
  -3  -5  -8  412.26   13.31
   3   5   8  430.52   15.29
  -3   5  -8  432.90   16.25
  -3  -5  -8  437.94   13.66
   3   5   8  411.00   16.52
   3   5   8  357.79    5.51
  -3  -5  -9    0.78    1.87
  -3  -5   9    0.87    2.64
   3   5   9    0.03    0.52
  -3  -5  -9   -0.83    2.10
  -3  -5   9    4.50    3.10
  -3   5  -9    0.20    2.72
   3   5   9    0.36    1.15
   3   5   9    1.13    0.64
   3   5   9   -2.65    3.25
   3   5   9   -3.62    4.46
  -3   5   9    3.41    3.09
  -3   5   9    0.51    2.62
  -3  -5  10   19.06    4.75
  -3   5 -10   19.92    4.55
   3   5  10   17.01    4.07
   3   5  10   19.58    1.71
   3   5  10   23.32    2.93
  -3  -5  10   19.21    4.17
  -3  -5 -10   14.73    3.17
  -3  -5 -10   24.33    3.68
   3   5  10    9.59    4.07
  -3   5  10   19.78    4.34
  -3   5  10   20.56    4.15
  -3   5 -11  642.52   20.98
  -3  -5  11  609.94   19.88
   3   5  11  615.18   21.04
   3   5  11  605.05    9.97
  -3  -5 -11  603.68   18.69
  -3  -5  11  621.02   19.50
  -3  -5 -11  609.20   15.73
   3   5  11  613.58   19.46
   3  -5 -11  616.51   15.73
  -3   5  11  607.68   20.40
   3   5  11  619.09   15.00
  -3   5  11  622.57   18.78
  -3   5  12   35.14    5.23
   3   5  12   31.90    2.67
   3  -5 -12   29.10    3.66
  -3  -5 -12   36.97    4.09
  -3  -5 -12   34.61    4.87
  -3  -5  12   28.37    4.65
  -3   5 -12   27.23    5.04
  -3  -5  12   35.72    6.21
   3   5  12   23.93    4.29
  -3   5  12   29.17    5.13
   3   5  12   39.40    5.35
   3   5  13   59.65    3.89
  -3  -5  13   62.48    6.89
  -3  -5 -13   56.02    6.24
  -3  -5 -13   64.92    5.08
   3   5  13   35.83    5.13
  -3  -5  13   58.59    6.26
  -3   5 -13   56.08    6.89
   3   5  13   63.61    7.15
  -3   5  13   59.60    6.77
  -3   5  13   51.49    6.90
   3  -5 -13   57.41    4.95
  -3   5  14   21.43    4.52
   3   5  14   27.38    5.43
  -3  -5  14   22.02    5.06
  -3  -5 -14   21.36    2.97
   3   5  14   19.56    2.56
   3   5  14   14.68    3.69
   3  -5 -14   19.62    3.10
  -3  -5 -14   19.90    3.97
  -3   5 -14   21.96    4.61
  -3   5  14   17.42    4.38
  -3  -5  14    9.33    2.76
   3   5  15   82.48    5.15
  -3  -5  15   79.50    8.66
  -3  -5 -15   76.27    7.47
  -3  -5  15   70.83    7.03
  -3  -5 -15   81.05    5.30
   3   5  15   76.21    8.18
   3   5  15   68.64    7.95
  -3   5 -15   65.88    7.98
  -3   5  15   82.63    8.08
  -3   5  15   77.63    8.54
   3   5  16  427.76   12.10
   3   5  16  421.39   19.56
  -3  -5  16  420.23   19.21
  -3  -5 -16  418.29   17.46
  -3  -5 -16  421.88   11.53
  -3  -5  16  429.05   16.90
  -3   5  16  424.36   17.43
  -3   5 -16  422.64   19.61
   3   5  16  424.89   18.68
  -3   5  16  437.61   19.80
  -3  -5  17  182.57   13.33
  -3  -5  17  195.39   11.63
  -3  -5 -17  167.43   11.42
  -3   5  17  174.95   13.31
  -3   5 -17  175.29   13.28
   3   5  17  196.44   13.19
  -3   5  17  188.85   12.00
  -3  -5  18   31.64    5.00
  -3  -5  18   24.65    5.69
  -3   5  18   26.26    5.27
  -3   5 -18   19.75    4.92
   3   5  18   29.17    6.12
  -3   5  18   25.51    5.97
  -3   5  19   33.03    6.03
  -3  -5  19   22.33    5.32
  -3  -5  19   33.56    5.02
  -3   5 -19   31.57    6.58
  -3   5  19   28.59    6.08
   3   5  19   33.89    6.41
  -3  -5  20  103.56   11.05
  -3  -5  20  106.88    8.80
   3   5  20   97.94   10.44
  -3   5  20  110.15   11.56
  -3   5 -20  102.81   11.17
  -3   5  20  103.84   10.06
  -3  -5  21  160.02   13.87
  -3  -5  21  156.77   10.77
  -3   5 -21  152.35   13.70
  -3   5  21  162.10   12.25
  -3   5  21  165.39   13.97
   3   5  21  171.20   13.75
  -3  -5  22  114.58   12.08
   3   5  22  124.70   12.25
  -3   5  22  123.31   12.65
  -3   5 -22  127.47   12.93
  -3   5  22  122.45   11.35
  -3   5  23    8.92    4.89
  -3  -5  23    6.51    5.52
   3  -5  23    8.07    5.81
  -3   5  23    9.00    4.97
  -3   5 -23    8.09    5.22
   3   5  23    5.01    5.00
  -3  -5  24  362.00   21.91
   3  -5  24  358.03   21.60
  -3   5 -24  350.88   22.06
   3   5  24  340.70   20.51
  -3   5  24  357.39   22.11
  -3   5  24  353.98   19.19
  -3   5  25   11.93    5.83
  -3  -5  25   21.35    6.65
   3  -5  25   20.19    7.09
  -3   5 -25   15.85    5.70
  -3   5  25   14.92    5.84
   3   5  25   16.62    6.27
   3  -5  26  103.16   12.47
   3   5  26  102.16   12.08
   3   5  27   43.37    8.56
   3   5  28   26.88    6.68
  -3  -6   0    0.10    1.26
   3  -6   0   -1.47    2.81
   3  -6   0    0.89    1.86
  -3   6   0   -1.34    3.25
  -3  -6  -1    9.51    1.72
   3  -6   1   11.39    3.43
   3  -6  -1    5.82    2.67
   3  -6  -1    9.66    2.61
  -3  -6   1   11.38    2.34
  -3  -6   1   12.58    4.23
  -3   6  -1    6.44    2.56
  -3   6   1    5.21    2.99
  -3  -6  -1   12.85    3.34
  -3  -6   2  479.81   12.67
  -3   6  -2  513.58   16.50
   3  -6  -2  514.52   15.90
  -3  -6   2  512.11   17.30
  -3  -6   2  491.56    8.05
  -3  -6  -2  518.92   15.67
  -3   6   2  504.19   16.40
   3  -6   2  529.66   16.68
   3  -6  -2  512.24   17.05
  -3  -6  -2  499.80    9.24
  -3  -6   3   56.49    3.26
   3  -6  -3   60.59    5.93
  -3   6   3   58.09    5.89
   3  -6  -3   58.02    6.39
  -3  -6   3   55.63    6.26
   3  -6   3   57.96    5.93
  -3   6  -3   63.42    6.32
  -3  -6  -3   58.35    5.62
  -3  -6   3   52.09    4.62
  -3   6   3   56.57    5.99
  -3  -6   4   52.23    4.93
  -3  -6  -4   50.68    5.16
   3  -6   4   63.35    6.04
  -3   6   4   58.68    6.15
  -3   6  -4   62.70    6.35
   3  -6  -4   56.69    5.77
  -3   6   4   50.13    5.73
   3   6   4   58.89    7.12
   3  -6  -4   46.37    5.71
  -3  -6   4   51.79    3.50
  -3  -6   4   49.24    6.13
  -3  -6  -4   55.21    4.50
  -3  -6   5   51.67    5.00
  -3  -6  -5   50.83    5.20
   3   6   5   65.34    7.43
   3  -6  -5   54.62    6.17
   3  -6  -5   50.40    5.72
  -3   6  -5   55.71    5.93
  -3  -6   5   59.78    6.45
   3  -6   5   58.66    6.12
  -3  -6   5   48.63    3.70
  -3   6   5   50.42    5.60
  -3  -6   6  119.57    7.89
   3  -6  -6  131.70    6.83
   3  -6   6  121.85    8.38
   3   6   6  134.41   10.02
  -3   6   6  119.46    8.49
   3  -6  -6  138.18    9.37
   3   6   6  103.75    3.01
  -3  -6   6  129.10    9.15
  -3  -6   6  127.43    6.41
   3   6   6  131.46    9.31
  -3   6  -6  133.20    9.14
  -3  -6  -6  124.21    7.93
   3  -6  -6  137.78    9.60
  -3   6  -7   -2.69    3.46
   3   6   7   -1.30    0.91
  -3  -6   7   -1.96    2.84
   3   6   7    0.56    3.80
  -3  -6   7    1.58    2.39
   3  -6   7    0.12    2.70
   3  -6  -7   -0.30    1.51
  -3  -6  -7    1.96    1.95
   3  -6  -7   -1.29    2.82
   3  -6  -7   -6.78    3.60
   3   6   7    1.65    2.86
  -3   6   7   -5.18    4.00
   3  -6  -8   73.15    7.17
  -3  -6   8   81.65    7.44
  -3   6   8   64.96    6.80
   3  -6  -8   64.29    6.95
  -3  -6   8   75.46    6.78
   3   6   8   86.34    7.90
  -3   6  -8   74.11    7.30
   3   6   8   70.21    3.71
   3   6   8   71.78    7.96
  -3  -6  -8   79.68    6.60
   3  -6  -8   72.63    4.85
  -3   6  -9   22.44    4.37
  -3  -6   9   16.33    3.52
  -3  -6  -9   22.68    3.78
   3   6   9   19.22    4.70
  -3  -6   9   20.34    4.23
   3   6   9   19.80    2.28
   3   6   9   23.46    4.67
  -3  -6  -9   18.68    3.55
  -3   6   9   24.59    4.95
  -3   6 -10    8.98    3.69
   3   6  10    8.86    2.98
   3   6  10   12.90    4.09
  -3  -6  10   11.30    3.56
   3   6  10   11.25    2.03
  -3  -6 -10   12.85    3.42
  -3  -6  10    7.06    3.21
  -3  -6 -10   11.42    2.99
  -3   6  10   17.27    4.68
   3   6  11    9.64    4.39
  -3  -6  11   15.00    3.96
  -3  -6 -11   13.80    3.85
  -3   6  11   12.55    3.59
  -3  -6  11   14.54    4.07
   3  -6 -11   17.88    3.21
  -3  -6 -11   13.70    3.07
  -3  -6 -11   16.29    3.51
  -3   6  11   20.54    5.17
  -3   6 -11   15.34    4.01
   3   6  11   10.66    3.76
   3  -6 -12    1.70    1.92
   3   6  12    1.21    3.73
  -3   6  12    4.70    3.88
  -3  -6  12    3.59    3.42
  -3  -6 -12    1.82    2.82
  -3  -6  12   -1.00    2.88
  -3  -6 -12    2.69    1.96
  -3   6 -12    1.73    3.42
   3   6  12   -2.52    3.94
  -3   6  12    1.87    2.88
  -3  -6  13   60.65    7.24
  -3  -6 -13   65.11    7.20
  -3  -6 -13   68.62    5.87
   3  -6 -13   58.96    5.05
  -3  -6  13   66.52    7.23
  -3   6 -13   70.16    8.22
   3   6  13   59.32    7.10
  -3   6  13   65.19    6.97
  -3   6  13   73.02    8.19
   3   6  13   68.94    7.94
  -3  -6 -14  111.21    9.33
  -3   6 -14  119.57   10.25
  -3  -6  14  104.08    8.86
  -3  -6 -14  106.79    7.10
   3   6  14   97.92    9.59
  -3  -6  14  106.76    9.60
   3   6  14  116.59    9.86
   3  -6 -14  114.10    6.76
  -3   6  14  107.79    9.93
  -3   6  14  112.93    8.88
  -3   6  15   11.47    3.89
  -3   6 -15   13.94    4.29
  -3  -6  15    8.82    3.93
  -3  -6 -15   11.77    3.58
   3  -6 -15    7.87    1.83
  -3  -6  15   13.01    3.79
  -3  -6 -15   10.80    2.48
   3   6  15    1.76    4.01
   3   6  15   10.06    4.48
  -3   6  15    9.22    4.01
  -3   6  16    5.28    3.39
  -3  -6  16   -2.48    4.75
  -3  -6 -16   -1.74    2.84
  -3   6 -16    1.35    4.00
  -3  -6 -16    0.52    1.46
   3   6  16   -4.78    4.65
  -3  -6  16   -0.22    2.56
   3   6  16    2.70    4.01
  -3   6  16    0.40    3.91
  -3  -6  17    9.14    3.38
   3   6  17   13.12    4.31
  -3  -6 -17   13.65    3.61
  -3  -6  17    8.66    2.83
   3   6  17   17.92    5.32
  -3   6 -17   13.86    4.78
  -3   6  17   16.09    4.36
  -3   6  17   17.64    4.82
  -3   6  18   13.17    4.16
   3   6  18   12.16    4.55
  -3  -6  18   10.82    4.15
  -3   6 -18   15.67    5.01
  -3   6  18    5.02    3.49
   3   6  18    6.36    3.96
  -3  -6  18   12.51    3.79
  -3  -6 -18   12.71    3.82
  -3   6  19   12.89    3.94
  -3  -6  19    7.99    4.81
  -3  -6  19    9.75    3.20
   3   6  19    1.59    3.86
  -3   6 -19    7.56    4.30
   3   6  19   12.76    4.96
  -3   6  19    7.60    4.11
   3   6  20   14.51    5.08
  -3  -6  20   21.34    5.83
  -3   6 -20   27.95    6.51
  -3   6  20   25.84    5.47
  -3  -6  20   32.83    5.32
   3   6  20   29.30    6.49
  -3   6  20   19.04    5.78
  -3   6  21    0.30    3.29
  -3  -6  21   -0.26    4.68
   3   6  21    1.59    4.22
  -3  -6  21    5.53    2.67
  -3   6 -21    4.44    3.97
   3   6  21    4.97    4.53
  -3   6  21    1.08    4.25
  -3   6 -22    1.58    4.12
   3   6  22   -1.98    3.99
   3   6  22    0.62    4.21
  -3  -6  22   -3.66    4.71
  -3   6  22    5.61    3.71
  -3   6  22    2.06    4.12
  -3   6  23    9.00    4.15
  -3  -6  23    6.36    4.02
  -3   6 -23    4.60    4.24
   3   6  23    1.15    3.96
   3   6  23    6.67    4.53
  -3   6  23    2.96    4.25
  -3  -6  24    8.26    5.10
   3  -6  24   20.41    6.66
   3   6  24    8.69    3.80
  -3   6 -24   15.26    5.86
   3   6  24    8.42    4.28
  -3   6  24    6.46    4.75
  -3   6 -25    3.19    4.28
   3  -6  25    3.39    4.26
   3   6  25   -0.76    3.85
   3   6  25   -1.42    3.38
  -3   6  25    1.91    4.35
   3   6  26   -9.14    6.00
   3   6  26    5.04    4.31
   3   6  27  -10.34    6.22
  -3  -7   0    0.55    1.30
   3  -7   0   -3.26    3.62
   3  -7   0    0.25    2.28
  -3  -7   0    0.25    2.62
  -3   7   0   -8.06    4.61
  -3   7  -1  660.27   19.25
  -3  -7  -1  647.27   19.31
   3  -7  -1  624.84   18.70
   3  -7   1  647.39   20.21
  -3   7   1  631.43   18.84
   3  -7  -1  625.94   20.08
  -3  -7   1  626.36   13.90
  -3  -7  -1  616.72   11.58
  -3  -7  -2   34.53    4.91
  -3  -7   2   44.62    4.27
  -3   7   2   39.38    5.13
   3  -7   2   44.31    5.87
   3  -7  -2   43.65    5.95
   3  -7  -2   38.92    5.13
  -3   7  -2   35.41    5.21
  -3  -7  -2   39.88    2.73
  -3  -7   2   35.09    1.85
  -3  -7  -3  841.85   22.11
   3  -7  -3  881.18   22.75
  -3   7   3  867.21   22.31
  -3   7   3  912.18   23.24
  -3  -7   3  830.46   17.93
   3  -7   3  858.43   23.04
  -3   7  -3  833.23   22.01
   3  -7  -3  873.71   24.14
  -3  -7   3  839.12   11.61
  -3  -7   4 1203.69   22.79
  -3  -7  -4 1235.66   26.43
   3  -7  -4 1233.84   27.49
  -3  -7   4 1264.17   29.34
   3  -7  -4 1268.05   29.22
  -3   7  -4 1226.34   26.92
   3  -7   4 1250.19   27.86
  -3   7   4 1244.26   28.00
  -3   7   4 1243.27   26.94
  -3  -7   4 1239.33   16.33
  -3  -7   5 1083.10   22.54
   3  -7  -5 1105.07   27.87
   3  -7  -5 1089.01   26.51
  -3   7   5 1102.33   26.34
  -3  -7   5 1116.81   27.76
  -3  -7  -5 1078.73   24.94
  -3  -7  -5 1050.50   19.42
   3  -7   5 1056.97   25.83
  -3  -7   5 1087.97   17.17
  -3   7   5 1084.04   25.43
  -3   7  -5 1077.24   25.98
  -3  -7   6  216.63   10.72
  -3  -7   6  223.28    8.43
   3  -7  -6  220.86   12.38
   3   7   6  256.11   14.45
  -3  -7   6  225.70   12.91
   3  -7   6  228.94   12.29
  -3   7  -6  227.34   12.18
   3  -7  -6  235.85   13.30
  -3   7   6  230.25   12.53
  -3  -7  -6  217.88   11.30
   3   7   7    5.98    4.12
  -3   7  -7    1.36    2.76
  -3  -7   7   -0.82    2.76
  -3  -7  -7    3.44    2.90
   3  -7  -7   -0.08    3.23
   3  -7  -7   -0.50    2.75
  -3  -7   7    4.32    3.76
  -3   7   7   -1.71    3.50
   3   7   7   11.49    5.77
   3  -7   7    8.79    4.04
  -3  -7   8  379.18   15.14
   3   7   8  395.53   17.95
   3   7   8  377.00   16.58
  -3   7  -8  383.61   16.25
   3  -7   8  366.12   15.64
   3  -7  -8  375.06   16.74
  -3  -7   8  370.31   16.63
  -3  -7  -8  384.87   15.20
   3  -7  -8  383.84   17.27
  -3   7   8  361.36   16.14
  -3   7   9  692.34   22.60
  -3  -7   9  709.99   21.19
   3   7   9  734.31   24.73
  -3  -7  -9  712.10   20.93
   3  -7  -9  699.48   23.48
  -3  -7   9  721.95   22.92
  -3   7  -9  717.48   22.75
   3  -7  -9  707.15   23.82
   3   7   9  709.09   23.12
   3   7  10   82.39    9.18
  -3   7 -10   77.89    7.91
  -3  -7  10   85.49    8.51
   3  -7 -10   70.99    7.84
  -3  -7 -10   71.17    7.04
   3   7  10   86.12    8.60
  -3  -7  10   79.69    7.84
  -3   7  10   69.23    7.74
   3   7  11   13.50    4.78
  -3  -7  11   13.13    4.26
  -3  -7 -11    6.21    2.61
  -3  -7  11   10.66    3.98
  -3   7 -11    4.27    3.26
   3   7  11   17.74    5.80
  -3   7  11   13.22    3.96
  -3  -7  12  139.07   10.56
   3   7  12  130.39   11.30
  -3   7  12  140.52   11.49
  -3  -7 -12  139.86   10.76
  -3  -7 -12  138.97    9.10
  -3  -7  12  146.74   11.03
  -3   7 -12  139.38   10.99
   3  -7 -12  123.31    7.31
   3   7  12  140.45   11.12
  -3  -7 -12  129.67    9.74
   3   7  13  995.51   29.02
   3   7  13  993.25   29.96
  -3  -7  13 1037.81   28.92
  -3  -7 -13 1014.26   28.58
  -3  -7  13 1044.26   28.53
  -3  -7 -13 1015.98   23.67
  -3   7 -13 1027.78   29.87
  -3   7  13 1024.96   30.14
   3  -7 -13 1017.94   20.18
  -3  -7  14   37.20    7.00
   3  -7 -14   25.04    3.36
   3   7  14   24.61    6.22
  -3  -7 -14   28.08    5.34
  -3  -7  14   28.73    5.39
  -3   7 -14   24.86    5.38
  -3  -7 -14   22.66    3.92
  -3   7  14   21.68    5.81
   3   7  14   26.30    5.86
  -3  -7  15    7.14    3.93
   3   7  15    8.37    3.76
  -3  -7 -15    4.68    3.05
  -3  -7 -15    3.52    1.73
  -3   7 -15    2.67    3.41
  -3  -7  15    5.91    3.26
   3   7  15    5.69    3.69
  -3   7  15   12.77    3.90
  -3   7  15   10.71    4.77
  -3  -7  16   32.27    6.18
   3   7  16   41.50    7.06
  -3  -7 -16   33.79    4.29
  -3  -7 -16   28.14    5.52
  -3  -7  16   27.57    5.09
  -3   7 -16   35.01    6.64
  -3   7  16   38.00    7.70
   3   7  16   33.38    6.44
  -3   7  16   27.73    5.00
  -3  -7 -17  455.75   20.55
  -3  -7  17  448.01   19.35
  -3   7  17  458.59   18.40
  -3  -7  17  452.95   21.67
  -3   7 -17  471.87   22.22
  -3   7  17  437.20   21.95
   3   7  17  470.51   22.02
   3   7  17  459.72   21.92
   3   7  18    4.19    4.32
  -3  -7  18   14.59    5.47
  -3   7  18    7.68    5.05
  -3  -7 -18    4.47    3.02
  -3  -7  18    3.95    3.08
  -3   7 -18    7.32    4.37
   3   7  18    0.69    3.47
  -3   7  18    2.97    3.09
  -3   7 -19  327.10   19.38
  -3  -7  19  273.15   18.01
  -3  -7  19  311.15   16.26
  -3  -7 -19  294.04   17.36
   3   7  19  307.62   18.54
  -3   7  19  285.19   18.49
   3   7  19  288.50   18.09
  -3   7  19  304.71   15.57
  -3  -7  20   56.37    9.18
  -3  -7  20   64.10    7.95
  -3   7 -20   47.05    8.29
   3   7  20   67.98    9.52
   3   7  20   63.34    9.06
  -3   7  20   42.95    8.17
  -3   7  20   53.68    6.93
  -3  -7  21   77.89   10.32
  -3   7  21   82.26   10.78
  -3  -7  21   92.66    9.28
  -3   7 -21   76.85   10.16
   3   7  21   95.48   11.05
   3   7  21   89.97   11.20
   3   7  22   44.57    8.46
  -3   7 -22   37.00    7.95
  -3  -7  22   24.97    6.83
   3   7  22   40.36    8.07
  -3   7  22   54.97    9.75
  -3  -7  23  323.85   21.20
  -3   7 -23  359.11   22.53
   3  -7  23  329.75   21.80
   3   7  23  383.25   22.53
  -3   7  23  354.22   22.67
   3   7  23  334.50   20.80
  -3  -7  24    1.31    4.09
  -3   7 -24    4.12    5.08
  -3   7  24   -1.44    3.48
   3   7  24   -3.73    4.15
   3   7  25   66.36   10.05
   3   7  25   69.22   10.52
   3   7  26    5.37    5.31
   3   7  27  397.69   23.91
  -3  -8   0    0.95    1.21
  -3   8   0    2.61    3.26
  -3  -8   0   -2.30    3.22
  -3  -8  -1    9.05    3.49
  -3  -8  -1   12.58    1.90
   3  -8   1    9.13    3.87
   3  -8  -1    4.81    3.30
   3  -8  -1   14.65    3.75
  -3  -8   1   14.55    2.70
  -3   8  -1   14.78    3.80
  -3  -8   1   13.62    4.58
  -3   8   1    8.11    3.37
  -3  -8  -2    0.53    0.75
   3  -8   2   -3.25    3.36
  -3  -8   2    0.72    1.73
   3  -8  -2   -2.05    3.06
   3  -8  -2   -0.97    2.91
  -3   8  -2    2.33    3.04
  -3   8   2   -4.50    4.15
  -3  -8  -2    2.38    3.38
  -3  -8   3  171.17    8.49
  -3   8  -3  157.23   10.25
   3  -8  -3  163.57   10.77
   3  -8   3  173.13   11.30
  -3  -8  -3  163.52   10.83
  -3   8   3  175.46   10.53
  -3  -8   3  148.29    4.49
   3  -8  -3  171.92   11.79
  -3  -8   4   68.35    5.79
  -3   8   4   79.02    7.50
  -3  -8  -4   72.16    7.38
  -3   8  -4   72.90    7.14
   3  -8  -4   68.71    7.50
   3  -8  -4   67.81    7.85
   3  -8   4   73.43    7.75
   3  -8   5   58.03    7.46
  -3  -8  -5   48.48    6.17
  -3  -8   5   54.69    5.47
   3  -8  -5   48.62    6.84
   3  -8  -5   58.50    7.13
  -3   8   5   55.12    7.50
  -3   8  -5   50.40    6.18
  -3   8   5   55.63    6.92
  -3   8   6   74.49    8.41
  -3  -8   6   69.26    6.41
  -3  -8  -6   64.28    6.91
   3  -8  -6   75.61    7.84
   3  -8  -6   74.12    8.25
  -3  -8   6   78.25    8.54
   3  -8   6   71.39    7.54
  -3   8  -6   70.55    7.30
  -3   8   6   91.24    8.28
  -3  -8   7   14.49    3.34
  -3   8  -7   23.31    4.72
  -3  -8  -7   20.35    4.23
  -3  -8   7   20.12    4.94
   3  -8  -7   21.43    5.08
   3  -8  -7   18.78    4.54
   3  -8   7   21.44    4.89
  -3   8   7   26.79    5.52
  -3  -8   8  116.65    8.91
   3  -8   8  132.15   10.28
   3  -8  -8  125.76   10.37
  -3  -8   8  125.05   10.60
  -3   8  -8  125.89   10.03
  -3   8   8  135.54   10.83
  -3  -8  -8  128.00    9.78
   3  -8  -8  121.32   10.29
  -3  -8   9  177.26   11.35
  -3   8  -9  171.98   11.87
   3  -8  -9  184.31   12.69
   3   8   9  171.28   13.08
   3  -8  -9  186.56   12.89
  -3  -8   9  175.88   12.27
   3  -8   9  172.64   11.97
   3   8   9  177.10   12.71
  -3   8   9  168.95   12.09
  -3  -8  -9  163.28   11.05
  -3  -8  10   35.54    5.66
  -3  -8 -10   36.24    5.51
   3  -8 -10   27.10    5.35
   3  -8 -10   39.42    6.65
  -3  -8  10   29.38    5.81
  -3   8 -10   36.91    6.00
   3   8  10   42.16    6.84
  -3   8  10   28.67    5.71
   3   8  10   45.77    7.70
  -3  -8  11    7.62    3.02
   3   8  11   17.86    6.00
  -3  -8 -11   14.68    4.06
  -3  -8  11   17.17    4.40
   3   8  11    6.08    3.92
  -3   8 -11   10.71    3.99
   3  -8 -11    9.25    3.64
  -3   8  11    4.33    4.10
  -3  -8  12   22.15    4.57
   3   8  12   35.54    7.43
  -3   8 -12   20.89    5.43
  -3  -8 -12   30.72    5.78
  -3  -8 -12   31.73    5.41
  -3  -8  12   26.09    5.18
   3   8  12   30.21    5.93
  -3   8  12   26.07    5.40
  -3   8  13    2.84    4.42
  -3  -8  13   10.88    3.78
  -3  -8 -13   15.03    4.49
   3   8  13    7.16    4.74
  -3  -8  13    5.37    3.45
  -3  -8 -13    6.16    2.84
  -3   8 -13    4.76    2.96
   3   8  13    4.18    3.84
  -3  -8  14   -6.22    4.56
   3   8  14    1.51    4.25
  -3  -8 -14   -0.08    2.65
  -3  -8 -14    0.68    1.88
  -3  -8  14   -0.41    3.17
  -3   8 -14    2.13    3.64
   3   8  14    6.86    4.41
  -3   8  14   -1.97    4.34
   3   8  15  101.02   10.81
  -3   8 -15   86.02    9.72
  -3  -8  15   79.79    9.02
  -3  -8 -15   76.22    9.14
  -3  -8  15   82.36    8.89
  -3  -8 -15   90.74    7.69
  -3   8  15  105.93   11.07
   3   8  15   69.36    8.97
   3   8  16    1.39    4.32
  -3  -8  16    0.10    3.82
  -3  -8 -16    0.15    2.72
  -3   8 -16    0.73    3.48
   3   8  16   -0.38    3.79
  -3  -8  16   -1.10    2.66
  -3   8  16    2.30    3.57
   3   8  17   96.41   10.81
  -3  -8  17   99.48   10.87
  -3   8 -17  102.49   11.01
  -3  -8 -17  104.86   10.75
  -3  -8  17   95.74    9.59
  -3   8  17   96.46   10.99
   3   8  17   94.13   10.73
  -3  -8  18   12.03    5.26
  -3   8  18   14.21    5.87
  -3  -8 -18   13.04    4.23
  -3  -8  18   12.78    4.00
  -3   8 -18    3.42    3.97
   3   8  18   12.58    5.31
   3   8  18    8.93    5.18
  -3  -8  19    5.97    4.38
  -3   8 -19    6.15    3.58
  -3  -8 -19    3.98    3.35
  -3  -8  19    7.36    3.64
   3   8  19    0.51    3.78
  -3   8  19    8.87    5.49
   3   8  19   -2.28    4.30
  -3  -8  20   34.55    7.49
  -3   8 -20   35.97    7.54
  -3  -8  20   40.37    6.44
  -3  -8 -20   36.71    6.75
   3   8  20   41.93    7.68
   3   8  20   31.50    7.03
  -3   8  20   36.16    7.52
  -3  -8  21   -1.87    4.38
  -3   8  21    3.94    5.23
  -3  -8  21   -0.49    2.57
  -3   8 -21    4.25    4.96
   3   8  21   -3.64    4.59
   3   8  21    2.01    3.88
  -3  -8  22    3.94    4.06
   3   8  22    7.86    4.42
  -3   8 -22    6.35    3.83
   3   8  22    2.19    3.92
  -3   8  22   12.13    5.33
  -3  -8  23   -0.84    4.72
   3   8  23   -1.03    4.37
   3   8  23    1.83    3.57
  -3   8 -23   -0.94    3.51
   3   8  24   27.16    7.01
   3   8  24   17.56    5.99
   3   8  25   12.21    5.30
  -3  -9   0    4.96    3.88
  -3  -9   0    1.88    1.55
   3  -9   0   -2.09    3.11
  -3   9   0    0.59    2.80
  -3  -9   1  888.01   17.35
   3  -9  -1  905.00   25.86
  -3  -9   1  877.58   26.55
   3  -9   1  913.14   27.32
  -3   9   1  890.14   24.09
  -3   9  -1  902.04   24.45
   3  -9  -1  879.23   26.96
  -3  -9  -1  878.13   26.19
  -3  -9  -1  916.65   14.40
  -3  -9  -2   66.67    7.74
  -3  -9   2   61.50    7.88
  -3   9   2   58.53    6.33
   3  -9  -2   71.56    8.17
   3  -9  -2   81.27    8.16
   3  -9   2   64.72    7.38
  -3   9  -2   68.25    7.05
  -3  -9   2   67.00    5.24
  -3  -9  -3   -1.66    3.59
   3  -9   3   -2.70    3.91
  -3  -9   3    1.44    1.91
   3  -9  -3    5.29    3.63
   3  -9  -3   -1.83    3.20
  -3   9  -3    0.80    3.32
  -3  -9   3    0.03    3.27
  -3   9   3   -9.87    4.63
  -3  -9   4  213.44   10.27
   3  -9  -4  230.35   13.58
   3  -9   4  209.70   13.44
  -3   9  -4  218.23   12.62
  -3  -9  -4  214.53   13.05
   3  -9  -4  221.57   14.18
  -3   9   4  214.85   12.22
  -3  -9   5 1267.38   25.99
   3  -9  -5 1223.08   31.76
   3  -9  -5 1288.88   33.70
  -3   9   5 1260.55   29.13
  -3   9  -5 1255.14   29.99
  -3  -9  -5 1241.09   31.04
   3  -9   5 1265.52   32.69
  -3  -9  -6  194.82   12.48
  -3  -9   6  212.65   11.31
   3  -9  -6  197.01   13.28
  -3   9   6  239.14   14.76
   3  -9   6  207.80   13.41
  -3   9   6  215.69   12.44
   3  -9  -6  203.76   14.00
  -3   9  -6  208.71   12.67
  -3  -9   7  225.18   12.03
  -3   9   7  225.20   14.36
   3  -9  -7  235.80   14.63
  -3  -9   7  248.86   15.03
  -3  -9  -7  227.94   13.89
   3  -9   7  231.45   14.13
  -3   9   7  229.06   12.90
  -3   9  -7  240.27   13.68
   3  -9  -7  228.31   14.71
  -3  -9   8  175.58   11.05
  -3   9  -8  174.54   12.09
   3  -9  -8  178.66   13.04
  -3  -9  -8  189.73   12.56
  -3  -9   8  199.11   13.71
  -3   9   8  198.81   12.20
  -3   9   8  186.81   13.25
   3  -9  -8  184.39   13.47
   3  -9   8  173.43   12.61
  -3  -9   9  539.66   19.84
   3  -9  -9  544.86   22.85
  -3   9   9  583.10   23.07
  -3  -9   9  548.36   22.38
   3  -9   9  535.34   21.96
  -3   9  -9  537.46   21.26
  -3  -9  -9  554.28   21.50
   3  -9  -9  552.26   23.38
  -3  -9  10  226.54   13.34
  -3   9 -10  230.24   14.34
   3  -9 -10  217.95   14.72
  -3  -9  10  218.28   14.46
  -3   9  10  227.81   14.87
  -3  -9 -10  232.07   13.98
   3   9  10  238.77   15.55
   3  -9  10  197.98   13.63
   3  -9 -10  208.95   14.64
   3   9  11  109.73   11.04
  -3  -9  11   77.16    8.32
   3  -9 -11   88.75    9.63
  -3  -9  11   91.47    9.58
   3  -9  11   81.23    9.07
   3  -9 -11   82.63    9.43
  -3   9 -11   79.79    8.91
  -3   9  11   94.08   10.03
  -3  -9 -11   83.27    8.72
   3   9  12   13.38    6.06
  -3  -9  12    8.27    3.74
  -3  -9 -12    3.92    3.76
  -3  -9 -12    2.18    2.54
   3  -9 -12    5.00    3.46
  -3  -9  12    1.08    3.41
  -3   9 -12    4.69    3.59
   3   9  12    3.47    4.44
  -3   9  12    4.38    3.80
  -3  -9  13  190.09   13.52
  -3   9 -13  182.56   13.39
  -3  -9 -13  193.55   14.20
   3   9  13  199.66   15.03
  -3  -9  13  187.37   13.64
  -3   9  13  187.65   14.16
   3   9  13  177.85   14.06
  -3  -9 -13  195.93   13.35
   3   9  14   87.45   10.48
  -3  -9  14   73.41    8.84
  -3  -9 -14   84.21    9.70
  -3   9  14   73.63    9.50
  -3  -9  14   81.81    9.13
   3   9  14   85.76   10.44
  -3   9 -14   72.32    9.06
  -3   9 -15    7.17    4.45
  -3  -9  15    6.51    4.32
  -3  -9 -15    4.28    2.47
  -3  -9 -15    5.56    3.92
   3   9  15   10.56    5.85
  -3  -9  15    7.83    4.70
  -3   9  15    2.60    3.97
   3   9  15    6.72    5.39
  -3  -9  16  356.29   19.53
   3   9  16  336.65   20.12
  -3  -9 -16  350.56   19.59
  -3  -9  16  334.54   18.66
  -3   9 -16  356.59   20.02
   3   9  16  347.74   20.32
  -3   9  16  364.01   21.11
  -3  -9  17  271.86   17.96
   3   9  17  293.84   19.09
  -3  -9 -17  292.95   18.43
  -3   9 -17  301.82   18.67
  -3   9  17  305.13   19.64
  -3  -9  17  285.20   17.20
   3   9  17  314.86   19.82
  -3  -9  18   17.01    6.29
  -3   9 -18   12.50    5.16
  -3  -9 -18   14.83    5.27
   3   9  18   13.91    6.57
  -3  -9  18   15.91    5.00
   3   9  18   15.69    5.84
  -3   9  18   13.52    5.89
  -3  -9  19  209.09   16.27
   3   9  19  200.34   16.33
  -3   9  19  195.43   16.55
  -3  -9 -19  189.34   15.32
  -3  -9  19  194.81   14.37
  -3   9 -19  184.79   15.40
   3   9  19  219.52   17.11
   3   9  20  114.07   12.88
  -3  -9  20  129.39   13.45
  -3  -9 -20  129.12   13.06
  -3  -9  20  124.06   11.76
  -3   9 -20  141.27   14.16
   3   9  20  147.92   14.20
  -3   9  20  147.63   14.74
  -3  -9  21  114.65   12.89
  -3   9 -21  100.20   12.11
   3   9  21   92.73   11.69
  -3   9  21   97.16   12.60
   3   9  21  100.86   12.57
   3   9  22   11.69    6.52
  -3   9 -22    0.29    3.91
   3   9  22    3.30    5.48
   3   9  23  330.95   21.64
   3   9  24   44.61    8.94
  -3 -10   0   -1.59    3.41
   3 -10   0    1.69    3.32
  -3  10   0    4.00    3.79
  -3 -10   1   12.33    4.39
  -3 -10  -1    6.71    3.70
   3 -10   1    8.41    4.69
   3 -10  -1    5.33    3.26
   3 -10  -1    1.71    2.92
  -3  10  -1    9.33    4.19
  -3  10   1    9.47    3.71
  -3 -10  -2    6.47    4.35
  -3 -10   2    3.91    2.15
   3 -10  -2   -2.15    4.33
   3 -10  -2    3.35    3.02
  -3  10   2    6.91    3.61
  -3 -10   2    7.68    4.28
  -3  10  -2    6.79    3.14
   3 -10   2    3.55    3.15
  -3 -10  -3   22.87    5.56
   3 -10   3    9.46    4.10
  -3 -10   3   24.10    3.83
   3 -10  -3   19.31    4.99
   3 -10  -3   16.19    4.15
  -3 -10   3   26.07    6.35
  -3  10   3   12.14    3.12
  -3  10  -3   18.96    4.26
  -3 -10   4   11.79    5.07
  -3  10  -4    7.92    3.11
   3 -10   4    7.68    3.82
  -3 -10  -4   14.09    4.31
  -3 -10   4    6.51    2.40
   3 -10  -4    8.67    4.08
   3 -10  -4    9.11    3.39
  -3  10   4    6.31    2.66
   3 -10   5    2.93    3.88
  -3 -10   5   -1.94    2.28
  -3 -10  -5   -0.09    2.79
   3 -10  -5   -2.77    3.34
   3 -10  -5   -0.14    3.10
  -3  10  -5    0.71    2.58
  -3  10   5   -4.34    3.55
  -3  10   6   22.04    4.79
   3 -10   6   16.06    4.81
  -3 -10   6   13.54    3.54
  -3  10  -6   17.44    4.30
  -3 -10  -6   13.78    4.65
   3 -10  -6   19.21    5.87
   3 -10  -6   11.88    4.43
   3 -10   7   78.18    9.11
  -3 -10   7   68.44    6.90
   3 -10  -7   70.79    9.04
  -3  10   7   83.72    9.77
   3 -10  -7   67.05    8.34
  -3  10  -7   81.46    8.45
  -3 -10  -7   77.88    8.98
  -3  10   7   75.56    7.82
  -3 -10   8  172.27   11.28
  -3  10   8  169.26   11.48
   3 -10  -8  169.18   13.32
  -3 -10   8  169.62   13.39
  -3 -10  -8  165.64   12.48
   3 -10   8  170.13   13.11
  -3  10  -8  170.57   12.42
  -3  10   8  196.16   14.25
   3 -10  -8  189.66   14.47
  -3  10   9  111.17    9.77
  -3 -10   9  107.00    9.25
  -3  10   9  126.09   11.86
   3 -10  -9  113.77   11.08
  -3 -10   9  112.36   10.99
   3 -10   9  109.69   10.94
  -3  10  -9  123.88   10.64
  -3 -10  -9  108.78   10.39
   3 -10  -9  108.17   11.07
  -3 -10  10   63.47    7.64
  -3 -10 -10   56.41    7.50
  -3  10  10   63.88    8.74
   3 -10 -10   56.80    8.13
   3 -10 -10   50.79    8.05
  -3 -10  10   58.12    8.28
  -3  10 -10   62.45    7.74
  -3  10  10   55.27    7.13
   3 -10  10   58.63    8.19
  -3 -10  11   -0.97    3.84
  -3 -10  11    2.80    3.03
  -3 -10 -11    8.21    3.91
   3 -10 -11    6.32    3.86
   3 -10 -11    5.08    3.74
   3 -10  11    7.86    4.76
  -3  10  11   11.88    4.86
  -3  10 -11    3.90    3.03
  -3 -10  12   -4.28    3.83
   3  10  12    5.84    5.04
  -3 -10 -12    1.12    2.97
  -3 -10 -12    2.54    3.23
   3 -10 -12   -4.84    4.64
  -3 -10  12   -3.27    4.00
  -3  10 -12    3.03    3.00
  -3  10  12    5.86    4.72
   3 -10  12   -0.44    3.48
  -3 -10  13    0.97    3.12
   3 -10  13    5.18    3.50
  -3  10 -13    5.80    3.85
  -3 -10 -13   -0.60    3.93
  -3 -10 -13    4.23    3.60
   3 -10 -13    3.17    3.11
  -3 -10  13    3.93    3.20
   3  10  13    5.04    3.92
  -3  10  13    1.38    3.55
  -3 -10  14   44.93    7.13
  -3 -10 -14   46.20    7.57
  -3 -10  14   42.15    7.33
  -3 -10 -14   39.08    6.67
  -3  10 -14   50.92    7.71
   3  10  14   47.23    8.07
  -3  10  14   47.38    8.23
  -3  10 -15    0.88    3.13
  -3 -10  15   -0.83    3.81
  -3 -10 -15    0.48    3.06
  -3 -10  15    4.70    3.71
  -3  10  15   -3.03    5.36
   3  10  15    6.28    3.97
  -3 -10  16   55.05    8.37
  -3 -10  16   45.01    7.80
  -3 -10 -16   47.93    7.97
  -3  10 -16   50.01    7.80
   3  10  16   57.99    9.46
  -3  10  16   55.17    8.96
   3  10  17   43.37    8.63
  -3 -10  17   45.96    7.80
  -3 -10  17   35.33    6.92
  -3  10 -17   40.68    7.70
  -3 -10 -17   34.51    6.94
   3  10  17   41.18    8.52
  -3  10  17   38.53    7.67
  -3 -10  18   90.48   10.75
  -3 -10 -18   94.73   11.33
   3  10  18  100.91   12.31
  -3 -10  18   91.13   10.32
   3  10  18   98.14   12.15
  -3  10  18   92.75   11.64
  -3  10 -18  102.80   11.79
  -3 -10  19   11.02    4.65
  -3 -10 -19   11.78    4.64
   3  10  19   13.05    6.01
  -3 -10  19   14.52    4.93
   3  10  19   15.72    6.09
  -3  10  19   -1.16    5.21
  -3  10 -19   14.93    5.36
  -3 -10  20   37.47    7.71
   3  10  20   64.89   10.39
  -3 -10 -20   49.52    8.55
  -3  10 -20   38.77    8.05
   3  10  20   43.47    8.99
  -3 -10  20   45.13    7.66
  -3  10 -21   16.76    5.74
   3  10  21   25.69    7.01
  -3 -10 -21   27.46    7.02
   3  10  22   69.64   10.63
   3 -11   0   -4.05    4.67
  -3  11   0   -0.46    2.86
  -3 -11   0   -2.35    4.00
  -3 -11  -1   53.42    7.54
  -3 -11   1   61.02    8.44
   3 -11   1   56.50    8.28
   3 -11  -1   58.09    8.08
   3 -11  -1   55.96    7.83
  -3  11  -1   56.29    6.83
  -3  11   1   56.84    7.04
   3 -11  -2  255.22   15.68
   3 -11   2  249.62   16.36
  -3 -11  -2  248.24   15.92
  -3  11  -2  252.98   14.20
   3 -11  -2  240.65   16.31
  -3  11   2  249.29   13.61
  -3 -11   2  249.11   16.32
   3 -11   3   44.77    7.43
  -3 -11  -3   34.49    6.52
   3 -11  -3   34.04    6.82
   3 -11  -3   31.30    5.80
  -3  11   3   44.48    6.08
  -3  11  -3   34.99    5.64
  -3 -11   3   32.79    6.58
  -3  11  -4   49.20    6.57
   3 -11   4   62.06    8.52
  -3 -11  -4   48.46    7.51
   3 -11  -4   55.64    8.14
   3 -11  -4   51.43    7.24
  -3 -11   4   52.01    8.01
  -3  11   4   57.49    6.90
   3 -11   5   47.67    7.77
  -3 -11  -5   46.44    6.98
  -3  11   5   46.75    6.20
   3 -11  -5   45.39    7.59
   3 -11  -5   55.20    8.09
  -3  11  -5   57.36    7.28
  -3 -11   5   50.26    8.06
  -3 -11   6  107.26    8.49
   3 -11  -6  105.88   10.59
   3 -11   6  103.66   10.97
  -3  11   6   99.68    8.87
  -3 -11   6  118.37   11.72
  -3  11  -6  112.42   10.04
  -3 -11  -6   99.29   10.19
   3 -11  -6  114.41   11.58
  -3  11  -7    9.33    3.78
   3 -11   7   13.06    4.45
  -3 -11   7    8.64    3.26
  -3  11   7    6.16    2.80
  -3 -11  -7   13.51    4.76
   3 -11  -7   12.64    5.49
   3 -11  -7   13.31    4.87
   3 -11   8    3.04    3.61
  -3 -11   8    1.32    2.52
  -3 -11  -8    9.32    3.98
   3 -11  -8    4.77    4.15
   3 -11  -8    1.95    3.41
  -3 -11   8    7.38    4.73
  -3  11  -8    2.80    2.57
  -3  11   8    3.55    3.04
  -3 -11  -9   16.78    5.00
  -3 -11   9    5.35    3.05
   3 -11  -9   13.49    4.86
   3 -11  -9    6.39    4.13
  -3  11   9    9.84    5.56
  -3  11  -9    7.43    3.59
   3 -11   9    2.14    3.36
  -3 -11   9   10.91    4.86
  -3  11   9    8.72    3.91
   3 -11  10   17.29    5.08
  -3 -11  10   15.61    4.17
  -3 -11 -10   13.28    4.48
   3 -11 -10   18.62    5.14
   3 -11 -10   15.64    5.36
  -3 -11  10   13.80    4.88
  -3  11 -10   14.49    4.00
  -3  11  10   26.87    7.10
  -3  11  10   21.03    4.83
  -3 -11  11    6.97    3.64
  -3 -11 -11    4.09    3.22
  -3  11 -11    4.84    3.81
   3 -11 -11    1.88    3.36
  -3  11  11    4.38    5.10
   3 -11 -11    2.66    3.49
  -3 -11  11    4.99    3.45
  -3  11  11    8.06    4.77
   3 -11  11    9.24    4.85
  -3 -11  12  393.68   19.33
  -3 -11 -12  402.25   22.36
  -3  11 -12  393.87   20.41
   3 -11 -12  407.26   22.57
  -3 -11  12  397.94   21.76
  -3  11  12  389.19   18.81
   3 -11  12  383.61   21.08
   3 -11 -12  398.52   22.69
  -3 -11 -12  396.30   20.81
  -3  11  12  390.75   22.17
  -3 -11  13   35.59    6.61
  -3 -11 -13   40.14    7.39
  -3 -11 -13   33.23    6.47
   3 -11 -13   43.15    8.37
  -3  11 -13   34.87    6.59
  -3 -11  13   37.62    7.44
   3 -11  13   43.14    7.98
  -3  11  13   47.32    8.65
  -3 -11  14   42.17    7.01
   3  11  14   52.32    8.83
  -3  11  14   59.93    9.47
  -3 -11 -14   39.79    7.33
   3 -11  14   46.11    8.16
   3 -11 -14   49.62    8.49
  -3 -11 -14   32.36    6.63
  -3 -11  14   44.01    7.76
  -3  11 -14   38.20    6.87
  -3 -11  15   32.83    6.74
  -3 -11 -15   29.97    6.65
  -3 -11  15   28.14    6.61
   3  11  15   32.82    7.85
  -3  11 -15   36.17    6.95
  -3  11  15   30.98    7.65
   3 -11  15   38.13    7.56
  -3 -11  16   26.18    5.75
  -3  11 -16   27.29    6.52
  -3 -11 -16   24.66    6.47
   3  11  16   28.73    7.40
   3 -11  16   21.85    6.11
  -3 -11  16   29.94    7.11
  -3  11  16   28.03    7.46
  -3 -11  17    6.18    3.96
  -3 -11 -17    6.76    4.07
  -3 -11  17    9.44    4.92
  -3  11 -17   -3.62    4.11
   3  11  17    5.60    5.16
  -3  11  17    6.91    5.68
  -3 -11  18   -2.66    4.40
  -3  11 -18    2.02    3.90
  -3 -11 -18    4.01    3.27
  -3 -11  18    2.63    3.03
   3  11  18    0.47    4.67
  -3 -11  19   64.86    9.47
  -3 -11  19   80.42   10.74
  -3  11 -19   49.66    8.62
  -3 -11  20  185.40   15.38
  -3 -12   0    1.29    3.83
   3 -12   0    3.97    3.81
   3 -12   0    0.16    2.91
  -3  12   0   -0.83    2.86
  -3 -12   1   33.40    6.68
   3 -12   1   26.99    6.46
   3 -12  -1   32.45    6.62
   3 -12  -1   21.38    5.21
  -3  12  -1   27.62    5.23
  -3 -12  -1   33.35    6.87
  -3  12   1   26.63    5.13
  -3 -12  -2   19.27    5.14
   3 -12   2   12.84    4.51
   3 -12  -2   15.61    5.00
   3 -12  -2   21.36    5.64
  -3  12  -2   15.72    4.22
  -3  12   2   17.99    4.55
  -3 -12   2   18.22    5.56
  -3 -12   3    3.24    4.17
  -3 -12  -3    5.48    3.89
   3 -12  -3    4.60    4.06
   3 -12  -3    2.15    3.03
   3 -12   3    6.32    4.20
  -3  12  -3    3.95    3.02
   3 -12   4    3.47    4.25
  -3 -12  -4   -2.70    3.73
   3 -12  -4    1.63    3.62
  -3  12  -4   -2.20    3.04
   3 -12  -4   -0.60    2.88
  -3 -12   4    2.25    3.84
   3 -12   5   -0.85    3.20
  -3 -12  -5    1.53    2.78
   3 -12  -5    3.05    3.50
   3 -12  -5   -2.54    3.49
  -3  12  -5    5.76    3.43
  -3 -12   5    1.31    3.83
   3 -12   6   17.18    5.33
  -3 -12  -6   18.46    5.64
   3 -12  -6   15.39    5.19
   3 -12  -6   11.81    4.44
  -3  12  -6   18.69    4.64
  -3 -12   6   17.58    5.59
   3 -12   7    5.44    3.88
  -3 -12   7   14.78    5.12
  -3 -12  -7    8.75    4.34
   3 -12  -7    7.78    4.62
   3 -12  -7    9.18    4.07
  -3  12  -7   10.00    3.61
  -3 -12   8   -0.02    3.24
   3 -12   8    2.84    4.24
  -3 -12  -8   -4.59    3.83
   3 -12  -8   -3.73    4.20
   3 -12  -8   -1.01    3.52
  -3  12  -8    1.19    2.77
  -3 -12   8    6.56    4.04
   3 -12   9   42.88    7.93
  -3 -12  -9   36.40    6.91
   3 -12  -9   29.64    6.71
   3 -12  -9   41.34    7.99
  -3 -12   9   42.54    8.30
  -3  12  -9   36.94    6.47
  -3 -12 -10   24.80    6.11
   3 -12 -10   20.10    5.86
   3 -12 -10   18.78    5.49
  -3 -12  10   21.63    6.31
  -3  12 -10   26.73    5.88
   3 -12  10   29.42    7.07
   3 -12  11    2.07    3.35
  -3 -12  11    1.06    2.90
  -3 -12 -11   -1.35    3.48
  -3 -12 -11    2.68    3.62
   3 -12 -11    0.64    3.33
   3 -12 -11   -3.22    3.24
  -3  12  11    6.83    5.15
  -3 -12  11    1.06    4.07
  -3  12 -11   -1.18    3.37
   3 -12  12   49.82    8.57
  -3 -12  12   41.65    6.73
  -3 -12 -12   40.80    7.96
  -3 -12 -12   42.83    7.90
  -3  12  12   55.05    9.46
   3 -12 -12   49.45    8.03
   3 -12 -12   52.73    8.78
  -3 -12  12   57.90    9.24
  -3  12 -12   45.85    7.52
   3 -12  13    0.48    3.68
  -3  12 -13    1.81    3.57
  -3 -12 -13    0.63    4.00
  -3 -12 -13    0.83    2.78
   3 -12 -13    1.75    3.73
  -3 -12  13   -4.22    3.62
  -3  12  13    6.25    5.11
  -3 -12  13   -1.61    3.43
  -3  12  14   36.74    8.41
  -3  12 -14   22.88    6.16
  -3 -12  14   19.27    5.19
  -3 -12 -14   30.30    7.29
   3 -12 -14   28.45    7.04
  -3 -12 -14   29.82    6.41
  -3 -12  14   33.42    7.25
   3 -12  14   29.24    7.13
  -3 -12  15    4.70    3.59
  -3 -12 -15   20.11    5.93
  -3  12 -15   21.19    5.86
  -3  12  15   26.57    7.50
  -3 -12  15   12.46    5.20
   3 -12  15   17.98    5.89
  -3 -12  16   -0.40    3.86
  -3  12 -16    2.56    3.80
  -3 -12  16    9.49    4.63
   3 -12  16    2.93    4.23
  -3 -12  17  106.84   12.12
   3 -12  17  117.67   13.18
  -3  12 -17  113.32   12.35
  -3 -12  17  122.32   13.04
  -3 -12  18    2.07    3.32
  -3 -12  18    3.97    3.04
  -3  12 -18    4.13    3.82
  -3 -13   0    3.39    4.30
   3 -13   0   -3.62    3.53
   3 -13   0    0.89    3.85
   3 -13  -1  233.38   16.70
  -3 -13   1  271.62   18.87
  -3 -13  -1  242.26   17.94
   3 -13   1  253.42   18.49
   3 -13  -1  244.50   18.34
   3 -13   2  272.38   19.32
  -3 -13  -2  254.52   17.90
   3 -13  -2  272.39   18.20
  -3 -13   2  264.14   18.67
   3 -13  -2  275.81   19.44
  -3 -13   3   -6.62    5.08
   3 -13   3    5.97    4.75
  -3 -13  -3   -5.01    4.31
   3 -13  -3    3.24    3.68
   3 -13  -3    1.07    3.37
  -3 -13   4   87.65   11.12
  -3 -13  -4   69.23    9.96
   3 -13  -4   78.94   10.80
   3 -13  -4   83.10   10.33
   3 -13   4   63.40    9.42
  -3 -13  -5  138.29   13.40
   3 -13  -5  140.21   13.47
   3 -13   5  133.17   13.46
  -3 -13   5  110.73   12.48
   3 -13  -5  148.90   14.56
   3 -13   6   -1.56    4.06
  -3 -13  -6   -0.97    3.03
   3 -13  -6   -2.68    3.20
   3 -13  -6    0.65    2.72
  -3 -13   6   -2.33    3.96
   3 -13   7   24.59    6.66
  -3 -13  -7   23.94    6.37
   3 -13  -7   22.73    6.54
   3 -13  -7   15.46    5.51
  -3 -13   7   33.86    8.14
   3 -13   8   70.26   10.43
  -3 -13  -8   58.81    9.05
   3 -13  -8   72.11   10.51
   3 -13  -8   58.30    9.24
  -3 -13   8   67.56   10.11
  -3 -13   8   71.60   10.69
   3 -13   9  147.84   14.44
   3 -13  -9  147.78   14.43
  -3 -13   9  161.61   15.21
  -3 -13   9  160.01   15.63
  -3 -13  -9  164.93   14.76
   3 -13  -9  155.16   15.17
   3 -13  10    5.99    4.43
  -3 -13 -10    7.19    4.83
  -3 -13  10    0.42    3.77
   3 -13 -10    2.00    3.53
   3 -13 -10    3.00    3.71
  -3 -13  10    5.53    4.78
   3 -13  11   69.68   10.49
  -3 -13  11   73.80   10.46
  -3 -13 -11   54.89    8.98
   3 -13 -11   67.49   10.26
   3 -13  12   22.54    6.91
  -3 -13 -12   17.17    5.53
   3 -13  13  255.91   19.46
  -3 -13 -13  218.55   17.50
  -3 -13 -14    0.26    3.58
  -3 -13 -15   -3.06    3.40
  -3 -14   0    4.99    5.33
   3 -14   0    8.08    5.59
   3 -14   0    1.49    3.29
  -3 -14   1   31.28    7.75
  -3 -14  -1   37.75    7.68
   3 -14   1   29.39    7.32
   3 -14   1   39.50    8.02
   3 -14  -1   40.23    8.32
   3 -14  -1   41.45    8.06
  -3 -14   2   -3.32    3.93
  -3 -14  -2   -0.97    4.55
   3 -14   2    0.14    3.31
   3 -14  -2    3.40    4.52
   3 -14  -2    8.59    4.24
  -3 -14   3   -3.07    4.96
   3 -14   3    1.41    3.58
  -3 -14  -3    1.23    3.85
   3 -14  -3    1.90    3.23
   3 -14   4   -1.55    4.54
  -3 -14  -4    3.82    3.71
   3 -14  -4   -3.74    4.81
  -3 -14   4   -5.80    4.97
  -3 -14  -5    3.71    3.97
   3 -14  -5    3.59    3.56
   3 -14   5    3.01    3.98
  -3 -14  -6   80.56   10.97
   3 -14  -6   58.40    9.45
   3 -14  -7    8.76    5.03
  -3 -14  -7   32.64    7.62
  -3 -14  -8   22.59    6.45
  -3 -14  -9   -0.48    3.71
   3 -15   0   14.00    5.69
   3 -15   1   39.83    8.02
   3 -15   2  289.85   20.06
   4   0   0 7497.59   53.95
  -4   0   0 7460.49   52.54
  -4   0  -1    0.72    0.74
  -4   0  -1    2.64    2.78
   4   0  -2  573.41   14.59
   4   0   2  575.14   15.67
   4   0  -2  575.87   11.44
  -4   0  -2  551.37   14.44
  -4   0   2  563.60   15.44
  -4   0   3    1.52    3.04
   4   0  -3    0.25    1.27
   4   0  -3   -1.34    2.04
   4   0   3    7.88    3.57
   4   0  -3    1.14    2.31
  -4   0  -3   -1.92    2.56
   4   0  -4  540.22   13.66
  -4   0  -4  545.63   14.79
   4   0  -4  548.32   10.07
   4   0   4  559.68   13.98
   4   0   4  544.51   15.51
   4   0  -4  554.76   15.69
  -4   0   4  542.46   15.82
  -4   0   5    0.66    2.88
   4   0  -5   -1.77    2.62
   4   0  -5    0.24    1.63
   4   0   5    1.46    2.67
   4   0   5   -0.08    1.12
  -4   0  -5    0.43    2.08
   4   0   5    1.62    0.67
   4   0  -6   83.35    5.32
   4   0   6   85.41    6.50
   4   0   6   83.81    3.47
  -4   0  -6   66.64    2.42
   4   0   6   90.73    5.51
  -4   0  -6   85.82    6.35
   4   0  -6   83.73    6.52
  -4   0   6   75.38    6.59
  -4   0   7    1.91    2.89
   4   0  -7    0.45    1.59
   4   0   7    3.30    2.80
   4   0  -7    2.42    2.59
   4   0   7    0.40    1.26
  -4   0  -7    0.16    0.30
   4   0   7   -0.12    1.03
  -4   0  -7   -0.16    2.26
  -4   0  -8  423.58   14.30
   4   0   8  426.48   14.41
   4   0   8  428.01   11.47
  -4   0   8  420.00    7.57
  -4   0   8  428.77   15.15
   4   0  -8  430.72   14.88
   4   0   9    2.55    2.82
  -4   0  -9   -0.84    2.11
   4   0  -9   -1.57    2.70
   4   0   9   -0.25    1.05
  -4   0   9    0.00    0.73
  -4   0   9   -2.54    3.73
  -4   0  10  288.79   13.24
  -4   0  10  276.53    6.48
   4   0  10  270.20   11.89
   4   0  10  291.50    9.01
  -4   0 -10  282.22   12.49
   4   0 -10  292.05   12.62
  -4   0  11    0.30    3.59
   4   0  11    1.59    2.82
  -4   0 -11    0.49    2.60
   4   0  11   -0.49    0.94
  -4   0  12  237.79   12.47
   4   0  12  229.46   11.22
   4   0  12  230.23    7.50
  -4   0 -12  236.50   12.10
  -4   0  13    9.19    5.03
   4   0  13    5.26    3.29
   4   0  13    0.54    0.98
  -4   0 -13    3.59    2.90
  -4   0  14 2420.30   41.66
   4   0  14 2290.87   36.24
   4   0  14 2265.15   21.06
  -4   0 -14 2355.52   39.77
  -4   0 -15   12.82    4.91
   4   0  15    8.55    3.84
   4   0  16  439.08   16.41
  -4   0 -16  469.11   19.37
  -4   0  16  478.64   20.06
  -4   0 -17   -2.99    3.37
  -4   0  17    9.12    5.92
  -4   0  18   74.40    8.60
  -4   0 -18   61.34    7.66
  -4   0  19    1.42    3.67
  -4   0 -19   -0.85    3.52
  -4   0  20   79.86    9.44
  -4   0 -20   74.68    9.17
  -4   0  21    2.87    4.07
  -4   0 -21    2.68    4.09
  -4   0  22  122.79   12.04
  -4   0 -22  111.02   11.40
  -4   0  23    5.98    4.40
   4   0  23    0.28    3.19
  -4   0 -23    3.33    4.19
  -4   0  24    3.09    3.54
   4   0  24    2.79    2.98
  -4   0 -24    4.30    4.63
  -4   0  25    0.27    4.13
   4   0  25    3.52    2.99
  -4   0  26   -3.42    4.24
   4   0  26    1.86    3.50
  -4   0  27   -1.68    3.51
   4   0  27   -5.38    4.42
   4   0  28   90.40   10.79
   4   0  29    9.12    4.82
   4  -1   0  205.54    9.32
  -4  -1   0  230.63    9.91
  -4   1   0  210.72    6.26
   4   1   0  217.60    8.43
  -4   1   0  210.50    9.73
  -4  -1   0  214.03    8.70
   4   1   0  201.92    9.30
   4  -1   1  463.43   13.90
   4   1  -1  480.72   13.61
  -4  -1  -1  458.52   13.58
  -4   1   1  474.76   10.21
  -4  -1   1  467.53   14.06
   4   1  -1  491.32   14.29
   4   1   1  455.65   13.84
  -4   1  -1  464.66    8.47
  -4   1   1  472.34    7.37
   4   1  -1  460.03   11.75
  -4   1  -1  442.47   13.78
  -4  -1  -1  458.15   12.48
  -4  -1  -1  455.78    7.40
  -4   1   1  448.98   13.93
  -4  -1   1  467.84   13.43
   4   1   1  497.35   13.30
   4  -1   2  328.89   12.23
   4   1  -2  335.78   11.34
   4   1   2  326.91   11.99
  -4  -1  -2  332.41   11.30
  -4  -1   2  309.97   11.82
  -4  -1  -2  317.87   10.30
   4   1  -2  308.76   11.70
  -4  -1  -2  313.58    5.89
   4   1   2  343.33   11.04
  -4  -1   2  329.26   11.54
  -4   1  -2  309.07    6.19
  -4   1   2  331.87    9.30
  -4   1  -2  321.98   11.69
   4   1  -2  314.67    9.44
   4  -1   3  169.54    9.21
   4   1  -3  152.49    7.85
   4   1   3  166.13    9.19
   4   1  -3  132.86    6.23
  -4  -1  -3  132.85    7.71
  -4  -1   3  164.54    9.42
  -4   1  -3  131.93    7.89
  -4  -1  -3  143.33    7.18
   4   1   3  144.68    7.22
   4   1  -3  137.41    8.23
  -4   1   3  132.15    6.38
  -4   1   3  135.66    8.41
   4   1   3  135.44    7.06
  -4  -1   3  135.57    7.92
  -4   1   4 2560.98   34.29
  -4   1   4 2550.10   29.90
   4   1  -4 2453.60   29.42
   4  -1   4 2432.05   14.64
   4   1   4 2491.11   33.38
  -4  -1   4 2479.03   33.05
  -4  -1  -4 2511.32   29.96
  -4  -1   4 2513.94   33.61
   4   1   4 2525.80   29.59
   4   1   4 2560.67   30.16
  -4  -1  -4 2486.01   29.51
  -4   1  -4 2474.05   32.82
   4   1  -4 2500.18   33.72
   4  -1  -4 2431.60   17.84
   4  -1   4 2637.81   33.90
   4  -1   5  292.55   11.89
   4   1  -5  269.26    9.72
   4   1   5  297.85   11.89
   4   1   5  267.27    6.52
  -4  -1   5  306.75   12.29
   4   1   5  272.83    9.62
  -4  -1  -5  260.21    9.80
   4  -1  -5  243.20   10.71
  -4   1  -5  277.85   11.20
   4  -1   5  245.24    4.62
  -4   1   5  269.98    9.66
   4   1  -5  261.77   11.37
  -4   1   5  284.93   12.00
  -4  -1   5  260.57   11.30
  -4   1   6   33.38    5.28
   4  -1  -6   35.06    4.66
   4   1  -6   38.65    3.77
  -4   1   6   36.88    3.61
   4  -1   6   41.96    5.00
   4   1   6   38.79    4.77
   4  -1   6   41.58    3.94
  -4  -1   6   41.58    5.42
  -4  -1   6   35.63    2.87
   4   1  -6   35.36    4.78
   4   1   6   40.70    3.73
  -4  -1   6   34.36    4.80
   4  -1   6   32.68    1.91
  -4   1  -6   33.00    4.25
  -4  -1  -6   33.50    3.87
   4   1   6   39.29    2.73
   4  -1  -7  144.87    8.45
   4  -1   7  154.70    8.97
   4   1  -7  151.72    7.05
   4   1   7  141.92    8.54
  -4   1   7  151.37    7.01
   4  -1   7  145.36    7.13
  -4  -1   7  150.95    8.86
   4   1   7  141.98    6.78
  -4  -1  -7  141.99    7.76
  -4  -1   7  143.60    5.85
   4   1   7  151.57    5.83
  -4   1  -7  145.15    8.58
   4   1  -7  145.27    8.83
  -4   1   7  149.69    9.46
  -4  -1   7  140.10    8.84
  -4  -1   8  962.69   22.81
   4  -1   8  971.18   21.81
  -4  -1   8  955.44   14.99
   4   1  -8  924.47   16.98
   4   1   8  935.00   21.43
  -4   1   8  957.14   17.28
  -4  -1  -8  947.66   13.41
  -4  -1   8  971.30   21.87
   4  -1   8  987.99   17.92
   4   1   8  961.60   17.19
   4   1   8  905.79    9.78
  -4  -1  -8  937.40   20.40
  -4   1  -8  954.51   22.16
   4   1   8  951.44   15.61
   4  -1  -8  978.93   21.83
  -4   1   8  982.83   23.25
   4   1  -8  969.63   22.66
   4  -1   9   18.76    4.22
  -4  -1  -9   10.04    3.05
  -4  -1   9   10.92    3.59
  -4  -1   9   13.69    2.21
   4   1  -9   11.58    2.18
   4   1   9   11.53    3.68
   4   1   9   11.10    1.40
   4  -1  -9    5.13    2.64
  -4  -1   9   20.82    4.25
   4  -1   9   11.37    2.27
  -4  -1  -9    9.59    1.60
   4   1   9   12.08    2.17
  -4   1  -9   12.73    3.55
   4   1   9   11.45    2.02
  -4   1   9    8.38    3.76
  -4  -1  10  263.76   12.78
   4   1  10  267.76   12.01
  -4  -1 -10  261.37   11.53
   4  -1  10  257.44    8.95
  -4  -1 -10  251.98    7.53
   4   1  10  265.53    8.72
  -4   1 -10  262.55   12.35
   4   1  10  254.78    9.32
   4   1  10  265.52    6.98
  -4   1  10  257.80   12.80
   4  -1 -10  254.70   11.74
   4   1 -10  247.37    8.42
  -4  -1  11  172.77   11.02
   4   1 -11  153.48    6.47
   4   1  11  168.41    9.68
   4  -1  11  163.66    6.98
   4   1  11  167.49    6.70
  -4  -1 -11  165.26    9.63
   4   1  11  158.71    7.92
   4   1  11  170.67    6.29
  -4   1  11  171.33   10.82
  -4   1 -11  157.63    9.99
   4  -1 -11  157.31    9.39
  -4  -1  12  218.40   12.40
   4   1  12  216.05   11.05
   4  -1  12  203.33    7.47
   4   1  12  202.89    7.02
  -4  -1 -12  215.02   11.22
  -4   1 -12  195.41   11.43
   4   1  12  208.65    9.53
   4   1  12  209.05    7.53
  -4   1  12  206.28   11.87
  -4  -1  13  134.53   10.76
   4   1  13  106.02    8.12
   4   1  13  106.12    5.79
  -4   1  13  103.78    8.92
   4  -1  13  104.73    5.18
  -4  -1 -13  105.15    8.45
  -4   1 -13  104.07    8.79
  -4   1  14  664.49   22.05
  -4  -1  14  650.35   22.53
   4   1  14  599.67   18.76
  -4   1 -14  597.21   21.03
   4  -1  14  575.23   11.51
  -4  -1 -14  612.11   20.18
   4   1  14  577.61   14.36
  -4  -1  15 1773.55   37.55
   4   1  15 1725.25   31.87
  -4   1 -15 1766.82   36.70
  -4   1  15 1771.53   36.50
  -4  -1 -15 1711.31   34.30
  -4   1  16  363.48   17.37
  -4  -1  16  406.43   18.79
  -4   1 -16  350.06   16.82
   4   1  16  343.40   14.70
  -4  -1 -16  331.28   15.95
  -4   1  17   43.99    7.31
  -4  -1  17   69.69    9.31
   4   1  17   48.82    5.93
  -4  -1 -17   49.68    6.62
  -4   1 -17   47.38    6.97
  -4   1  18  465.86   20.35
  -4  -1  18  465.64   20.94
   4   1  18  485.22   17.38
  -4  -1 -18  482.44   20.31
  -4   1 -18  471.74   20.73
   4   1  19    1.96    2.73
  -4  -1  19    8.45    4.90
  -4  -1 -19    0.03    3.78
  -4   1 -19   -2.41    3.75
  -4   1  19   -1.49    4.51
   4   1  20   38.29    5.12
  -4   1  20   26.96    5.73
  -4   1 -20   35.27    6.66
  -4  -1  20   33.62    6.57
  -4  -1 -20   39.70    6.80
  -4   1  21   91.29   10.62
  -4  -1  21   96.14   11.11
  -4  -1 -21   90.10   10.27
  -4   1 -21   93.94   10.46
  -4   1  22  436.47   21.93
  -4  -1  22  441.91   22.63
   4   1  22  419.41   19.21
  -4  -1 -22  464.39   22.08
  -4   1 -22  456.82   22.64
  -4   1  23    3.14    4.61
  -4  -1  23   11.74    6.60
   4   1  23    6.96    3.74
  -4  -1 -23    1.79    3.97
  -4   1 -23    1.16    4.03
  -4   1  24   16.14    5.61
   4   1  24   14.76    4.58
  -4  -1  24   32.86    7.89
   4  -1  24   13.73    4.15
  -4   1 -24   23.46    6.95
  -4   1  25  153.95   14.46
  -4  -1  25  158.47   14.69
  -4   1 -25  132.46   13.70
   4   1  25  157.64   12.65
   4  -1  25  143.17   12.86
  -4   1  26  342.52   21.20
  -4  -1  26  345.84   21.82
   4   1  26  325.24   18.44
   4  -1  26  309.46   18.91
  -4   1 -26  293.73   20.61
  -4   1  27   14.57    5.76
   4   1  27   20.39    5.49
   4  -1  27   20.91    6.44
  -4  -1  27   27.96    8.07
  -4   1  28  115.23   13.36
   4  -1  28  124.02   13.00
   4   1  29   40.89    7.69
   4  -1  29   62.68    9.44
  -4   2   0  496.85   10.66
  -4  -2   0  483.12   14.32
   4   2   0  506.46   13.17
  -4   2   0  491.28   10.90
  -4   2   0  485.15    7.88
  -4  -2   0  483.64   12.09
  -4   2   0  484.17   15.00
   4   2   0  484.48   13.60
   4   2   0  487.99   14.23
  -4  -2   0  490.36   13.18
  -4  -2   1    9.08    2.71
  -4   2   1   17.00    4.18
   4   2   1   10.94    2.21
   4   2   1    9.25    2.52
   4   2  -1   11.53    2.38
   4   2  -1   14.18    3.33
  -4   2   1    9.92    1.92
  -4   2  -1   10.34    1.58
  -4  -2  -1   11.60    3.15
  -4  -2   1   14.26    3.63
  -4   2   1   11.35    1.94
   4  -2   1    9.54    1.62
  -4  -2  -1    9.37    1.59
   4   2   1    2.99    2.72
  -4   2   1   11.08    1.55
  -4   2  -1    3.39    2.94
  -4  -2  -1    9.29    2.09
   4   2  -1   13.21    3.06
  -4   2   2  518.46   10.05
   4   2  -2  534.49   13.63
  -4   2  -2  523.72    8.99
  -4  -2   2  528.98   14.40
  -4  -2  -2  530.07   14.68
  -4  -2   2  534.29   15.62
  -4   2   2  533.96   12.69
  -4   2  -2  521.14   10.25
   4   2   2  534.92   13.23
   4   2   2  536.16   14.60
  -4  -2  -2  528.51   10.31
   4  -2   2  507.48    6.67
  -4  -2  -2  517.32   12.41
  -4   2  -2  527.32   15.64
  -4   2   2  537.69   12.66
   4   2  -2  525.76   15.36
   4  -2   2  523.88   10.41
   4   2   2  515.67   14.70
  -4  -2  -3 1114.82   15.05
  -4  -2  -3 1101.60   21.17
  -4  -2   3 1161.57   23.05
  -4   2   3 1102.06   19.36
  -4  -2   3 1128.16   21.41
  -4  -2  -3 1080.37   11.45
   4  -2   3 1033.98    9.72
  -4  -2  -3 1100.33   18.35
  -4   2   3 1070.38   15.78
  -4   2  -3 1131.63   22.87
   4  -2   3 1123.49   14.42
  -4   2   3 1080.41   18.94
   4   2  -3 1098.14   22.51
   4   2   3 1103.96   19.03
  -4  -2  -4 2008.87   20.68
  -4  -2  -4 2004.26   24.77
  -4  -2  -4 2081.88   28.11
  -4  -2   4 2071.74   31.17
   4   2   4 2105.66   25.95
   4  -2   4 1969.59   14.62
   4  -2   4 2076.87   19.18
  -4  -2  -4 1953.40   14.32
  -4   2  -4 2009.29   31.01
  -4   2   4 2011.15   23.38
   4   2   4 2024.21   25.29
   4   2  -4 2041.62   30.97
  -4  -2   4 2125.69   26.03
  -4   2   4 2017.35   31.42
  -4  -2   4 2031.55   29.64
  -4   2   5   98.58    7.69
  -4  -2  -5   95.43    5.57
  -4   2  -5   98.46    7.51
  -4  -2  -5  101.81    6.57
  -4  -2   5  134.14    8.82
   4   2  -5   93.89    7.05
   4   2   5  103.53    5.13
   4   2   5   92.25    5.70
  -4  -2   5   95.15    5.54
  -4  -2  -5   82.04    2.97
   4   2   5   92.79    5.62
   4  -2   5   93.26    4.21
  -4  -2   5   96.30    6.97
   4  -2   6  205.07    6.23
  -4  -2  -6  213.93    8.86
  -4  -2   6  216.02   10.54
  -4   2   6  220.16   10.89
  -4  -2  -6  221.64    8.76
   4   2   6  212.31    7.44
  -4   2  -6  214.68   10.71
   4   2   6  223.29    8.87
  -4  -2   6  234.22   10.75
  -4  -2   6  217.04    8.30
  -4  -2   7  861.64   21.15
  -4   2   7  844.50   17.37
  -4  -2   7  838.71   16.44
  -4  -2  -7  827.92   17.07
  -4  -2   7  822.65   20.50
   4   2   7  852.47   17.17
   4  -2  -7  830.65   19.70
   4   2   7  856.32   15.52
  -4   2  -7  840.42   21.25
  -4  -2  -7  826.55   17.73
  -4   2   7  843.82   21.33
  -4  -2   8  160.94    9.64
  -4   2   8  153.17    7.32
  -4  -2   8  153.73    7.13
  -4  -2  -8  156.28    7.46
   4  -2  -8  150.75    8.63
  -4  -2   8  152.01    9.29
   4   2   8  153.66    7.20
   4   2   8  157.19    4.99
  -4  -2  -8  157.81    8.12
  -4   2  -8  137.08    8.78
  -4   2   8  157.46    9.88
   4   2   8  153.29    7.10
  -4   2   9   22.00    4.71
   4   2   9   19.62    2.05
  -4  -2   9   23.80    4.69
   4  -2  -9   15.06    3.21
  -4  -2  -9   16.99    2.40
  -4  -2  -9   19.23    2.85
  -4  -2   9   18.49    3.71
  -4   2  -9   14.33    3.67
  -4  -2  -9   21.63    3.51
  -4   2   9   20.33    2.70
   4   2   9   16.71    2.70
  -4   2  10   14.21    4.37
  -4  -2  10   19.19    4.83
   4   2  10   11.53    1.72
  -4   2  10   13.42    2.30
   4   2 -10   10.78    2.05
   4  -2 -10   14.22    3.31
  -4  -2 -10   10.01    2.16
  -4  -2 -10   14.01    2.32
  -4  -2  10   13.17    3.14
  -4   2 -10   13.48    3.55
  -4  -2 -10   12.86    3.09
   4   2  10   11.42    2.50
  -4   2  11   68.62    7.32
  -4   2  11   61.16    4.43
   4   2 -11   57.52    4.21
   4   2  11   67.17    6.42
  -4  -2  11   62.45    6.96
  -4  -2  11   63.09    6.33
  -4  -2 -11   63.30    4.68
   4   2  11   60.88    5.26
   4  -2 -11   70.45    6.23
  -4   2 -11   68.45    7.06
  -4  -2 -11   62.24    5.76
   4   2  11   62.13    4.10
  -4  -2  12  157.29   10.80
   4   2 -12  142.01    6.21
   4   2  12  138.32    9.12
  -4  -2  12  148.78    9.46
  -4  -2 -12  144.70    7.18
  -4   2 -12  136.03   10.00
   4   2  12  142.76    8.18
   4   2  12  140.54    6.49
  -4   2  12  146.73    6.57
   4  -2 -12  139.41    8.84
  -4   2  12  145.58   10.25
  -4  -2 -12  136.47    8.75
  -4  -2  13  116.70    9.79
   4   2 -13  115.15    5.45
  -4   2  13  112.33    5.58
   4   2  13  111.56    8.21
  -4  -2  13  121.55    8.64
   4   2  13  108.83    6.06
  -4  -2 -13  106.96    8.23
  -4   2 -13  130.64   10.10
   4   2  13  113.14    7.53
  -4   2  13  126.15    9.84
   4   2 -14   79.05    4.20
   4   2  14   75.08    6.75
   4  -2  14   79.30    3.87
   4  -2  14   81.88    4.92
  -4  -2  14   77.19    7.24
  -4  -2  14   85.30    8.92
  -4  -2 -14   75.33    7.17
  -4   2 -14   74.75    7.93
   4   2  14   80.06    6.97
  -4   2  14   80.55    8.33
  -4  -2  15  154.50   11.92
  -4   2 -15  148.47   11.23
   4   2  15  137.33    9.34
  -4  -2  15  156.60    9.97
  -4  -2 -15  141.57    9.93
   4   2  15  138.41    9.30
  -4   2  15  165.19   11.74
   4   2  16   90.72    7.74
  -4   2 -16   86.82    8.90
   4   2  16   76.23    7.43
  -4  -2  16   71.72    8.63
  -4  -2 -16   84.61    8.15
  -4   2  16   83.67    8.87
  -4   2  17   87.79    9.26
  -4  -2  17   80.90    9.38
   4   2  17   80.20    7.47
  -4   2 -17   72.66    8.52
  -4  -2 -17   80.18    8.21
   4   2  17   87.37    8.03
  -4  -2  18  248.53   15.49
   4   2  18  235.28   12.51
   4   2  18  228.03   13.10
  -4   2 -18  237.32   15.02
  -4   2  18  243.01   14.87
  -4  -2 -18  215.52   13.23
  -4   2  19    1.29    3.82
  -4  -2  19    9.80    5.51
   4   2  19    4.15    2.50
  -4  -2 -19    4.75    3.32
   4   2  19   -0.51    3.00
  -4   2 -19   -1.90    4.13
   4   2  20   -1.40    2.82
  -4   2  20    2.77    3.75
  -4  -2  20   10.33    4.63
   4   2  20    2.72    2.04
  -4  -2 -20    4.26    3.58
   4   2  20    2.47    2.26
  -4   2 -20   -3.38    4.04
  -4   2  21   41.08    7.21
  -4  -2  21   30.61    7.00
   4   2  21   30.94    4.98
  -4  -2 -21   35.14    6.27
   4   2  21   32.63    5.49
  -4   2 -21   34.87    7.01
   4   2  21   27.82    5.53
   4   2  22    3.63    2.81
  -4   2  22    4.64    4.01
  -4   2 -22    8.10    4.57
  -4  -2  22   12.04    5.26
   4   2  22   15.46    4.08
  -4   2  23   23.07    5.90
  -4  -2  23   26.66    6.81
   4   2  23   22.03    4.78
   4   2  23   20.18    4.91
  -4   2 -23   22.04    6.06
   4   2  24   -6.47    4.60
  -4   2  24    1.37    3.75
  -4  -2  24    1.95    4.49
   4   2  24    3.51    3.36
   4  -2  24   -5.70    4.78
  -4   2 -24    3.85    5.52
  -4  -2  25    1.38    3.92
   4  -2  25   -2.08    4.03
  -4   2 -25    5.84    4.50
   4   2  25    8.08    4.14
  -4   2  25    5.48    4.60
   4   2  26   56.60    8.43
  -4   2  26   49.81    8.79
  -4  -2  26   57.86    9.19
  -4   2 -26   65.10   10.38
   4  -2  26   44.35    7.86
   4   2  27    2.71    3.22
  -4   2  27    6.63    4.84
   4  -2  27   -0.16    3.37
  -4   2  28    4.56    4.81
   4  -2  28   -2.53    4.53
   4   2  28   -1.18    3.54
   4   2  29   28.83    6.72
   4   3   0 1626.19   22.89
   4   3   0 1580.34   26.15
   4   3   0 1563.95   26.36
  -4   3   0 1568.43   20.48
  -4   3   0 1595.92   22.34
  -4  -3   0 1612.27   26.85
   4  -3   0 1591.55   17.98
  -4   3   0 1579.46   28.20
  -4  -3   0 1567.28   20.28
   4  -3   0 1607.05   22.40
  -4  -3   0 1567.07   23.14
  -4  -3   1   15.45    3.31
  -4   3   1   12.18    2.29
   4   3  -1   18.21    2.78
   4   3   1   15.74    3.27
   4  -3   1   17.00    2.51
  -4   3   1   16.57    2.44
   4   3  -1   11.51    2.90
   4   3  -1   26.39    4.35
   4   3   1   12.61    3.33
   4   3   1   17.47    2.39
  -4  -3   1   27.16    4.87
  -4  -3  -1   26.62    4.51
   4  -3  -1   14.59    2.49
  -4  -3  -1   17.04    2.49
  -4   3   1   12.95    1.96
  -4   3  -1   19.58    3.77
  -4  -3  -1   16.51    2.46
  -4   3   1   19.86    4.59
  -4  -3  -1   12.79    2.50
   4  -3   1   19.40    1.96
  -4   3  -1   16.45    2.46
  -4  -3   2   43.64    4.46
   4   3   2   43.55    4.96
  -4   3   2   48.55    4.10
  -4  -3   2   55.17    5.70
  -4  -3  -2   50.11    5.17
  -4   3   2   61.32    6.63
   4  -3   2   46.87    3.78
   4   3   2   49.55    3.95
   4   3  -2   43.51    4.91
  -4  -3  -2   48.96    3.77
  -4   3   2   48.51    3.65
   4  -3   2   52.64    3.11
  -4   3   2   50.96    4.37
  -4  -3  -2   43.10    3.45
   4   3   2   49.73    4.63
  -4   3  -2   43.86    5.14
   4  -3  -2   52.26    4.47
   4  -3   3  570.26   10.09
  -4   3  -3  576.88   17.01
  -4  -3  -3  545.39   10.58
  -4  -3   3  598.87   17.03
  -4  -3  -3  560.49   15.40
  -4  -3  -3  585.65   13.00
   4  -3   3  565.60   12.42
  -4  -3  -3  558.53   11.91
  -4   3   3  555.99   12.59
   4   3   3  562.27   14.85
  -4  -3   3  562.23   15.13
   4   3   3  561.29   16.67
   4   3   3  563.33   12.86
   4   3  -3  562.66   16.52
   4   3   4    7.52    1.83
  -4  -3   4    0.33    2.50
   4   3   4   11.30    2.66
   4  -3   4    7.18    1.81
  -4  -3  -4    7.31    1.39
   4  -3   4   12.37    1.80
  -4  -3   4    4.13    3.20
  -4  -3  -4   12.41    3.02
   4   3   4    5.59    2.89
  -4  -3  -4    8.39    1.78
  -4   3  -4   13.72    4.06
  -4  -3  -4    5.80    1.49
  -4   3   4    4.84    1.65
  -4  -3   5  364.44   13.09
  -4  -3   5  372.38   13.89
  -4  -3  -5  356.38   12.24
  -4  -3  -5  347.93    9.89
   4   3   5  352.49   11.49
  -4   3  -5  382.35   14.69
  -4   3   5  358.49   11.32
   4   3   5  361.66   10.22
  -4  -3  -5  364.05   10.61
  -4  -3  -5  349.32    8.27
   4  -3   5  352.73    9.87
   4   3   5  348.64   13.84
   4   3   5  359.43   10.20
  -4  -3   6 1124.57   23.38
  -4  -3   6 1193.42   24.93
  -4  -3  -6 1151.36   21.35
   4  -3   6 1128.57   17.59
   4   3   6 1132.29   19.49
   4   3   6 1177.55   20.48
  -4   3  -6 1197.42   25.59
  -4   3   6 1144.70   21.01
  -4  -3  -6 1185.90   19.67
  -4  -3  -6 1129.02   14.96
  -4   3   6 1202.95   25.38
   4   3   6 1139.70   18.27
  -4  -3  -6 1106.34   18.43
   4   3   6 1137.84   19.07
  -4  -3   7  119.99    8.43
   4   3   7  100.42    5.92
   4  -3   7  103.18    5.55
  -4  -3   7  125.30    8.78
  -4  -3  -7  110.90    6.87
   4   3   7  106.36    6.30
  -4  -3  -7  109.63    6.22
  -4   3  -7  116.30    8.27
  -4   3   7  106.47    6.86
  -4   3   7  124.55    8.65
  -4  -3   8  149.84    9.34
  -4  -3  -8  137.77    7.29
  -4  -3   8  159.25    9.58
   4   3   8  144.49    5.83
   4  -3  -8  136.72    8.24
  -4   3   8  139.37    8.26
  -4   3  -8  129.54    8.87
   4   3   8  140.31    7.36
   4   3   8  140.68    7.14
  -4   3   8  141.60    9.27
  -4  -3  -8  136.99    7.14
  -4  -3   9  168.91   10.07
   4  -3  -9  164.67    9.05
  -4  -3  -9  158.20    7.65
  -4  -3   9  172.28    9.96
   4   3   9  175.30    8.50
  -4   3   9  160.81   10.26
  -4  -3  -9  163.63    8.17
  -4   3  -9  159.87   10.33
   4   3   9  167.01    6.47
  -4   3  10   55.66    6.52
   4  -3 -10   54.95    5.63
  -4  -3  10   55.16    6.49
   4   3  10   50.74    3.86
  -4  -3 -10   51.68    4.58
  -4  -3 -10   55.47    4.56
  -4  -3  10   57.56    6.38
  -4  -3 -10   50.40    4.89
   4   3  10   57.54    5.40
  -4   3 -10   51.17    6.38
  -4  -3  11  274.24   13.74
   4   3  11  281.06   11.69
   4   3  11  286.56    9.36
  -4   3 -11  292.27   14.40
  -4  -3 -11  282.11   11.43
  -4  -3 -11  275.50   10.61
  -4  -3 -11  280.49    9.81
   4  -3  11  236.17    4.41
  -4  -3  11  287.83   13.08
   4  -3 -11  275.83   11.92
  -4   3  11  273.29   13.45
  -4   3  12   45.46    6.33
  -4   3  12   50.01    4.33
  -4  -3  12   57.21    7.25
  -4  -3 -12   51.05    5.39
  -4  -3 -12   47.70    4.76
  -4  -3 -12   44.80    3.96
   4  -3 -12   45.28    5.11
   4  -3  12   40.44    2.27
   4   3  12   51.38    4.27
  -4  -3  12   50.04    5.68
  -4   3 -12   44.25    6.45
   4   3  12   54.78    5.65
  -4   3  13   14.02    4.38
  -4  -3  13   20.56    5.36
  -4   3  13   14.13    2.36
   4  -3  13   15.64    1.63
  -4   3 -13   18.78    4.48
   4  -3 -13   14.31    3.39
  -4  -3 -13   14.56    2.38
  -4  -3  13   21.79    4.15
  -4  -3 -13   16.04    3.04
   4   3  13   14.23    3.49
  -4  -3 -13   18.16    3.86
  -4   3  14    1.71    3.59
  -4  -3  14    7.01    4.37
   4   3 -14    6.18    1.53
   4  -3 -14    3.04    2.27
  -4  -3  14    3.34    2.70
   4  -3  14    4.72    1.09
  -4  -3 -14    6.48    2.28
  -4  -3 -14    4.41    2.49
  -4   3 -14   -0.55    3.32
   4   3  14    3.41    2.45
   4   3  15  124.04    9.25
  -4  -3  15  142.24   11.24
   4   3 -15  129.01    5.69
   4   3  15  118.95    8.87
  -4  -3  15  137.37    9.60
  -4  -3 -15  121.56    9.10
  -4   3  15  127.51   10.24
  -4   3 -15  120.18   10.37
  -4   3  16    1.63    4.21
  -4  -3  16    2.11    4.49
   4   3  16   -4.31    3.20
  -4  -3  16   -0.17    2.50
  -4  -3 -16    4.55    3.22
  -4   3 -16    4.84    3.85
   4   3  16   -0.23    2.77
  -4  -3  17  198.00   13.83
   4   3  17  206.11   11.87
  -4  -3  17  207.03   12.04
  -4   3 -17  205.29   13.85
   4   3  17  201.59   12.29
  -4  -3 -17  188.01   12.13
  -4   3  17  203.13   13.34
  -4   3  18  112.68   10.23
  -4  -3  18  124.22   11.47
   4   3  18  109.67    9.43
   4   3  18  109.58    8.83
   4   3  18  111.43    8.33
  -4  -3  18  108.80    8.89
  -4  -3 -18  111.10    9.85
  -4   3 -18  107.20   10.77
  -4  -3  19  129.71   11.98
   4   3  19  140.33   10.01
  -4   3 -19  122.42   11.82
   4   3  19  149.06    9.68
  -4  -3 -19  138.08   10.66
   4   3  19  135.96   10.73
  -4   3  19  138.31   11.82
  -4  -3  20   99.36   11.43
   4   3  20   94.79    8.43
   4   3  20   96.07    8.16
  -4   3 -20   83.15   10.44
   4   3  20   91.74    9.47
  -4   3  20   97.95   10.47
  -4  -3  21  749.31   28.89
   4   3  21  743.37   23.13
   4   3  21  760.49   22.75
  -4   3 -21  742.10   28.99
   4   3  21  734.67   26.36
  -4   3  21  728.04   27.01
  -4   3  22    6.61    6.77
  -4  -3  22   15.59    6.87
  -4   3 -22    8.42    5.00
   4   3  22    6.14    4.19
  -4   3  23   65.05    8.88
  -4  -3  23   70.67   10.24
  -4   3 -23   79.53   10.49
   4   3  23   74.22    8.88
  -4   3  24    2.74    3.79
  -4  -3  24    4.23    5.17
  -4   3 -24    5.33    3.88
   4   3  24   -0.28    3.60
  -4   3  25   81.90   10.27
  -4  -3  25   92.61   11.51
   4  -3  25   78.29   10.51
   4   3  25   84.38   10.10
  -4   3 -25   77.38   10.81
  -4   3  26   49.35    8.59
  -4  -3  26   46.83    9.11
   4  -3  26   36.15    7.54
  -4   3 -26   33.04    7.63
   4   3  26   32.19    6.72
  -4   3  27   12.19    5.31
   4  -3  27    8.71    4.43
   4   3  27    8.44    4.35
  -4   3  28   21.33    6.49
   4   3  28   21.88    6.26
  -4  -4   0   28.61    3.57
   4   4   0   28.55    3.12
   4  -4   0   26.94    3.70
   4   4   0   36.51    5.44
  -4  -4   0   30.20    4.60
   4  -4   0   29.24    3.03
  -4  -4   0   30.12    2.86
  -4   4   0   21.44    4.33
   4  -4  -1   19.90    2.55
  -4  -4   1   18.83    2.99
   4   4   1   23.89    2.87
   4   4  -1   16.57    2.46
   4  -4   1   22.26    3.24
   4  -4  -1   18.15    3.11
   4  -4   1   17.49    2.55
  -4  -4   1   15.93    3.59
  -4  -4  -1   24.20    4.16
   4   4   1   14.57    3.20
   4   4   1   21.13    4.68
  -4   4   1   18.61    2.77
  -4  -4  -1   19.52    2.21
  -4   4  -1   13.58    3.07
  -4   4   1   21.21    4.45
   4  -4   1   18.42    2.39
  -4  -4  -1   16.60    2.72
   4   4   2  151.00    6.58
   4   4   2  154.42    9.60
  -4   4   2  151.09    7.08
   4  -4   2  156.95    6.44
  -4  -4   2  151.98    9.26
  -4  -4  -2  150.29    8.70
   4  -4   2  146.90    6.36
  -4  -4  -2  158.17    7.07
  -4  -4  -2  152.64    5.53
  -4   4  -2  155.54    9.42
  -4   4   2  159.87    9.77
   4  -4   2  150.06    7.46
   4  -4  -2  144.80    7.99
   4   4   2  156.09    8.14
  -4  -4   2  149.29    7.66
   4   4   3   65.95    4.31
   4  -4   3   60.27    3.98
  -4  -4   3   59.82    6.26
  -4  -4  -3   64.12    5.86
  -4  -4  -3   56.52    4.21
   4   4   3   60.71    6.47
   4   4   3   66.00    5.34
   4  -4  -3   67.64    5.60
   4  -4   3   48.96    3.72
  -4   4   3   58.81    4.77
  -4  -4  -3   57.00    3.48
  -4   4  -3   60.06    6.51
   4  -4   3   59.88    4.71
  -4  -4   3   59.44    5.24
   4   4   4  186.82    6.84
  -4  -4   4  203.15    9.58
   4  -4   4  182.55    6.23
  -4  -4  -4  200.46    7.66
  -4  -4   4  199.84   10.88
  -4  -4  -4  201.61    9.88
   4  -4   4  197.98    7.39
  -4  -4  -4  188.49    6.38
   4  -4   4  185.43    8.19
  -4   4   4  180.15    8.34
  -4   4  -4  202.63   10.91
   4   4   4  179.59    8.48
   4   4   4  183.87   10.61
   4  -4  -4  201.74    9.87
  -4  -4   5  997.26   21.51
   4  -4   5 1019.89   13.52
  -4  -4   5 1026.87   23.91
  -4  -4  -5  990.47   21.29
  -4   4  -5 1001.59   24.03
  -4  -4  -5  956.15   16.70
   4  -4   5  999.66   18.87
   4   4   5  983.67   24.25
   4   4   5  984.03   15.50
   4   4   5 1006.12   19.31
  -4  -4  -5  999.17   15.43
  -4   4   5  980.13   20.13
   4   4   5 1000.94   15.67
  -4  -4   6  196.22   10.22
   4  -4  -6  176.43    4.99
   4  -4   6  182.52    5.45
  -4  -4  -6  170.00    7.11
  -4  -4   6  189.33   10.76
  -4  -4  -6  179.23    9.15
   4   4   6  176.41    6.91
   4   4   6  186.29    9.09
   4   4   6  175.41    6.64
   4  -4   6  175.20    8.15
  -4   4  -6  178.54   10.63
  -4   4   6  168.00    8.88
   4   4   6  165.85   10.59
   4   4   6  178.14    8.06
  -4  -4  -6  178.63    6.81
   4  -4  -7  220.98    4.62
  -4  -4   7  240.70   11.53
  -4   4   7  237.95   10.69
   4   4   7  236.25   12.42
   4  -4   7  241.50    6.00
  -4  -4   7  241.08   11.93
  -4  -4  -7  244.69   10.32
   4  -4   7  246.96    9.67
  -4  -4  -7  250.10    8.44
  -4   4  -7  251.87   12.50
   4   4   7  239.60    8.41
   4   4   7  235.93    9.15
   4   4   7  234.53    7.68
   4   4   7  245.10   10.48
  -4  -4  -7  232.29    8.39
  -4   4   7  253.05   12.17
  -4  -4   8    6.73    3.06
   4   4   8    1.87    1.47
  -4  -4   8    1.18    2.62
  -4  -4  -8    2.93    1.23
  -4  -4  -8    2.62    1.94
   4  -4   8    0.91    1.55
  -4  -4  -8    2.25    1.33
  -4   4   8    5.80    3.57
  -4   4  -8   -0.74    3.68
   4   4   8    2.78    2.31
   4   4   8    3.32    1.28
  -4   4   8    1.88    2.24
   4   4   8    2.53    1.41
   4   4   9   -0.01    1.38
  -4  -4   9    0.18    2.72
  -4   4   9    0.01    2.22
  -4  -4  -9    0.61    1.36
  -4  -4   9   -0.60    2.55
  -4  -4  -9    0.33    1.65
   4   4   9   -4.18    4.10
  -4   4  -9    1.00    2.89
   4   4   9    2.53    1.77
   4   4   9    0.88    2.16
   4   4   9    2.14    1.49
  -4   4   9    0.00    3.37
  -4  -4  10   68.26    7.26
  -4  -4 -10   44.85    4.53
  -4  -4 -10   52.94    4.77
  -4  -4  10   53.38    6.18
   4   4  10   56.98    4.61
   4  -4 -10   57.47    5.82
   4   4  10   54.62    4.31
  -4   4 -10   60.51    7.07
   4   4  10   54.90    5.54
  -4   4  10   50.09    5.66
  -4   4  10   57.49    6.52
  -4   4  11   30.01    5.85
  -4  -4  11   29.61    5.32
   4  -4 -11   40.14    5.41
  -4  -4 -11   20.97    3.74
  -4  -4  11   28.12    4.84
  -4  -4 -11   29.79    3.70
  -4  -4 -11   29.40    3.90
  -4   4 -11   28.29    5.54
   4   4  11   27.86    3.12
   4   4  11   25.98    4.13
  -4   4  11   27.99    5.47
   4   4  12    3.32    1.47
  -4  -4  12    4.03    3.68
   4  -4 -12    9.14    3.00
  -4   4  12    5.34    2.79
  -4  -4 -12    1.49    1.81
  -4  -4 -12    5.32    2.00
  -4  -4  12    2.98    2.43
  -4  -4 -12    2.39    2.15
  -4   4 -12    3.98    3.58
  -4   4  12   12.22    4.58
   4   4  12    4.26    2.67
  -4   4  13    8.83    3.14
  -4   4  13   16.67    4.79
  -4  -4  13   12.60    4.68
   4  -4 -13   12.28    3.40
   4   4  13   14.50    3.64
  -4  -4 -13   13.50    3.01
  -4  -4 -13   14.44    2.69
  -4  -4  13   14.10    3.62
  -4  -4 -13   16.86    3.31
   4   4  13   10.98    2.16
  -4   4 -13    8.60    3.86
   4   4  14  128.09    9.54
  -4  -4  14  131.16   10.80
  -4  -4 -14  141.08    9.03
  -4  -4 -14  132.60    6.80
  -4  -4  14  139.95    9.90
  -4  -4 -14  134.47    8.83
  -4   4  14  141.02   10.74
   4  -4 -14  136.30    8.69
  -4   4 -14  130.68   10.76
  -4   4  14  135.87   10.21
  -4   4  15   42.97    6.59
  -4   4  15   48.00    6.91
  -4  -4 -15   48.77    5.69
  -4  -4  15   52.45    7.35
  -4  -4 -15   46.38    3.93
  -4  -4  15   43.24    5.95
  -4  -4 -15   40.08    5.11
  -4   4 -15   49.16    7.31
   4   4  15   51.97    6.44
  -4   4  16   49.68    6.68
  -4   4  16   55.84    7.24
  -4   4 -16   60.69    8.24
  -4  -4  16   45.35    7.03
   4   4  16   53.93    5.04
  -4  -4  16   61.76    6.90
  -4  -4 -16   50.90    5.77
  -4  -4 -16   61.41    6.55
   4   4  16   54.35    6.85
  -4   4  17   24.23    5.07
  -4   4  17   27.71    5.74
  -4  -4  17   27.30    6.30
   4   4  17   29.15    3.88
  -4   4 -17   25.68    5.56
  -4  -4  17   36.55    5.78
   4   4  17   24.15    4.69
  -4   4  18   44.59    6.96
  -4  -4  18   60.79    8.70
   4   4  18   52.82    5.32
  -4   4  18   54.86    7.75
  -4  -4  18   47.76    6.54
  -4   4 -18   57.70    8.05
   4   4  18   58.82    7.43
  -4  -4  19  234.21   15.88
   4   4  19  211.17   13.73
   4   4  19  210.73   12.56
  -4  -4  19  238.35   13.55
  -4   4 -19  217.04   15.43
  -4   4  19  217.88   14.58
  -4   4  20   -2.02    3.39
  -4  -4  20   10.11    5.62
   4   4  20   -3.08    2.97
  -4  -4  20    2.91    3.01
  -4   4 -20    3.82    4.63
   4   4  20   -1.12    3.33
  -4   4  21   15.88    5.47
  -4  -4  21   17.06    5.91
   4   4  21   16.52    4.46
  -4  -4  21   13.03    3.66
  -4   4 -21   14.24    5.11
   4   4  21   17.46    5.24
  -4   4  22   42.71    7.86
  -4   4  22   46.56    7.82
  -4  -4  22   56.29    9.06
  -4   4 -22   50.12    8.24
   4   4  22   44.15    7.27
  -4   4  23    1.04    4.05
  -4  -4  23   -1.61    5.21
  -4   4  23    3.81    4.36
  -4   4 -23    2.27    4.19
   4   4  23   10.10    4.73
  -4   4  24   -4.50    4.94
  -4   4  24   -1.67    3.27
  -4  -4  24    6.29    4.33
  -4   4 -24   -4.50    5.38
   4   4  24    8.07    4.21
  -4   4  25   -1.09    3.35
  -4  -4  25    2.67    4.84
   4  -4  25    0.56    3.71
  -4   4 -25   -3.61    4.47
  -4   4  25   -2.74    4.49
   4   4  25   -1.36    3.42
  -4   4  26   -0.14    3.96
   4  -4  26   -2.56    3.81
   4   4  26   -2.12    3.47
  -4   4  27    6.99    3.67
   4   4  27   11.47    5.25
  -4   4  28   15.25    5.73
   4   4  28   17.52    5.26
   4   5   0  407.21   11.31
   4  -5   0  397.72   12.08
   4  -5   0  419.03   12.69
  -4  -5   0  401.26   15.09
  -4  -5   0  391.10    8.18
   4  -5   0  407.25   14.04
  -4   5   0  398.75   15.40
  -4  -5   0  393.27   11.44
  -4  -5   1    1.96    1.67
   4   5   1    5.68    4.06
   4   5   1   -1.03    1.20
   4   5  -1    1.46    1.14
   4  -5   1    0.00    1.94
   4  -5  -1    0.70    2.07
   4  -5   1   -1.19    1.66
   4  -5  -1    0.10    1.72
  -4  -5   1    0.74    3.18
  -4  -5  -1    1.25    2.72
  -4  -5  -1    0.44    0.73
  -4   5  -1   -5.69    3.91
  -4   5   1   -2.17    2.99
   4  -5   1   -0.01    1.27
  -4  -5  -1    2.08    1.45
   4   5   2  199.08    7.19
  -4   5   2  202.44    9.29
   4   5   2  210.33   11.93
   4  -5   2  204.04    8.28
   4  -5  -2  202.67    9.52
  -4  -5   2  204.38   11.27
  -4  -5  -2  201.26   10.67
   4  -5   2  200.97    9.61
  -4  -5  -2  202.56    9.05
  -4  -5  -2  194.14    5.22
   4  -5   2  197.77    8.42
  -4   5   2  195.29   11.08
   4  -5  -2  212.66   10.39
  -4   5  -2  182.32   10.51
  -4  -5   2  190.45    8.71
  -4   5  -3  306.27   13.65
  -4  -5   3  295.41   11.23
   4   5   3  296.22    8.38
  -4  -5  -3  297.72   10.74
   4   5   3  295.50   14.12
   4  -5   3  289.64    9.57
  -4  -5   3  307.87   13.67
  -4  -5  -3  283.62   12.58
  -4  -5  -3  291.76    6.42
  -4   5   3  300.80   11.33
   4  -5   3  289.69   11.42
  -4   5   3  312.17   14.12
   4  -5  -3  310.00   12.76
   4  -5   3  301.01   10.37
   4  -5   4  103.96    6.86
  -4  -5   4  115.92    7.39
   4   5   4  111.54    4.90
   4   5   4  108.18    8.78
   4  -5  -4  113.45    7.91
  -4  -5  -4  102.16    6.40
   4  -5   4  114.25    5.82
  -4  -5   4  113.24    8.63
  -4  -5  -4  116.37    8.25
  -4  -5  -4  108.16    4.08
   4  -5   4  109.26    6.32
  -4   5   4  109.75    7.23
  -4   5  -4  124.37    9.11
  -4  -5   5  130.97    8.36
   4   5   5  129.31    9.68
   4   5   5  136.08    5.21
   4  -5   5  140.20    6.27
  -4  -5   5  135.99    9.35
  -4  -5  -5  135.54    8.44
  -4  -5  -5  127.59    4.72
  -4   5   5  129.17    8.01
  -4  -5  -5  138.18    7.28
  -4   5  -5  144.32    9.74
   4  -5   5  133.74    7.12
   4  -5  -5  127.50    8.68
   4  -5   5  135.80    8.02
   4  -5   6   17.67    3.60
   4   5   6   19.59    2.09
  -4  -5   6   20.79    4.20
  -4  -5  -6   21.03    3.10
   4  -5  -6   23.58    2.65
   4   5   6   22.38    4.79
  -4  -5   6   12.36    3.98
  -4  -5  -6   20.99    3.67
  -4  -5  -6   18.40    2.05
  -4   5  -6   22.04    4.57
  -4   5   6   14.67    3.20
   4   5   6   21.84    2.32
   4   5   7    4.08    1.19
  -4  -5   7    1.06    2.42
   4   5   7   -0.69    3.09
   4  -5  -7    1.42    0.96
  -4  -5  -7    4.80    2.17
  -4  -5  -7    2.77    1.12
  -4  -5   7    4.25    3.24
  -4  -5  -7    3.95    2.70
  -4   5  -7    1.64    3.07
   4   5   7   11.58    3.67
   4   5   7    3.09    1.22
  -4   5   7    7.56    2.97
   4  -5   7    3.78    2.54
  -4  -5   8  285.92   13.35
  -4  -5   8  285.49   13.75
  -4  -5  -8  278.05   11.74
   4  -5   8  285.69   11.69
   4   5   8  297.06   12.94
  -4   5  -8  285.01   14.16
  -4   5   8  294.63   12.98
   4   5   8  291.83    8.88
   4   5   8  277.44   14.42
  -4  -5  -8  292.45    9.02
   4   5   8  281.28    7.33
  -4  -5  -8  291.27   10.83
   4   5   8  292.61    9.80
  -4  -5   9  233.03   12.25
  -4  -5  -9  220.58    8.37
   4   5   9  232.64   11.61
  -4  -5   9  223.60   12.33
  -4  -5  -9  221.06   10.48
  -4   5  -9  220.49   12.72
  -4   5   9  226.22   11.85
   4   5   9  213.73    8.15
   4   5   9  220.70   13.15
   4   5   9  221.91    8.33
  -4  -5  -9  223.29    9.76
   4   5   9  223.15    6.67
  -4   5 -10  454.57   18.70
  -4  -5  10  469.28   17.62
  -4  -5  10  473.36   17.93
  -4  -5 -10  456.03   14.75
  -4  -5 -10  457.48   12.69
   4   5  10  470.79   16.71
   4   5  10  467.38   19.17
   4   5  10  463.50   12.65
  -4   5  10  443.56   17.02
  -4   5  10  483.27   17.85
   4   5  10  455.32    9.85
   4   5  10  488.48   11.84
  -4  -5 -11   52.66    4.89
  -4  -5  11   41.54    6.41
  -4  -5 -11   49.78    5.67
  -4  -5 -11   48.76    5.18
  -4  -5  11   46.03    6.59
   4   5  11   48.67    6.96
   4  -5 -11   48.31    5.50
  -4   5 -11   51.08    7.01
   4   5  11   47.94    5.90
   4   5  11   49.07    3.86
  -4   5  11   49.93    6.39
  -4   5  11   49.81    6.73
   4   5  12  139.20    9.73
  -4  -5  12  129.24   10.37
  -4  -5 -12  139.18    9.36
  -4  -5  12  137.45   10.05
  -4  -5 -12  140.62    8.01
  -4   5 -12  136.00   10.87
   4   5  12  116.77   10.02
   4  -5 -12  137.69    8.62
  -4   5  12  137.13   10.29
   4   5  12  136.02    5.94
  -4   5  12  141.87   10.29
  -4  -5  13   40.35    6.99
   4  -5 -13   27.96    4.17
  -4  -5 -13   27.36    4.36
   4   5  13   36.14    6.80
  -4  -5  13   33.64    5.85
  -4  -5 -13   33.09    3.98
  -4   5  13   29.47    5.46
   4   5  13   32.19    5.23
  -4   5 -13   34.33    6.07
   4   5  13   31.51    2.89
  -4   5  13   36.87    6.08
  -4  -5  14  730.79   24.59
   4   5  14  732.93   14.73
  -4  -5 -14  726.70   21.60
  -4  -5  14  733.56   23.18
  -4  -5 -14  740.86   17.52
   4   5  14  717.47   22.81
  -4   5 -14  731.37   25.44
  -4   5  14  732.58   24.50
   4   5  14  723.37   25.59
   4  -5 -14  714.50   19.69
  -4   5  14  750.29   23.91
  -4   5  15    9.57    4.88
  -4  -5  15   15.94    5.48
   4   5  15    6.32    4.41
   4  -5 -15    9.25    2.77
  -4  -5 -15   10.51    3.67
  -4  -5  15    8.65    3.96
  -4  -5 -15    9.06    2.49
   4   5  15   15.50    5.23
  -4   5  15   11.16    5.05
  -4   5 -15    9.86    4.46
  -4  -5  16  239.26   15.17
  -4  -5  16  233.01   13.64
  -4  -5 -16  232.67   12.82
  -4   5 -16  235.91   15.35
   4   5  16  230.78   15.25
   4   5  16  253.03   14.47
  -4   5  16  240.20   14.96
  -4   5  16  242.09   14.49
  -4  -5  17  100.36   10.34
  -4  -5  17   97.42    9.04
  -4  -5 -17   87.83    8.17
  -4   5 -17  104.68   10.61
   4   5  17   98.79    9.50
  -4   5  17   98.46   10.01
  -4   5  17  104.71   10.13
  -4  -5  18  156.28   13.04
  -4  -5  18  142.30   10.78
  -4   5 -18  138.32   12.39
  -4   5  18  145.76   12.40
   4   5  18  154.69   11.99
  -4   5  18  155.51   12.11
  -4   5  19    1.88    3.49
  -4  -5  19   -4.75    4.18
  -4  -5  19    0.10    2.37
  -4   5 -19    1.20    3.17
   4   5  19    0.44    3.33
  -4   5  19    2.13    3.41
  -4  -5  20  135.57   12.84
  -4  -5  20  130.70   10.56
  -4   5 -20  134.43   12.89
   4   5  20  131.26   11.77
  -4   5  20  127.14   12.29
  -4   5  20  144.19   12.11
  -4   5  21   19.06    6.09
  -4   5  21   18.07    5.93
  -4  -5  21    7.91    5.31
   4   5  21   13.65    3.89
  -4  -5  21   15.47    4.51
  -4   5 -21   14.30    6.12
   4   5  21   20.64    5.88
  -4   5  22  259.94   18.29
  -4  -5  22  236.41   17.57
  -4   5 -22  273.34   19.07
   4   5  22  286.48   17.84
  -4   5  22  282.69   17.29
  -4   5  23   50.52    8.54
  -4   5  23   37.64    7.51
  -4  -5  23   43.15    8.72
  -4   5 -23   48.02    8.74
   4   5  23   41.73    7.85
  -4   5  24   85.59   11.37
  -4  -5  24  101.38   12.14
  -4   5  24   82.69   10.28
   4   5  24   92.12   10.90
  -4   5 -24   86.67   11.75
  -4   5  25   38.53    7.48
   4   5  25   43.43    7.96
  -4   5  25   31.86    7.70
  -4   5  26    8.13    5.25
   4   5  26    0.27    3.29
   4   5  27    5.97    4.64
  -4  -6   0  230.09    4.66
   4   6   0  268.51    9.12
   4  -6   0  272.22   11.26
  -4  -6   0  276.60   13.48
  -4  -6   0  237.19    4.76
   4  -6   0  293.67   12.89
  -4   6   0  266.35   13.01
  -4  -6   0  257.29    9.28
   4   6   1   43.70    3.57
   4   6  -1   39.39    3.82
   4  -6   1   41.97    4.98
   4  -6  -1   45.94    5.61
   4  -6   1   39.62    4.35
   4  -6  -1   40.84    4.85
  -4  -6   1   38.10    2.42
  -4  -6   1   39.55    2.41
  -4  -6   1   44.36    6.20
  -4  -6  -1   47.49    6.42
  -4   6  -1   36.16    4.90
  -4   6   1   44.09    5.72
  -4  -6  -1   42.86    3.76
  -4  -6  -1   41.82    4.96
  -4  -6   1   39.44    4.02
   4   6   2  174.47    6.50
   4  -6   2  177.99    8.62
   4  -6  -2  178.99    9.72
  -4  -6   2  176.01   11.02
  -4  -6  -2  168.38   10.44
  -4  -6   2  166.25    5.55
  -4  -6  -2  175.67    9.24
   4  -6   2  178.83    9.98
  -4   6  -2  180.21   10.84
  -4   6   2  172.73   10.71
   4  -6  -2  163.28    9.90
  -4  -6  -2  168.89    6.68
  -4  -6   2  165.50    8.15
  -4  -6  -3    6.21    2.58
  -4  -6   3    3.77    2.34
   4  -6   3    1.24    2.46
   4   6   3    4.46    1.36
  -4  -6   3    6.23    3.70
   4  -6   3    2.93    1.89
   4  -6  -3    2.11    2.91
   4  -6  -3    4.41    3.19
  -4  -6  -3    6.78    3.64
  -4  -6   3    4.20    1.33
   4   6   3    8.89    5.50
  -4   6   3    5.82    3.58
  -4   6   3    5.72    3.58
  -4   6  -3    7.61    3.53
  -4  -6   4  260.13   11.19
   4  -6  -4  277.75   13.63
   4   6   4  277.11    6.98
   4   6   4  285.19   15.10
   4  -6   4  293.88   10.56
   4  -6  -4  297.65   12.97
  -4  -6   4  292.23   14.18
  -4  -6  -4  278.63   13.00
  -4  -6   4  280.30    8.67
  -4   6   4  284.81   12.33
  -4  -6  -4  282.06   11.74
   4  -6   4  290.90   12.50
  -4   6  -4  271.77   13.54
  -4   6   4  289.46   14.66
   4  -6   5   39.22    4.97
  -4  -6   5   32.36    4.55
   4   6   5   35.70    2.33
  -4  -6  -5   30.87    3.96
   4  -6  -5   33.23    4.91
   4  -6  -5   29.04    4.53
  -4  -6   5   30.25    3.23
  -4  -6   5   43.90    6.43
  -4  -6  -5   41.13    5.58
   4   6   5   43.52    7.28
  -4   6  -5   29.61    5.00
  -4   6   5   34.18    4.83
  -4  -6   6  247.01   11.73
  -4   6   6  240.34   11.90
   4   6   6  236.89   13.80
   4   6   6  235.33    5.26
   4  -6  -6  248.86    8.88
  -4  -6   6  253.44   13.38
  -4  -6  -6  252.25   12.18
   4  -6   6  237.76   11.42
  -4  -6  -6  231.89   10.57
  -4   6  -6  246.91   12.99
   4  -6  -6  236.00   12.68
   4  -6   7   47.29    5.67
   4  -6  -7   45.17    3.80
   4   6   7   37.45    1.90
  -4   6  -7   42.14    6.09
  -4  -6   7   42.81    5.29
   4   6   7   40.68    6.40
  -4  -6   7   52.91    6.71
  -4  -6  -7   42.07    5.38
  -4   6   7   40.70    5.29
  -4  -6  -7   43.93    4.84
  -4   6   8   -5.51    4.01
  -4   6  -8   -1.59    3.33
  -4  -6   8    1.48    2.76
  -4  -6  -8    0.96    2.02
  -4  -6  -8    3.48    2.61
   4   6   8   -1.18    3.42
   4  -6  -8   -1.74    1.53
   4   6   8    5.85    3.83
  -4  -6   8    5.30    3.09
   4   6   8    1.31    1.17
   4  -6   8    1.58    2.38
  -4  -6   9   10.21    3.58
   4   6   9    2.23    4.39
  -4  -6  -9   10.40    2.63
  -4  -6   9    7.42    3.43
  -4   6  -9    9.04    3.88
   4   6   9   16.03    4.61
  -4  -6  -9   13.73    3.06
  -4   6   9   10.81    4.29
   4  -6   9   11.41    3.55
  -4  -6  10   46.99    6.37
   4   6  10   37.49    6.17
  -4  -6  10   41.98    6.16
  -4   6 -10   48.60    6.78
  -4  -6 -10   41.54    4.93
  -4   6  10   50.32    6.57
  -4  -6 -10   45.82    5.34
   4   6  10   43.90    6.02
   4   6  11   13.95    4.96
  -4  -6  11   30.90    5.70
   4   6  11   26.11    5.01
  -4  -6  11   22.22    4.61
  -4  -6 -11   29.29    4.45
  -4  -6 -11   23.73    3.85
  -4   6 -11   22.71    4.94
  -4   6  11   33.87    6.19
  -4  -6  12  298.17   15.40
  -4  -6 -12  302.95   14.71
  -4  -6  12  296.22   15.12
  -4  -6 -12  299.12   12.69
   4   6  12  294.85   14.74
   4  -6 -12  290.88   12.49
  -4   6  12  296.22   15.44
   4   6  12  295.69   16.42
  -4   6 -12  302.79   16.68
  -4   6  12  313.67   14.93
   4  -6 -13    0.33    1.86
  -4  -6  13   10.64    5.25
  -4  -6 -13   -1.56    2.84
  -4  -6  13    5.67    3.74
  -4  -6 -13   -0.42    1.79
  -4   6 -13    1.22    3.28
   4   6  13   -2.45    3.78
   4   6  13   -0.70    3.89
  -4   6  13    1.31    3.08
  -4   6  13   -2.78    3.67
   4   6  14   19.04    5.48
  -4  -6  14   19.21    5.66
   4  -6 -14   17.13    3.36
  -4  -6 -14   24.27    3.93
  -4  -6 -14   21.18    4.58
  -4  -6  14   17.74    4.49
   4   6  14   16.82    4.70
  -4   6 -14   19.95    5.41
  -4   6  14   18.03    5.36
  -4   6  14   17.91    4.82
  -4  -6  15  488.28   21.33
  -4  -6 -15  479.33   19.23
  -4  -6  15  484.71   20.10
  -4  -6 -15  486.57   15.20
  -4   6 -15  510.58   22.14
   4   6  15  433.56   19.33
  -4   6  15  477.47   20.97
   4   6  15  490.40   22.21
   4  -6 -15  498.56   16.28
  -4   6  15  515.00   19.99
  -4  -6  16    4.25    4.15
  -4   6  16    2.51    3.54
  -4  -6 -16   -1.22    2.24
   4  -6 -16    1.70    2.11
  -4  -6  16    2.99    3.17
  -4   6 -16    1.12    3.15
   4   6  16   -7.54    5.11
   4   6  16   -0.91    3.58
  -4   6  16    2.88    3.72
  -4  -6  17   46.67    7.46
  -4  -6  17   43.17    6.41
  -4  -6 -17   52.05    6.70
  -4   6 -17   44.21    7.25
   4   6  17   40.59    7.16
   4   6  17   35.68    6.22
  -4   6  17   42.27    7.20
  -4   6  17   42.22    6.58
  -4   6  18   76.54    8.56
  -4  -6  18   81.47   10.10
  -4   6 -18   84.05   10.02
  -4  -6  18   71.69    8.21
  -4  -6 -18   67.53    7.71
   4   6  18   66.85    8.88
  -4   6  18   79.85    9.68
   4   6  18   62.49    8.23
  -4   6  19   23.65    5.52
  -4  -6  19   26.28    6.17
  -4  -6  19   24.64    5.06
  -4   6 -19   16.89    5.58
   4   6  19   15.63    4.69
   4   6  19   21.49    4.95
  -4   6  19   16.52    5.57
  -4   6  20    8.04    4.41
  -4  -6  20   15.05    5.55
  -4   6 -20   12.92    4.84
  -4  -6  20    8.17    3.61
   4   6  20   10.16    3.53
   4   6  20   20.12    5.88
  -4   6  20    6.34    4.29
  -4  -6  21   98.87   11.53
   4   6  21  102.55   11.00
  -4  -6  21  100.38    9.62
   4   6  21   87.52   10.42
  -4   6 -21   97.55   11.56
  -4   6  21  104.96   11.55
  -4   6  21   97.84   10.21
  -4   6  22   32.97    6.38
  -4  -6  22   33.53    7.30
  -4   6 -22   21.96    6.82
   4   6  22   17.71    5.33
   4   6  22   37.87    7.90
  -4   6  22   24.84    6.09
  -4  -6  23   20.54    6.72
  -4   6 -23   17.89    6.25
   4   6  23   13.36    6.35
  -4   6  23   16.89    4.90
   4   6  23   23.49    6.57
  -4   6  23   19.33    6.30
  -4  -6  24    4.01    4.30
   4   6  24   -2.19    4.24
  -4   6 -24    1.51    4.14
  -4   6  24    3.24    3.70
   4   6  24   15.16    6.02
  -4   6  24    2.67    4.04
   4   6  25    9.02    5.24
   4   6  25    3.90    3.99
   4   6  26  108.52   12.62
   4   6  26  112.65   13.31
  -4   7   0   83.92    7.74
   4  -7   0   93.00    7.40
  -4  -7   0   95.10    8.71
  -4  -7   0   93.94    7.92
   4  -7   0   95.91    8.26
  -4  -7   0   89.89    5.68
   4  -7   1  175.40    9.58
   4  -7  -1  179.13   10.10
  -4  -7   1  177.57   11.56
  -4  -7  -1  188.68   11.96
  -4  -7  -1  184.40    7.26
  -4   7  -1  170.47   10.99
  -4  -7  -1  181.90   10.47
   4  -7   1  174.18   10.64
   4  -7  -1  180.01   11.21
  -4   7   1  178.82   11.08
  -4  -7   1  180.11    8.21
  -4  -7   2   43.43    4.64
   4  -7   2   37.99    5.57
   4  -7  -2   48.60    6.61
   4  -7   2   40.13    4.87
  -4  -7  -2   62.15    7.94
   4  -7  -2   36.30    5.18
  -4  -7   2   47.68    7.86
  -4  -7   2   36.99    2.22
  -4   7   2   39.12    6.16
  -4  -7  -2   41.56    5.44
  -4   7  -2   45.99    6.73
  -4  -7  -2   36.69    3.16
  -4  -7   3 1986.01   29.64
  -4  -7  -3 1995.96   33.82
  -4  -7   3 1954.98   18.91
   4  -7   3 2003.89   31.15
   4  -7  -3 2075.48   35.46
  -4  -7   3 1974.37   38.46
  -4  -7  -3 2137.47   38.01
  -4   7  -3 2073.53   37.40
   4  -7   3 2035.93   35.93
  -4   7   3 2101.24   37.52
   4  -7  -3 2097.97   37.77
  -4  -7   4  646.93   17.77
  -4   7   4  682.04   20.60
   4  -7  -4  684.23   20.99
  -4  -7  -4  662.04   19.42
  -4  -7   4  687.00   22.83
  -4  -7  -4  692.34   21.65
  -4  -7   4  638.15   12.24
   4  -7  -4  647.13   21.47
   4  -7   4  694.41   20.82
  -4   7  -4  670.10   21.96
  -4   7   4  650.92   21.44
  -4  -7   5   59.68    5.89
   4  -7   5   61.05    6.42
  -4  -7  -5   52.79    5.62
   4  -7  -5   72.14    7.17
   4   7   5   95.88   10.22
  -4  -7  -5   78.85    7.95
   4  -7  -5   63.47    7.32
  -4  -7   5   61.78    4.32
  -4  -7   5   68.67    7.86
  -4   7   5   67.13    7.25
  -4   7  -5   54.26    6.77
  -4   7   5   75.49    7.91
  -4  -7  -6  134.06    8.81
  -4  -7   6  124.42    8.74
  -4   7   6  130.02    9.63
   4   7   6  170.56   12.68
   4  -7  -6  134.21    9.86
  -4  -7   6  146.75   11.03
  -4  -7  -6  134.78    9.69
  -4   7   6  152.75   11.01
   4  -7   6  131.44    9.21
  -4   7  -6  128.53    9.86
   4  -7  -6  144.39   10.77
  -4  -7   7  358.39   14.87
   4   7   7  398.82   18.53
   4  -7  -7  378.45   16.67
  -4  -7   7  377.71   17.34
  -4  -7  -7  355.92   15.30
   4  -7   7  369.58   15.50
  -4   7   7  347.39   15.54
  -4   7  -7  364.23   16.80
   4  -7  -7  339.01   16.65
  -4  -7  -7  365.50   14.61
   4  -7   8    0.27    3.07
  -4   7  -8   -5.51    4.34
  -4  -7   8    1.47    2.89
  -4  -7  -8    1.94    1.98
   4   7   8   10.83    5.79
  -4  -7   8    3.52    3.70
  -4  -7  -8    2.15    3.00
   4  -7  -8   -5.85    4.59
  -4   7   8    0.25    3.67
  -4  -7   9   11.00    4.21
   4   7   9   10.73    5.19
  -4   7  -9    7.64    3.41
  -4  -7  -9   11.00    3.29
  -4  -7   9   11.85    4.31
  -4  -7  -9   15.11    4.04
   4   7   9   12.88    4.80
  -4   7   9    9.02    3.62
   4  -7   9   12.25    3.82
  -4  -7  10   22.10    5.08
  -4  -7 -10   16.16    3.69
  -4  -7  10   26.44    5.63
  -4  -7 -10   22.78    4.33
  -4   7 -10   20.74    4.96
   4   7  10   26.98    6.09
  -4   7  10   19.84    4.84
   4   7  10   29.54    7.10
   4  -7  10   25.56    5.63
   4   7  11  619.01   24.36
  -4  -7  11  652.33   22.37
  -4   7  11  579.34   21.91
   4   7  11  648.75   23.05
  -4  -7  11  628.38   22.94
  -4  -7 -11  616.13   19.71
  -4   7 -11  637.43   23.62
  -4  -7 -11  609.64   19.64
   4  -7  11  632.70   21.20
   4  -7 -12   10.24    2.99
  -4  -7  12   14.49    4.58
  -4  -7  12   15.08    4.88
  -4  -7 -12   12.21    3.78
  -4   7 -12    6.13    4.24
   4   7  12   14.54    5.09
  -4  -7 -12    7.37    3.13
   4   7  12   18.34    4.78
  -4   7  12    9.54    4.48
  -4  -7  13  341.94   17.18
  -4  -7 -13  340.02   16.94
  -4  -7  13  327.18   16.88
  -4  -7 -13  335.47   14.36
  -4   7 -13  352.01   18.56
   4  -7 -13  363.72   14.04
  -4   7  13  352.54   18.01
   4   7  13  324.18   16.84
   4   7  13  329.97   18.42
   4   7  14   62.74    8.14
  -4  -7 -14   68.02    7.94
   4   7  14   64.70    9.34
  -4  -7 -14   68.91    6.61
  -4  -7  14   58.90    7.71
  -4  -7  14   67.06    9.02
  -4   7 -14   52.72    8.00
   4  -7 -14   56.07    5.63
  -4   7  14   63.65    8.66
  -4  -7  15  437.07   20.83
  -4   7  15  452.88   21.59
  -4   7 -15  448.03   21.62
  -4  -7 -15  457.41   19.79
  -4  -7  15  448.79   19.96
  -4  -7 -15  465.90   16.27
   4   7  15  460.98   20.74
   4   7  15  429.63   21.50
  -4   7 -16   27.17    5.95
   4   7  16   44.83    7.95
  -4  -7  16   37.20    6.86
  -4  -7 -16   46.60    6.52
  -4  -7  16   38.09    6.29
  -4   7  16   36.28    7.17
   4   7  16   33.34    6.62
  -4   7  16   42.78    6.54
   4   7  17   27.80    6.97
  -4  -7  17   18.06    5.57
  -4  -7 -17   30.74    5.62
  -4  -7  17   31.35    5.90
  -4   7 -17   34.20    7.03
   4   7  17   26.12    6.03
  -4   7  17   30.35    6.48
  -4   7  17   31.48    5.95
   4   7  18   60.58    9.04
  -4  -7  18   63.06    8.92
  -4  -7 -18   63.84    7.98
  -4  -7  18   58.86    7.65
  -4   7 -18   60.89    8.90
   4   7  18   53.18    7.84
  -4   7  18   57.96    8.80
  -4   7  18   67.32    8.19
   4   7  19   56.11    8.99
  -4  -7  19   61.83    8.88
  -4  -7  19   69.75    8.43
  -4  -7 -19   62.32    8.09
  -4   7 -19   69.55    9.84
   4   7  19   55.06    8.30
  -4   7  19   66.90    9.54
  -4   7  19   65.92    8.08
  -4  -7  20   16.23    5.93
  -4   7  20   20.77    6.91
  -4  -7  20   18.32    4.84
  -4   7 -20   18.73    6.21
   4   7  20   15.80    5.40
  -4   7  20    9.71    4.42
   4   7  20    8.16    4.96
  -4   7  21  331.45   18.11
  -4  -7  21  301.97   19.97
  -4  -7  21  306.93   17.24
   4   7  21  302.98   19.19
  -4   7 -21  323.39   20.79
  -4   7  21  307.51   20.17
   4   7  21  299.15   19.82
  -4  -7  22   52.69    9.20
  -4   7 -22   55.15    9.47
   4   7  22   37.89    7.58
  -4   7  22   54.94    9.54
   4   7  22   49.53    8.69
  -4  -7  23   21.16    6.13
  -4   7 -23   37.82    8.29
   4   7  23   27.93    6.52
   4   7  23   23.62    6.64
  -4   7  23   37.02    8.44
   4   7  24   92.46   11.91
   4   7  24   96.53   11.94
   4   7  25  161.55   15.30
   4   7  25  155.13   15.33
   4  -8   0  261.69   13.02
  -4  -8   0  259.86   14.39
  -4  -8   0  265.88   13.84
   4  -8   0  271.84   14.45
  -4   8   0  260.33   13.79
  -4  -8   0  272.59    9.45
  -4  -8  -1    6.00    3.30
  -4  -8  -1    9.69    1.93
  -4  -8   1   14.99    2.95
  -4  -8   1    8.89    3.84
   4  -8   1    6.82    2.99
   4  -8  -1    9.30    4.31
   4  -8   1   10.31    3.25
   4  -8  -1    8.42    3.09
  -4  -8  -1   11.75    4.45
  -4   8  -1   10.43    4.02
  -4   8   1   -0.84    3.96
  -4  -8   1    7.24    3.29
  -4  -8  -2    6.53    3.64
  -4  -8   2    0.32    1.83
   4  -8   2    0.08    3.09
   4  -8  -2    4.15    3.42
   4  -8   2   -0.53    2.08
   4  -8  -2    3.08    3.15
  -4  -8  -2    3.65    3.43
  -4  -8   2    2.05    4.29
  -4  -8  -2    0.80    1.02
  -4   8  -2    1.14    3.00
  -4   8   2   -0.30    3.73
  -4  -8   3  325.37   12.37
   4  -8   3  334.09   13.82
   4  -8  -3  339.15   15.41
  -4  -8   3  320.76   16.51
  -4  -8  -3  321.70   15.71
   4  -8  -3  335.95   16.51
  -4  -8  -3  324.26   14.83
   4  -8   3  321.75   15.51
  -4   8  -3  324.11   15.80
  -4   8   3  308.25   15.35
  -4  -8   4   98.49    7.38
   4  -8  -4  103.93    8.99
  -4  -8   4  102.17    9.61
  -4  -8  -4  115.28    9.55
  -4   8  -4  111.77    9.42
  -4  -8  -4   97.99    8.38
   4  -8   4  105.80    9.20
  -4   8   4   99.28    9.10
   4  -8  -4  107.90    9.80
   4  -8   5    6.73    3.88
  -4  -8   5   -0.25    2.27
  -4  -8  -5   -1.99    2.85
   4  -8  -5    0.48    3.22
   4  -8  -5   -2.42    3.17
  -4  -8   5   -2.42    3.69
  -4  -8  -5    0.00    2.94
  -4   8  -5    1.60    3.58
  -4   8   5    4.00    3.72
  -4   8   5    3.14    3.85
  -4   8   6   91.34    9.04
  -4  -8   6   78.87    7.14
   4  -8   6   80.31    8.30
   4  -8  -6   76.11    8.08
  -4  -8   6   76.11    8.66
  -4  -8  -6   72.09    7.88
  -4  -8  -6   82.54    7.44
  -4   8  -6   73.60    8.24
  -4   8   6   81.36    8.66
   4  -8  -6   87.64    9.03
  -4  -8   7  184.37   10.93
   4  -8  -7  184.73   12.47
  -4  -8   7  198.53   13.50
  -4  -8  -7  187.66   11.97
   4  -8   7  181.98   11.75
  -4   8   7  191.01   12.38
  -4   8  -7  191.32   12.54
  -4  -8  -7  171.15   11.04
  -4   8   7  188.29   12.65
   4  -8  -7  189.64   12.94
  -4  -8   8  170.31   11.03
   4   8   8  175.19   13.62
   4  -8  -8  159.56   11.71
  -4  -8   8  145.00   11.64
  -4  -8  -8  163.63   11.03
   4  -8   8  158.93   11.11
  -4   8  -8  164.73   11.90
  -4   8   8  175.92   12.13
  -4  -8  -8  157.15   10.55
   4  -8  -8  165.06   12.29
   4  -8   9   26.69    5.11
  -4  -8   9   24.54    4.83
  -4  -8  -9   30.92    4.98
  -4  -8   9   25.77    5.54
  -4  -8  -9   22.51    4.49
   4  -8  -9   19.01    4.16
  -4   8  -9   21.83    4.72
   4   8   9   27.51    6.95
  -4   8   9   27.69    5.55
   4   8  10   18.35    5.87
  -4  -8  10   11.15    3.59
  -4  -8 -10   16.07    3.99
  -4  -8  10   15.84    4.61
  -4  -8 -10   15.97    4.10
   4   8  10   19.80    5.65
  -4   8 -10   13.32    4.15
  -4   8  10   14.74    4.17
   4  -8  10   14.76    4.09
  -4  -8  11   36.04    5.93
  -4  -8 -11   32.67    5.22
  -4  -8  11   35.04    6.43
   4   8  11   42.18    7.82
  -4   8 -11   36.22    6.19
   4   8  11   40.05    7.00
  -4   8  11   34.90    6.29
   4  -8  11   35.54    5.89
  -4  -8 -11   36.25    5.41
  -4  -8  12   13.32    4.55
   4  -8  12   19.71    4.65
   4   8  12   15.90    5.58
  -4  -8 -12   11.18    3.35
  -4  -8  12   20.67    4.86
  -4  -8 -12   17.00    4.04
  -4   8 -12   17.28    5.11
   4   8  12   17.33    5.45
  -4   8  12   12.74    4.41
   4   8  13   25.92    6.52
  -4  -8  13   19.00    4.76
  -4  -8 -13   20.52    4.84
  -4  -8  13   23.16    5.52
  -4  -8 -13   23.37    4.41
  -4   8 -13   26.09    5.71
   4   8  13   12.61    4.53
  -4   8  13   17.40    4.87
   4   8  14   16.16    5.64
  -4  -8  14   13.24    4.45
  -4  -8 -14   10.05    3.54
  -4  -8 -14   15.55    3.75
  -4  -8  14   10.37    4.32
  -4   8  14    4.87    3.82
  -4   8 -14   17.00    5.04
   4   8  14   14.87    5.12
  -4   8 -15   38.04    7.07
  -4  -8 -15   35.60    6.18
  -4  -8  15   24.84    5.57
  -4  -8 -15   32.72    5.09
   4   8  15   37.60    7.48
  -4  -8  15   39.60    6.71
   4   8  15   31.30    6.17
  -4   8  15   41.93    7.55
  -4  -8  16    9.63    4.29
  -4  -8 -16   11.59    4.07
  -4  -8  16   11.87    4.15
  -4   8 -16   17.23    5.70
   4   8  16   16.09    6.00
   4   8  16   17.76    5.02
  -4   8  16   23.73    6.28
   4   8  17  115.71   12.06
  -4  -8  17  129.55   12.21
  -4  -8 -17  129.52   11.79
  -4  -8  17  127.08   11.59
  -4   8 -17  118.31   11.91
  -4   8  17  128.79   12.81
   4   8  17  131.22   12.28
  -4  -8  18   20.46    5.94
  -4  -8 -18   19.04    4.99
  -4  -8  18   10.32    3.95
   4   8  18   21.51    6.25
  -4   8 -18   21.75    6.31
   4   8  18   21.75    5.92
  -4   8  18   22.49    6.65
   4   8  19   26.30    6.69
  -4  -8  19   28.43    6.58
   4   8  19   19.22    5.97
  -4  -8  19   28.45    5.76
  -4  -8 -19   31.52    6.32
  -4   8 -19   26.41    6.89
  -4   8  19   31.03    7.05
  -4  -8  20    6.50    4.52
  -4   8 -20    3.18    3.46
   4   8  20    6.31    4.48
  -4  -8 -20    1.87    2.62
  -4  -8  20    3.85    3.66
   4   8  20    6.67    3.98
  -4   8  20    6.52    4.74
   4   8  21  141.70   13.61
  -4  -8  21  163.61   15.11
  -4  -8  21  154.95   12.94
  -4   8 -21  154.84   15.09
  -4   8  21  153.32   15.06
   4   8  21  158.15   14.99
  -4  -8  22    5.76    4.35
   4   8  22    5.52    4.82
  -4   8 -22    6.84    5.53
   4   8  22    2.14    3.64
  -4   8  22    6.22    5.19
   4   8  23   36.47    8.12
   4   8  23   22.88    6.04
   4   8  24   19.99    6.73
   4  -9   0  780.10   23.77
  -4  -9   0  776.97   26.35
  -4  -9   0  784.57   25.30
  -4   9   0  801.95   24.85
   4  -9   0  837.49   26.65
  -4  -9   0  812.37   16.12
   4  -9   1  367.71   16.16
   4  -9  -1  383.97   16.89
  -4  -9   1  395.75   18.81
  -4  -9  -1  380.27   18.21
  -4  -9  -1  361.12   16.90
  -4   9  -1  362.92   16.76
   4  -9   1  358.51   17.58
  -4   9   1  358.35   16.89
   4  -9  -1  368.91   17.89
  -4  -9   1  363.36   17.45
  -4  -9   1  374.95   11.85
  -4  -9   2  324.78   11.76
  -4  -9  -2  320.84   15.79
   4  -9   2  324.03   16.52
   4  -9   2  319.85   14.83
   4  -9  -2  319.01   15.54
  -4  -9   2  319.94   17.24
  -4  -9  -2  317.80   16.71
  -4  -9   2  329.37   16.87
  -4   9  -2  320.62   15.90
  -4   9   2  305.45   15.48
   4  -9  -2  316.78   16.83
  -4   9  -3  600.24   21.86
  -4  -9   3  626.67   17.20
   4  -9   3  615.21   20.21
   4  -9  -3  620.11   21.96
   4  -9   3  603.52   22.62
  -4  -9   3  670.43   24.63
  -4  -9  -3  634.42   23.32
  -4  -9  -3  606.41   21.78
  -4   9   3  618.53   21.96
   4  -9  -3  603.96   23.11
  -4   9  -4  572.89   21.54
  -4  -9   4  565.25   17.12
   4  -9  -4  570.52   21.52
  -4  -9   4  582.47   23.35
  -4  -9  -4  576.30   22.14
  -4  -9  -4  554.91   20.68
   4  -9   4  584.57   22.13
   4  -9  -4  560.98   22.68
  -4   9   4  565.38   21.10
   4  -9   5   -4.74    3.70
  -4  -9   5    2.92    2.79
  -4  -9  -5   -7.78    4.02
   4  -9  -5    3.27    3.33
   4  -9  -5   -0.46    2.80
  -4  -9   5   -0.74    3.50
  -4  -9  -5    3.24    3.87
  -4   9  -5   -4.65    4.41
  -4   9   5   -5.28    4.23
  -4  -9   6  227.39   11.98
   4  -9   6  194.47   13.18
   4  -9  -6  230.57   14.40
  -4  -9   6  226.68   15.09
  -4  -9  -6  215.35   13.65
  -4   9   6  219.68   14.10
  -4   9  -6  190.82   12.96
  -4   9   6  204.16   13.32
   4  -9  -6  222.77   14.81
  -4  -9  -6  212.27   13.06
   4  -9   7  964.79   28.54
  -4  -9   7  894.74   24.22
  -4   9   7  951.97   28.92
   4  -9  -7  900.04   28.68
  -4  -9   7  980.20   30.36
  -4  -9  -7  932.50   27.65
  -4  -9  -7  958.08   27.39
  -4   9  -7  974.34   29.11
  -4   9   7  932.28   27.65
   4  -9  -7  956.12   30.35
  -4  -9   8   67.95    7.27
  -4  -9  -8   73.32    8.31
   4  -9  -8   72.38    8.75
   4  -9  -8   71.79    9.14
  -4  -9   8   66.12    8.78
   4  -9   8   80.32    8.89
  -4   9   8   73.16    9.08
  -4   9  -8   67.88    8.52
  -4  -9  -8   78.76    8.32
  -4   9   8   73.19    8.50
  -4   9   9  108.99   10.40
  -4  -9   9   93.85    8.54
   4  -9   9  102.13    9.69
   4  -9  -9  107.34   10.53
  -4  -9   9  100.60   10.24
  -4  -9  -9  110.21    9.64
  -4   9  -9   94.66    9.72
  -4  -9  -9  100.67    9.32
  -4   9   9   90.65    9.58
   4  -9  -9   89.63    9.84
   4  -9  10    7.57    3.88
  -4  -9  10    6.51    3.71
  -4  -9 -10    3.75    2.88
  -4  -9  10    5.62    4.09
  -4  -9 -10    3.21    2.68
  -4   9 -10    4.27    3.46
  -4   9  10   -2.85    4.56
  -4  -9  11  125.17   10.51
   4   9  11  113.93   12.02
  -4  -9  11  120.23   11.36
  -4  -9 -11  117.38   10.06
  -4   9  11  121.02   11.43
   4  -9  11  125.88   10.89
  -4  -9 -11  128.57   10.43
  -4   9 -11  137.87   11.98
  -4  -9  12   21.68    5.40
   4   9  12   28.81    7.31
  -4  -9 -12   18.26    4.34
  -4  -9  12   16.75    4.56
  -4  -9 -12   25.80    4.90
   4   9  12   32.03    7.09
  -4   9 -12   25.86    5.75
  -4   9  12   16.43    5.12
   4  -9  12   19.48    5.05
  -4  -9  13   32.36    6.10
  -4  -9  13   37.45    6.71
  -4  -9 -13   31.81    6.29
  -4  -9 -13   28.12    5.20
  -4  -9 -13   25.40    4.83
   4   9  13   35.17    7.67
  -4   9  13   26.17    6.03
   4   9  13   41.16    7.68
  -4   9 -13   27.58    5.85
   4  -9  13   24.04    5.81
  -4  -9  14   73.39    9.18
   4   9  14   86.37   11.16
  -4  -9 -14   70.42    8.84
  -4  -9 -14   84.26    8.38
  -4  -9  14   80.66    9.64
   4   9  14   81.57   10.27
  -4   9 -14   69.04    9.09
   4  -9  14   86.58    9.50
  -4   9  14   76.20    9.88
   4   9  15  208.15   16.46
  -4  -9 -15  194.15   14.52
  -4  -9  15  183.05   14.39
   4   9  15  192.46   15.07
  -4   9 -15  190.16   14.85
  -4  -9  15  184.03   14.03
  -4   9  15  177.91   14.79
  -4  -9  16    5.04    3.76
  -4  -9 -16   10.10    3.89
  -4  -9  16    9.58    4.14
  -4   9 -16    7.32    4.88
   4   9  16   20.71    7.19
   4   9  16   11.56    5.44
  -4   9  16    8.95    5.10
  -4  -9  17  181.19   14.61
   4   9  17  196.27   16.49
  -4  -9 -17  179.38   14.38
  -4  -9  17  174.34   14.18
  -4   9 -17  195.06   15.81
   4   9  17  193.17   15.47
  -4   9  17  181.47   15.59
  -4   9 -18   56.56    9.04
  -4  -9  18   56.21    8.66
  -4   9  18   59.32    9.27
  -4  -9 -18   75.92    9.76
   4   9  18   67.15   10.24
  -4  -9  18   60.19    8.56
   4   9  18   63.77    9.58
  -4  -9  19    4.01    4.47
   4   9  19   10.04    5.99
  -4  -9 -19    0.02    2.61
  -4  -9  19   -2.16    3.26
  -4   9 -19   -6.14    4.71
   4   9  19    0.71    3.53
  -4   9  19   -6.01    5.61
   4   9  20    7.72    5.07
  -4  -9  20    6.52    4.79
  -4  -9  20    5.66    4.13
  -4  -9 -20    3.35    3.40
  -4   9 -20    4.80    4.51
   4   9  20    5.25    4.24
  -4   9  20    0.05    4.08
  -4  -9  21  138.40   14.28
   4   9  21  141.81   15.01
  -4  -9  21  120.28   11.97
  -4  -9 -21  134.38   13.16
  -4   9 -21  133.24   14.33
   4   9  21  123.15   13.33
   4   9  22   93.24   12.31
   4   9  22   85.12   11.44
  -4 -10   0   46.48    7.07
   4 -10   0   48.97    7.30
   4 -10   0   42.86    6.17
  -4 -10   0   42.18    7.14
  -4  10   0   41.30    6.39
  -4 -10   1   14.53    4.86
  -4 -10  -1    8.07    4.15
   4 -10   1    6.96    3.72
   4 -10  -1   15.04    5.35
   4 -10   1    8.15    2.98
   4 -10  -1    3.05    2.87
  -4 -10   1    8.37    4.40
  -4 -10  -1    9.89    3.58
  -4  10  -1    1.04    2.95
  -4  10   1   11.89    4.38
  -4  10  -2   11.06    4.32
  -4 -10  -2   29.79    6.47
   4 -10   2   13.76    4.71
   4 -10  -2   13.90    4.07
   4 -10   2   19.44    4.45
   4 -10  -2   14.38    4.33
  -4 -10   2   13.61    4.71
  -4 -10  -2    9.34    3.76
  -4  10   2   24.23    5.14
  -4 -10   2   19.53    5.30
  -4 -10  -3    1.32    3.28
   4 -10   3   -1.86    3.44
   4 -10   3   -2.04    2.66
   4 -10  -3   -3.58    3.50
   4 -10  -3   -3.03    3.39
  -4 -10   3    3.25    3.66
  -4 -10  -3    4.56    4.29
  -4  10  -3   -1.70    3.50
  -4  10   3   -6.43    4.72
  -4 -10   3    4.65    4.31
  -4 -10   4   10.28    3.28
   4 -10   4    3.39    2.94
  -4 -10  -4    6.94    3.47
   4 -10  -4    5.33    4.23
   4 -10  -4    7.07    3.43
  -4 -10   4    6.44    4.42
  -4 -10   4    1.02    3.19
  -4 -10  -4    0.25    3.76
  -4  10  -4    4.71    3.31
  -4  10   4    6.53    3.73
  -4 -10   5    3.45    2.45
   4 -10   5    3.40    3.64
  -4 -10  -5    4.25    3.57
   4 -10  -5    3.57    3.97
   4 -10  -5    0.30    3.45
  -4 -10   5   -1.06    3.65
  -4 -10  -5   -3.11    3.57
  -4  10  -5   -0.11    3.08
  -4  10   5   -2.52    3.83
  -4 -10   6  207.70   11.54
   4 -10  -6  198.27   14.04
  -4 -10   6  211.93   15.12
  -4 -10  -6  208.19   14.08
  -4  10  -6  215.61   14.04
   4 -10   6  206.99   14.23
  -4 -10  -6  202.35   13.54
  -4  10   6  197.16   13.04
   4 -10  -6  199.94   14.63
  -4 -10  -7    8.65    4.31
   4 -10   7   13.00    5.04
  -4 -10   7    1.16    3.07
  -4 -10  -7    6.01    3.97
   4 -10  -7    8.80    4.58
   4 -10  -7    4.05    3.29
  -4 -10   7    8.13    4.96
  -4  10  -7   12.57    5.08
  -4  10   7    2.56    3.09
  -4 -10   8  219.63   12.71
  -4  10   8  223.84   14.44
   4 -10  -8  241.82   15.74
  -4 -10   8  234.17   16.04
  -4 -10  -8  232.39   14.68
  -4  10   8  228.96   15.66
   4 -10   8  221.95   14.87
  -4  10  -8  236.84   15.37
  -4 -10  -8  225.49   14.39
   4 -10  -8  236.18   16.46
   4 -10   9   -2.47    4.27
  -4 -10   9    3.38    3.08
  -4 -10  -9    0.02    2.56
   4 -10  -9   -2.94    3.64
   4 -10  -9   -2.31    3.15
  -4 -10   9   -0.04    3.62
  -4 -10  -9    3.02    3.26
  -4  10  -9    0.21    3.26
  -4  10   9    6.08    4.36
  -4  10   9   -1.54    3.51
   4 -10  10   -0.54    3.93
   4 -10 -10    0.63    2.89
  -4 -10  10    1.34    2.61
  -4 -10 -10    2.56    3.00
   4 -10 -10    0.70    3.53
  -4 -10  10    1.12    3.70
  -4 -10 -10   -0.58    2.59
  -4  10 -10    1.59    3.35
  -4  10  10    6.35    4.09
  -4  10  10    0.71    3.52
  -4  10 -11  160.24   13.18
  -4 -10  11  141.92   11.72
  -4 -10  11  148.12   13.06
  -4 -10 -11  131.36   11.28
  -4  10  11  163.70   13.82
   4 -10  11  142.76   12.37
  -4  10  11  155.70   12.52
  -4 -10 -11  142.77   11.71
   4 -10  12   12.64    4.44
  -4 -10  12   16.33    4.83
  -4 -10 -12   13.60    4.31
  -4 -10  12    9.92    4.97
  -4 -10 -12   15.06    4.25
  -4  10 -12   20.76    5.36
  -4  10  12   15.68    5.48
  -4 -10  13    3.54    3.24
  -4 -10 -13    7.77    4.25
  -4 -10 -13    7.07    3.89
  -4 -10  13    7.59    3.97
  -4 -10 -13    4.93    2.69
  -4  10 -13   12.57    5.22
  -4  10  13    6.38    3.67
   4 -10  13    5.58    3.91
  -4 -10  14   11.29    4.29
  -4 -10 -14   10.89    3.62
  -4 -10  14    9.29    4.41
  -4 -10 -14   13.70    3.98
   4  10  14   13.41    5.71
  -4  10 -14   13.53    4.85
  -4  10  14    7.56    4.31
   4 -10  14   15.36    5.30
  -4 -10  15    0.68    3.14
  -4 -10 -15    1.66    2.94
  -4 -10  15   -1.58    3.92
  -4  10 -15    2.15    3.83
   4  10  15    9.11    5.19
  -4  10  15    0.00    4.05
   4  10  15    6.29    5.69
   4 -10  15    1.76    3.23
  -4 -10  16   24.45    5.79
   4  10  16   35.85    8.16
  -4 -10 -16   35.89    6.77
  -4 -10  16   46.71    7.92
  -4  10 -16   36.11    7.33
   4  10  16   38.53    8.22
  -4  10  16   32.66    7.05
   4 -10  16   30.99    6.41
  -4 -10  17    6.64    3.97
  -4 -10 -17    9.68    4.31
  -4 -10  17    5.52    4.31
   4  10  17   20.42    7.08
  -4  10 -17    3.63    3.57
   4  10  17    0.00    3.84
  -4  10  17   13.74    5.95
   4 -10  17   16.51    5.37
  -4 -10  18   56.16    9.02
   4  10  18   54.73    9.93
  -4 -10 -18   55.26    8.78
  -4 -10  18   52.68    8.45
  -4  10 -18   51.65    8.59
   4  10  18   61.71   10.10
  -4  10  18   50.36    9.00
  -4 -10  19   12.52    5.15
   4  10  19   24.89    7.30
  -4 -10 -19   19.84    5.81
  -4 -10  19   22.24    6.00
  -4  10 -19   20.60    5.74
  -4  10  19   23.04    6.44
   4  10  19   15.26    6.37
  -4 -10  20   23.20    6.89
  -4 -10 -20   18.21    5.87
  -4 -10  20   19.13    5.65
   4  10  20   30.51    8.59
   4  10  20   24.01    6.58
  -4 -10  21    6.56    3.46
  -4 -10 -21   14.88    5.48
   4 -11   0  444.29   22.00
   4 -11   0  443.86   20.33
  -4 -11   0  460.77   22.31
  -4 -11   0  436.69   21.16
  -4  11   0  440.97   19.85
  -4 -11   1   38.10    6.76
  -4 -11  -1   36.34    6.55
  -4 -11  -1   56.79    8.68
   4 -11   1   48.50    7.72
   4 -11  -1   46.08    7.53
   4 -11   1   41.02    6.59
   4 -11  -1   50.61    7.35
  -4 -11   1   45.08    7.80
  -4  11  -1   35.37    6.24
  -4  11   1   42.10    6.54
  -4 -11  -2   10.15    4.35
   4 -11   2    3.40    3.74
   4 -11  -2    8.96    4.34
   4 -11   2   12.28    4.29
   4 -11  -2    7.53    3.58
  -4 -11   2   10.59    4.80
  -4 -11   2    7.92    4.63
  -4 -11  -2   12.66    4.89
  -4  11  -2    0.40    3.40
  -4  11   2   14.09    4.67
  -4 -11  -3   62.35    8.27
   4 -11   3   46.23    7.52
   4 -11   3   60.30    7.98
   4 -11  -3   59.81    8.93
   4 -11  -3   59.66    8.14
  -4 -11   3   56.29    8.68
  -4 -11  -3   58.51    8.75
  -4  11  -3   61.57    8.02
  -4  11   3   60.13    7.85
  -4 -11   3   57.42    8.57
   4 -11  -4  519.67   22.95
   4 -11  -4  591.23   25.74
  -4 -11   4  553.79   24.99
  -4 -11  -4  543.36   24.10
  -4 -11   4  607.22   25.62
  -4  11  -4  555.91   22.68
   4 -11   4  562.16   24.57
  -4 -11  -4  566.14   23.78
  -4  11   4  543.30   21.96
  -4 -11   5  139.31   12.86
   4 -11  -5  121.61   11.59
  -4 -11   5  135.36   13.13
  -4 -11  -5  125.74   12.17
  -4 -11  -5  134.43   11.76
   4 -11   5  129.51   12.13
  -4  11  -5  136.99   11.56
  -4  11   5  122.43   10.62
   4 -11  -5  132.30   12.61
   4 -11  -6  454.69   22.15
  -4 -11   6  431.59   22.48
  -4 -11  -6  441.92   21.55
  -4  11  -6  457.33   21.00
   4 -11   6  469.14   22.56
  -4 -11  -6  465.45   21.57
  -4  11   6  456.93   20.12
   4 -11  -6  453.13   22.95
   4 -11   7   17.32    5.82
  -4 -11  -7   14.11    4.82
   4 -11  -7   14.12    5.08
   4 -11  -7   12.87    4.91
  -4 -11   7   16.83    6.05
  -4 -11  -7   15.89    5.20
  -4  11  -7   12.80    4.75
  -4  11   7    7.90    3.44
   4 -11   8   16.50    4.97
  -4 -11  -8   18.44    5.04
   4 -11  -8   18.00    5.38
   4 -11  -8   11.92    4.53
  -4 -11   8   20.13    5.93
  -4 -11  -8   17.09    4.83
  -4  11   8    7.64    3.03
  -4  11  -8   17.82    4.94
  -4 -11   9   38.25    7.47
  -4  11  -9   30.07    6.21
   4 -11   9   31.56    7.01
  -4 -11   9   29.47    5.34
  -4 -11  -9   31.60    6.14
   4 -11  -9   28.06    6.26
   4 -11  -9   26.45    6.38
  -4 -11  -9   23.52    5.53
  -4  11   9   34.19    6.24
  -4 -11  10  339.38   17.19
   4 -11 -10  356.20   20.69
  -4 -11  10  370.00   21.21
  -4 -11 -10  354.12   19.09
  -4  11 -10  350.08   19.29
  -4  11  10  337.09   20.19
   4 -11  10  330.90   19.37
  -4 -11 -10  338.18   18.57
   4 -11 -10  343.78   20.96
  -4  11  10  356.12   18.53
   4 -11  11    2.67    3.80
  -4 -11  11    3.01    2.69
  -4 -11 -11    2.08    3.06
   4 -11 -11    3.11    3.88
  -4 -11  11   10.92    5.35
  -4 -11 -11    3.38    3.51
  -4  11 -11    2.95    4.04
  -4  11  11    8.05    5.20
  -4  11  11    8.32    4.92
   4 -11  12   49.17    8.19
  -4 -11  12   30.14    6.10
  -4 -11 -12   42.30    7.61
  -4 -11 -12   32.84    6.34
  -4 -11  12   43.49    8.00
  -4 -11 -12   39.81    7.04
  -4  11 -12   37.29    7.06
  -4  11  12   42.54    7.99
  -4  11  12   47.86    7.79
   4 -11  13   26.20    6.52
  -4 -11 -13   21.29    5.12
  -4  11  13   31.21    6.64
  -4 -11  13   25.88    5.97
  -4 -11 -13   19.96    5.71
  -4 -11 -13   25.10    5.85
  -4 -11  13   18.85    5.70
  -4  11 -13   29.15    7.11
  -4  11  13   18.78    6.17
  -4  11  14  159.53   13.33
  -4 -11  14  147.11   12.82
  -4 -11 -14  125.42   12.93
  -4 -11  14  141.45   13.68
  -4 -11 -14  140.30   11.85
  -4  11 -14  153.22   13.85
   4 -11  14  158.54   13.98
  -4  11  14  148.28   14.60
  -4 -11 -14  148.70   13.01
  -4 -11  15    3.11    3.60
  -4 -11 -15   -2.72    3.85
   4 -11  15   -0.62    2.97
  -4 -11  15   -0.83    3.80
  -4  11  15   -3.50    4.00
  -4  11 -15   -1.21    3.73
  -4 -11  16   -0.14    3.57
  -4  11 -16   -1.24    3.82
  -4 -11 -16   -0.52    3.51
  -4 -11  16    0.87    4.15
  -4  11  16   -0.34    3.94
   4 -11  16   -1.42    3.28
   4 -11  17   -0.89    3.09
  -4 -11  17   -0.64    3.48
   4  11  17   -0.45    3.90
  -4 -11 -17   -1.43    3.57
  -4 -11  17    0.00    3.20
  -4  11 -17    2.09    3.73
  -4 -11  18   14.70    5.75
  -4 -11 -18   23.43    6.40
  -4 -11  18   18.45    5.43
  -4  11 -18   17.00    5.74
   4  11  18   18.48    6.39
   4 -11  18   21.90    6.77
  -4 -11  19    7.20    4.27
   4 -11  19    6.11    3.39
  -4 -11  20    6.04    4.29
  -4 -12   0   54.39    8.16
   4 -12   0   52.84    8.62
   4 -12   0   60.20    8.27
  -4 -12   0   72.05    9.66
  -4  12   0   55.74    7.20
  -4 -12   1    0.53    3.27
  -4 -12  -1    3.44    3.32
  -4 -12  -1    3.53    4.19
   4 -12   1   -2.13    3.84
   4 -12  -1    9.06    4.74
   4 -12   1    6.92    3.33
   4 -12  -1    2.06    2.58
  -4  12  -1   -0.21    2.72
  -4  12   1   -2.14    2.96
  -4 -12   1    1.78    3.54
  -4 -12   2   10.48    4.49
  -4 -12  -2   11.52    4.58
   4 -12   2   18.24    5.63
   4 -12  -2    9.49    4.58
   4 -12   2   10.97    4.16
   4 -12  -2   13.15    4.69
  -4 -12   2   21.79    6.22
  -4 -12  -2   19.12    5.58
  -4  12  -2   13.67    3.95
  -4  12   2   14.11    4.53
  -4  12   3   80.89    9.18
  -4 -12  -3   80.50    9.79
   4 -12   3   91.30   10.85
   4 -12   3   85.03    9.16
   4 -12  -3   79.07    9.63
   4 -12  -3   96.85   11.29
  -4 -12   3   84.45   10.51
  -4 -12   3   79.01   10.26
  -4 -12  -3   81.26   10.10
  -4  12  -3   85.04    9.20
   4 -12   4    0.26    3.28
  -4 -12  -4    2.56    2.78
   4 -12   4    8.54    3.74
   4 -12  -4    5.27    4.41
   4 -12  -4    7.92    4.21
  -4 -12   4    9.47    5.52
  -4 -12  -4   15.49    5.05
  -4  12  -4    1.92    2.93
  -4  12   4   12.20    4.28
  -4 -12   4    4.56    4.12
  -4  12  -5    4.67    3.50
   4 -12   5    3.24    3.81
  -4 -12  -5    0.30    2.81
   4 -12  -5   -0.79    3.58
   4 -12  -5    1.41    2.97
  -4 -12   5    2.72    3.35
  -4 -12  -5    4.61    4.21
  -4  12   5    0.47    2.77
  -4 -12   5   -1.91    3.22
   4 -12   6   37.19    7.36
  -4 -12  -6   44.05    7.49
   4 -12  -6   37.02    7.87
   4 -12  -6   34.53    6.53
  -4 -12   6   42.74    7.64
  -4 -12  -6   47.46    8.18
  -4  12  -6   43.63    7.13
  -4  12   6   35.13    5.87
  -4 -12   6   45.16    8.13
   4 -12   7   24.58    6.37
  -4  12  -7   22.39    5.41
  -4 -12  -7   20.93    5.32
   4 -12  -7   19.17    5.62
   4 -12  -7   27.27    6.23
  -4 -12   7   26.43    6.78
  -4 -12   7   23.34    6.68
  -4 -12  -7   17.11    5.39
  -4  12   7   24.13    5.59
   4 -12   8   26.27    6.40
  -4 -12  -8   28.95    6.09
   4 -12  -8   26.29    6.23
   4 -12  -8   27.68    6.34
  -4 -12   8   31.20    7.02
  -4 -12  -8   24.83    5.95
  -4  12  -8   22.93    5.30
   4 -12   9   36.11    7.41
  -4 -12  -9   32.18    6.58
   4 -12  -9   22.07    6.10
   4 -12  -9   41.40    8.42
  -4 -12   9   46.91    8.37
  -4 -12  -9   44.30    7.87
  -4  12  -9   34.40    6.46
   4 -12  10   19.92    5.91
  -4 -12 -10   16.62    4.98
   4 -12 -10   17.10    5.53
   4 -12 -10   20.11    6.30
  -4 -12  10   11.19    4.43
  -4 -12 -10   10.59    4.59
  -4  12 -10   10.30    4.08
   4 -12  11   36.36    7.38
  -4 -12 -11   33.28    6.63
   4 -12 -11   39.29    8.14
  -4 -12  11   38.59    7.67
   4 -12 -11   33.23    7.32
  -4 -12 -11   42.65    7.31
  -4  12 -11   33.68    6.93
   4 -12  12   18.59    5.79
  -4 -12 -12   16.16    5.85
  -4 -12 -12   16.66    4.98
  -4 -12 -12   13.50    4.73
  -4 -12  12   10.06    4.90
  -4  12  12   20.51    7.09
  -4  12 -12   22.42    5.70
   4 -12  13   14.05    5.19
  -4 -12 -13   21.29    6.02
  -4 -12 -13   15.07    4.79
  -4 -12  13   12.32    5.42
  -4 -12 -13    5.45    3.13
  -4  12 -13   14.17    4.94
  -4  12  13   22.06    6.95
   4 -12  14   28.02    6.76
  -4 -12  14   35.99    6.86
  -4 -12 -14   39.08    8.14
  -4 -12  14   33.89    7.49
  -4  12  14   30.67    8.24
  -4  12 -14   29.50    6.54
   4 -12  15    1.30    3.32
  -4 -12  15    1.51    3.39
  -4 -12  15    6.78    4.37
  -4  12 -15    5.43    3.52
   4 -12  16   -0.72    3.80
  -4 -12  16   -5.11    4.16
  -4  12 -16    0.58    3.51
  -4 -12  17    2.16    3.84
   4 -12  17    5.28    3.75
  -4 -13   0   31.91    6.95
   4 -13   0   40.64    8.13
   4 -13   0   37.08    6.90
  -4 -13   0   42.22    7.93
  -4 -13   1   71.90   10.07
  -4 -13  -1   70.25    9.79
   4 -13   1   65.46    9.84
   4 -13   1   82.44    9.86
   4 -13  -1   73.77   10.50
   4 -13  -1   74.66    9.60
  -4 -13   1   63.40    9.96
  -4 -13  -1   77.68   10.54
  -4 -13   2    7.71    3.83
  -4 -13  -2    8.71    4.11
   4 -13   2    6.54    4.19
  -4 -13  -2   25.39    7.30
   4 -13  -2   15.93    5.90
   4 -13   2   11.60    4.64
   4 -13  -2   12.61    4.86
  -4 -13   2   13.91    5.88
  -4 -13   3  238.58   18.01
  -4 -13  -3  244.67   17.54
   4 -13   3  267.22   17.07
   4 -13  -3  241.65   17.07
  -4 -13   3  249.83   18.57
  -4 -13  -3  259.57   18.65
   4 -13   3  249.76   18.43
   4 -13  -3  240.94   18.20
  -4 -13   4    1.74    3.82
  -4 -13  -4    5.98    4.82
   4 -13   4   -5.50    4.41
  -4 -13  -4    2.50    3.45
   4 -13   4    6.60    3.79
   4 -13  -4   17.86    5.95
   4 -13  -4    3.64    4.03
  -4 -13   4   13.34    5.98
  -4 -13   5    9.45    4.46
   4 -13   5   23.92    6.52
  -4 -13  -5   15.21    5.19
   4 -13  -5   10.95    4.34
   4 -13  -5    9.31    3.78
  -4 -13   5   17.40    5.73
  -4 -13  -5   20.53    5.95
   4 -13   6   10.67    4.65
  -4 -13  -6   12.83    4.49
   4 -13  -6    9.77    4.86
   4 -13  -6    8.55    3.41
  -4 -13   6   22.93    6.82
  -4 -13  -6    9.16    4.45
  -4  13  -6   12.42    4.50
  -4 -13   6   14.80    5.77
  -4  13  -7  115.56   11.43
   4 -13  -7  115.40   12.52
  -4 -13   7  122.85   13.43
  -4 -13  -7  123.21   12.91
  -4 -13   7  129.49   13.81
   4 -13   7  111.48   12.54
  -4 -13  -7  124.00   12.68
   4 -13  -7  114.36   13.25
   4 -13  -8  112.17   12.46
  -4 -13  -8  116.85   12.43
  -4 -13   8  110.40   13.07
  -4 -13   8  102.29   12.17
   4 -13   8  109.07   12.54
  -4 -13  -8  104.17   11.88
  -4  13  -8   99.29   10.70
   4 -13  -8  120.49   13.60
   4 -13   9   21.64    6.73
  -4 -13  -9   16.38    5.63
   4 -13  -9   20.24    6.50
  -4 -13  -9   19.01    6.06
  -4  13  -9   24.34    6.09
  -4 -13   9   24.11    7.32
   4 -13  10    4.11    4.13
  -4 -13 -10    2.07    3.12
   4 -13 -10    0.11    3.42
  -4 -13 -10    5.84    4.29
  -4  13 -10   -2.31    3.99
   4 -13  11    2.11    3.85
  -4 -13 -11   10.80    4.67
  -4 -13 -11    3.32    3.77
  -4  13 -11   -3.50    3.95
  -4 -13 -12  121.52   12.46
  -4  13 -12  124.78   12.84
   4 -13  12  124.09   13.47
  -4 -13 -12  115.37   12.47
  -4  13 -13   16.40    5.02
  -4  13 -14    2.51    3.70
   4 -14   0  143.32   13.61
  -4 -14   0  147.50   14.52
  -4 -14   1   23.15    6.57
  -4 -14  -1   31.55    7.64
   4 -14   1   33.62    7.04
   4 -14  -1   29.07    6.66
  -4 -14   2    3.38    4.17
  -4 -14  -2   -0.36    3.74
   4 -14   2    5.73    4.36
   4 -14  -2    2.84    3.59
  -4 -14  -3   17.53    5.92
   4 -14  -3   20.47    5.52
  -4 -14  -4    9.87    5.09
   4 -14  -4   16.33    5.48
  -4 -14  -5   -2.57    3.70
   4 -14  -5   -2.79    4.25
  -4 -14  -6   73.32   10.58
   4 -14  -6   70.32   10.30
  -4 -14  -7   30.01    7.01
  -4 -14  -8   15.52    5.66
  -4 -14  -9    6.65    4.41
   5   0   0    0.61    2.47
  -5   0   0   -0.30    0.83
  -5   0   0   -0.98    2.70
   5   0  -1    5.22    3.76
   5   0   1    7.20    3.86
  -5   0  -1    2.90    0.91
  -5   0  -1   -0.21    2.60
  -5   0   1   -0.58    2.83
   5   0  -2 1213.63   24.16
   5   0   2 1250.03   25.58
   5   0  -2 1195.33   18.85
  -5   0  -2 1098.10   10.02
  -5   0  -2 1209.78   23.87
   5   0  -3   11.95    5.11
   5   0  -3   14.44    5.03
  -5   0  -3    6.25    3.49
   5   0  -3    1.24    1.88
  -5   0   3    9.42    4.76
   5   0  -4 1760.99   28.29
   5   0   4 1839.35   31.66
   5   0  -4 1748.08   20.87
   5   0  -4 1764.74   31.33
  -5   0  -4 1744.02   29.30
  -5   0   4 1781.30   31.52
  -5   0   5    5.30    4.14
   5   0  -5    9.09    3.71
   5   0  -5    4.21    2.78
   5   0   5   17.10    5.57
  -5   0  -5    3.90    2.87
   5   0  -6 1469.16   29.25
   5   0  -6 1453.54   24.93
   5   0   6 1420.49   28.65
   5   0   6 1369.83   10.86
  -5   0  -6 1479.16   27.54
  -5   0   6 1494.47   29.64
  -5   0  -7    0.47    2.44
  -5   0   7    4.19    3.83
   5   0  -7    0.98    1.79
   5   0   7    7.86    4.37
   5   0  -7    1.90    2.58
  -5   0  -7    0.24    0.25
   5   0   7    2.12    0.82
   5   0   8  332.38   14.33
  -5   0  -8  333.33   13.56
   5   0   8  332.61    7.82
   5   0  -8  330.33   14.37
  -5   0   8  360.57   15.47
  -5   0   9   -0.71    3.74
  -5   0  -9    1.20    2.67
   5   0   9    1.15    3.12
   5   0  -9   -1.44    2.56
   5   0   9   -0.66    1.05
   5   0  10  161.67   10.15
  -5   0 -10  153.74    9.97
   5   0  10  154.60    6.55
   5   0  10  140.49    3.35
   5   0 -10  148.10    9.93
  -5   0  10  162.08   10.91
   5   0  11   -0.99    1.73
  -5   0  11   -1.00    3.94
   5   0  11    2.61    3.16
   5   0  11    0.41    0.60
   5   0 -11   -0.84    2.83
  -5   0 -11   -4.71    3.24
   5   0  12  664.01   20.82
   5   0  12  658.30   15.27
  -5   0 -12  678.26   21.44
   5   0  12  621.40   10.81
  -5   0  12  685.54   22.95
  -5   0  13    2.64    4.80
   5   0  13    6.54    3.95
   5   0  13   -1.63    1.19
  -5   0  13   -0.32    0.74
  -5   0 -13   -1.20    2.88
   5   0  14  176.02   11.26
  -5   0 -14  166.44   11.64
  -5   0  14  163.45   12.01
  -5   0  15   -2.64    4.06
   5   0  15    4.09    3.65
  -5   0 -15   -0.14    3.30
  -5   0  16  883.25   28.19
   5   0  16  792.28   23.88
  -5   0 -16  822.23   25.93
  -5   0  17    5.63    4.79
  -5   0 -17   -1.26    2.97
  -5   0  18   64.88    8.54
  -5   0 -18   64.02    8.24
  -5   0  19   -0.65    3.81
  -5   0 -19    2.37    3.30
  -5   0  20  151.61   13.16
  -5   0 -20  165.83   13.20
  -5   0  21    0.67    4.10
  -5   0 -21   -0.30    2.99
  -5   0  22   44.86    7.66
  -5   0 -22   45.27    7.83
  -5   0  23    4.96    5.91
  -5   0 -23    4.99    5.42
  -5   0  24  513.15   25.85
  -5   0 -24  524.06   25.67
  -5   0  25   10.33    6.77
   5   0  25    3.27    5.32
  -5   0 -25   17.36    7.32
  -5   0  26  195.46   16.97
   5   0  26  163.86   13.89
  -5   0 -26  199.62   16.76
   5   0  27   -0.39    3.64
   5   0  28   96.69   11.25
   5  -1   0    2.46    2.36
   5   1   0   -2.13    2.24
  -5   1   0   -0.81    1.02
   5   1   0   -1.38    2.54
  -5   1   0   -1.26    3.17
  -5  -1   0    1.09    2.11
   5  -1   1  140.10    8.64
   5   1  -1  115.72    7.81
   5   1   1  123.79    8.23
  -5   1   1  122.46    5.66
   5   1  -1  120.17    8.27
  -5  -1  -1  121.28    3.86
  -5   1  -1  126.42    4.82
   5   1  -1  119.45    6.83
  -5   1  -1  122.61    8.46
  -5  -1  -1  126.60    7.64
  -5   1   1  125.16    3.79
  -5   1   1  138.76    8.92
  -5  -1   1  133.82    7.97
  -5   1  -2    0.51    0.73
   5   1  -2    2.32    2.28
   5   1  -2   -1.73    2.53
   5   1   2   -4.61    3.44
   5   1  -2   -0.99    1.90
  -5   1   2    1.49    1.27
   5  -1   2    0.98    2.73
  -5  -1  -2   -0.16    2.24
  -5   1  -2    2.30    2.91
  -5  -1  -2    6.00    0.77
  -5  -1   2   -1.75    3.11
   5   1  -3   37.16    4.02
   5   1  -3   28.49    4.55
   5  -1   3   32.65    4.82
   5   1  -3   28.16    3.96
   5   1   3   28.95    4.34
  -5  -1  -3   31.41    3.93
  -5   1  -3   24.81    4.20
  -5   1   3   34.77    3.54
  -5  -1   3   35.43    5.06
  -5  -1   4    8.82    3.40
   5   1  -4   12.17    2.78
   5  -1   4    9.56    2.96
   5   1  -4    7.23    2.67
   5   1  -4    6.35    2.17
   5   1   4    9.64    2.85
  -5   1  -4    7.61    1.01
   5  -1  -4    7.76    1.46
  -5  -1  -4   11.68    3.03
  -5   1  -4   16.16    3.84
  -5   1   4    7.23    3.71
  -5  -1   5   25.88    4.68
   5  -1   5   24.54    4.53
   5  -1  -5   23.72    2.14
   5   1  -5   16.02    3.33
   5   1   5   22.42    4.38
   5   1  -5   20.16    4.15
  -5  -1  -5   24.16    3.92
   5  -1  -5   22.18    4.14
  -5   1  -5   24.66    4.44
  -5   1   5   24.84    4.66
   5  -1   6  474.45   16.55
   5   1  -6  481.46   14.46
   5   1   6  469.44   16.62
  -5   1   6  486.38   17.46
  -5  -1   6  503.23   17.35
   5  -1  -6  493.55   16.81
  -5  -1  -6  465.14   14.84
  -5   1  -6  487.74   16.42
   5   1  -6  487.84   17.16
  -5   1   7   46.70    6.76
   5  -1   7   52.23    6.20
  -5  -1   7   50.58    6.49
   5  -1  -7   40.39    5.40
   5   1  -7   40.32    4.46
   5   1   7   39.69    5.50
   5   1  -7   37.79    5.32
   5   1   7   40.84    2.92
  -5  -1  -7   40.74    4.75
   5  -1   7   37.94    2.17
  -5   1  -7   38.87    5.48
  -5   1   8   31.11    5.51
   5  -1   8   29.68    4.93
  -5  -1   8   33.63    5.37
   5   1  -8   25.76    3.53
   5  -1  -8   33.67    5.18
   5   1   8   28.53    5.05
   5   1  -8   24.54    4.27
  -5  -1  -8   23.33    3.95
  -5   1  -8   28.13    4.69
   5   1   8   26.72    2.59
   5  -1   9   82.50    7.60
   5   1  -9   74.36    5.66
  -5  -1   9   73.48    7.51
   5   1   9   75.01    7.45
  -5  -1  -9   69.71    3.69
   5   1  -9   71.43    7.20
   5  -1   9   67.20    2.79
  -5  -1  -9   70.00    6.57
  -5  -1   9   78.19    4.47
   5   1   9   80.58    4.82
  -5   1  -9   70.54    6.79
   5  -1  -9   73.24    7.14
  -5   1   9   89.76    8.41
   5   1 -10  709.36   16.49
   5   1  10  701.44   21.17
  -5  -1 -10  665.20   11.52
  -5  -1 -10  713.69   20.25
  -5  -1  10  724.48   13.54
  -5   1 -10  692.05   21.47
   5   1  10  704.87   14.72
   5  -1 -10  708.34   21.29
  -5   1  10  738.74   22.72
  -5  -1  10  708.97   22.07
   5   1 -11   34.60    3.87
  -5  -1  11   33.76    3.12
  -5   1  11   35.62    6.11
  -5  -1  11   31.20    5.53
   5   1  11   33.11    5.55
   5  -1 -11   34.75    5.31
  -5  -1 -11   34.33    5.21
   5   1  11   33.51    2.18
  -5   1 -11   32.04    5.21
   5   1  11   34.70    3.72
  -5  -1  12  304.81   15.65
   5   1  12  306.84   14.62
   5   1  12  308.36   10.45
  -5  -1 -12  308.23   14.09
  -5   1 -12  309.69   14.92
   5   1  12  296.45    7.25
   5   1  12  302.24   11.05
   5  -1 -12  317.25   14.61
  -5   1  12  308.69   15.87
  -5  -1  12  302.03    8.90
  -5  -1  13  482.78   19.76
   5   1  13  472.12   18.09
  -5  -1  13  456.31   11.22
  -5  -1 -13  460.02   17.79
  -5   1 -13  472.44   18.88
   5   1  13  456.05   14.30
   5   1  13  453.08   10.00
  -5   1  13  488.86   20.04
  -5  -1  14  202.60   13.19
   5   1  14  200.95   12.06
  -5   1 -14  195.54   12.47
   5   1  14  204.81   10.09
  -5  -1 -14  196.07   11.99
  -5   1  14  195.64   13.14
   5   1  15    7.12    2.54
  -5   1  15   10.57    5.77
  -5  -1  15    7.10    4.28
   5   1  15    9.66    3.97
  -5   1 -15   12.69    4.72
  -5  -1 -15    6.73    2.98
  -5  -1  16  289.21   16.38
   5   1  16  307.08   15.07
  -5  -1 -16  306.90   15.67
  -5   1 -16  277.17   15.84
   5   1  16  292.73   13.10
  -5   1  16  325.54   17.30
   5   1  17   36.36    5.06
  -5   1  17   37.52    6.97
  -5  -1  17   28.32    5.89
  -5  -1 -17   31.79    5.93
   5   1  17   36.25    5.77
  -5   1 -17   38.97    6.60
   5   1  18   21.51    4.06
  -5   1  18   35.12    6.86
  -5  -1  18   39.02    7.13
   5   1  18   27.73    4.99
  -5  -1 -18   34.56    5.81
  -5   1 -18   30.31    6.15
   5   1  19   25.59    4.70
  -5   1  19   19.28    5.74
  -5  -1  19   26.92    6.43
   5   1  19   26.66    5.28
  -5  -1 -19   27.81    5.87
  -5   1 -19   31.12    6.35
  -5  -1  20  165.63   13.89
   5   1  20  161.86   11.39
  -5  -1 -20  157.73   12.75
  -5   1 -20  162.91   13.42
   5   1  20  158.17   11.28
  -5   1  20  166.15   13.80
  -5   1  21   72.19    9.75
  -5  -1  21   70.23    9.60
  -5   1 -21   87.97   10.42
  -5  -1 -21   75.91    9.68
   5   1  21   79.98    8.46
   5   1  22    1.49    2.86
  -5   1  22    5.13    4.39
  -5  -1  22    5.57    5.02
  -5  -1 -22    7.82    4.90
  -5   1 -22    1.98    3.41
  -5   1  23  137.99   13.40
  -5  -1  23  161.94   15.05
  -5  -1 -23  162.34   14.24
  -5   1 -23  160.66   14.50
   5   1  23  155.85   12.46
  -5   1  24  236.14   17.86
  -5  -1  24  251.72   18.41
   5   1  24  240.85   15.67
  -5  -1 -24  261.62   17.93
  -5   1 -24  245.98   18.07
   5   1  24  243.63   15.81
   5   1  25   12.69    4.73
  -5   1  25   12.02    6.14
  -5  -1  25    6.88    5.75
   5   1  25   10.76    3.67
  -5  -1 -25   10.75    4.70
  -5   1 -25    7.38    5.62
  -5   1 -26   57.99    9.70
  -5   1  26   53.64    9.85
  -5  -1  26   55.48    9.45
   5  -1  26   37.92    7.54
   5  -1  27   30.29    6.95
   5  -1  28    2.79    4.03
   5   2   0   -0.63    2.48
   5   2   0    2.83    2.70
  -5   2   0   -2.13    1.32
  -5  -2   0    3.31    2.90
  -5   2   0   -0.58    1.01
  -5   2   0   -4.19    3.48
  -5  -2   0   -2.48    2.30
   5   2  -1  109.52    7.16
  -5   2  -1   98.67    4.95
  -5  -2  -1   98.23    7.53
  -5  -2   1  107.37    8.09
  -5   2  -1  104.88    5.00
   5   2   1  102.12    7.44
  -5   2   1  102.37    5.73
  -5   2   1  107.79    8.24
  -5  -2  -1  107.99    4.79
  -5   2   1   95.74    3.85
  -5   2   1  103.48    5.66
   5   2  -1  107.51    7.73
   5   2   1  102.45    7.20
  -5   2  -1   99.14    7.87
  -5  -2  -1  101.47    6.56
  -5  -2   1   98.44    6.70
  -5  -2   1   93.89    6.88
   5   2  -2  115.97    7.32
  -5   2  -2  127.64    5.00
  -5  -2  -2  130.11    8.74
  -5  -2   2  126.71    9.00
  -5   2   2  114.12    6.44
   5   2  -2  125.89    8.67
  -5   2  -2  118.30    5.19
   5   2   2  126.32    8.31
   5   2   2  113.31    7.78
  -5  -2  -2  115.06    4.85
  -5   2   2  122.05    4.91
  -5   2   2  119.44    6.49
  -5  -2  -2  107.89    6.68
  -5   2  -2  112.29    8.13
  -5   2   2  124.29    9.14
  -5  -2   2  122.80    8.13
  -5   2  -3 1137.86   12.99
  -5  -2  -3 1194.65   24.45
  -5  -2   3 1223.97   26.21
   5   2  -3 1145.45   21.25
  -5  -2  -3 1115.03   10.96
   5   2  -3 1147.94   25.41
  -5  -2  -3 1191.41   15.24
  -5   2   3 1159.58   16.64
  -5  -2  -3 1155.76   21.21
  -5   2  -3 1165.17   25.66
  -5  -2   3 1147.33   24.49
  -5  -2  -4  824.51   20.04
  -5  -2   4  899.12   22.88
  -5  -2  -4  840.29   18.26
  -5   2  -4  812.70   21.58
  -5  -2  -4  838.95   13.15
  -5   2   4  813.08   15.12
   5   2  -4  862.46   22.33
   5  -2   4  823.53   12.16
  -5  -2   4  811.96   20.81
   5   2  -5  807.96   19.36
  -5  -2  -5  820.09   19.69
  -5  -2   5  843.07   22.69
  -5  -2  -5  810.40   18.28
  -5   2  -5  824.47   22.01
   5  -2  -5  775.93    9.86
  -5   2   5  826.98   16.37
   5  -2   5  815.97   11.66
   5   2  -5  823.92   22.25
  -5   2   5  868.70   23.03
  -5  -2   5  856.98   21.82
   5   2  -6  760.86   18.51
   5   2   6  799.72   21.75
  -5  -2  -6  730.88   18.49
  -5  -2   6  780.83   21.73
  -5  -2  -6  739.10   18.10
  -5   2  -6  789.82   21.75
   5  -2   6  759.53   11.19
  -5   2   6  775.70   22.03
   5   2  -6  747.48   21.36
  -5  -2   6  772.18   21.24
   5   2  -7   96.30    6.70
   5   2   7   85.60    7.83
  -5  -2  -7   91.97    6.73
  -5  -2   7   92.97    8.29
   5   2   7   92.22    5.20
   5  -2  -7   93.31    7.74
  -5  -2  -7   86.07    6.41
  -5  -2   7   88.58    5.67
  -5   2  -7   84.57    7.55
   5  -2   7   90.17    3.98
  -5   2   7   99.32    8.71
  -5  -2   7   87.01    7.94
   5   2  -7   97.15    8.24
  -5   2   8   12.89    4.93
   5  -2  -8    5.01    3.44
   5  -2   8    2.94    1.10
  -5  -2   8    2.82    3.47
   5   2  -8    1.43    1.58
   5   2   8    5.76    3.22
  -5  -2   8    8.47    4.03
  -5  -2  -8    6.86    2.80
  -5   2  -8    0.83    2.99
  -5  -2   8    2.06    1.50
   5   2   8    1.36    1.52
   5   2  -9  580.28   15.54
   5   2   9  599.64   19.57
  -5   2  -9  586.72   19.78
  -5  -2   9  580.32   19.23
   5  -2   9  570.15   10.76
  -5  -2  -9  581.23   17.09
   5   2   9  561.41   13.63
   5  -2  -9  569.76   18.76
  -5  -2   9  566.54   14.11
  -5   2   9  582.79   20.38
  -5  -2   9  584.76   19.92
  -5  -2  10  216.80   12.53
   5   2 -10  200.52    9.08
   5   2  10  211.33   11.96
  -5  -2 -10  205.47    7.85
  -5  -2  10  205.01   11.70
  -5  -2 -10  211.89   10.66
  -5   2 -10  202.49   12.05
   5   2  10  201.12    8.67
   5  -2 -10  200.48   11.19
  -5   2  10  205.00   12.37
  -5  -2  10  209.47    8.67
  -5   2  11   60.40    7.37
  -5  -2  11   65.00    5.09
   5   2 -11   60.01    5.04
  -5  -2  11   62.90    7.60
   5   2  11   63.66    6.77
   5  -2 -11   64.15    6.67
  -5  -2  11   67.83    7.16
  -5  -2 -11   56.11    4.24
   5   2  11   57.19    3.21
  -5  -2 -11   59.92    5.95
   5   2  11   55.25    4.93
  -5   2 -11   56.06    6.66
  -5  -2  12  190.87   12.79
   5   2 -12  185.67    8.41
   5   2  12  188.64   11.69
  -5  -2  12  195.39    8.65
  -5  -2  12  187.64   11.67
  -5  -2 -12  186.91    7.85
  -5   2 -12  186.93   12.27
  -5  -2 -12  190.32   10.76
   5   2  12  182.69    6.19
   5   2  12  186.06    9.19
   5  -2 -12  175.59   11.04
  -5   2  12  194.68   12.66
   5   2 -13  791.43   16.67
   5   2  13  772.92   23.10
  -5  -2  13  777.94   24.99
  -5  -2 -13  776.86   22.13
  -5   2 -13  787.27   25.15
   5   2  13  760.32   19.24
   5  -2 -13  771.84   22.62
  -5   2  13  794.28   25.37
   5   2 -14   61.44    4.60
  -5   2  14   62.23    7.91
  -5  -2  14   59.48    8.13
   5   2  14   59.49    6.95
   5  -2 -14   55.76    6.67
  -5  -2 -14   58.71    6.67
  -5   2 -14   59.02    7.61
   5   2  14   56.62    5.65
  -5  -2  15  250.08   15.18
   5   2  15  247.14   13.68
  -5  -2 -15  248.56   13.32
  -5   2 -15  235.94   14.41
   5   2  15  247.98   11.98
  -5   2  15  255.39   15.15
  -5  -2  16  194.83   14.11
   5   2  16  170.49   11.54
  -5  -2 -16  170.79   11.85
  -5   2 -16  183.26   13.30
   5   2  16  165.67   10.26
  -5   2  16  185.00   13.73
  -5  -2  17  260.94   16.52
   5   2  17  255.01   14.11
  -5  -2 -17  261.11   14.51
  -5   2 -17  259.53   15.98
   5   2  17  257.32   13.16
  -5   2  17  287.12   16.77
  -5  -2  18  231.53   15.91
   5   2  18  219.35   13.27
  -5  -2 -18  214.71   13.80
  -5   2 -18  211.62   14.64
   5   2  18  214.77   12.44
  -5   2  18  208.06   14.79
  -5   2  19   44.69    8.01
  -5  -2  19   56.59    9.07
   5   2  19   47.13    6.39
  -5   2 -19   36.50    7.15
  -5  -2 -19   46.05    7.01
   5   2  19   35.52    5.78
  -5  -2  20  273.64   17.59
   5   2  20  261.61   14.46
  -5  -2 -20  254.42   15.90
  -5   2 -20  251.23   16.77
   5   2  20  256.78   14.54
  -5   2  20  256.09   17.00
  -5   2  21   38.17    7.93
  -5  -2  21   39.88    8.07
   5   2  21   40.37    6.05
  -5  -2 -21   40.56    7.43
  -5   2 -21   35.58    7.00
   5   2  21   36.20    6.17
  -5   2  22   25.79    6.52
  -5  -2  22   31.34    7.31
   5   2  22   30.87    5.37
   5   2  22   29.36    5.68
  -5  -2 -22   25.28    5.85
  -5   2 -22   25.79    6.46
   5   2  22   29.21    5.44
  -5   2  23   32.97    7.48
  -5  -2  23   38.42    7.77
   5   2  23   32.28    5.56
  -5   2 -23   32.43    7.01
  -5  -2 -23   44.16    7.93
   5   2  23   41.00    6.72
  -5   2  24   23.84    6.04
  -5  -2  24   43.77    8.90
  -5   2 -24   29.15    6.97
   5   2  24   33.96    6.52
  -5   2  25    3.87    3.74
  -5  -2  25   12.98    5.77
  -5   2 -25    8.15    5.59
   5   2  25   -2.78    3.70
  -5   2  26   44.58    9.11
   5  -2  26   20.30    6.10
   5  -2  27  182.26   15.87
  -5   3   0   -0.43    1.12
   5   3   0    2.14    2.54
  -5   3   0    0.84    1.09
  -5  -3   0   -1.80    2.45
  -5  -3   0    0.44    1.57
  -5   3   0   -4.41    3.67
   5   3   0    1.00    2.78
  -5  -3   0   -0.30    1.70
  -5  -3   0   -1.68    2.40
  -5   3   1   12.82    4.50
   5   3   1   10.56    3.36
   5   3  -1   14.90    3.63
   5   3   1    5.53    2.81
  -5   3   1   11.13    2.12
  -5  -3  -1   12.01    3.60
  -5  -3   1   13.56    3.98
   5  -3   1   10.11    2.06
   5   3  -1   19.77    4.29
  -5   3   1   13.30    2.10
  -5  -3  -1   10.87    2.03
  -5  -3   1   15.34    2.99
  -5  -3  -1    9.27    2.17
  -5   3  -1   12.53    3.87
  -5  -3   1   12.53    3.39
  -5   3  -1   12.63    2.37
  -5  -3  -2  304.47   12.83
  -5  -3   2  305.54   13.48
   5   3  -2  305.53   12.41
  -5   3   2  299.59    8.66
  -5  -3  -2  301.74    9.43
  -5  -3  -2  301.20   10.28
   5   3   2  306.57   12.53
  -5   3  -2  291.08   13.50
  -5   3   2  316.97   14.18
   5  -3   2  307.65    9.66
   5   3   2  300.95   12.91
   5   3  -2  315.17   13.42
  -5  -3   2  303.54   12.09
  -5  -3  -3    6.42    1.40
  -5  -3   3    2.54    2.57
   5   3   3    6.37    2.90
   5  -3   3    6.05    1.84
   5   3  -3    1.67    2.51
  -5  -3  -3    6.43    2.88
  -5  -3   3    9.80    3.67
  -5  -3  -3    4.12    2.05
   5   3   3    3.46    2.68
  -5   3  -3    4.90    3.16
  -5   3   3    6.99    1.74
  -5  -3  -3    6.93    1.69
   5  -3   3    4.41    0.92
  -5  -3   4    2.77    2.68
   5   3   4    3.64    3.05
  -5  -3  -4    1.16    0.86
   5  -3   4   -0.03    1.29
  -5  -3  -4    0.31    2.57
  -5  -3   4    5.43    3.53
   5   3  -4    0.47    2.59
   5   3   4    0.81    3.11
  -5  -3  -4    1.82    1.68
  -5   3  -4    0.69    3.43
   5  -3   4    0.86    0.68
  -5   3   4   -0.65    1.37
  -5  -3  -4    0.07    1.10
  -5  -3  -5  418.57   14.74
  -5  -3   5  447.72   16.68
   5   3   5  422.40   16.29
   5  -3   5  423.85    8.19
   5   3   5  415.43   14.30
  -5  -3  -5  430.19   12.66
  -5   3  -5  452.44   16.90
  -5   3   5  421.35   12.32
   5  -3   5  436.25   10.78
  -5  -3  -5  437.88   11.53
  -5  -3  -5  412.86    8.16
  -5  -3   5  435.42   15.82
  -5  -3   6   55.80    6.39
  -5  -3  -6   60.10    5.98
  -5  -3   6   59.27    6.83
   5  -3   6   60.16    3.44
   5   3   6   61.75    5.92
  -5  -3  -6   56.37    4.92
   5  -3   6   55.96    3.96
  -5   3   6   63.38    5.25
  -5   3  -6   66.10    7.08
  -5  -3  -6   52.31    2.92
  -5  -3  -7  294.15   11.92
  -5  -3   7  306.25   13.95
  -5   3   7  307.94   14.47
   5   3   7  289.69   10.21
  -5  -3  -7  287.88   10.96
   5  -3   7  287.92    8.90
  -5   3  -7  310.99   14.33
  -5   3   7  287.27   11.34
  -5  -3   7  279.74   13.35
  -5   3   8   17.75    3.33
   5  -3   8   17.70    2.49
  -5  -3   8   15.01    4.61
  -5  -3  -8   20.40    3.57
  -5  -3   8   24.78    5.53
   5  -3  -8   19.08    4.09
  -5  -3  -8   18.93    3.22
  -5   3  -8   14.43    3.71
   5   3   8   23.06    3.32
  -5   3   8   20.29    4.81
  -5   3   9   27.24    4.10
   5  -3  -9   31.34    5.05
  -5  -3   9   24.82    4.86
  -5  -3  -9   30.95    4.15
  -5  -3   9   35.50    5.65
  -5  -3  -9   29.02    3.89
  -5   3  -9   28.68    5.33
   5   3   9   31.49    3.90
   5  -3   9   28.85    3.08
  -5   3   9   25.60    5.02
  -5   3  10    8.16    3.99
  -5  -3  10    1.83    4.41
   5  -3 -10   20.20    4.17
  -5  -3 -10   14.47    2.87
  -5  -3  10   11.19    3.78
   5  -3  10   15.42    2.62
  -5   3 -10   12.44    3.54
  -5  -3 -10   14.27    3.28
   5   3  10   11.63    2.62
  -5  -3  11    1.26    4.24
   5  -3 -11    2.82    2.77
  -5  -3 -11    3.09    1.61
  -5  -3 -11    6.96    2.26
  -5  -3  11    6.05    3.28
   5   3  11    2.13    0.95
  -5  -3 -11    2.00    1.92
  -5   3 -11    3.70    3.65
   5   3  11    1.73    2.02
  -5   3  11    1.20    3.66
  -5   3  12    0.72    3.39
  -5  -3  12    4.63    3.40
   5   3 -12    1.93    1.42
   5  -3 -12    8.42    3.45
  -5  -3 -12    6.50    2.25
  -5  -3 -12    4.75    2.25
  -5  -3  12    2.46    2.82
  -5  -3 -12    5.01    2.54
  -5   3 -12    2.49    2.96
   5   3  12    3.02    2.31
   5   3  12    3.39    1.31
  -5  -3  13  250.81   14.90
   5   3 -13  226.39    9.52
   5   3  13  223.46   12.71
  -5  -3  13  237.23   13.34
  -5  -3 -13  227.03   10.07
   5   3  13  238.90   11.41
  -5  -3 -13  241.30   12.22
  -5   3 -13  223.85   14.07
   5  -3 -13  239.93   12.64
  -5   3  13  246.84   14.22
  -5   3  14   -1.69    3.69
  -5  -3  14    9.04    5.37
   5   3 -14   -0.59    1.45
   5   3  14   -0.10    3.62
  -5  -3  14   -1.06    2.79
   5  -3 -14   -2.40    3.21
  -5  -3 -14    1.91    1.72
  -5  -3 -14    0.15    2.17
   5   3  14    2.68    2.36
  -5   3 -14    1.90    3.13
  -5  -3  15  259.86   15.73
   5   3 -15  259.10    9.45
   5   3  15  253.16   13.95
  -5  -3  15  254.57   14.05
  -5  -3 -15  242.00   12.96
  -5   3 -15  264.66   15.82
   5   3  15  261.44   12.81
  -5   3  15  269.21   15.43
   5  -3 -15  256.64   13.38
  -5   3  16   58.14    8.00
  -5  -3  16   60.56    8.84
   5   3  16   41.87    6.18
  -5  -3  16   35.82    5.75
  -5  -3 -16   49.25    6.21
  -5   3 -16   49.32    7.28
   5   3  16   42.30    5.57
  -5   3  17    3.46    4.11
  -5  -3  17    9.02    5.24
   5   3  17    9.05    3.59
  -5  -3  17    4.91    2.90
  -5  -3 -17    4.80    2.84
  -5   3 -17    4.91    3.66
   5   3  17    1.57    2.32
  -5   3  18    1.13    3.50
  -5  -3  18    6.57    4.84
   5   3  18    4.05    2.87
  -5  -3 -18   -0.02    2.62
  -5   3 -18    3.27    3.24
   5   3  18    5.72    3.19
  -5   3  19   54.09    8.13
  -5  -3  19   53.01    8.56
   5   3  19   44.33    6.43
  -5  -3 -19   40.68    6.55
  -5   3 -19   43.27    7.56
   5   3  19   41.47    6.01
  -5   3  20   28.66    6.16
  -5  -3  20   36.77    7.96
   5   3  20   25.21    5.00
  -5  -3 -20   22.91    5.28
  -5   3 -20   19.97    5.59
   5   3  20   29.12    5.75
  -5   3  21   13.28    5.33
  -5  -3  21   24.23    6.75
   5   3  21   17.25    4.21
  -5  -3 -21   14.68    4.69
  -5   3 -21   20.96    6.53
   5   3  21   13.81    4.27
  -5   3  22   11.84    4.77
   5   3  22   14.07    4.18
  -5   3 -22    6.14    4.02
   5   3  22    5.27    3.41
  -5   3  23   41.31    7.89
  -5  -3  23   38.31    8.62
  -5   3 -23   40.31    8.13
   5   3  23   35.66    6.24
  -5  -3  24  144.02   14.40
  -5   3 -24  158.30   14.95
   5   3  24  139.60   12.32
  -5   3  24  134.03   13.49
  -5   3  25   13.16    5.54
  -5  -3  25   22.39    6.99
  -5   3 -25   17.97    7.10
   5   3  25   19.20    5.43
  -5   3  26   -3.56    4.32
   5   4   0    4.11    3.77
   5   4   0   -0.09    2.49
   5  -4   0    1.79    2.03
  -5  -4   0    3.62    3.08
  -5   4   0    2.70    3.72
  -5  -4   0   -1.25    1.65
  -5  -4   0   -0.49    2.25
   5   4   1  332.12   14.37
  -5  -4   1  331.10   14.26
  -5  -4  -1  328.51   13.86
   5  -4   1  336.06    9.34
  -5  -4  -1  331.95   10.21
  -5   4  -1  337.53   14.91
  -5   4   1  325.00   14.80
  -5  -4   1  332.44   10.63
   5  -4   1  350.24   11.86
   5  -4  -1  340.08   12.19
   5   4   1  344.16   13.52
  -5  -4   1  309.26   12.05
   5   4  -1  341.12   14.00
  -5  -4   2    7.80    2.77
   5  -4   2    5.79    2.62
   5   4   2    7.21    2.88
  -5  -4   2    7.70    3.35
  -5  -4  -2    6.47    3.11
   5   4   2    7.64    3.92
  -5   4   2    7.37    2.27
  -5  -4  -2    5.38    1.86
  -5   4  -2    2.32    3.18
  -5   4   2    7.41    3.79
  -5  -4  -2    9.77    2.24
   5  -4   2    6.11    1.47
  -5  -4  -3    6.90    1.87
  -5  -4   3    6.66    2.96
   5  -4   3    8.39    2.45
   5   4   3    8.25    2.84
   5   4   3    5.85    3.36
  -5  -4   3    3.75    2.92
  -5  -4  -3    8.68    2.93
  -5  -4  -3    7.74    1.99
  -5   4  -3    6.88    3.46
  -5   4   3    6.00    1.97
  -5   4   3   12.36    4.77
   5  -4   3    7.41    1.48
  -5  -4   4   96.05    8.14
  -5  -4  -4   86.36    7.19
  -5   4   4   90.38    5.96
  -5  -4  -4   91.48    5.09
   5  -4   4   91.31    4.67
  -5  -4  -4   85.00    5.28
  -5   4  -4  103.10    8.85
   5  -4   4   89.77    5.90
   5   4   4   87.49    6.80
   5   4   4   82.66    7.74
  -5  -4   4   97.22    7.57
   5   4   4   92.03    5.84
  -5  -4   5   42.23    5.53
   5   4   5   43.80    5.03
  -5  -4   5   48.40    6.72
  -5  -4  -5   38.71    5.33
   5  -4   5   43.65    3.36
  -5  -4  -5   37.20    3.67
   5  -4   5   40.58    4.06
  -5  -4  -5   39.51    3.45
  -5   4  -5   50.26    6.72
  -5   4   5   39.86    4.49
   5   4   5   30.85    5.26
   5   4   5   40.24    3.89
  -5  -4   6  527.88   19.06
  -5  -4  -6  539.19   17.06
   5  -4   6  521.02   11.75
  -5   4  -6  526.57   19.41
  -5   4   6  500.69   15.14
   5   4   6  530.48   19.32
   5   4   6  540.36   16.04
  -5  -4  -6  511.92   11.44
  -5  -4  -6  518.41   13.28
   5  -4   6  517.18   13.74
   5   4   6  520.22   13.56
  -5  -4   6  507.68   17.35
  -5  -4   7  522.68   18.01
  -5  -4  -7  546.55   16.92
  -5  -4   7  563.84   19.81
  -5  -4  -7  534.79   14.01
   5  -4   7  548.11   14.18
  -5   4  -7  566.90   20.17
   5   4   7  564.75   20.18
  -5   4   7  551.47   16.44
   5   4   7  564.57   16.06
   5   4   7  557.07   14.33
  -5  -4  -7  537.06   11.83
   5   4   7  546.95   13.79
  -5  -4   8  154.92   10.21
  -5  -4  -8  151.34    9.10
  -5  -4   8  159.82   10.94
  -5  -4  -8  164.67    8.03
   5  -4   8  150.64    7.70
   5   4   8  162.67    8.86
  -5   4  -8  153.05   11.05
   5   4   8  138.10   10.29
   5   4   8  149.89    8.34
  -5   4   8  164.84    9.38
   5   4   8  152.69    7.50
  -5  -4   9   50.12    6.31
  -5  -4  -9   52.53    5.38
   5   4   9   41.80    6.10
  -5  -4   9   58.02    6.80
  -5  -4  -9   54.89    4.93
   5  -4   9   52.91    4.88
   5   4   9   63.78    5.92
   5   4   9   55.84    5.13
  -5   4   9   56.07    6.13
  -5   4  -9   47.85    6.51
   5   4   9   56.32    4.61
  -5   4   9   54.27    6.86
   5  -4 -10    2.38    2.81
   5   4  10   -0.09    1.60
  -5  -4  10    0.48    3.11
  -5  -4 -10   -0.53    1.74
  -5  -4 -10   -0.14    1.75
  -5  -4  10   -2.82    3.27
   5   4  10   -7.15    5.27
  -5   4 -10   -4.51    4.44
   5   4  10   -0.88    2.44
   5  -4  10   -0.22    1.67
  -5   4  10   -4.31    3.73
  -5   4  10   -2.18    2.69
   5   4  11    6.89    2.66
   5  -4 -11    2.61    2.45
  -5  -4  11    6.20    4.14
  -5  -4 -11    3.51    2.23
  -5  -4 -11    3.74    2.07
  -5  -4  11    3.02    2.81
  -5  -4 -11    4.48    2.39
  -5   4 -11    6.74    3.91
   5   4  11    3.53    2.64
  -5   4  11    3.67    4.06
  -5   4  11    0.18    2.46
   5   4  12  217.30    9.65
  -5  -4  12  213.34   13.46
  -5  -4 -12  210.41   10.53
  -5  -4 -12  215.44   10.22
  -5  -4  12  226.31   13.32
  -5   4 -12  223.08   14.05
   5   4  12  205.40   11.06
  -5   4  12  214.55   12.43
  -5  -4 -12  226.31   10.90
   5  -4 -12  224.91   12.24
  -5   4  12  233.21   13.82
  -5   4  13   19.47    4.28
  -5   4  13   22.87    5.67
  -5  -4  13   20.56    5.32
   5  -4 -13   15.99    3.64
  -5  -4 -13   16.36    3.24
  -5  -4 -13   15.33    2.93
  -5  -4  13   20.08    4.58
  -5  -4 -13   16.71    3.36
   5   4  13   20.70    3.40
  -5   4 -13   19.66    4.79
   5   4  13   16.54    3.46
  -5   4  14   72.61    8.46
  -5  -4  14   90.41    9.34
  -5  -4 -14   86.60    6.81
  -5  -4 -14   85.85    7.62
  -5  -4  14   72.39    7.71
  -5  -4 -14   93.37    8.78
   5   4  14   80.84    7.96
  -5   4 -14   78.05    8.73
  -5   4  14   75.61    8.22
   5  -4 -14   67.81    7.05
  -5   4  15   20.20    5.15
  -5   4  15   29.67    6.06
  -5  -4  15   23.94    6.00
   5   4 -15   22.11    3.20
  -5  -4 -15   17.43    2.94
   5  -4 -15   24.45    4.76
  -5  -4  15   19.69    5.30
  -5  -4 -15   21.47    3.95
  -5  -4 -15   26.57    4.67
  -5   4 -15   25.91    5.82
   5   4  15   29.41    4.92
  -5  -4  16  331.34   18.23
   5   4  16  329.57   16.46
  -5  -4  16  316.55   16.29
  -5  -4 -16  312.15   13.63
  -5  -4 -16  310.87   14.83
  -5   4 -16  319.01   18.10
  -5   4  16  303.62   16.65
  -5   4  16  328.70   17.53
   5   4  16  321.67   15.36
  -5  -4  17  153.41   13.09
   5   4  17  155.23   11.87
  -5  -4  17  177.12   12.33
  -5  -4 -17  156.11   11.17
  -5   4 -17  164.30   13.24
   5   4  17  175.30   11.73
  -5   4  17  161.65   12.61
  -5   4  17  155.34   12.50
  -5   4  18   -0.36    3.35
  -5   4  18    4.49    4.04
  -5  -4  18    2.82    3.53
   5   4  18    2.82    2.67
  -5  -4  18    1.23    2.85
  -5  -4 -18    4.27    2.81
  -5   4 -18    1.92    3.63
   5   4  18    5.04    3.04
  -5   4  19   80.91    9.35
  -5   4  19   76.84    9.34
   5   4  19   77.90    8.45
  -5  -4  19   87.49   10.79
  -5  -4  19   79.34    8.52
  -5   4 -19   72.68    9.55
   5   4  19   84.79    8.73
  -5  -4 -19   69.05    7.69
  -5   4  20   28.58    6.06
  -5   4  20   24.56    6.08
  -5  -4  20   24.16    6.95
   5   4  20   23.49    4.88
  -5  -4  20   24.41    5.15
  -5   4 -20   18.73    5.97
   5   4  20   29.62    5.75
  -5   4  21   27.00    6.33
  -5   4  21   24.26    6.29
  -5  -4  21   20.32    6.40
   5   4  21   24.97    5.17
  -5   4 -21   23.82    6.67
   5   4  21   22.68    5.23
  -5   4  22    3.27    4.19
  -5   4  22    2.99    5.20
  -5  -4  22    9.23    6.08
   5   4  22   11.23    4.36
  -5   4 -22    6.12    5.37
   5   4  22    6.72    3.93
  -5  -4  23  495.95   26.08
  -5   4 -23  551.63   27.26
   5   4  23  544.70   24.09
  -5   4  23  529.88   26.59
  -5   4  23  532.06   25.40
  -5   4  24    0.88    3.99
  -5   4  24    9.96    6.56
  -5  -4  24   11.49    6.58
  -5   4 -24    7.73    6.21
   5   4  24    7.37    4.12
  -5   4  25    4.80    4.00
  -5   4  25    6.31    4.61
   5   4  25   14.56    5.23
  -5   4  26   34.11    7.88
   5   4  26   23.14    5.89
  -5   4  27   -0.18    4.34
   5  -5   0    0.28    2.03
  -5  -5   0    3.47    3.82
  -5  -5   0   -0.27    1.57
  -5  -5   0   -0.03    2.13
   5  -5   0   -0.66    1.48
   5   5   1  544.30   19.38
  -5  -5   1  548.02   19.08
  -5  -5  -1  533.97   18.51
   5  -5   1  539.28   13.51
  -5  -5  -1  529.00   11.51
  -5   5  -1  510.53   19.06
  -5   5   1  508.63   19.05
   5  -5   1  531.47   16.01
  -5  -5   1  514.21   12.24
   5  -5  -1  541.38   16.71
  -5  -5  -1  524.69   14.46
  -5  -5   1  527.54   15.50
   5   5   2  271.36    9.81
   5   5   2  295.95   14.60
  -5  -5   2  288.14   14.25
  -5  -5  -2  277.90   13.37
  -5  -5  -2  276.36   10.51
  -5   5   2  288.19   10.92
  -5  -5  -2  267.83    8.10
   5  -5   2  282.23    9.72
  -5   5  -2  282.98   14.12
   5  -5   2  278.04   11.52
  -5   5   2  272.21   14.00
   5  -5  -2  287.49   12.38
  -5  -5   2  266.83   11.70
  -5  -5  -3   14.51    2.95
  -5  -5   3    6.10    3.10
   5   5   3   10.63    2.13
   5  -5   3   12.82    3.13
   5   5   3   17.46    5.16
  -5  -5   3   18.48    4.87
  -5  -5  -3    6.91    2.85
   5  -5  -3    6.66    2.32
  -5   5   3   11.67    2.78
  -5   5  -3   18.14    4.62
  -5  -5  -3   10.17    1.74
   5  -5   3   10.94    2.11
  -5   5   3   15.15    4.67
   5   5   4   40.02    3.67
  -5  -5   4   43.83    5.23
   5  -5   4   43.71    4.71
  -5  -5   4   34.27    5.53
  -5  -5  -4   36.32    5.04
   5   5   4   37.47    4.61
  -5  -5  -4   39.25    3.22
   5  -5   4   39.02    3.71
  -5  -5  -4   39.58    4.20
  -5   5  -4   41.49    6.06
  -5   5   4   40.02    4.59
   5   5   4   44.92    6.44
  -5   5   4   37.99    6.29
   5   5   5  103.05    9.35
   5   5   5  102.30    5.64
  -5  -5   5  107.37    8.89
  -5  -5  -5  114.07    8.50
   5  -5   5  101.78    6.91
  -5  -5  -5   95.01    5.08
   5  -5   5   91.42    5.63
  -5  -5  -5   94.59    5.93
  -5   5  -5  110.53    9.18
  -5   5   5  100.70    7.19
   5   5   5   98.74    7.17
  -5  -5   5  104.57    7.99
  -5  -5   6  334.01   14.27
   5   5   6  331.36    9.93
  -5  -5  -6  331.91   10.93
   5  -5   6  337.15   12.43
  -5  -5   6  339.94   15.60
  -5  -5  -6  314.69   13.75
  -5  -5  -6  333.44    9.60
   5  -5   6  329.71   10.82
  -5   5   6  332.33   13.09
  -5   5  -6  326.43   15.71
   5   5   6  338.60   12.64
   5   5   6  347.28   16.49
  -5  -5   7  248.50   12.98
   5  -5  -7  254.06    6.21
  -5  -5  -7  263.41    9.77
   5  -5   7  272.01    7.12
  -5  -5   7  268.46   14.22
  -5  -5  -7  272.98   12.53
  -5  -5  -7  266.95    8.97
   5  -5   7  269.26    9.97
  -5   5  -7  253.71   14.13
  -5   5   7  272.15   12.48
   5  -5   7  283.94   11.46
   5   5   7  269.44   14.69
   5   5   7  279.61   11.35
   5   5   7  257.95    8.73
  -5  -5   8  122.71    9.39
   5  -5   8  130.02    4.53
  -5  -5   8  119.93    9.70
  -5  -5  -8  126.58    8.69
  -5  -5  -8  129.53    6.60
   5  -5   8  125.59    7.79
  -5   5  -8  138.70   10.76
  -5   5   8  115.15    8.67
   5   5   8  124.90   10.49
  -5  -5  -8  126.02    6.82
   5   5   8  126.51    7.68
   5  -5   9   15.90    3.43
  -5  -5   9   29.02    5.54
   5  -5   9   15.18    1.45
   5   5   9   18.52    3.43
  -5  -5   9   18.21    4.84
  -5  -5  -9   15.53    3.48
  -5  -5  -9   11.64    2.23
  -5  -5  -9   14.08    2.56
  -5   5  -9   12.98    4.20
   5   5   9   20.83    4.28
   5   5   9    9.34    4.05
  -5   5   9   21.14    4.17
  -5  -5  10   14.26    4.75
   5   5  10   14.11    2.69
   5  -5  10   12.95    1.21
  -5  -5  10   16.18    4.54
  -5  -5 -10   11.03    2.64
  -5  -5 -10   12.48    2.57
   5   5  10   17.59    4.12
  -5   5 -10   12.85    3.81
   5   5  10    4.48    4.02
  -5   5  10   14.72    3.81
   5  -5  10   15.92    3.29
  -5  -5  11   96.33    9.37
  -5  -5  11   92.97    9.13
  -5  -5 -11   94.36    7.38
  -5  -5 -11   95.94    6.64
   5  -5  11   99.13    7.28
   5   5  11   87.59    8.94
  -5   5 -11   96.36    9.64
   5   5  11   92.26    7.90
   5  -5 -11   98.88    8.23
  -5   5  11   82.67    7.95
   5   5  11   99.69    6.42
  -5   5  11  100.60    9.39
  -5  -5  12  327.55   16.70
   5   5  12  332.06   17.62
  -5  -5 -12  334.52   14.28
  -5  -5 -12  326.85   13.20
  -5  -5  12  345.32   16.81
  -5  -5 -12  327.47   12.57
  -5   5 -12  329.34   17.33
   5   5  12  335.54   14.93
   5  -5 -12  332.45   14.81
  -5   5  12  316.76   15.61
   5   5  12  336.61   11.29
  -5   5  12  323.71   16.47
  -5  -5  13    1.56    4.17
   5  -5 -13   -0.38    2.28
   5   5  13    0.17    1.46
  -5  -5 -13    0.92    1.95
   5   5  13   -6.20    5.81
  -5  -5 -13    1.18    1.97
  -5  -5  13    4.65    3.83
  -5  -5 -13    3.73    2.34
  -5   5 -13    2.68    3.33
   5   5  13    0.68    2.38
  -5   5  13    1.68    2.91
  -5   5  13   -0.72    3.38
  -5  -5  14    2.98    3.55
   5  -5 -14    6.76    2.66
  -5  -5 -14    9.99    2.89
   5   5  14    6.10    3.75
  -5  -5 -14   11.78    2.82
  -5  -5  14    5.66    3.37
  -5  -5 -14   14.18    3.21
  -5   5 -14    9.80    3.60
   5   5  14    7.68    3.05
  -5   5  14    2.54    3.18
  -5   5  14    6.18    3.67
  -5  -5  15   12.18    4.96
   5  -5 -15   13.79    3.35
   5   5  15   11.21    4.15
  -5  -5 -15   16.10    2.98
  -5  -5 -15   19.15    4.01
  -5  -5  15   11.94    3.72
  -5  -5 -15   14.15    3.43
  -5   5 -15   19.19    5.58
   5   5  15    9.96    3.22
  -5   5  15   15.57    4.70
  -5   5  15   17.40    4.74
  -5   5  16   53.53    8.23
  -5  -5  16   56.21    8.29
  -5  -5 -16   64.38    6.76
  -5  -5  16   61.79    8.01
   5   5  16   48.92    7.69
  -5   5 -16   58.69    8.24
   5   5  16   57.15    7.05
   5  -5 -16   62.78    7.03
  -5   5  16   60.89    8.05
  -5   5  17    1.45    3.70
  -5  -5  17    9.15    5.50
  -5  -5  17    0.56    2.94
  -5  -5 -17   -1.46    2.31
   5   5  17    0.70    4.53
  -5   5 -17   -3.82    4.37
   5   5  17   -3.95    3.42
  -5   5  17   -1.00    3.77
  -5   5  18   19.88    5.31
  -5  -5  18   21.38    5.99
  -5  -5  18   16.49    4.50
  -5   5 -18    9.99    4.46
   5   5  18   17.33    4.14
  -5   5  18   15.37    4.53
  -5   5  19    8.55    4.45
  -5   5 -19    5.82    4.36
  -5  -5  19    4.59    4.72
   5   5  19    5.29    3.06
  -5  -5  19   16.24    4.49
   5   5  19   12.44    3.66
  -5   5  19   12.00    4.75
  -5   5  20   -0.80    3.86
  -5  -5  20    1.38    4.58
   5   5  20    0.22    2.45
  -5  -5  20   -1.11    2.44
  -5   5 -20    3.66    3.59
   5   5  20    5.60    3.91
  -5   5  20    0.04    3.09
  -5  -5  21  148.61   14.27
   5   5  21  129.05   11.21
  -5  -5  21  153.03   12.17
  -5   5 -21  122.87   12.94
   5   5  21  148.22   12.56
  -5   5  21  123.23   12.55
  -5   5  21  141.59   12.89
  -5   5  22   22.24    6.63
  -5  -5  22   29.35    7.55
   5   5  22   18.14    4.46
  -5   5 -22   22.30    6.76
   5   5  22   13.99    4.64
  -5   5  22   13.98    5.47
  -5   5  23   76.72   10.29
  -5  -5  23   70.81   10.56
  -5   5 -23   73.82   10.77
   5   5  23   73.17    9.41
  -5   5  23   60.10    9.39
   5   5  24  122.25   12.41
  -5   5  24  119.73   13.25
  -5   5  24  132.98   13.29
  -5   5  25    6.27    5.36
   5   5  25    2.65    3.81
  -5   5  26   17.70    5.64
   5   5  26   20.85    5.92
  -5   5  27    2.32    3.68
  -5  -6   0    1.01    2.06
   5  -6   0   -4.12    2.65
  -5  -6   0   -1.81    1.25
  -5   6   0   -1.24    4.60
   5  -6   1  684.79   17.39
  -5  -6   1  704.39   22.55
  -5  -6  -1  691.30   22.06
  -5  -6  -1  686.73   18.56
  -5  -6  -1  663.22   10.75
  -5   6  -1  699.91   22.57
  -5   6   1  679.31   22.37
   5  -6   1  698.79   19.94
  -5  -6   1  688.66   12.59
   5  -6  -1  671.24   20.20
  -5  -6  -1  704.81   16.43
  -5  -6   1  660.55   17.19
   5   6   2  324.90   10.42
   5  -6   2  328.42   11.72
  -5  -6   2  335.19   16.18
  -5  -6  -2  346.36   15.71
  -5  -6  -2  326.42   12.76
  -5  -6  -2  317.62    7.09
  -5   6  -2  384.13   16.92
   5  -6   2  332.67   13.72
  -5   6   2  326.68   15.87
  -5  -6   2  323.40    9.33
   5  -6  -2  322.68   14.37
  -5  -6   2  311.76   12.45
   5   6   3  427.16   11.42
   5   6   3  425.40   18.80
   5  -6   3  437.05   12.90
  -5  -6   3  432.59   18.17
  -5  -6  -3  434.55   17.27
   5  -6  -3  432.28   16.72
  -5  -6  -3  406.09    7.98
  -5   6   3  434.59   14.96
  -5  -6  -3  416.46   14.04
  -5   6  -3  443.21   18.69
   5  -6   3  422.20   15.52
  -5   6   3  413.52   17.90
  -5  -6   3  411.62   14.79
   5   6   4  155.91   11.86
   5  -6   4  136.03    6.99
  -5  -6   4  131.99   10.30
  -5  -6  -4  124.03    9.46
  -5   6   4  130.02    8.54
  -5  -6  -4  130.09    7.86
  -5  -6  -4  127.21    4.52
   5  -6   4  133.25    8.77
  -5   6  -4  140.21   10.76
  -5   6   4  117.83   10.09
   5  -6  -4  145.16    9.84
  -5  -6   4  125.87    8.40
  -5  -6   5  198.23   11.02
   5   6   5  212.88   13.72
   5  -6   5  206.20    8.29
  -5  -6   5  211.24   12.82
  -5  -6  -5  196.97   11.53
  -5  -6  -5  195.56    5.89
  -5  -6  -5  189.97    9.30
  -5   6  -5  209.45   13.05
   5  -6   5  204.08   10.65
  -5   6   5  188.85   12.76
  -5   6   5  215.81   11.13
   5  -6  -5  194.55   11.58
   5   6   6   33.04    6.89
  -5  -6  -6   24.57    2.35
  -5  -6   6   25.56    4.70
   5  -6   6   24.57    4.25
  -5  -6  -6   20.91    3.47
   5  -6   6   27.05    3.13
  -5  -6   6   22.98    5.33
  -5  -6  -6   24.72    4.70
  -5   6  -6   30.65    6.06
  -5   6   6   21.21    4.06
   5  -6   7   32.32    4.65
  -5  -6   7   23.13    4.26
   5  -6   7   34.53    3.29
  -5  -6  -7   28.48    3.90
  -5  -6   7   28.25    5.73
  -5  -6  -7   22.79    4.54
   5   6   7   31.61    6.55
  -5   6  -7   26.13    5.52
  -5   6   7   22.31    4.09
  -5  -6  -7   25.27    2.50
  -5  -6   8   64.06    7.17
   5  -6   8   61.72    4.08
  -5  -6  -8   63.48    6.64
   5   6   8   55.16    8.25
  -5  -6   8   63.65    7.75
  -5  -6  -8   59.84    4.02
   5  -6   8   54.73    5.94
  -5   6  -8   52.71    7.26
  -5  -6  -8   54.75    5.20
  -5   6   8   58.69    6.63
  -5  -6   9  357.57   16.42
   5  -6   9  373.85    9.48
  -5  -6   9  354.92   17.18
  -5  -6  -9  352.88   14.99
  -5  -6  -9  379.18   10.49
   5  -6   9  377.65   14.71
  -5   6  -9  350.11   17.54
  -5   6   9  375.49   16.31
  -5  -6  -9  349.74   12.84
   5   6   9  368.11   18.47
   5  -6  10    6.17    2.79
  -5  -6  10    3.11    3.45
   5   6  10   -1.01    4.71
  -5  -6  10    5.03    3.58
  -5  -6 -10    0.92    2.21
  -5  -6 -10    2.47    1.49
  -5  -6 -10    1.96    1.55
  -5   6 -10    5.20    3.25
   5   6  10    8.02    4.11
  -5   6  10    8.45    3.92
   5   6  11   50.10    7.85
  -5  -6  11   54.18    7.27
  -5  -6  11   53.19    7.45
  -5  -6 -11   52.88    5.79
  -5   6 -11   62.53    7.94
   5   6  11   59.74    7.00
  -5   6  11   58.96    7.33
   5  -6  11   49.65    5.70
  -5  -6  12  240.79   14.51
  -5  -6 -12  251.67   13.47
  -5   6  12  255.00   14.56
  -5  -6  12  253.82   14.94
  -5  -6 -12  236.37   11.90
   5  -6  12  253.67   12.67
  -5   6 -12  257.32   15.74
   5   6  12  256.85   14.22
   5  -6 -12  250.12   13.10
   5   6  12  227.54   15.35
  -5  -6  13   76.55    8.75
  -5  -6 -13   75.27    7.59
  -5  -6  13   89.43    9.18
  -5  -6 -13   79.77    7.06
   5  -6  13   84.40    7.49
   5   6  13   91.46    8.78
  -5   6 -13   73.39    9.12
  -5   6  13   80.73    8.68
   5  -6 -13   84.44    7.70
   5   6  13   79.43    9.53
  -5  -6  14   14.87    5.35
   5  -6 -14    5.41    2.73
  -5  -6 -14    4.57    2.44
  -5  -6  14   12.70    4.34
  -5  -6 -14   10.96    3.03
  -5   6 -14   13.26    4.86
   5   6  14   15.89    4.70
   5   6  14    6.16    4.66
  -5   6  14   16.84    5.47
  -5   6  14    9.73    4.04
  -5  -6  15  283.19   17.02
  -5  -6 -15  276.77   14.50
  -5  -6  15  272.55   15.96
  -5   6 -15  283.13   17.66
   5   6  15  264.80   15.12
  -5   6  15  284.90   16.50
   5   6  15  272.47   17.60
   5  -6 -15  286.42   13.87
  -5   6  15  288.00   16.26
   5   6  16    5.73    4.20
  -5  -6  16    4.21    3.63
   5  -6 -16    5.28    2.91
  -5  -6 -16    3.58    2.92
  -5  -6  16    6.02    3.37
  -5   6 -16    4.13    3.82
   5   6  16    8.49    3.84
  -5   6  16    3.86    4.06
  -5   6  16    3.63    3.86
  -5  -6  17    7.41    4.58
  -5  -6  17    5.99    3.80
  -5  -6 -17    9.72    3.53
  -5   6 -17   -1.99    3.50
   5   6  17    1.69    4.86
   5   6  17    4.70    2.96
  -5   6  17    6.80    4.16
  -5   6  17    2.51    3.90
   5   6  18   -3.67    4.72
  -5  -6  18    2.17    4.04
  -5  -6  18    3.59    2.94
  -5  -6 -18   -0.17    2.70
  -5   6 -18    1.79    3.39
   5   6  18   -1.71    3.66
  -5   6  18    7.68    3.71
  -5   6  18   10.10    4.27
  -5  -6  19   25.80    6.94
  -5  -6  19   25.62    5.94
   5   6  19   19.51    6.23
  -5   6 -19   17.71    5.75
   5   6  19   25.00    5.87
  -5   6  19   16.66    5.36
  -5   6  19   20.50    5.49
  -5  -6  20  321.90   20.24
   5   6  20  299.45   19.88
  -5  -6  20  308.26   17.54
  -5   6 -20  346.02   21.31
  -5   6  20  302.56   19.46
   5   6  20  326.51   18.73
  -5   6  20  316.47   18.61
  -5  -6  21   14.25    6.83
   5   6  21   -2.52    4.16
   5   6  21    7.99    4.30
  -5  -6  21    1.91    3.22
   5   6  21    2.50    3.82
  -5   6 -21    5.47    5.18
  -5   6  21    2.96    3.61
  -5   6  21    6.64    5.14
  -5  -6  22  311.02   20.82
  -5   6 -22  338.35   21.86
   5   6  22  271.98   17.75
   5   6  22  303.54   20.69
  -5   6  22  283.90   19.56
  -5   6  22  279.31   18.32
  -5   6  23   36.51    7.43
   5   6  23   29.71    7.11
   5   6  23   26.06    5.98
  -5   6  23   33.50    7.76
  -5   6  24   73.13   10.34
   5   6  24   61.79    8.99
   5   6  25   20.12    6.08
  -5  -7   0   -0.19    1.82
   5  -7   0    0.05    3.15
   5  -7   0   -3.48    2.40
  -5  -7   0   -0.37    3.68
  -5  -7   0   -2.62    2.87
  -5  -7   1   44.62    4.79
   5  -7   1   55.11    6.40
   5  -7   1   52.16    5.59
   5  -7  -1   58.87    6.34
   5  -7  -1   53.73    6.45
  -5  -7   1   57.63    7.67
  -5  -7  -1   56.75    7.44
  -5  -7   1   48.59    2.69
  -5   7  -1   44.69    6.28
  -5   7   1   56.01    7.18
  -5  -7  -1   54.36    4.80
  -5  -7  -1   59.56    6.26
  -5   7  -2  738.35   24.14
   5  -7   2  743.14   19.06
   5  -7  -2  722.05   21.04
  -5  -7   2  720.17   24.39
  -5  -7  -2  720.33   23.73
  -5  -7  -2  709.27   20.31
   5  -7   2  715.73   22.00
  -5   7   2  713.03   23.70
  -5  -7   2  727.70   11.95
   5  -7  -2  746.51   22.96
  -5  -7   2  703.69   18.41
   5  -7   3  264.18   11.14
  -5  -7   3  263.15   15.00
  -5  -7  -3  260.44   14.40
  -5  -7  -3  263.52   12.45
  -5   7  -3  261.23   15.05
   5  -7   3  247.04   12.95
  -5   7   3  260.15   14.77
   5  -7  -3  257.62   13.89
  -5  -7   3  255.81   11.65
   5  -7   4  246.64   10.43
  -5  -7   4  235.96   14.33
  -5  -7  -4  239.51   13.68
  -5   7   4  234.05   12.52
  -5  -7  -4  235.25   11.51
   5  -7   4  241.46   12.84
  -5   7  -4  242.92   14.38
  -5   7   4  244.03   14.36
   5  -7  -4  225.65   13.20
  -5  -7   4  239.69   11.68
  -5  -7   5   72.95    7.05
   5  -7   5   84.24    6.11
   5   7   5   83.41    9.71
  -5  -7  -5   75.87    7.90
   5  -7  -5   73.79    7.81
  -5  -7   5   81.57    8.72
  -5   7   5   83.96    7.81
   5  -7   5   78.16    7.48
  -5  -7  -5   83.60    6.93
  -5   7  -5   78.17    8.43
  -5   7   5   89.23    9.32
  -5  -7   6    0.07    3.14
   5  -7   6    1.83    2.51
  -5  -7  -6   -5.36    2.95
   5   7   6    8.39    5.46
  -5   7   6   -0.56    2.98
   5  -7   6    0.45    1.49
  -5  -7   6   -1.00    3.77
  -5  -7  -6    3.36    3.07
   5  -7  -6   -2.03    4.19
  -5   7  -6   -2.64    3.82
  -5   7   6   -2.18    3.67
   5  -7   7   -1.82    2.95
  -5  -7   7    0.58    2.63
  -5  -7  -7    1.53    2.01
   5  -7   7    0.49    1.52
  -5  -7   7   -4.47    3.81
  -5  -7  -7   -3.36    3.44
   5   7   7    9.67    5.75
  -5   7  -7   -1.02    4.15
  -5   7   7   -0.12    2.95
  -5  -7   8   97.12    8.62
   5   7   8  113.71   11.58
   5  -7   8  106.72    6.24
  -5  -7   8  105.90    9.96
  -5  -7  -8   96.89    8.72
   5  -7   8   95.22    8.12
  -5   7   8  101.08    8.72
  -5   7  -8   92.57    9.20
  -5  -7  -8   98.95    7.57
  -5  -7   9  262.91   14.25
   5   7   9  253.68   16.35
  -5  -7   9  273.14   15.78
  -5  -7  -9  255.97   13.46
  -5   7   9  251.43   13.99
  -5   7  -9  250.82   15.25
   5  -7   9  260.81   13.36
  -5  -7  -9  279.87   12.55
   5  -7  10    2.30    2.51
  -5  -7  10    3.48    3.52
  -5  -7 -10    2.09    1.99
  -5  -7  10   -1.35    2.97
  -5  -7 -10    2.18    2.52
  -5   7 -10   -4.46    3.94
   5   7  10   -1.99    3.84
  -5   7  10   -0.16    3.23
   5   7  11  115.21   11.57
  -5  -7  11  129.92   10.65
  -5  -7  11  112.04   10.57
  -5  -7 -11  116.14    9.06
   5  -7  11  120.79    9.55
   5   7  11  126.82   10.55
  -5   7 -11  126.32   11.38
  -5   7  11  105.41    9.46
  -5  -7 -11  118.20    8.52
  -5  -7  12   45.83    7.16
   5   7  12   49.19    8.12
  -5  -7  12   47.02    7.15
  -5  -7 -12   52.23    6.37
   5  -7 -12   43.87    5.70
  -5   7 -12   52.26    7.62
   5   7  12   45.55    6.69
  -5   7  12   45.51    6.88
   5  -7  12   46.52    6.18
  -5  -7  13  151.89   12.36
  -5  -7 -13  156.21   11.46
  -5  -7  13  144.61   12.02
  -5  -7 -13  145.74    9.84
   5  -7  13  152.11   10.75
  -5   7 -13  152.40   13.01
   5   7  13  144.15   11.59
   5  -7 -13  148.03   10.04
  -5   7  13  148.02   11.97
   5   7  13  158.92   13.50
  -5  -7  14  114.96   10.90
   5   7  14  108.18   11.74
  -5  -7 -14  109.92    9.96
  -5  -7  14   94.27    9.86
  -5  -7 -14  103.06    8.21
   5  -7  14  103.24    9.07
  -5   7 -14   95.20   10.72
   5   7  14  111.79   10.30
  -5   7  14   97.63   10.26
   5  -7 -14  110.82    8.92
  -5  -7  15   12.20    4.83
   5   7  15    9.25    4.78
  -5  -7 -15   20.40    4.42
  -5  -7  15   20.40    5.15
  -5   7 -15   15.26    5.05
   5   7  15   23.73    5.51
  -5   7  15   17.69    5.40
  -5  -7  16   34.17    6.40
   5   7  16   32.90    7.21
  -5  -7 -16   27.32    5.08
  -5  -7  16   32.43    6.35
  -5   7 -16   29.30    6.53
   5   7  16   30.62    6.38
  -5   7  16   27.47    6.06
   5   7  17    0.07    4.22
  -5  -7  17    1.24    3.46
  -5  -7 -17   -0.21    2.37
  -5  -7  17   -0.89    3.06
  -5   7 -17   -1.30    3.83
   5   7  17    3.42    3.59
  -5   7  17    3.02    3.58
   5   7  18   -1.72    4.35
  -5  -7  18    1.98    3.94
  -5   7 -18    2.92    3.67
  -5  -7  18    2.67    3.16
  -5  -7 -18    1.54    2.47
   5   7  18    5.31    3.25
  -5   7  18   -1.27    3.18
  -5   7  18    0.26    3.18
   5   7  19    6.17    4.33
  -5   7 -19   13.46    5.54
  -5  -7  19   15.39    5.23
  -5  -7  19   16.36    5.01
  -5  -7 -19   15.95    4.48
   5   7  19   13.27    5.01
  -5   7  19   11.03    5.12
  -5   7  19   13.93    4.69
  -5  -7  20    1.36    3.92
  -5   7 -20    1.05    3.87
  -5  -7  20    6.23    3.58
   5   7  20    3.19    3.87
  -5   7  20    0.77    3.38
  -5   7  20   -0.70    3.40
   5   7  20   -3.99    4.89
  -5  -7  21    5.03    4.92
  -5  -7  21   11.22    4.20
  -5   7 -21   12.44    5.84
   5   7  21    8.68    3.28
  -5   7  21    5.01    4.19
   5   7  21    5.33    3.90
  -5   7  21   10.82    4.59
  -5  -7  22    0.64    3.56
   5   7  22    1.63    3.81
   5   7  22   -2.22    5.35
  -5   7  22    7.81    4.86
  -5   7  22    4.40    3.68
   5   7  23    6.96    3.80
   5   7  24   10.57    5.15
   5   7  25   30.97    7.12
  -5  -8   0    1.47    1.67
   5  -8   0    6.74    3.90
   5  -8   0    0.15    2.17
  -5  -8   0    9.99    5.23
  -5   8   0   -5.74    5.04
  -5  -8   0   -1.07    2.61
   5  -8   1  944.52   23.81
   5  -8  -1  922.10   24.75
  -5  -8   1  943.00   28.80
  -5  -8  -1  961.75   28.53
  -5  -8   1  925.00   25.78
  -5  -8  -1  898.38   24.86
  -5   8  -1  959.55   28.22
  -5   8   1  946.86   27.98
   5  -8   1  953.34   27.33
   5  -8  -1  907.37   26.85
  -5  -8  -1  961.41   18.17
  -5  -8   1  920.17   20.23
   5  -8   2  155.57    9.69
   5  -8  -2  139.62    9.94
  -5  -8   2  145.63   11.99
  -5  -8  -2  168.81   12.45
  -5  -8  -2  147.87   10.24
  -5   8  -2  150.13   11.62
   5  -8   2  158.64   11.27
  -5   8   2  141.07   11.08
   5  -8  -2  151.98   11.35
  -5  -8   2  151.49    8.74
  -5  -8   3    8.28    2.61
  -5  -8  -3    7.91    3.20
   5  -8   3    5.87    3.03
   5  -8  -3    4.98    3.35
   5  -8   3    9.47    2.87
   5  -8  -3    9.55    3.48
  -5  -8   3    6.64    4.47
  -5  -8  -3   15.23    4.92
  -5   8  -3   10.84    3.91
  -5   8   3    3.62    4.14
  -5  -8   4   47.82    5.57
  -5  -8  -4   50.18    6.22
   5  -8   4   54.66    7.30
   5  -8   4   55.04    5.67
   5  -8  -4   47.50    6.93
   5  -8  -4   50.29    7.04
  -5  -8   4   68.61    9.09
  -5  -8  -4   67.74    8.52
  -5   8  -4   55.83    7.98
  -5   8   4   57.49    8.07
  -5  -8   5 1621.07   31.40
   5  -8   5 1643.22   28.81
  -5  -8   5 1622.62   38.71
  -5  -8  -5 1643.77   36.66
   5  -8   5 1635.91   34.81
  -5   8   5 1652.08   34.80
  -5   8  -5 1650.93   38.04
  -5  -8  -5 1629.85   32.72
  -5   8   5 1638.94   37.97
   5  -8  -5 1676.24   38.04
  -5  -8   6   60.82    6.82
   5  -8   6   61.57    7.18
   5  -8  -6   52.15    7.33
   5  -8   6   60.46    5.89
  -5  -8   6   69.45    9.41
  -5  -8  -6   73.23    8.55
  -5   8   6   76.59    8.21
  -5  -8  -6   58.52    6.58
  -5   8   6   68.26    9.07
  -5   8  -6   59.20    8.41
  -5  -8   7    3.52    3.09
   5  -8   7    1.11    2.76
  -5  -8  -7    7.25    3.11
   5  -8   7    3.56    2.09
  -5  -8   7   10.40    4.50
  -5  -8  -7   10.17    4.30
   5  -8  -7    5.91    3.70
  -5   8  -7    2.32    3.32
  -5   8   7    2.91    3.35
  -5   8   7    8.01    4.79
   5  -8   8   39.56    6.38
   5   8   8   57.57    9.65
  -5  -8   8   35.84    5.87
  -5  -8  -8   36.18    5.44
  -5  -8   8   44.14    7.75
  -5  -8  -8   35.83    6.41
  -5   8  -8   26.56    5.84
  -5   8   8   39.09    6.52
  -5   8   8   45.47    7.94
  -5  -8   9  876.03   26.20
   5   8   9  863.14   30.54
  -5  -8   9  852.29   28.69
  -5  -8  -9  851.84   25.86
   5  -8   9  857.25   25.64
  -5   8  -9  886.32   29.13
  -5   8   9  849.64   27.08
  -5  -8  -9  855.02   23.87
  -5  -8  10  132.50   11.18
   5   8  10  112.79   12.11
  -5  -8  10  147.72   12.34
  -5  -8 -10  133.91   10.55
   5  -8  10  128.50   10.34
  -5   8 -10  140.99   12.52
  -5   8  10  133.37   11.11
  -5  -8 -10  125.58    9.25
  -5   8 -11   54.27    8.18
   5  -8  11   52.79    6.87
  -5  -8  11   65.46    8.10
   5   8  11   54.33    8.94
  -5  -8 -11   48.71    6.02
  -5  -8  11   58.95    8.63
  -5  -8 -11   57.84    7.12
  -5   8  11   42.57    6.61
   5  -8  12   54.30    7.19
  -5  -8  12   63.63    8.54
  -5   8 -12   64.08    8.89
   5   8  12   67.15    9.88
  -5  -8 -12   58.43    7.11
  -5  -8  12   61.97    8.40
  -5  -8 -12   51.44    6.25
  -5   8  12   46.32    7.44
  -5  -8  13  368.51   18.95
   5   8  13  381.50   21.29
  -5  -8 -13  387.98   19.08
  -5  -8  13  372.57   19.65
  -5  -8 -13  375.14   16.84
   5  -8  13  398.63   18.27
  -5   8 -13  377.83   20.57
   5   8  13  393.80   19.42
  -5   8  13  353.92   18.87
  -5  -8  14   -0.60    3.56
  -5  -8 -14    0.10    2.60
  -5  -8  14    3.27    2.99
  -5  -8 -14    1.82    2.23
  -5   8 -14    6.99    4.92
   5   8  14    6.14    4.50
  -5   8  14   -6.78    4.69
   5   8  14    3.27    5.55
   5  -8  14    3.22    3.23
  -5  -8  15    7.56    4.05
  -5  -8 -15    7.13    3.32
  -5  -8  15    5.06    3.43
  -5   8 -15    8.14    4.07
   5   8  15    6.32    5.03
   5   8  15   11.92    5.02
  -5   8  15    7.80    3.83
   5  -8  15    8.09    3.68
  -5  -8  16    3.46    3.61
   5   8  16    6.98    5.24
  -5  -8 -16    4.73    2.67
  -5  -8  16    3.62    2.86
   5  -8  16    5.69    3.60
  -5   8 -16   12.46    6.09
   5   8  16   13.10    5.51
  -5   8  16   11.46    4.81
   5   8  17  255.18   18.69
  -5  -8  17  269.85   17.89
  -5  -8 -17  252.09   15.97
  -5  -8  17  262.05   17.18
  -5   8  17  262.80   18.24
  -5   8 -17  256.26   18.28
   5   8  17  264.19   17.15
  -5  -8  18    4.55    4.33
  -5  -8 -18    4.07    3.24
  -5  -8  18    5.42    4.09
   5   8  18    1.60    4.68
  -5   8 -18    1.88    4.06
   5   8  18    8.39    4.69
  -5   8  18   10.42    4.95
   5   8  19  197.37   16.86
  -5  -8  19  201.08   16.38
  -5   8 -19  198.21   16.54
  -5  -8 -19  195.87   14.52
  -5  -8  19  186.75   14.75
   5   8  19  180.12   14.90
  -5   8  19  225.53   17.31
  -5  -8  20   12.13    5.77
   5   8  20    7.27    5.80
  -5  -8  20    7.93    4.46
  -5   8 -20   -0.30    4.35
   5   8  20   15.04    5.43
  -5   8  20   14.92    6.42
  -5  -8  21   84.73   11.47
   5   8  21   79.80   11.43
  -5  -8  21   71.91    9.53
   5   8  21   85.75   10.78
  -5   8  21   78.62   10.97
   5   8  22   15.77    5.89
   5   8  23  171.49   15.49
  -5  -9   0    4.15    3.99
   5  -9   0    1.47    3.12
   5  -9   0   -1.53    2.54
  -5  -9   0    4.60    4.96
  -5   9   0    1.12    3.36
  -5  -9   1  439.39   19.08
   5  -9   1  451.70   17.64
   5  -9  -1  434.09   18.17
  -5  -9   1  460.02   21.01
  -5  -9  -1  431.01   20.34
  -5  -9  -1  446.81   18.95
  -5   9  -1  429.04   19.80
  -5   9   1  422.19   19.32
   5  -9   1  443.02   19.86
   5  -9  -1  446.18   19.93
  -5  -9   2   11.32    3.03
  -5  -9  -2    8.83    3.32
   5  -9   2   14.40    4.66
   5  -9  -2    8.91    4.02
   5  -9   2    7.30    3.39
   5  -9  -2    5.05    3.43
  -5  -9   2   16.18    5.62
  -5  -9  -2   15.39    5.22
  -5   9  -2    1.00    3.66
  -5   9   2   -1.16    4.13
  -5  -9   2    7.51    4.01
  -5  -9   3   10.88    2.96
  -5  -9  -3    7.80    3.73
   5  -9   3    6.86    3.18
   5  -9  -3    8.21    3.95
   5  -9   3   10.10    3.06
   5  -9  -3   10.76    3.86
  -5  -9   3   12.32    4.27
  -5  -9  -3    5.60    3.59
  -5   9  -3    6.91    4.22
  -5   9   3    3.63    3.76
  -5  -9  -4   61.44    7.17
   5  -9   4   60.33    7.56
   5  -9   4   63.97    6.65
   5  -9  -4   55.32    7.72
   5  -9  -4   59.25    7.32
  -5  -9   4   56.01    7.98
  -5  -9  -4   54.78    7.49
  -5   9  -4   53.56    7.51
  -5   9   4   53.50    7.42
  -5  -9   4   64.68    6.44
  -5  -9   5   93.32    7.79
   5  -9   5   90.90    7.60
   5  -9  -5   95.59    9.43
  -5  -9  -5   91.41    9.61
  -5  -9   5   90.58   10.10
  -5   9  -5   91.54    9.76
   5  -9   5   87.17    9.00
  -5  -9  -5   90.98    8.50
   5  -9  -5   89.60    9.64
  -5   9   5   88.13    9.43
  -5  -9   6  238.72   12.88
  -5   9  -6  218.72   14.86
   5  -9   6  241.93   11.94
   5  -9  -6  230.82   14.48
  -5  -9   6  235.00   15.83
  -5  -9  -6  233.89   14.73
  -5  -9  -6  241.87   13.62
   5  -9   6  241.71   14.54
  -5   9   6  209.90   14.43
   5  -9  -6  227.70   15.42
  -5  -9   7    2.20    3.31
   5  -9   7    4.12    3.38
  -5  -9  -7    5.14    3.36
   5  -9  -7    0.12    3.70
  -5  -9   7    0.43    3.36
  -5  -9  -7    3.89    3.80
  -5   9  -7    5.07    4.56
  -5   9   7    6.20    4.47
  -5   9   7    7.22    4.43
   5  -9   8   31.92    5.74
  -5  -9   8   37.55    6.01
  -5  -9  -8   28.97    5.65
  -5  -9   8   30.85    6.45
  -5  -9  -8   28.62    5.94
   5  -9  -8   28.72    6.06
  -5   9  -8   33.26    6.13
  -5   9   8   32.05    6.48
  -5   9   8   31.43    6.75
  -5  -9   9   73.10    8.19
  -5  -9  -9   80.89    8.67
  -5  -9   9   83.98    9.93
   5  -9   9   75.15    8.44
  -5   9  -9   80.88    9.58
  -5  -9  -9   67.05    7.75
  -5   9   9   71.58    8.60
  -5   9   9   76.68    9.61
   5   9  10   23.77    7.34
   5  -9  10   18.34    4.56
  -5  -9  10   17.70    4.88
  -5  -9 -10   16.99    4.04
  -5  -9  10   21.96    5.63
  -5  -9 -10   14.55    4.19
  -5   9 -10   14.49    5.03
  -5   9  10   17.98    4.97
  -5   9  10   19.87    5.78
   5  -9  11   61.20    7.76
  -5  -9  11   55.49    7.82
  -5  -9 -11   49.46    6.48
   5   9  11   63.84    9.60
  -5  -9  11   46.08    7.94
  -5  -9 -11   51.29    7.14
  -5   9 -11   58.38    8.13
  -5   9  11   61.42    8.58
  -5  -9  12  123.76   11.28
   5   9  12  132.05   13.47
  -5  -9  12  127.33   12.30
  -5  -9 -12  131.29   10.81
   5  -9  12  139.26   11.53
  -5   9 -12  129.28   12.59
  -5   9  12  114.21   11.36
  -5  -9 -12  133.56   10.40
   5  -9  13   -1.23    3.15
  -5  -9  13   -0.13    3.43
   5   9  13    8.13    5.33
  -5  -9 -13    3.67    3.44
  -5  -9  13    0.28    3.23
  -5  -9 -13    0.50    2.24
  -5   9 -13    6.20    4.66
  -5   9  13   -5.66    4.23
  -5  -9  14   11.20    4.91
  -5   9  14   -2.92    4.19
  -5  -9 -14    3.72    3.43
  -5  -9  14    4.88    3.51
  -5  -9 -14    2.10    2.13
  -5   9 -14   10.76    4.44
   5   9  14    8.35    5.02
   5  -9  14    3.84    3.73
  -5  -9  15   84.34    9.98
   5  -9  15   78.46    9.33
  -5  -9 -15   71.75    9.00
  -5  -9  15   81.17    9.98
   5   9  15   81.47   10.19
   5   9  15   89.71   11.88
  -5   9 -15   86.06   10.51
  -5   9  15   58.01    8.57
  -5   9 -16   46.71    8.57
  -5  -9  16   51.72    8.44
  -5  -9 -16   52.02    7.86
   5   9  16   56.62   10.02
  -5  -9  16   54.24    8.54
   5   9  16   50.22    8.31
  -5   9  16   45.80    8.24
   5  -9  16   48.01    7.42
  -5  -9  17   32.44    7.07
   5   9  17   29.88    7.45
  -5  -9 -17   27.94    5.77
  -5  -9  17   22.61    5.98
  -5   9 -17   18.90    6.01
   5   9  17   25.79    6.19
  -5   9  17   30.78    7.10
  -5  -9  18   -1.56    3.93
   5   9  18    6.04    5.80
  -5  -9 -18   -0.35    2.57
  -5  -9  18   -0.49    3.43
  -5   9 -18    8.94    4.38
   5   9  18   -0.38    3.41
  -5   9  18   -5.04    5.24
   5   9  19   15.02    5.77
  -5  -9  19   10.88    4.38
  -5  -9 -19    4.73    3.54
  -5  -9  19   -1.31    2.84
  -5   9 -19    9.50    5.72
   5   9  19   12.86    5.62
  -5   9  19    4.07    3.71
  -5  -9  20   55.40    9.33
  -5  -9  20   53.85    8.47
  -5   9  20   46.41    9.07
   5   9  20   42.16    8.15
  -5  -9  21   -1.99    3.68
   5   9  21    5.74    4.53
   5   9  22   -0.59    3.56
  -5 -10   0   -4.33    3.79
   5 -10   0    0.47    3.27
   5 -10   0    0.59    2.64
  -5 -10   0    2.37    3.56
  -5  10   0    2.33    3.17
   5 -10   1  105.19    9.24
   5 -10  -1  109.33    9.81
  -5 -10   1  105.27   11.31
  -5 -10  -1  120.84   11.46
  -5 -10   1  110.17   10.37
  -5 -10  -1   97.91    9.61
  -5  10  -1  106.93   10.20
  -5  10   1  109.16   10.63
   5 -10   1   94.01   10.05
   5 -10  -1  106.82   10.77
   5 -10   2  212.21   12.83
   5 -10  -2  219.69   13.89
  -5 -10   2  220.93   15.68
  -5 -10  -2  220.46   15.44
  -5 -10   2  202.43   14.27
  -5 -10  -2  192.86   13.29
  -5  10  -2  208.35   14.33
   5 -10   2  220.57   14.84
  -5  10   2  201.95   14.06
   5 -10  -2  211.79   14.85
   5 -10   3  221.96   12.83
   5 -10  -3  230.00   14.37
  -5 -10   3  218.16   15.94
  -5 -10  -3  257.26   16.56
  -5 -10   3  241.60   15.54
  -5 -10  -3  237.18   14.59
  -5  10  -3  220.29   14.89
   5 -10   3  229.87   15.11
  -5  10   3  205.55   14.04
   5 -10  -3  233.43   15.61
   5 -10   4  467.04   18.30
   5 -10  -4  467.38   20.88
  -5 -10   4  498.25   23.44
  -5 -10  -4  471.91   22.06
  -5 -10  -4  480.46   20.50
  -5  10  -4  448.20   21.25
   5 -10   4  453.92   21.19
  -5  10   4  469.34   21.16
   5 -10  -4  466.82   22.16
   5 -10   5  476.36   18.26
   5 -10  -5  484.82   21.62
  -5 -10   5  456.27   22.74
  -5 -10  -5  511.91   22.79
  -5  10  -5  487.87   22.33
   5 -10   5  494.27   22.09
  -5 -10  -5  473.69   20.31
  -5  10   5  462.59   21.25
   5 -10  -5  480.83   22.87
  -5 -10   6  267.42   13.54
   5 -10  -6  236.68   15.43
  -5 -10   6  259.65   17.30
  -5 -10  -6  246.89   16.18
  -5  10  -6  254.72   16.62
   5 -10   6  243.45   15.64
  -5 -10  -6  244.36   14.96
  -5  10   6  238.40   15.57
   5 -10  -6  247.32   16.76
  -5 -10   7   26.38    5.02
   5 -10   7   16.74    4.79
  -5 -10  -7   24.21    5.39
   5 -10  -7   19.47    5.18
   5 -10  -7   16.42    4.87
  -5 -10   7   10.55    4.69
  -5 -10  -7   18.34    4.87
  -5  10  -7   12.89    4.55
  -5  10   7   20.82    5.97
  -5 -10   8   18.96    4.76
   5 -10   8   14.63    4.98
  -5 -10  -8   15.08    4.19
  -5 -10   8   20.88    6.25
   5 -10  -8   13.91    4.88
  -5 -10  -8   15.21    4.39
  -5  10   8   19.27    5.94
  -5  10  -8   14.10    4.53
  -5  10   8   10.79    3.94
   5 -10   9    2.25    3.69
  -5 -10   9    0.96    2.66
  -5 -10  -9    6.49    3.58
  -5 -10   9   -0.97    3.33
  -5 -10  -9    2.19    3.09
  -5  10  -9    2.78    3.94
  -5  10   9    3.45    3.87
  -5  10   9    3.57    3.80
   5 -10  10    5.00    3.47
  -5 -10  10    7.47    3.67
  -5 -10 -10    7.67    3.45
  -5 -10  10    6.47    4.18
  -5 -10 -10    6.85    3.67
  -5  10 -10    9.62    4.35
  -5  10  10    7.79    4.30
  -5  10  10    3.61    4.27
  -5 -10  11   89.53    9.55
  -5 -10 -11   96.13   10.02
  -5 -10  11   74.47   10.27
  -5  10 -11   87.44   10.71
   5 -10  11   79.40    9.40
  -5  10  11   81.61   10.02
  -5  10  11   96.03   11.00
  -5 -10 -11   79.42    8.51
   5 -10  12   23.58    5.75
  -5 -10  12   27.99    5.86
  -5 -10  12   17.50    5.62
  -5 -10 -12   31.50    6.15
  -5  10 -12   25.31    6.52
  -5  10  12   22.84    6.27
  -5  10  12   32.50    7.29
  -5 -10  13  122.62   11.60
  -5 -10 -13  128.26   12.55
  -5 -10  13  124.63   12.62
  -5 -10 -13  131.16   11.19
  -5  10 -13  133.90   13.06
   5 -10  13  138.14   12.16
  -5  10  13  120.69   12.26
   5 -10  14    1.21    2.86
  -5 -10  14    7.30    4.48
  -5 -10 -14    0.67    3.02
   5  10  14    8.18    5.65
  -5 -10  14   -1.68    3.60
  -5  10 -14   -1.90    3.16
  -5  10  14   -2.84    4.24
   5 -10  15    5.02    4.01
  -5 -10  15    4.52    3.89
   5  10  15   13.73    6.90
  -5 -10 -15    6.19    4.15
  -5 -10  15    3.24    3.37
  -5  10 -15    1.84    3.34
  -5  10  15    6.88    4.07
  -5 -10  16  118.81   12.25
  -5 -10 -16  114.87   12.09
   5  10  16  118.00   13.67
  -5 -10  16  115.48   12.31
  -5  10 -16  112.82   12.61
   5 -10  16  107.15   11.01
  -5  10  16  104.26   12.00
  -5 -10  17   13.24    5.24
  -5 -10 -17   13.94    5.21
  -5 -10  17    7.06    4.51
   5  10  17   21.01    7.03
  -5  10 -17    9.99    4.73
   5  10  17   18.32    7.47
  -5  10  17    7.17    4.22
  -5 -10  18    3.20    4.15
  -5 -10 -18    3.10    3.01
  -5 -10  18   10.94    4.73
   5  10  18    2.32    4.62
  -5  10  18   -0.50    3.99
  -5 -10  19    9.42    5.20
  -5 -10 -19   13.54    4.48
  -5 -10  19   13.37    5.19
   5  10  19   26.12    7.03
  -5 -10  20   71.26    9.92
   5  10  20   88.33   11.70
  -5 -11   0    1.19    3.51
   5 -11   0   -1.64    3.04
   5 -11   0   -1.94    2.56
  -5 -11   0   -2.70    3.47
  -5  11   0   -3.64    3.57
  -5 -11   1    3.11    3.33
  -5 -11  -1   -0.65    3.02
   5 -11   1   -2.09    3.27
   5 -11  -1   -2.50    3.32
   5 -11   1   -0.75    2.48
   5 -11  -1    0.30    2.73
  -5 -11   1    4.78    4.09
  -5 -11  -1    2.04    3.50
  -5  11  -1   -1.23    3.92
  -5  11   1    1.84    3.27
   5 -11   2  174.91   12.34
   5 -11  -2  161.72   12.52
  -5 -11   2  160.88   13.99
  -5 -11  -2  166.07   13.94
  -5 -11   2  137.02   12.55
  -5 -11  -2  159.49   12.89
  -5  11   2  175.58   13.49
   5 -11   2  155.91   13.38
   5 -11  -2  155.39   13.37
  -5  11  -2  163.29   13.15
  -5 -11  -3   19.21    5.05
   5 -11   3   23.61    5.76
   5 -11  -3   23.68    6.27
   5 -11   3   24.32    5.34
   5 -11  -3   19.70    4.76
  -5 -11   3   26.18    6.27
  -5 -11  -3   19.85    5.74
  -5  11  -3   25.83    5.74
  -5  11   3   16.25    5.10
  -5 -11   3   19.21    5.53
  -5 -11  -4   -1.87    3.05
   5 -11   4    1.68    3.25
   5 -11  -4    4.48    3.63
   5 -11  -4    2.59    2.71
  -5 -11   4   -1.32    4.32
  -5 -11  -4    2.02    3.63
  -5  11  -4    0.28    3.45
  -5  11   4   -6.17    4.97
  -5 -11   4   -0.69    3.25
   5 -11   5   10.16    4.36
  -5 -11  -5   19.23    4.81
   5 -11  -5   15.10    5.54
   5 -11  -5    7.63    3.85
  -5 -11   5   13.07    4.57
  -5 -11   5   15.74    5.34
  -5 -11  -5   15.20    4.93
  -5  11  -5   13.16    4.93
  -5  11   5    5.75    3.24
   5 -11   6   12.93    4.99
  -5 -11  -6    8.19    4.32
   5 -11  -6    5.75    3.89
   5 -11  -6    2.60    3.20
  -5 -11   6    5.11    4.44
  -5 -11  -6   10.21    5.00
  -5  11  -6    9.10    3.98
  -5  11   6    9.75    4.09
   5 -11  -7   84.94   10.04
  -5 -11  -7   95.57   10.56
   5 -11  -7   97.40   11.18
  -5 -11   7   77.03   10.21
  -5  11  -7   92.13   10.21
   5 -11   7   91.05   10.14
  -5 -11  -7   99.18   10.35
  -5  11   7   89.63    9.97
   5 -11   8   32.26    6.70
  -5 -11  -8   28.35    5.93
   5 -11  -8   42.49    7.95
  -5 -11   8   33.85    6.97
  -5 -11  -8   31.90    6.52
  -5  11  -8   33.33    6.82
  -5  11   8   42.14    7.23
  -5 -11   9   91.16   11.18
  -5 -11  -9   94.21   10.49
   5 -11  -9   80.86   10.57
   5 -11   9   85.58   10.18
  -5  11  -9   87.62   10.44
  -5  11   9   97.43   10.68
  -5 -11  -9   75.13    8.85
  -5 -11  10   87.68   11.28
  -5 -11 -10   91.46   10.40
  -5  11  10   93.57   11.19
   5 -11  10   87.79   10.38
  -5  11 -10   81.92   10.13
  -5  11  10   98.07   10.72
  -5 -11 -10   84.55    9.38
  -5 -11  11   95.65    9.93
   5 -11  11   86.12   10.11
  -5 -11  11  116.06   12.59
  -5 -11 -11  109.63   11.12
  -5  11 -11  102.97   11.65
  -5  11  11  108.35   12.21
  -5  11  11  110.15   11.54
  -5 -11  12  107.23   10.96
  -5 -11  12  117.43   12.85
  -5 -11 -12  113.13   11.04
  -5  11 -12  108.21   11.96
  -5  11  12  116.62   12.50
   5 -11  12  108.52   11.51
  -5  11  12  127.09   12.55
   5 -11  13    5.66    3.64
  -5 -11  13    6.14    4.05
  -5 -11 -13   12.17    5.04
  -5 -11  13    0.12    3.44
  -5 -11 -13   -0.67    2.49
  -5  11 -13    4.01    4.24
  -5  11  13   -0.35    4.02
  -5  11  13    4.46    5.34
   5 -11  14    3.87    4.07
  -5 -11  14   -0.04    3.09
  -5 -11 -14    1.04    2.99
  -5 -11  14   -2.02    3.52
  -5  11 -14    2.60    3.73
  -5  11  14    3.33    4.58
  -5  11  14    1.33    4.13
   5 -11  15   11.76    4.78
  -5 -11  15   13.03    4.85
  -5 -11 -15    9.58    4.90
  -5 -11  15    9.90    4.76
  -5  11 -15    5.90    3.55
  -5  11  15   13.83    5.88
  -5  11  15   23.80    6.83
  -5 -11  16   61.52    9.09
  -5 -11 -16   63.17    9.36
  -5 -11  16   75.41   10.79
  -5  11 -16   74.48   10.85
  -5  11  16   72.59   10.70
  -5 -11  17   11.57    4.82
  -5 -11 -17   16.05    5.62
  -5 -12   0   -3.34    2.89
   5 -12   0    1.45    3.48
   5 -12   0   -0.51    2.56
  -5 -12   0    0.99    4.09
  -5  12   0   -0.70    3.07
  -5 -12   1   52.63    8.34
  -5 -12  -1   70.84    9.47
   5 -12   1   63.13    9.35
   5 -12  -1   57.38    8.95
   5 -12   1   63.70    8.15
   5 -12  -1   53.43    7.62
  -5 -12   1   53.10    8.65
  -5 -12  -1   61.66    9.19
  -5  12  -1   59.17    8.43
  -5  12   1   57.12    8.05
  -5 -12   2   26.30    6.33
  -5 -12  -2   26.83    6.05
   5 -12   2   30.78    6.94
   5 -12  -2   25.09    5.95
   5 -12  -2   27.74    5.97
  -5 -12   2   23.45    6.14
  -5 -12  -2   32.87    7.09
  -5  12  -2   23.70    5.91
  -5  12   2   26.30    6.06
  -5 -12   3    6.26    3.79
  -5 -12  -3    1.14    2.80
   5 -12   3    4.62    3.46
   5 -12  -3    7.17    4.33
   5 -12  -3   10.93    4.43
  -5 -12   3    7.21    4.25
  -5 -12  -3    8.90    4.05
  -5  12  -3    3.77    3.38
  -5  12   3   13.04    5.05
  -5 -12  -4   14.91    5.00
   5 -12   4   11.01    3.89
   5 -12  -4   16.70    5.38
   5 -12  -4   13.26    4.36
  -5 -12   4   21.48    6.66
  -5 -12  -4   13.53    5.04
  -5  12  -4   19.50    5.87
  -5  12   4   24.01    5.84
  -5 -12   4    7.53    3.60
   5 -12   5   62.77    8.91
  -5 -12  -5   70.24    9.26
   5 -12  -5   62.05    9.61
   5 -12  -5   67.86    9.14
  -5 -12   5   79.09   10.62
  -5 -12  -5   63.55    9.26
  -5  12  -5   66.39    8.90
  -5  12   5   61.31    8.72
  -5 -12   5   57.61    8.90
  -5  12  -6   26.66    5.95
   5 -12   6   19.47    5.82
  -5 -12  -6   17.68    5.43
   5 -12  -6   21.61    5.84
   5 -12  -6   21.35    5.51
  -5 -12   6   32.05    7.54
  -5 -12  -6   23.09    6.33
  -5  12   6   19.62    5.17
  -5 -12   6   26.47    6.73
   5 -12   7   -0.70    3.11
  -5 -12  -7    0.42    3.03
   5 -12  -7   -1.96    4.23
   5 -12  -7   -4.17    4.03
  -5 -12   7    2.13    3.79
  -5 -12   7    1.76    3.30
  -5 -12  -7    2.89    3.95
  -5  12  -7    2.14    3.07
  -5  12   7    2.46    3.68
   5 -12   8   49.64    8.27
  -5 -12  -8   48.07    7.61
   5 -12  -8   51.86    8.48
   5 -12  -8   34.00    7.24
  -5 -12   8   52.77    9.07
  -5 -12  -8   65.72    9.36
  -5  12  -8   69.65    9.46
  -5  12   8   46.84    7.51
   5 -12   9   -0.95    3.63
  -5 -12  -9    4.86    3.47
  -5 -12   9    2.59    4.51
  -5 -12  -9    9.31    5.05
   5 -12  -9    3.75    3.29
  -5  12  -9    2.98    3.79
  -5  12   9    1.83    3.38
   5 -12  10   48.93    8.37
  -5 -12  10   69.73   10.18
  -5 -12 -10   43.22    7.96
  -5  12 -10   62.90    9.13
  -5  12  10   51.75    8.28
   5 -12  11    3.75    3.67
  -5 -12 -11    7.21    4.60
  -5  12 -11   11.63    5.21
  -5  12  11   17.11    5.64
  -5  12  12  134.49   13.94
  -5 -12 -12  111.48   11.56
  -5  12 -12  119.42   12.80
   5 -12  12  130.09   13.08
   5 -12  13   66.60    9.90
  -5 -12 -13   68.60   10.09
  -5  12 -13   64.19    9.77
  -5  12  13   65.85   10.33
   5 -12  14   12.61    4.67
  -5  12 -14   10.93    5.24
  -5 -13   0   -0.05    3.53
   5 -13   0   -3.31    3.80
  -5 -13   0    0.57    4.17
  -5  13   0    3.96    3.36
  -5 -13   1   37.50    7.61
  -5 -13  -1   42.40    7.70
   5 -13   1   47.68    8.63
   5 -13  -1   45.14    8.53
   5 -13  -1   43.99    7.47
  -5 -13   1   51.60    9.03
  -5 -13  -1   54.21    9.46
  -5  13  -1   51.98    8.07
  -5 -13   2   17.30    5.77
  -5 -13  -2   15.50    5.11
   5 -13   2   14.26    6.03
   5 -13  -2   20.41    6.05
   5 -13  -2   14.05    4.80
  -5 -13  -2   15.61    5.07
  -5  13  -2   13.38    4.56
  -5  13  -3   26.11    6.09
  -5 -13   3   17.22    5.85
  -5 -13  -3   17.77    5.32
   5 -13   3   29.23    7.18
   5 -13  -3   25.86    6.79
   5 -13  -3   16.82    4.94
  -5 -13  -3   26.57    7.20
  -5 -13   4   17.31    5.78
  -5 -13  -4   12.28    3.84
   5 -13   4    7.13    4.74
   5 -13  -4    3.26    3.67
   5 -13  -4    9.13    4.16
  -5 -13  -4    8.39    4.63
  -5  13  -4    9.15    3.49
  -5 -13   5    1.92    3.33
   5 -13   5   -0.78    3.55
  -5 -13  -5    0.40    3.50
   5 -13  -5    0.18    3.61
   5 -13  -5   -3.29    3.51
  -5 -13  -5   -2.21    3.63
  -5  13  -5    1.22    3.29
   5 -13   6    4.89    4.29
  -5 -13  -6    5.31    4.25
   5 -13  -6   -0.97    4.03
   5 -13  -6   -3.12    3.33
  -5 -13  -6    7.69    4.76
  -5  13  -6    3.50    3.43
  -5 -13   6    4.62    4.10
   5 -13   7    4.02    4.47
  -5 -13  -7   -0.05    2.92
   5 -13  -7    4.15    4.39
  -5 -13  -7    5.07    4.21
  -5  13  -7    6.35    4.40
  -5 -13   7   -5.08    4.74
   5 -13   8   26.03    6.18
   5 -13  -8   23.99    5.88
  -5 -13  -8   29.43    7.06
  -5  13  -8   27.15    6.64
  -5 -13  -9  126.34   13.10
  -5  13  -9  118.16   12.48
   5 -13   9  107.50   12.29
   5 -13  10   14.92    5.99
  -5 -13 -10   22.13    6.00
  -5  13 -10   24.60    6.81
   5 -13  11    5.17    4.58
  -5 -13 -11    1.11    3.18
  -5  13 -11    1.15    3.99
   5 -13  12   64.30   10.01
  -5 -13 -12   69.97    9.78
  -5  13 -12   58.62    9.31
  -5 -14   0    0.46    3.18
  -5 -14  -1   24.15    6.51
  -5 -14  -2   26.61    6.88
  -5 -14  -3    7.48    3.76
   5 -14  -3   12.95    5.01
  -5 -14  -4   15.06    5.27
   5 -14  -4   12.74    4.86
   5 -14  -5  105.00   12.26
  -5 -14  -5  119.27   13.03
   6   0   0 6186.21   60.98
  -6   0   0 6144.20   59.55
  -6   0   0 6090.96   36.06
   6   0  -1   45.52    8.32
   6   0   1   61.96    8.99
  -6   0  -1    2.98    4.17
  -6   0   1   17.08    5.01
   6   0  -2  242.22   12.07
   6   0   2  242.20   12.62
  -6   0  -2  209.09    4.62
   6   0  -2  220.28    9.18
  -6   0  -2  201.81   11.02
  -6   0   2  214.71   11.77
  -6   0   2  220.47    8.40
   6   0  -3    9.57    4.93
   6   0  -3    0.94    2.20
   6   0  -3    7.11    4.21
  -6   0  -3   -0.84    2.88
   6   0  -4 1112.47   25.12
   6   0   4 1242.99   28.43
   6   0  -4 1142.04   19.08
   6   0  -4 1148.34   27.74
  -6   0  -4 1158.06   26.03
  -6   0   4 1200.98   28.37
   6   0  -5   -0.19    2.83
   6   0  -5   -0.35    2.58
   6   0   5    8.37    4.74
  -6   0  -5    3.51    3.33
  -6   0   5    3.14    4.26
   6   0  -6  393.41   14.62
   6   0   6  391.25   16.56
  -6   0  -6  373.20   15.20
   6   0  -6  394.47   16.64
  -6   0   6  387.40   17.05
  -6   0   7   40.05    8.08
   6   0  -7   19.74    5.41
   6   0   7   49.21    8.43
   6   0  -7   21.63    6.73
  -6   0  -7   19.05    5.16
   6   0   8 2310.30   40.56
   6   0   8 2222.87   14.85
  -6   0  -8 2297.50   38.61
   6   0  -8 2356.11   41.39
  -6   0   8 2318.66   42.14
  -6   0   9   12.45    6.00
   6   0  -9   11.89    4.89
  -6   0  -9   -0.64    2.95
   6   0  10 2666.55   44.45
  -6   0 -10 2639.08   42.99
   6   0  10 2642.03   23.74
   6   0 -10 2571.18   44.21
  -6   0  10 2775.71   47.07
  -6   0  11   16.96    6.60
   6   0  11   14.36    6.22
   6   0 -11   13.65    5.51
  -6   0 -11   10.10    4.84
   6   0  11    6.65    2.14
   6   0  12   99.64    9.37
  -6   0  12   95.12   10.02
  -6   0 -12   80.03    8.44
   6   0  12   75.90    5.06
   6   0 -12   80.22    8.67
  -6   0  13   13.89    6.74
   6   0  13   18.43    5.99
  -6   0 -13   19.39    5.74
   6   0  13    7.08    2.47
   6   0  14 1348.54   32.84
  -6   0 -14 1284.85   32.54
   6   0  14 1289.44   23.08
  -6   0  14 1280.07   34.73
   6   0  15   10.78    5.23
  -6   0  15    6.09    4.46
  -6   0 -15   -1.25    3.52
   6   0  15    1.59    2.09
  -6   0  16   30.60    5.81
  -6   0 -16   31.25    5.79
   6   0  16   34.91    4.53
  -6   0  17   -4.03    4.95
  -6   0 -17   -7.72    4.62
  -6   0  18   99.82   10.92
  -6   0 -18   85.62    9.55
  -6   0  19   -1.60    4.49
  -6   0 -19   -4.04    3.83
  -6   0  20   10.44    5.04
  -6   0 -20    6.34    3.97
  -6   0  21   13.21    6.31
  -6   0 -21    0.15    3.25
  -6   0 -22  141.37   13.28
  -6   0  22  166.81   14.95
  -6   0  23    0.56    4.47
  -6   0 -23   -2.18    3.50
  -6   0  24   86.16   11.82
  -6   0 -24   80.00   10.89
  -6   0 -25    2.71    4.24
   6   0  26  199.08   15.74
   6   1   0   65.46    6.66
   6   1   0   53.14    5.50
   6   1   0   73.54    7.43
  -6  -1   0   56.43    2.95
  -6   1   0   56.06    3.85
  -6   1   0   58.44    6.90
  -6  -1   0   59.08    6.24
   6  -1   1  105.78    8.31
   6   1  -1  101.80    8.10
   6   1   1  106.61    8.47
   6   1   1   86.65    6.72
   6   1  -1  104.30    8.62
  -6   1  -1  102.39    4.60
  -6   1   1   92.23    2.97
  -6  -1  -1   94.47    3.16
  -6   1   1   92.78    5.32
  -6   1  -1  101.42    8.38
  -6  -1  -1   98.11    7.57
   6   1  -1   98.25    6.89
  -6   1   1  107.14    8.89
  -6  -1   1   96.61    7.89
   6  -1   2   -3.04    3.18
   6   1  -2   -0.99    3.05
   6   1  -2   -0.06    2.47
   6   1   2   -1.71    3.27
   6   1  -2    1.46    2.07
  -6  -1  -2    1.25    0.57
  -6   1   2    2.13    1.32
  -6  -1  -2   -0.75    2.71
  -6   1  -2   -1.58    3.94
  -6   1   2    6.38    4.35
  -6  -1   2    4.08    3.06
  -6   1   2    2.86    0.95
  -6   1  -2    0.81    0.78
   6   1  -3   13.11    3.00
   6  -1   3    9.34    3.89
   6   1  -3    8.86    3.57
   6   1  -3    2.47    2.46
   6   1   3    8.02    3.78
   6  -1  -3    8.51    1.66
  -6  -1  -3    8.23    2.51
  -6   1  -3    3.89    3.47
  -6  -1   3   13.19    4.54
   6  -1   4  371.79   15.80
   6   1  -4  336.50   13.95
   6   1   4  330.31   15.11
  -6   1  -4  340.27   14.74
   6   1  -4  333.17   11.37
  -6  -1  -4  336.41   13.49
   6   1  -4  317.38   14.89
   6  -1  -4  328.40    9.41
  -6  -1   4  340.93   15.29
   6  -1  -5    2.27    2.81
  -6  -1   5    3.79    4.03
   6  -1   5    3.91    3.72
   6  -1  -5    2.82    1.62
   6   1  -5    3.57    2.94
   6   1   5    4.13    3.72
   6   1  -5    4.80    3.89
  -6   1  -5    0.49    0.43
  -6  -1  -5    3.61    3.17
  -6   1  -5    2.57    3.16
  -6   1   5    0.47    3.35
   6  -1   6  297.55   14.51
   6   1  -6  295.83   12.78
   6   1   6  321.23   15.09
   6  -1  -6  299.63   14.50
  -6  -1  -6  292.10   13.00
  -6   1  -6  301.28   14.32
   6   1  -6  288.17   14.59
  -6   1   6  285.70   14.70
  -6  -1   6  319.81   15.20
  -6  -1   7   44.95    6.90
   6  -1   7   46.46    6.24
   6  -1  -7   47.61    6.47
   6   1  -7   44.62    5.32
   6   1   7   41.31    5.92
   6   1  -7   43.00    6.31
  -6  -1  -7   45.57    5.70
  -6   1  -7   47.03    6.41
  -6   1   7   53.39    7.48
  -6   1   8   22.38    5.30
   6  -1   8   16.27    4.38
  -6  -1   8   22.95    5.36
   6   1  -8   15.42    3.60
   6  -1  -8   14.99    3.88
   6   1   8   12.10    3.95
   6   1  -8   10.25    3.28
  -6  -1  -8   15.29    3.57
  -6   1  -8   15.47    4.24
  -6   1   9   32.23    6.12
  -6  -1   9   18.58    4.94
   6   1  -9   24.45    4.04
   6   1   9   21.64    4.70
   6  -1  -9   20.93    4.52
  -6  -1  -9   23.17    2.14
   6   1  -9   23.70    4.81
   6  -1   9   24.57    1.88
  -6  -1  -9   19.79    4.21
  -6   1  -9   18.47    4.41
   6   1   9   20.37    2.30
  -6   1  10    1.70    4.42
  -6  -1  10    1.51    3.78
   6   1 -10    0.43    2.05
   6   1  10   -4.55    3.83
   6  -1 -10    1.17    3.06
  -6  -1 -10    1.28    0.78
   6   1 -10   -6.21    4.22
  -6  -1 -10    0.30    2.81
  -6   1 -10   -3.80    3.94
   6   1  10    2.05    1.47
   6  -1  10    0.79    0.83
   6   1  11    3.72    1.48
  -6   1  11   11.49    5.54
   6   1 -11    3.60    2.10
  -6  -1  11    6.22    4.76
   6   1  11    2.04    3.33
   6  -1 -11    2.58    3.67
  -6   1 -11    0.66    3.48
  -6  -1 -11    1.76    2.73
   6  -1  11    1.34    1.31
  -6   1  12   68.92    8.68
  -6  -1  12   67.71    8.58
  -6   1 -12   72.14    8.29
   6   1  12   74.74    8.26
   6  -1 -12   60.28    7.54
  -6  -1 -12   72.01    7.54
   6   1  12   69.24    5.14
   6  -1  12   62.38    4.45
   6   1  13  527.31   20.68
  -6  -1 -13  498.06   19.59
  -6   1 -13  543.25   21.46
  -6   1  13  574.30   22.77
   6  -1 -13  531.89   21.16
   6   1  13  544.34   14.73
  -6  -1  13  531.80   22.29
   6   1  14  455.42   19.38
  -6  -1 -14  451.77   19.15
  -6   1 -14  439.66   19.73
   6   1  14  444.21   14.07
  -6   1  14  437.19   20.70
  -6  -1  14  434.95   20.67
   6   1  15  125.77   10.52
  -6  -1 -15  117.24   10.09
  -6   1 -15  122.20   10.97
   6   1  15  119.86    7.80
  -6   1  15  115.65   11.29
  -6  -1  15  131.91   11.94
  -6   1  16   -0.35    4.24
  -6  -1  16   -5.31    4.67
   6   1  16    1.69    2.97
  -6   1 -16   -1.03    3.61
  -6  -1 -16   -2.17    3.05
   6   1  16    0.41    1.73
  -6   1  17   48.50    7.98
  -6  -1  17   44.60    7.72
   6   1  17   41.41    6.56
  -6  -1 -17   37.71    6.14
  -6   1 -17   45.49    7.25
   6   1  17   51.24    5.66
  -6   1  18   35.30    7.69
  -6  -1  18   34.26    7.44
   6   1  18   20.93    5.06
  -6  -1 -18   25.01    5.88
  -6   1 -18   22.14    5.61
   6   1  19  239.28   14.76
  -6  -1 -19  249.11   16.05
  -6   1 -19  239.20   16.33
  -6   1  19  248.16   17.19
  -6  -1  19  262.34   17.59
   6   1  20    2.76    3.06
  -6   1  20    8.56    5.83
  -6  -1  20   -7.27    4.67
  -6  -1 -20   -0.97    3.39
  -6   1 -20    1.44    3.65
  -6  -1  21  170.45   15.11
  -6  -1 -21  192.49   14.56
  -6   1 -21  169.85   14.50
  -6   1  21  186.29   15.41
  -6   1  22    1.17    3.81
  -6  -1  22    2.30    3.94
  -6  -1 -22   -2.55    3.99
  -6   1 -22   -1.63    3.66
  -6   1  23   -3.61    4.24
  -6  -1  23   -4.04    5.13
  -6  -1 -23   -1.70    4.01
  -6   1 -23    1.61    3.80
  -6   1  24   14.91    6.14
  -6  -1  24    8.40    4.82
  -6  -1 -24   16.46    5.39
  -6   1 -24    9.16    3.76
  -6  -1 -25   44.81    8.46
  -6   1 -25   29.28    7.46
  -6  -1 -26   19.85    6.35
   6  -1  27    6.97    3.94
   6   2   0  380.09   15.55
  -6  -2   0  393.77   16.02
  -6   2   0  359.42   10.88
  -6  -2   0  357.29    9.23
  -6   2   0  358.24   10.50
   6   2   0  364.03   15.51
  -6   2   0  349.34   15.63
  -6  -2   0  351.25   13.60
   6   2   0  363.76   14.06
   6   2  -1  201.71   10.39
   6   2  -1  206.14   11.46
   6   2   1  210.08   11.72
  -6  -2  -1  201.14   11.48
  -6  -2   1  206.64   11.80
  -6   2  -1  192.93    7.47
  -6   2  -1  186.05    7.14
  -6   2   1  187.45    4.95
  -6  -2  -1  204.17    6.54
   6   2   1  207.06   11.82
  -6   2   1  195.72    8.25
   6   2  -1  205.45   11.73
  -6  -2  -1  193.58    9.99
  -6   2  -1  199.40   11.53
   6   2   1  206.84   10.80
  -6   2   1  197.08   11.83
  -6  -2   1  199.39   10.44
   6   2   2   20.29    4.76
   6   2  -2   18.72    4.83
   6   2  -2   20.18    3.89
   6   2  -2   26.70    5.14
   6   2   2   25.84    5.47
  -6  -2  -2   31.00    5.70
  -6  -2   2   25.20    5.84
  -6   2  -2   18.05    2.19
  -6   2  -2   18.43    2.32
   6   2   2   16.38    3.62
  -6  -2  -2   18.10    3.53
  -6   2  -2   17.00    4.31
  -6   2   2   20.59    2.15
  -6   2   2   21.02    5.49
  -6  -2  -2   17.32    1.90
  -6  -2   2   23.78    4.35
  -6  -2   2   14.92    3.89
   6   2  -3  682.38   20.22
   6   2   3  675.11   21.49
   6   2  -3  670.89   17.76
  -6   2  -3  627.47   10.84
  -6  -2  -3  684.36   20.64
  -6  -2   3  678.18   21.70
   6   2   3  665.25   20.10
   6   2   3  654.56   19.91
  -6   2   3  661.10   12.45
  -6  -2  -3  649.14   17.94
  -6  -2  -3  630.99   10.79
  -6   2  -3  665.27   21.37
   6   2  -3  693.68   21.73
  -6   2   3  672.85   21.98
  -6  -2   3  640.87   20.31
   6   2  -4 1203.24   26.66
   6   2   4 1277.02   29.69
  -6  -2  -4 1209.25   26.92
  -6  -2   4 1337.59   30.19
  -6  -2  -4 1260.48   24.90
  -6   2   4 1224.70   18.58
  -6   2  -4 1276.15   29.22
   6   2  -4 1253.72   29.56
  -6  -2   4 1238.61   28.27
   6   2  -5  125.58    8.86
   6   2   5  138.03   10.50
  -6   2  -5  131.69    9.96
  -6  -2   5  136.42   10.61
  -6  -2  -5  122.17    8.11
  -6   2   5  126.41    6.57
   6  -2  -5  125.48    4.91
   6   2  -5  128.20   10.00
  -6  -2   5  133.72   10.18
   6   2  -6  484.02   16.56
   6   2   6  520.08   19.30
   6  -2  -6  451.72    7.49
  -6  -2   6  499.58   19.30
  -6  -2  -6  486.32   16.21
  -6   2  -6  506.21   19.08
  -6   2   6  490.93   13.78
   6   2  -6  496.42   19.10
  -6   2   6  509.90   19.57
  -6  -2   6  523.46   19.01
   6   2  -7  714.71   19.96
   6   2   7  764.21   23.42
  -6  -2   7  760.84   23.66
   6  -2  -7  716.68   22.44
  -6  -2  -7  736.37   19.95
  -6   2  -7  757.99   23.51
  -6   2   7  736.12   24.19
   6   2  -7  724.54   23.22
  -6  -2   7  726.78   23.31
  -6  -2   8   74.52    8.32
   6   2  -8   77.70    6.72
   6   2   8   78.61    8.16
  -6  -2   8   77.48    8.19
   6  -2   8   69.05    2.46
   6  -2  -8   84.53    8.31
  -6  -2  -8   60.00    6.18
   6  -2   8   67.99    2.47
  -6   2  -8   80.23    7.98
   6  -2   8   71.35    2.96
   6   2  -8   92.82    8.93
  -6   2   8   79.73    8.74
  -6  -2   9    9.77    4.63
   6  -2  -9    5.47    3.22
   6   2  -9    6.43    2.68
   6   2   9    6.17    4.16
  -6  -2   9   10.87    4.42
   6  -2   9    6.69    1.07
  -6  -2  -9    4.18    2.78
  -6   2  -9   -2.40    4.50
   6   2   9    6.03    2.10
  -6   2   9   14.03    5.42
   6   2 -10  181.58    9.93
   6   2  10  196.08   12.68
  -6   2 -10  191.34   12.84
  -6  -2 -10  191.21    7.57
   6  -2  10  184.97    5.14
  -6  -2 -10  196.23   11.23
   6   2  10  184.48    8.03
   6  -2 -10  206.17   12.69
  -6   2  10  199.29   13.34
  -6  -2  10  208.72   13.80
   6   2 -11 1006.54   22.40
   6   2  11  983.00   27.54
  -6  -2 -11  978.62   16.84
  -6  -2 -11  974.92   25.23
  -6   2 -11  991.78   28.46
   6  -2  11  960.82   12.66
   6   2  11  971.43   18.95
   6  -2 -11  951.09   26.88
  -6   2  11 1018.54   29.82
  -6  -2  11  982.63   28.89
   6   2 -12  119.03    7.71
   6   2  12  114.82   10.05
  -6  -2 -12  118.25    5.97
  -6  -2 -12  123.66    9.39
  -6   2 -12  126.68   11.05
   6   2  12  109.65    6.86
   6  -2 -12  110.29    9.47
  -6   2  12  112.93   10.91
  -6  -2  12  115.41   10.87
   6   2 -13  658.64   17.42
   6   2  13  661.20   23.31
  -6  -2 -13  648.54   21.32
  -6   2 -13  677.79   24.73
   6   2  13  655.74   17.24
   6  -2 -13  669.17   22.90
  -6   2  13  656.29   24.72
  -6  -2  13  682.06   24.79
  -6   2  14   42.27    7.10
   6   2 -14   41.58    4.49
  -6  -2  14   50.08    8.04
   6   2  14   44.78    7.05
   6  -2 -14   38.63    6.21
  -6  -2 -14   39.51    5.68
  -6   2 -14   44.79    7.33
   6   2  14   42.06    4.95
  -6   2  15   13.05    5.01
  -6  -2  15   16.60    5.19
   6   2  15   17.91    4.87
  -6  -2 -15   14.37    3.88
  -6   2 -15   21.20    5.26
   6   2  15   20.31    3.71
  -6   2  16   91.33   10.28
   6   2  16   85.40    9.01
  -6  -2  16   72.29    9.35
  -6  -2 -16   94.08    9.17
  -6   2 -16   74.60    9.06
   6   2  16   96.31    7.71
  -6  -2  17  109.04   11.60
   6   2  17   90.92    9.36
  -6  -2 -17   98.02    9.40
  -6   2 -17   97.00   10.23
   6   2  17  115.37    8.68
  -6   2  17  108.17   11.53
  -6  -2  18  153.15   13.52
   6   2  18  148.60   12.00
  -6  -2 -18  162.83   12.32
  -6   2 -18  158.53   13.46
   6   2  18  151.27   10.15
  -6   2  18  163.75   13.91
  -6  -2  19  116.42   12.31
   6   2  19  103.24   10.05
  -6  -2 -19   90.36    9.56
  -6   2 -19  112.40   11.88
  -6   2  19  112.77   12.12
  -6   2  20    3.04    4.24
  -6  -2  20   -5.97    5.08
   6   2  20    1.31    2.70
  -6  -2 -20   -1.76    3.01
  -6   2 -20    6.47    4.41
   6   2  21  105.23   10.07
  -6   2  21  114.25   12.36
  -6  -2  21   97.45   11.52
  -6  -2 -21  109.31   10.91
  -6   2 -21  108.45   11.93
  -6   2  22   66.86    9.61
  -6  -2  22   63.89    9.85
   6   2  22   60.84    7.76
  -6  -2 -22   62.96    8.78
  -6   2 -22   55.12    8.72
  -6   2  23   13.54    5.44
  -6  -2  23    7.70    4.53
  -6  -2 -23   19.76    5.54
  -6   2 -23   13.47    5.19
  -6  -2  24   -0.44    4.19
  -6  -2 -24    2.63    3.45
  -6   2 -24   -0.20    4.17
  -6   2  25   72.89   10.98
  -6  -2 -25   92.69   11.03
   6   3   0    1.41    2.60
  -6   3   0    3.15    1.44
  -6  -3   0    2.13    2.78
  -6  -3   0    0.10    2.14
  -6  -3   0    2.60    1.43
   6   3   0    1.81    2.92
  -6   3   0   -0.19    3.75
   6   3  -1   61.18    6.62
   6   3   1   58.23    6.41
  -6   3  -1   51.25    3.98
   6   3  -1   57.33    6.53
   6   3   1   54.73    6.15
  -6  -3  -1   52.13    6.43
  -6  -3   1   50.69    6.48
  -6   3  -1   47.17    4.13
  -6  -3  -1   55.93    4.21
  -6  -3  -1   60.25    5.48
  -6   3  -1   52.28    6.39
  -6   3   1   62.18    7.51
  -6  -3   1   51.33    5.33
  -6  -3   1   53.77    5.94
   6   3   2   12.22    3.70
   6   3   2   15.69    4.13
   6   3  -2   17.26    4.42
  -6   3   2   14.21    1.99
   6   3  -2   12.93    3.55
  -6  -3  -2   12.20    3.92
  -6  -3   2   10.87    3.87
  -6  -3  -2   13.17    3.05
  -6   3  -2    9.87    3.36
  -6  -3  -2   10.70    1.83
  -6   3   2   22.51    5.34
  -6  -3   2   21.17    4.19
  -6  -3   2    6.66    2.79
  -6  -3   3   -0.29    3.04
  -6  -3  -3    0.85    0.87
   6   3   3    2.00    3.01
   6   3  -3    1.98    2.94
  -6  -3  -3    2.96    3.49
  -6  -3   3    8.05    4.99
  -6  -3  -3    8.48    3.08
  -6   3  -3    3.80    3.73
  -6   3   3    0.04    1.41
   6   3   3   -2.01    3.42
  -6   3   3   14.86    6.08
  -6  -3  -3   -0.21    1.02
  -6  -3  -4  741.52   21.49
  -6  -3   4  778.43   23.51
  -6   3   4  736.78   15.50
   6   3   4  777.90   21.53
  -6  -3  -4  714.74   10.10
  -6  -3  -4  727.12   18.09
  -6   3  -4  730.73   23.11
  -6  -3  -4  720.19   14.32
   6   3   4  728.56   22.21
   6  -3   4  739.05   14.23
   6   3  -4  732.54   22.61
  -6  -3   4  736.32   21.83
  -6  -3  -5  110.18    8.53
  -6  -3   5   97.31    9.19
   6   3   5   99.53    8.08
   6   3   5  101.73    8.76
  -6   3   5   91.70    6.01
  -6   3  -5   97.10    9.24
  -6  -3  -5   89.61    5.22
  -6  -3  -5   75.45    2.86
   6  -3   5  102.61    5.20
  -6  -3   5   99.39    8.64
   6   3  -5  102.26    9.03
  -6  -3  -5   89.21    6.69
   6   3   6   14.37    3.99
  -6  -3   6   14.82    4.88
   6  -3  -6    9.78    1.11
   6  -3   6   13.26    2.01
   6   3   6    9.24    4.10
  -6  -3  -6   14.39    4.43
  -6  -3   6   15.20    4.80
   6   3  -6    9.71    3.92
   6  -3   6    9.84    0.95
  -6  -3  -6    9.92    2.82
  -6   3  -6   11.70    4.49
  -6   3   6   14.27    2.95
   6   3  -7  378.71   14.89
  -6  -3  -7  378.89   15.07
  -6  -3   7  383.62   17.15
   6   3   7  379.92   15.16
  -6  -3  -7  396.13   13.99
  -6   3  -7  371.26   16.89
  -6   3   7  373.71   13.11
   6  -3   7  393.63    9.72
  -6  -3   7  412.14   17.31
   6   3  -8  166.37    9.76
   6   3   8  164.97   11.51
  -6  -3  -8  154.69    9.77
  -6  -3   8  170.35   11.73
   6  -3  -8  158.71   10.98
  -6  -3  -8  171.57    9.71
  -6   3  -8  160.98   11.67
   6  -3   8  176.37    6.56
  -6   3   8  165.26    9.16
  -6   3   8  164.40   11.86
  -6  -3   8  166.65   11.59
  -6   3   9   -0.59    2.68
   6  -3  -9   -1.25    3.31
  -6  -3   9    2.91    4.20
   6  -3   9   -0.85    1.25
   6   3  -9    0.84    2.35
   6   3   9   -0.23    3.42
  -6  -3  -9    1.06    2.15
  -6  -3   9   -3.88    3.00
  -6  -3  -9    0.31    2.07
  -6   3  -9   -6.50    4.90
  -6   3   9    0.00    4.81
   6   3 -10  169.46    9.72
   6   3  10  183.12   12.22
  -6  -3  10  189.07   12.58
  -6  -3 -10  185.04   10.44
   6   3  10  186.10    8.81
  -6   3 -10  187.59   12.61
   6  -3 -10  185.16   11.87
  -6   3  10  180.36   10.37
   6  -3  10  186.50    6.97
  -6   3  10  178.60   12.62
  -6  -3  10  180.14   12.36
  -6   3  11   10.53    3.29
   6  -3  11   10.91    2.04
  -6  -3  11    9.68    4.23
   6  -3 -11    6.97    2.90
   6   3 -11    6.82    2.47
   6   3  11    7.96    3.54
  -6  -3 -11    9.30    2.50
  -6  -3  11    8.82    3.81
  -6  -3 -11   12.07    3.68
  -6   3 -11    9.91    4.26
   6   3  11   12.71    3.18
  -6   3  11    9.98    5.51
   6   3 -12  260.20   11.53
   6   3  12  282.51   15.57
  -6  -3 -12  282.56   10.76
  -6  -3  12  286.68   15.49
  -6  -3 -12  299.58   13.82
   6  -3  12  288.17    9.24
  -6   3 -12  307.32   16.66
   6   3  12  290.80   11.83
   6  -3 -12  265.00   14.36
  -6   3  12  291.74   16.37
  -6  -3  12  287.80   16.30
  -6   3  13   33.88    6.61
  -6  -3  13   26.45    6.00
   6   3 -13   37.19    4.46
   6   3  13   26.21    5.32
   6  -3 -13   35.12    5.76
  -6   3 -13   35.95    6.43
  -6  -3  13   35.21    6.07
  -6  -3 -13   34.03    3.95
  -6  -3 -13   38.44    5.39
   6   3  13   39.63    4.87
  -6   3  14   31.18    6.37
  -6  -3  14   35.16    6.39
   6   3 -14   33.36    4.08
   6   3  14   34.34    5.86
  -6  -3  14   38.49    6.51
   6  -3 -14   33.54    5.70
  -6  -3 -14   31.62    3.81
  -6  -3 -14   34.32    5.30
  -6   3 -14   42.38    6.96
   6   3  14   35.61    4.73
  -6   3  15   36.76    7.25
  -6  -3  15   35.69    6.84
   6   3  15   21.47    5.12
   6  -3 -15   28.41    5.54
  -6  -3 -15   29.32    5.06
  -6   3 -15   38.98    7.01
   6   3  15   28.33    4.41
  -6  -3  16  344.19   19.09
   6   3  16  314.15   17.10
  -6  -3 -16  326.35   16.04
  -6   3 -16  332.37   18.79
   6   3  16  345.18   14.78
  -6   3  16  345.09   18.98
  -6   3  17   16.93    6.49
  -6  -3  17    3.57    4.84
   6   3  17   10.34    4.28
  -6  -3 -17    7.43    3.22
  -6   3 -17   12.52    5.20
   6   3  17    9.61    3.88
  -6  -3  18  243.93   16.97
   6   3  18  235.59   15.07
  -6  -3 -18  256.31   15.19
  -6   3 -18  234.89   16.43
   6   3  18  232.19   13.07
  -6   3  18  244.91   16.58
  -6  -3  19  237.42   17.17
   6   3  19  239.19   15.20
  -6  -3 -19  240.17   15.17
  -6   3 -19  252.63   17.44
  -6   3  19  237.71   16.99
  -6   3  20   28.90    7.53
  -6  -3  20   21.91    6.22
   6   3  20   26.65    5.83
  -6  -3 -20   25.33    5.84
  -6   3 -20   30.44    7.17
  -6   3  21   11.88    4.92
  -6  -3  21    2.14    4.47
   6   3  21    9.13    3.76
  -6  -3 -21   13.26    4.91
  -6   3 -21    7.83    4.49
  -6   3  22   86.64   10.85
   6   3  22   95.87    9.87
  -6  -3  22   93.63   11.69
  -6  -3 -22   82.57    9.89
  -6   3 -22  105.62   12.34
  -6   3  23   16.08    5.85
  -6  -3  23   10.62    4.84
  -6  -3 -23   15.30    5.02
  -6   3 -23   18.24    5.90
  -6   3  24   29.63    7.68
  -6   3  25   -0.15    4.28
   6   4   0  167.30   10.92
  -6  -4   0  152.44   10.56
  -6   4   0  157.32   11.57
  -6  -4   0  141.39    7.94
   6   4   0  159.43   10.41
   6   4   1  173.20   11.17
  -6  -4  -1  160.69   10.82
  -6  -4   1  159.46   10.81
   6   4  -1  154.45   10.58
  -6  -4  -1  143.79    7.85
  -6   4  -1  144.15   10.84
  -6   4   1  138.05   10.66
  -6  -4   1  145.30    8.10
   6   4   1  143.84    9.78
   6  -4   1  160.61    8.34
  -6  -4   1  150.21    9.36
   6   4  -1  151.53   10.21
   6   4   2    5.21    3.02
  -6  -4  -2    8.53    3.62
  -6  -4   2    2.48    3.22
   6   4  -2    6.97    2.95
   6  -4   2    6.18    1.85
   6   4   2    6.28    3.99
  -6   4   2    6.30    1.95
  -6  -4  -2    9.70    2.80
  -6   4  -2   -2.98    4.88
  -6   4   2    7.36    4.63
  -6  -4   2    5.85    3.11
  -6  -4  -2    5.21    1.95
  -6  -4   2    5.61    3.07
  -6  -4  -3   72.45    7.42
   6   4   3   75.33    7.85
  -6  -4   3   81.22    7.89
  -6  -4  -3   75.61    4.69
  -6   4   3   75.36    5.26
  -6  -4  -3   76.63    5.76
   6   4   3   66.53    6.69
  -6   4  -3   75.80    7.83
   6  -4   3   75.14    5.47
  -6   4   3   74.05    8.62
  -6  -4   3   74.88    7.16
   6   4  -3   81.08    7.96
  -6  -4   4   17.75    3.83
  -6  -4  -4   18.78    2.30
   6   4   4   11.38    4.02
   6   4   4   20.85    4.22
   6  -4   4   20.24    2.95
  -6  -4  -4   21.13    4.11
  -6  -4   4   17.54    4.30
   6  -4   4   20.62    2.03
  -6  -4  -4   19.09    3.25
  -6   4  -4   19.87    5.38
  -6   4   4   19.85    3.27
  -6   4   4   21.37    5.95
   6   4   5    6.70    3.67
  -6  -4   5    6.75    3.14
   6   4   5    7.12    2.88
  -6  -4  -5    9.78    1.76
   6  -4   5   12.12    2.59
  -6  -4  -5    6.54    3.02
  -6  -4   5    1.22    3.57
  -6  -4  -5    4.77    1.83
  -6   4   5    4.89    1.88
  -6  -4   6    0.79    3.06
   6   4   6    0.31    2.41
   6  -4   6    1.89    1.84
  -6  -4  -6    2.04    1.11
  -6  -4  -6    2.32    3.00
  -6  -4   6   -0.55    3.52
  -6  -4  -6    2.25    1.87
  -6   4  -6    3.02    4.32
   6   4   6   -4.42    4.75
  -6   4   6    3.75    2.14
  -6  -4  -7  403.85   16.16
  -6  -4   7  456.22   19.03
  -6  -4  -7  438.46   14.20
  -6   4  -7  402.79   18.49
  -6   4   7  406.04   14.35
   6  -4   7  442.42   12.39
   6   4   7  420.86   15.70
   6   4   7  401.15   18.34
  -6  -4  -7  378.91    8.68
  -6  -4   7  415.39   17.68
  -6  -4  -8  764.99   22.06
  -6  -4   8  790.73   25.19
  -6  -4  -8  774.03   19.14
  -6   4  -8  801.78   25.92
   6   4   8  737.91   24.93
   6  -4   8  775.92   16.50
   6   4   8  787.50   21.12
  -6   4   8  747.36   20.30
  -6  -4   8  777.94   24.53
  -6  -4  -9  151.77    9.77
  -6  -4   9  147.06   11.50
  -6  -4  -9  151.92    8.84
   6  -4  -9  155.96   11.03
   6   4   9  117.99   10.60
  -6   4  -9  145.21   11.35
   6  -4   9  141.47    7.10
   6   4   9  140.05    9.26
  -6   4   9  145.41    9.33
  -6  -4   9  136.09   10.81
  -6  -4 -10  299.88   13.69
  -6  -4  10  302.00   16.06
  -6  -4 -10  301.26   12.59
   6   4  10  304.30   12.45
   6   4  10  302.48   16.72
   6  -4  10  290.99   10.33
  -6   4 -10  276.56   15.81
   6  -4 -10  277.05   14.72
   6   4  10  301.20   13.04
  -6   4  10  295.19   13.75
  -6   4  10  298.13   16.28
  -6  -4  10  285.24   15.36
   6   4  11   17.99    3.76
   6  -4  11   13.67    2.70
  -6  -4  11   11.34    5.10
   6  -4 -11   18.06    4.03
  -6  -4 -11   16.38    3.68
  -6  -4  11   13.74    4.36
   6   4  11   15.99    4.97
  -6  -4 -11   13.58    3.10
  -6   4 -11   15.38    4.82
   6   4  11   17.12    3.64
  -6   4  11   17.80    5.61
  -6   4  11   15.15    3.79
   6   4  12   22.17    3.77
   6  -4  12   29.68    3.68
  -6  -4  12   13.27    4.45
   6  -4 -12   16.69    4.09
   6   4 -12   15.38    3.07
  -6  -4 -12   24.14    3.75
  -6  -4 -12   16.81    3.44
  -6  -4  12   20.40    5.03
  -6  -4 -12   19.10    3.35
  -6   4 -12   19.50    4.75
   6   4  12   21.95    4.16
  -6   4  12   18.25    5.15
  -6   4  12   21.98    4.49
  -6  -4  13   33.09    6.27
   6  -4 -13   34.72    5.60
   6   4 -13   35.25    4.53
   6   4  13   28.98    5.52
  -6  -4 -13   41.52    4.78
  -6  -4 -13   37.74    4.93
  -6  -4  13   36.40    6.28
  -6  -4 -13   32.41    4.79
  -6   4 -13   36.37    6.37
   6   4  13   36.73    5.21
  -6   4  13   42.95    7.29
  -6   4  13   33.38    5.77
   6   4  13   40.07    4.81
  -6   4  14   40.40    6.37
  -6  -4  14   42.85    7.53
   6   4 -14   39.05    4.76
   6   4  14   38.52    6.30
   6  -4 -14   37.01    5.96
  -6  -4 -14   46.32    5.10
  -6  -4  14   33.94    6.27
  -6  -4 -14   38.45    5.30
   6   4  14   42.72    4.92
  -6   4 -14   32.56    6.72
   6   4  14   40.24    5.34
  -6   4  14   41.77    7.42
  -6  -4  15  274.82   16.95
   6   4  15  269.38   15.99
  -6  -4  15  260.21   15.68
  -6  -4 -15  290.54   14.14
  -6   4 -15  277.07   17.22
   6   4  15  269.94   13.41
  -6   4  15  275.31   15.76
   6  -4 -15  250.11   14.50
  -6   4  15  271.44   16.72
  -6   4  16   83.27   10.10
  -6   4  16   65.73    8.18
  -6  -4  16   79.93    9.86
   6   4  16   62.66    8.05
  -6  -4  16   66.09    8.32
   6  -4 -16   64.18    7.49
  -6  -4 -16   71.37    7.60
   6   4  16   68.42    7.20
  -6   4 -16   67.52    9.18
  -6   4  17   69.45    8.64
  -6   4  17   82.26   10.15
  -6  -4  17   66.39    9.59
   6   4  17   82.20    9.29
  -6  -4  17   77.66    9.00
  -6  -4 -17   63.69    7.61
  -6   4 -17   90.16   10.59
   6   4  17   65.30    7.40
  -6  -4  18  193.41   15.33
   6   4  18  194.18   13.99
  -6  -4  18  188.70   13.88
  -6  -4 -18  198.25   12.88
  -6   4 -18  197.26   15.56
   6   4  18  192.77   12.36
  -6   4  18  161.88   13.07
  -6   4  18  179.98   14.41
  -6   4  19   41.77    7.38
  -6   4  19   49.84    8.66
  -6  -4  19   41.27    8.72
   6   4  19   51.91    7.76
  -6  -4 -19   56.46    7.24
  -6   4 -19   49.69    8.77
   6   4  19   50.16    6.74
  -6   4  20   -3.74    4.28
  -6   4  20    7.31    4.62
  -6  -4  20    1.39    4.27
   6   4  20    1.54    2.60
  -6  -4 -20    1.02    2.78
  -6   4 -20   -2.14    3.86
  -6   4  21   61.51    9.26
  -6   4  21   62.87    9.18
  -6  -4  21   50.37    9.13
   6   4  21   55.11    7.86
  -6  -4 -21   62.04    7.95
  -6   4 -21   44.38    8.21
  -6   4  22   76.65   10.37
  -6   4  22   73.34   10.29
   6   4  22   85.30    9.55
  -6  -4  22   90.08   12.09
  -6   4 -22   73.46   10.46
  -6   4  23   45.53    8.48
  -6   4  23   51.59    8.89
  -6  -4  23   55.29    9.90
  -6   4 -23   53.38    9.14
  -6   4  24   -2.84    4.00
  -6   4  24   10.18    5.90
  -6   4  25   77.32   11.19
  -6  -5   0    5.60    4.52
   6  -5   0    2.14    2.31
  -6  -5   0   -1.80    2.12
  -6   5   0    1.15    4.37
  -6  -5   0    0.39    2.67
   6   5   1  319.31   15.59
  -6  -5   1  293.32   15.09
  -6  -5  -1  310.69   15.27
  -6   5   1  298.52   15.74
  -6  -5  -1  301.17   10.32
  -6   5  -1  289.65   15.37
  -6  -5   1  285.06   10.62
   6  -5   1  285.75   12.12
   6  -5  -1  292.88   12.71
  -6  -5   1  278.64   12.51
  -6  -5   2   49.19    5.83
  -6  -5   2   56.56    7.06
  -6  -5  -2   55.22    6.96
   6   5   2   48.17    6.10
  -6  -5  -2   52.09    4.74
  -6  -5  -2   51.50    4.37
  -6  -5   2   54.49    5.17
   6   5   2   52.88    7.76
  -6   5  -2   40.74    6.12
   6  -5   2   53.67    5.39
  -6   5   2   58.08    7.47
  -6  -5   3    0.07    2.86
  -6  -5  -3   -0.07    1.47
   6   5   3    3.36    4.63
   6  -5   3    0.25    2.01
   6   5   3   -0.68    2.66
  -6  -5   3    5.38    3.61
  -6  -5  -3    1.50    2.95
  -6  -5  -3   -0.55    1.54
  -6   5   3    2.26    2.41
  -6   5  -3    3.79    4.03
  -6   5   3    5.71    4.82
  -6  -5   4    1.14    2.70
  -6  -5  -4    0.03    1.53
   6  -5   4    3.18    2.36
   6   5   4    1.09    2.52
  -6  -5   4   -0.33    3.39
  -6  -5  -4    6.36    4.00
  -6  -5  -4    0.00    1.66
  -6   5   4    0.83    1.92
  -6   5  -4    9.96    7.06
   6   5   4    0.56    3.51
  -6   5   4   11.71    5.82
   6   5   5  314.94   16.25
  -6  -5  -5  305.17   14.81
  -6  -5   5  309.19   16.20
  -6  -5  -5  309.88   10.54
  -6   5   5  301.75   12.15
  -6  -5  -5  308.49   10.19
  -6   5  -5  339.53   16.83
   6  -5   5  318.25   12.12
  -6   5   5  329.20   17.14
   6   5   5  306.31   13.76
  -6  -5   5  322.98   14.82
  -6  -5  -6  135.65    9.89
  -6  -5   6  133.12   10.90
  -6  -5  -6  137.99    7.21
  -6   5   6  127.75    8.30
  -6   5  -6  141.45   11.33
   6  -5   6  140.25    8.07
  -6  -5  -6  135.33    6.62
   6   5   6  130.96    9.01
   6   5   6  133.46   11.14
  -6  -5   6  135.89   10.17
  -6  -5  -7  182.29   11.16
  -6  -5   7  186.56   12.89
  -6  -5  -7  193.42    8.76
  -6   5   7  183.55   10.22
  -6   5  -7  183.99   13.05
   6  -5   7  176.95    9.00
  -6  -5  -7  184.26    7.56
   6   5   7  183.46   10.34
   6   5   7  174.95   12.63
  -6  -5   7  176.52   11.69
   6   5   8    7.33    4.11
  -6  -5   8   16.05    4.68
   6  -5   8   15.38    3.02
   6   5   8   16.95    3.47
  -6  -5  -8   15.57    3.91
  -6  -5   8   21.57    4.94
  -6  -5  -8   16.85    2.41
  -6  -5  -8   18.80    3.01
  -6   5  -8    8.80    4.43
  -6   5   8   22.84    4.35
  -6  -5  -9  200.85   11.51
  -6  -5   9  207.59   13.41
  -6  -5  -9  197.82    9.27
  -6   5  -9  201.87   13.79
   6  -5   9  208.53    9.85
  -6   5   9  209.64   11.75
   6   5   9  194.52   13.67
   6   5   9  204.66   10.67
  -6  -5   9  199.50   12.81
  -6  -5  10   14.65    4.22
   6  -5  10   18.51    3.21
   6   5  10   16.69    3.51
  -6  -5 -10   16.14    3.93
  -6  -5  10   13.25    4.53
  -6   5 -10    9.23    3.55
   6  -5 -10   12.98    3.66
  -6  -5 -10   18.82    3.27
   6   5  10   12.87    4.74
  -6   5  10   12.70    3.73
   6  -5 -11   14.16    4.21
   6  -5  11   16.91    3.29
  -6  -5  11   13.67    4.63
   6   5  11   18.40    3.50
  -6  -5 -11   14.48    3.80
  -6  -5  11   12.97    4.48
   6   5  11   21.64    4.67
  -6  -5 -11   16.80    3.32
   6   5  11    6.21    4.25
  -6   5 -11   16.24    4.92
  -6   5  11   16.00    4.06
   6  -5  12   33.57    4.41
   6  -5 -12   35.43    5.49
  -6  -5  12   38.37    6.81
   6   5  12   36.99    4.60
  -6  -5 -12   34.59    4.93
  -6  -5 -12   33.55    5.17
  -6  -5  12   35.79    6.51
   6   5  12   22.65    5.80
  -6  -5 -12   32.92    4.28
  -6   5 -12   33.19    6.38
   6   5  12   41.53    5.90
  -6   5  12   32.46    5.48
  -6  -5  13  222.50   14.86
  -6  -5 -13  225.61   11.93
  -6  -5 -13  241.30   12.19
  -6  -5  13  226.47   14.69
  -6  -5 -13  227.00   11.44
  -6   5 -13  241.16   15.98
   6   5  13  224.50   12.37
   6   5  13  209.99   15.14
  -6   5  13  215.88   13.38
   6  -5 -13  223.05   13.44
  -6   5  13  234.02   15.23
  -6  -5  14   58.65    8.39
   6  -5 -14   56.83    7.25
  -6  -5 -14   61.92    6.43
  -6  -5 -14   55.42    5.93
  -6  -5  14   57.44    8.02
   6   5  14   52.49    7.92
  -6  -5 -14   60.62    6.17
  -6   5 -14   48.74    8.00
   6   5  14   56.25    6.86
  -6   5  14   60.29    7.73
  -6   5  14   63.43    8.89
  -6  -5  15   24.45    6.10
   6  -5 -15   20.84    4.52
   6   5  15   13.73    4.51
  -6  -5  15   21.59    5.19
  -6  -5 -15   30.51    4.79
  -6  -5 -15   23.22    4.27
  -6   5 -15   25.67    6.52
   6   5  15   23.71    4.87
  -6   5  15   17.90    4.63
  -6   5  15   27.97    5.89
  -6  -5  16   19.88    6.08
   6  -5 -16   18.52    4.05
   6   5  16   13.55    5.16
  -6  -5  16   22.65    5.68
  -6  -5 -16   19.99    4.28
  -6   5 -16   27.85    6.72
   6   5  16   14.48    3.87
  -6   5  16   15.72    4.47
  -6   5  16   25.68    6.39
  -6  -5  17    5.36    4.46
   6   5  17    3.14    3.71
  -6  -5  17    8.29    4.05
   6  -5 -17    1.18    2.50
   6   5  17   -2.53    4.79
  -6   5 -17    2.35    4.25
   6   5  17    2.84    3.01
  -6   5  17    6.42    4.03
  -6   5  17    8.45    4.86
  -6  -5  18  235.85   16.95
   6   5  18  217.58   15.12
  -6  -5  18  210.90   14.98
  -6   5 -18  230.80   16.81
   6   5  18  201.99   16.27
   6   5  18  208.36   13.48
  -6   5  18  206.14   15.14
  -6   5  18  229.03   16.25
  -6  -5  19   67.46    9.98
   6   5  19   57.36    8.29
  -6  -5  19   58.70    8.17
   6   5  19   30.83    7.27
  -6   5 -19   60.54    9.29
   6   5  19   58.04    7.62
  -6   5  19   58.56    8.80
  -6   5  19   48.35    7.83
  -6   5  20   -2.22    4.00
  -6  -5  20   -4.87    5.29
   6   5  20    1.72    2.67
  -6  -5  20   -3.73    3.99
   6   5  20   -8.41    6.13
  -6   5 -20    4.46    4.79
  -6   5  20    0.00    3.59
  -6   5  21   46.55    8.18
  -6  -5  21   34.41    7.77
   6   5  21   45.69    7.44
   6   5  21   40.56    7.78
  -6   5 -21   61.25   10.00
  -6   5  21   38.57    7.55
  -6   5  22   -0.51    3.67
  -6  -5  22    3.55    5.64
   6   5  22   -1.21    2.88
   6   5  22   -1.14    5.66
  -6   5 -22   -0.43    3.84
  -6   5  22    0.96    3.29
  -6   5  23   20.09    6.62
  -6   5  23   13.78    5.40
  -6   5  24  119.09   13.37
  -6   5  25   26.72    7.59
   6  -6   0    3.45    2.89
  -6  -6   0    1.48    1.40
  -6   6   0    3.26    4.38
  -6  -6   0   10.30    3.52
  -6  -6   1  244.43   14.30
  -6  -6  -1  228.89   13.72
  -6  -6  -1  213.04   10.50
  -6  -6  -1  227.80    7.98
  -6   6  -1  237.23   14.48
  -6  -6   1  235.12    8.74
  -6   6   1  229.61   14.40
   6  -6   1  234.27   11.87
   6  -6  -1  228.10   12.17
  -6  -6   1  227.86   11.29
  -6  -6  -2   13.48    3.04
  -6  -6   2   19.58    3.85
   6   6   2   31.61    7.19
   6  -6   2   11.26    3.09
  -6  -6   2   20.50    4.66
  -6  -6  -2   14.34    3.95
   6  -6  -2   14.82    3.55
  -6  -6  -2   16.32    2.21
  -6   6  -2   18.24    5.39
  -6   6   2    9.64    4.11
  -6  -6   2   16.52    2.80
  -6  -6   3   18.20    4.28
  -6  -6  -3   16.48    3.36
   6  -6   3   21.68    4.24
  -6  -6   3   21.71    6.14
  -6  -6  -3   28.79    5.86
  -6  -6  -3   15.52    2.20
   6   6   3   27.95    6.87
  -6   6  -3   29.52    6.68
  -6   6   3   14.97    5.59
   6   6   4  926.89   28.84
  -6  -6   4  980.73   28.75
  -6  -6  -4  912.74   26.54
  -6  -6  -4  959.95   15.87
  -6   6   4  962.14   22.68
  -6  -6  -4  938.50   20.48
  -6   6  -4  964.48   28.95
   6  -6   4  959.83   23.20
  -6   6   4  908.04   28.47
  -6  -6   4  914.54   24.50
   6   6   5   97.02   10.41
  -6  -6  -5   74.63    7.94
  -6  -6   5   67.50    8.35
  -6  -6  -5   75.73    4.63
  -6   6   5   73.06    6.77
  -6  -6  -5   66.35    5.59
  -6   6  -5   87.97    9.45
   6  -6   5   75.63    6.72
  -6   6   5   89.66    9.97
  -6  -6   5   84.66    8.20
   6   6   6   35.18    6.61
  -6  -6   6   31.55    5.47
   6  -6   6   34.85    4.53
  -6  -6   6   39.46    6.41
  -6  -6  -6   27.13    4.92
  -6  -6  -6   35.78    3.19
  -6  -6  -6   40.55    4.42
  -6   6  -6   37.85    6.64
  -6   6   6   30.25    4.49
  -6   6   6   40.45    7.45
   6   6   7  299.39   17.22
  -6  -6   7  296.25   16.33
  -6  -6  -7  289.35   14.63
  -6   6   7  277.57   13.31
  -6   6  -7  300.00   16.61
   6  -6   7  294.62   12.76
  -6  -6  -7  280.37   10.85
  -6  -6   7  295.19   14.91
  -6  -6   8   26.71    5.19
   6  -6   8   22.22    3.89
  -6  -6  -8   21.57    3.28
   6   6   8   11.67    4.88
  -6  -6   8   22.23    5.38
  -6  -6  -8   21.53    4.52
  -6   6  -8   21.32    5.23
  -6   6   8   24.03    4.49
  -6  -6   9    9.69    3.63
   6  -6   9    7.32    2.72
   6   6   9   15.20    5.26
  -6  -6   9   18.26    4.90
  -6  -6  -9   10.84    3.48
  -6  -6  -9    9.05    2.24
  -6   6  -9   10.89    3.85
  -6   6   9   10.60    3.49
  -6  -6  10   69.87    8.31
   6   6  10   67.37    9.15
  -6  -6 -10   68.91    7.37
  -6  -6  10   66.01    8.65
   6  -6  10   67.98    6.44
  -6   6  10   81.15    8.10
  -6   6 -10   71.63    8.78
  -6  -6  11  344.40   17.58
  -6  -6 -11  329.09   15.29
  -6  -6  11  359.46   18.68
   6  -6 -11  338.32   16.61
   6  -6  11  341.28   14.05
  -6   6 -11  379.92   19.82
  -6   6  11  343.20   16.51
   6   6  11  327.99   18.86
  -6  -6  12  154.60   12.47
  -6  -6 -12  151.68   10.26
  -6  -6  12  165.68   13.00
   6   6  12  187.51   11.83
   6  -6  12  162.69    9.94
  -6   6 -12  169.02   13.60
   6  -6 -12  153.27   11.15
  -6   6  12  162.21   11.76
   6   6  12  149.84   13.23
   6  -6 -13   39.57    6.36
  -6  -6  13   36.70    7.08
  -6  -6 -13   38.62    6.06
  -6  -6 -13   42.15    5.70
  -6  -6  13   45.45    7.47
  -6   6 -13   41.33    7.57
   6   6  13   42.38    6.44
  -6   6  13   44.59    6.97
   6   6  13   42.63    8.13
  -6  -6  14  497.87   22.71
  -6  -6 -14  511.26   19.50
  -6  -6 -14  499.12   17.97
  -6  -6  14  489.45   22.53
  -6   6 -14  500.83   24.12
   6   6  14  492.83   20.07
  -6   6  14  480.59   21.30
   6  -6 -14  499.08   19.98
   6   6  14  482.28   24.00
  -6  -6  15  156.10   13.41
  -6  -6 -15  162.58   11.13
  -6  -6  15  156.48   12.99
  -6   6 -15  178.07   14.87
   6   6  15  148.92   11.45
  -6   6  15  147.52   12.54
   6   6  15  151.75   14.02
   6  -6 -15  154.15   11.40
  -6  -6  16   68.70    9.64
   6  -6 -16   62.03    7.27
  -6  -6  16   61.27    8.54
  -6   6 -16   58.25    8.67
   6   6  16   48.09    8.57
   6   6  16   59.66    7.50
  -6   6  16   65.72    9.16
  -6   6  16   64.58    8.66
  -6  -6  17   31.35    6.90
  -6  -6  17   28.84    6.26
  -6   6 -17   27.76    6.65
   6   6  17   26.34    6.45
   6   6  17   25.91    5.31
  -6   6  17   18.22    5.07
  -6   6  17   35.14    7.07
  -6  -6  18  132.01   12.99
  -6  -6  18  121.39   11.70
  -6   6 -18  115.28   12.71
   6   6  18  124.15   10.98
   6   6  18  104.54   12.37
  -6   6  18  125.26   12.18
  -6   6  18  123.83   12.45
  -6  -6  19   35.77    7.92
   6   6  19   24.26    5.69
  -6  -6  19   26.27    6.28
  -6   6 -19   33.93    7.47
   6   6  19   25.60    7.73
   6   6  19   28.72    6.08
  -6   6  19   19.51    5.49
  -6   6  19   29.32    6.71
  -6  -6  20    7.39    4.92
   6   6  20    9.77    3.88
  -6  -6  20   13.53    5.26
  -6   6 -20    8.10    4.17
   6   6  20    5.69    4.65
  -6   6  20   11.87    5.17
  -6   6  20    7.60    4.58
  -6  -6  21   34.63    8.10
   6   6  21   30.81    6.51
  -6  -6  21   26.27    6.09
   6   6  21   22.98    6.51
  -6   6 -21   27.73    6.98
  -6   6  21   24.26    6.27
  -6   6  21   35.91    7.26
   6   6  22  104.73   11.19
  -6  -6  22  111.86   11.71
  -6   6  22  107.37   12.10
  -6   6  22   94.61   11.54
  -6   6  23   53.29    9.31
  -6   6  24  110.74   12.78
  -6  -7   0  255.15   14.93
  -6  -7   0  260.33   12.90
  -6   7   0  258.28   15.49
   6  -7   0  250.00   13.37
  -6  -7   0  248.69   11.24
  -6  -7   1  162.19   12.33
  -6  -7  -1  176.21   12.63
  -6  -7  -1  171.33   10.22
  -6   7  -1  162.09   12.09
  -6   7   1  165.70   12.66
   6  -7   1  160.03   10.67
   6  -7  -1  168.84   11.27
  -6  -7   1  169.30    9.68
  -6  -7   2  310.99   16.72
  -6  -7  -2  310.44   16.21
  -6  -7  -2  314.57   13.54
  -6   7  -2  320.96   17.22
  -6   7   2  301.46   16.62
   6  -7   2  313.30   14.70
   6  -7  -2  318.48   15.50
  -6  -7   2  307.12   13.42
  -6  -7   3  130.22   11.03
  -6  -7  -3  112.94   10.01
  -6  -7  -3  122.26    8.42
  -6   7  -3  119.53   10.76
   6  -7   3  111.03    8.76
  -6   7   3  125.49   11.13
   6  -7  -3  110.12    9.43
  -6  -7   3  117.58    8.64
  -6  -7   4    0.95    2.56
  -6  -7  -4   -0.56    1.82
   6   7   4   12.77    6.23
   6  -7   4   -1.33    2.61
  -6  -7   4   -1.24    3.65
  -6  -7  -4    0.16    3.16
   6  -7  -4    0.64    3.09
  -6   7  -4    4.91    3.98
  -6   7   4    0.27    3.70
   6   7   5   54.42    8.60
  -6  -7   5   33.77    5.37
  -6  -7  -5   41.61    5.00
   6  -7   5   34.73    5.26
  -6  -7   5   31.65    5.20
  -6  -7  -5   32.99    5.53
  -6   7   5   37.61    5.29
  -6   7  -5   36.65    6.62
  -6   7   5   46.91    7.49
  -6  -7   6    4.15    2.69
   6  -7   6    4.02    2.20
  -6  -7  -6    1.43    1.74
  -6  -7   6   -1.96    4.23
  -6  -7  -6   -0.70    3.59
  -6   7  -6   -0.72    3.62
  -6   7   6    4.02    3.09
  -6   7   6    5.74    3.96
  -6  -7   7    6.01    3.68
   6  -7   7    2.59    2.18
  -6  -7  -7    0.77    1.79
  -6  -7   7   -2.03    3.60
  -6  -7  -7   -1.51    3.43
   6   7   7    7.74    5.10
  -6   7  -7    5.93    4.33
  -6   7   7    1.63    2.83
  -6   7   7   13.73    5.78
  -6  -7   8   -2.38    3.01
   6  -7   8    0.27    2.22
   6   7   8    3.01    4.85
  -6  -7  -8    1.62    1.65
  -6  -7   8   -0.22    3.14
  -6  -7  -8   -2.89    3.33
  -6   7  -8   -5.03    4.73
  -6   7   8   -3.17    3.16
  -6   7   8    4.41    4.94
   6   7   9   11.06    4.88
  -6  -7   9    5.72    3.01
   6  -7   9    8.96    3.14
  -6  -7   9    6.35    3.65
  -6  -7  -9    8.05    3.23
  -6   7  -9   12.84    4.47
  -6   7   9    7.86    3.06
  -6  -7  10   98.21    9.61
  -6  -7  10   99.90   10.52
  -6  -7 -10   98.45    9.00
   6  -7  10  100.43    8.48
  -6   7  10   91.17    8.77
  -6   7 -10   96.20   10.32
   6   7  10   95.89   10.92
   6  -7  11    0.82    2.44
  -6  -7  11    2.25    3.69
  -6  -7  11    2.78    3.74
  -6  -7 -11    2.50    3.22
   6   7  11   -0.49    4.42
  -6   7 -11    7.41    4.88
  -6   7  11   -4.35    3.66
   6  -7  12   28.77    4.85
  -6  -7  12   26.09    5.88
   6   7  12    6.29    4.96
  -6  -7  12   25.15    6.41
  -6  -7 -12   19.12    4.09
  -6   7 -12   27.45    6.70
  -6   7  12   15.57    4.58
   6  -7 -12   20.58    4.51
   6  -7 -13   12.70    3.90
  -6  -7  13   18.91    5.62
  -6  -7 -13   19.03    4.87
   6   7  13   12.15    5.47
  -6  -7 -13   12.30    3.51
  -6  -7  13   17.14    5.66
  -6   7 -13   19.54    5.83
  -6   7  13   16.22    4.75
  -6  -7  14   79.14    9.82
  -6  -7 -14   81.92    8.75
   6   7  14   77.84   10.71
  -6  -7  14   71.13    9.09
   6   7  14   92.61    9.59
  -6   7 -14   78.45   10.23
  -6   7  14   85.56    9.57
   6  -7 -14   67.56    7.70
  -6  -7  15   26.23    6.58
   6   7  15   22.85    6.50
  -6  -7 -15   26.49    4.98
  -6  -7  15   35.64    7.13
  -6   7 -15   27.60    6.30
   6   7  15   30.33    6.26
  -6   7  15   27.47    6.20
  -6  -7  16   18.54    5.97
   6   7  16   10.83    5.02
  -6  -7 -16   13.57    3.78
  -6  -7  16   13.18    4.77
  -6   7 -16    3.45    3.78
   6   7  16   15.24    4.92
  -6   7  16   17.86    5.05
  -6  -7  17   20.10    6.24
   6   7  17   23.25    6.69
  -6  -7  17   15.52    5.00
   6   7  17   24.17    5.64
  -6   7 -17   30.07    7.46
  -6   7  17   24.57    6.15
   6   7  18   34.22    7.87
  -6  -7  18   36.56    7.48
  -6  -7  18   33.52    6.82
  -6   7 -18   38.57    8.00
   6   7  18   38.62    6.86
  -6   7  18   34.11    7.25
   6   7  19   -2.06    5.67
  -6  -7  19    3.72    3.93
  -6  -7  19   -0.55    3.20
  -6   7 -19    1.65    3.67
   6   7  19    1.55    2.99
  -6   7  19   -0.89    3.05
   6   7  20    9.77    5.34
  -6  -7  20    8.41    5.33
  -6  -7  20    9.07    4.66
  -6   7 -20   11.80    4.52
  -6   7  20    3.67    3.59
   6   7  21    4.07    3.33
  -6  -7  21    0.09    2.93
  -6   7  21    5.47    4.53
  -6   7  21    4.57    3.85
   6   7  22   29.47    6.45
  -6  -7  22   21.12    5.73
  -6   7  22   17.40    6.10
   6  -8   0   13.34    3.97
  -6  -8   0   11.82    4.27
  -6   8   0    5.50    3.64
  -6  -8   0   11.75    3.01
  -6  -8   0   13.93    3.76
  -6  -8  -1   18.44    4.16
   6  -8   1   18.93    4.52
   6  -8  -1   14.70    4.28
  -6  -8   1   13.41    3.96
  -6  -8  -1   14.12    4.63
  -6  -8   1   16.04    4.22
  -6   8  -1   13.16    4.72
  -6   8   1    1.61    4.75
  -6  -8   1   15.76    3.29
  -6  -8   2   36.52    4.98
  -6  -8  -2   39.15    5.58
   6  -8   2   35.57    5.90
   6  -8  -2   43.93    6.40
  -6  -8   2   39.70    7.06
  -6  -8  -2   39.15    6.57
  -6   8  -2   44.51    7.27
  -6   8   2   31.96    6.13
   6  -8   3  296.79   12.60
  -6  -8   3  304.65   17.50
  -6  -8  -3  316.88   17.16
  -6  -8  -3  300.47   14.22
  -6   8  -3  307.88   17.40
   6  -8   3  303.33   15.33
  -6   8   3  283.22   16.71
   6  -8  -3  305.24   16.17
  -6  -8   3  306.55   13.70
  -6  -8  -4   79.77    9.07
  -6  -8   4   79.23    9.56
  -6  -8  -4   83.15    7.54
  -6   8  -4   78.82   10.01
   6  -8   4   87.48    8.66
  -6   8   4   83.34    9.89
   6  -8  -4   80.08    9.12
  -6  -8   4   81.85    7.64
  -6  -8   5  286.00   17.13
  -6  -8  -5  272.92   15.82
  -6   8  -5  298.11   17.40
  -6  -8  -5  295.27   13.88
   6  -8   5  288.36   14.90
  -6   8   5  290.56   17.26
   6  -8  -5  280.03   16.06
  -6  -8   5  268.94   13.65
  -6  -8   6   -0.58    2.81
   6  -8   6   -1.31    2.53
  -6  -8  -6   -3.84    2.91
  -6  -8   6    1.78    3.80
  -6  -8  -6    0.29    3.24
  -6   8  -6   -0.83    3.70
  -6   8   6    5.76    3.96
  -6   8   6    8.02    4.44
   6   8   7  630.51   26.60
  -6  -8   7  593.18   24.73
  -6  -8  -7  531.96   21.88
  -6   8   7  586.01   21.67
  -6   8  -7  600.29   24.98
   6  -8   7  583.27   20.90
  -6  -8  -7  587.56   19.16
  -6   8   7  580.48   24.62
  -6  -8   7  575.70   21.16
  -6  -8   8    3.27    3.13
   6  -8   8    0.42    2.43
  -6  -8   8    3.87    4.21
  -6  -8  -8    6.50    4.09
   6   8   8   10.05    5.36
  -6   8  -8   -2.37    3.66
  -6   8   8    1.89    3.09
  -6   8   8    6.16    4.63
  -6  -8   9   39.37    6.21
   6   8   9   46.99    8.89
   6  -8   9   34.26    5.51
  -6  -8   9   34.32    6.81
  -6  -8  -9   44.16    6.68
  -6   8  -9   41.86    6.77
  -6   8   9   40.73    6.48
  -6   8   9   46.01    8.15
  -6  -8  10   28.39    5.74
   6  -8  10   34.78    5.82
  -6  -8  10   27.06    6.39
  -6  -8 -10   26.06    5.14
   6   8  10   31.81    7.69
  -6   8 -10   25.39    5.72
  -6   8  10   25.32    5.40
  -6  -8  11  258.19   15.78
   6   8  11  253.60   18.15
  -6  -8  11  250.21   16.84
  -6  -8 -11  260.01   14.92
  -6   8 -11  273.35   17.77
   6  -8  11  260.37   14.37
  -6   8  11  259.62   15.69
   6  -8  12    7.60    3.22
  -6  -8  12    8.09    4.13
   6   8  12    8.62    5.66
  -6  -8  12    5.24    3.68
  -6  -8 -12    7.36    3.37
  -6   8 -12   12.95    5.46
  -6   8  12    5.74    3.98
   6   8  13    3.42    4.37
  -6  -8  13    3.87    3.78
  -6  -8 -13    2.89    2.80
  -6  -8  13    2.12    4.06
  -6  -8 -13   -3.44    3.06
  -6   8 -13    2.04    3.45
  -6   8  13    6.08    3.35
  -6  -8  14   28.75    6.82
  -6  -8 -14   21.98    5.02
  -6  -8  14   20.79    6.52
  -6   8 -14   19.30    6.93
  -6   8  14   20.87    5.71
   6   8  14   30.20    8.32
  -6  -8  15  543.67   24.97
   6   8  15  558.81   27.60
  -6  -8 -15  536.37   22.96
  -6  -8  15  532.14   25.19
  -6   8 -15  528.24   26.17
  -6   8  15  533.28   24.47
  -6  -8  16    2.88    3.68
  -6  -8 -16    8.07    3.89
  -6  -8  16    7.17    5.08
   6   8  16   18.93    5.78
   6   8  16   19.10    7.27
  -6   8 -16    3.87    4.73
  -6   8  16    9.71    4.78
   6   8  17  208.76   17.45
  -6  -8  17  205.35   16.23
  -6  -8  17  220.74   16.70
  -6   8 -17  230.48   18.05
   6   8  17  229.15   16.00
  -6   8  17  241.39   17.43
  -6  -8  18    8.00    5.45
  -6  -8  18    7.20    4.63
   6   8  18   13.68    6.82
  -6   8 -18   -0.27    4.50
   6   8  18    7.41    4.78
  -6   8  18   19.59    7.00
  -6  -8  19  147.40   14.57
  -6  -8  19  133.46   13.09
   6   8  19  152.93   13.67
  -6   8  19  156.20   14.72
  -6  -8  20   36.53    7.65
  -6   8  20   27.92    7.11
  -6  -8  21  199.29   16.28
   6  -9   0  118.51    9.27
  -6  -9   0  124.92   11.72
  -6  -9   0  116.67    9.85
  -6   9   0  118.84   11.35
   6  -9   0  123.72   10.83
  -6  -9  -1   -1.59    2.79
   6  -9   1    2.24    3.27
   6  -9  -1    4.98    3.30
   6  -9   1   -2.88    3.08
  -6  -9   1    0.11    3.41
  -6  -9  -1    0.08    3.50
  -6   9  -1    1.37    3.54
  -6   9   1   -0.41    4.51
  -6  -9   1    2.80    2.44
  -6  -9  -2   -1.87    3.05
   6  -9   2   -1.37    3.07
   6  -9  -2   -3.26    3.43
   6  -9   2   -0.59    2.66
  -6  -9   2   -2.79    3.94
  -6  -9  -2   -1.96    3.75
  -6   9  -2   -1.85    3.64
  -6   9   2   -1.97    4.66
  -6  -9   2    0.64    2.88
  -6  -9  -3    3.67    3.04
   6  -9   3    3.16    3.14
   6  -9  -3    0.99    2.83
  -6  -9   3   -0.91    3.81
  -6  -9  -3    2.01    3.26
  -6   9  -3    3.07    4.03
  -6   9   3   -5.40    5.23
  -6  -9   4    3.26    2.63
  -6  -9  -4    4.05    2.94
   6  -9   4    5.14    3.62
   6  -9  -4    5.28    4.09
  -6  -9   4    1.55    3.30
  -6  -9  -4    2.81    3.18
  -6   9  -4    2.21    3.59
  -6   9   4    3.03    3.65
   6  -9   5  243.08   14.60
  -6  -9   5  262.71   17.18
  -6  -9  -5  220.52   15.07
  -6   9  -5  233.73   15.92
  -6  -9  -5  244.53   13.56
  -6   9   5  234.27   15.99
   6  -9  -5  250.78   16.02
  -6  -9   5  247.85   13.18
  -6  -9   6   74.30    9.78
  -6  -9  -6   65.16    8.35
   6  -9  -6   75.64    9.30
   6  -9   6   70.78    8.22
  -6  -9  -6   77.06    7.80
  -6   9  -6   73.19    9.50
  -6   9   6   84.33   10.28
  -6  -9   6   75.15    7.94
  -6  -9   7   -0.33    3.20
   6  -9   7    1.98    2.69
  -6  -9  -7    5.24    3.26
  -6  -9   7   -0.26    3.53
  -6  -9  -7    5.92    4.12
  -6   9   7    4.49    3.54
  -6   9  -7    3.60    3.75
  -6   9   7    0.55    3.91
  -6  -9   8   36.91    6.06
   6  -9   8   42.85    6.51
  -6  -9   8   44.48    7.88
  -6  -9  -8   47.34    7.12
  -6   9  -8   35.36    6.73
  -6   9   8   42.46    6.84
  -6   9   8   52.50    8.63
  -6  -9   9   12.20    3.83
   6  -9   9   12.49    3.22
  -6  -9   9   13.46    4.72
  -6  -9  -9   17.95    4.74
  -6   9  -9   13.61    4.64
  -6   9   9   18.49    4.96
   6   9   9   19.45    6.52
  -6   9   9   17.13    5.21
  -6  -9  10   15.65    4.03
   6  -9  10   12.75    4.00
   6   9  10   23.07    7.44
  -6  -9  10   18.47    5.12
  -6  -9 -10   19.12    4.98
  -6   9 -10   18.89    5.84
  -6   9  10   22.65    5.66
  -6   9  10   17.43    6.05
  -6  -9  11   10.89    3.73
   6  -9  11   17.64    4.51
   6   9  11   32.63    8.34
  -6  -9  11   12.90    3.85
  -6  -9 -11   14.75    4.27
  -6   9 -11   22.84    6.24
  -6   9  11   16.15    4.26
  -6   9  11   24.42    7.00
  -6  -9  12   12.49    4.50
   6   9  12   20.35    7.11
  -6  -9  12   20.47    5.34
  -6  -9 -12   16.46    4.38
  -6   9 -12   14.39    5.52
  -6   9  12   15.41    5.05
   6   9  13   24.12    7.36
  -6  -9  13   18.29    5.51
  -6  -9 -13   14.15    4.25
  -6  -9  13   11.66    4.67
  -6  -9 -13   23.36    5.15
  -6   9 -13   18.83    5.92
  -6   9  13    6.43    3.18
  -6  -9  14   26.28    6.49
  -6  -9 -14   43.49    7.32
  -6  -9  14   38.00    7.78
  -6   9 -14   33.22    7.30
  -6   9  14   32.90    6.51
   6   9  14   37.24    8.29
  -6  -9  15    6.91    4.71
  -6  -9 -15    3.09    2.97
  -6  -9  15    2.24    3.94
   6   9  15   13.31    5.91
  -6   9 -15    6.86    5.20
  -6   9  15    1.55    3.80
  -6  -9  16    3.35    4.43
  -6  -9 -16    8.89    3.58
   6   9  16    9.60    5.48
  -6  -9  16    0.70    3.54
  -6   9 -16    4.12    4.11
  -6   9  16   -1.02    4.28
  -6  -9  17   26.61    6.79
   6   9  17   23.90    7.80
  -6  -9  17   23.08    6.61
  -6   9 -17   21.51    6.43
  -6   9  17    9.35    5.53
  -6  -9  18    8.42    5.23
  -6  -9  18   -3.50    3.90
   6   9  18    6.45    4.85
  -6   9  18    0.70    3.71
  -6  -9  19   -1.78    3.98
   6   9  19    5.37    4.55
  -6   9  19    1.88    3.56
  -6  -9  20   20.26    6.16
   6 -10   0  146.98   11.01
  -6 -10   0  139.50   12.84
  -6 -10   0  141.55   11.71
  -6  10   0  140.71   12.36
   6 -10   0  147.59   12.54
  -6 -10   1   19.69    5.22
  -6 -10  -1   20.25    4.90
   6 -10   1   14.66    4.98
   6 -10  -1   19.84    5.18
   6 -10  -1   16.67    4.21
  -6 -10   1   16.58    5.48
  -6 -10  -1   16.58    5.56
  -6  10  -1   14.46    5.43
  -6  10   1   15.35    5.40
  -6 -10  -2    8.11    3.38
   6 -10   2    4.57    3.31
   6 -10  -2    9.26    3.70
  -6 -10   2    8.37    5.30
  -6 -10  -2    8.43    3.84
  -6  10  -2    9.36    4.56
  -6  10   2    1.07    4.37
  -6 -10   2    9.96    4.18
   6 -10  -3   68.40    9.07
  -6 -10   3   77.01   10.00
  -6 -10  -3   68.38    9.12
  -6 -10  -3   71.91    8.12
   6 -10   3   73.24    8.76
  -6  10  -3   62.08    9.11
  -6  10   3   57.54    8.34
  -6 -10   3   63.55    8.46
  -6 -10   4  181.09   14.99
  -6 -10  -4  184.06   14.36
  -6 -10  -4  193.70   13.16
  -6  10  -4  201.64   15.22
   6 -10   4  197.86   14.09
  -6  10   4  176.44   14.13
   6 -10  -4  181.11   14.28
  -6 -10  -5    9.08    3.25
   6 -10   5   20.68    5.46
   6 -10  -5    6.06    3.66
  -6 -10   5    4.99    3.80
  -6 -10  -5    8.45    4.09
  -6  10  -5   14.66    4.86
  -6  10   5    8.58    4.07
   6 -10   6   75.11    8.76
  -6 -10   6   86.87   10.51
  -6 -10  -6   72.87    9.25
   6 -10  -6   76.71    9.62
  -6  10  -6   71.97    9.63
  -6  10   6   71.64    9.48
   6 -10   7    9.89    4.06
  -6 -10   7   16.78    6.01
  -6 -10  -7   12.21    4.44
  -6  10  -7   13.70    4.87
  -6  10   7   12.46    5.66
  -6 -10   8  191.84   15.73
  -6 -10  -8  177.93   14.02
  -6  10  -8  186.01   15.28
   6 -10   8  190.28   14.07
  -6  10   8  214.19   15.96
  -6 -10   9   -5.40    3.92
   6 -10   9    1.07    3.56
  -6 -10   9   -0.04    4.19
  -6 -10  -9   -2.03    3.67
  -6  10   9    9.84    4.79
  -6  10  -9    2.79    4.43
  -6  10   9    5.15    4.41
  -6 -10  10   52.75    7.51
   6 -10  10   52.89    7.63
  -6 -10  10   65.32    9.64
  -6 -10 -10   59.58    8.00
  -6  10 -10   55.32    8.58
  -6  10  10   61.82    8.64
  -6  10  10   58.95    9.31
  -6 -10  11  167.99   13.26
  -6 -10  11  189.40   15.83
  -6 -10 -11  180.07   13.75
  -6  10 -11  164.32   14.88
  -6  10  11  168.20   14.04
   6 -10  11  163.84   12.95
  -6  10  11  163.74   14.53
  -6 -10  12  108.68   11.02
  -6 -10  12  136.26   13.72
  -6 -10 -12  122.87   11.31
  -6  10 -12  128.90   13.40
  -6  10  12  114.02   11.98
  -6  10  12  128.60   13.13
  -6 -10  13    7.73    4.67
  -6 -10 -13   -0.39    3.02
  -6 -10  13   -2.56    4.13
   6  10  13   10.46    6.69
  -6  10 -13    6.28    5.20
  -6  10  13    9.80    5.73
  -6  10  13    8.79    5.94
  -6 -10  14  164.15   14.16
  -6 -10 -14  165.29   14.25
   6  10  14  162.99   16.35
  -6 -10  14  179.40   15.65
  -6  10 -14  169.18   15.55
  -6  10  14  172.68   15.21
  -6  10  14  191.59   16.15
  -6 -10  15   98.24   11.21
  -6 -10 -15   93.29   10.86
  -6 -10  15   75.31   10.48
  -6  10 -15   83.63   11.38
  -6  10  15   83.13   10.82
  -6 -10  16   11.27    5.28
  -6 -10 -16   12.37    4.98
  -6 -10  16    5.70    4.76
  -6  10  16   12.90    5.55
  -6 -10  17    3.29    4.40
  -6  10  17    0.27    4.05
  -6 -11   0   36.76    6.57
   6 -11   0   31.44    6.77
  -6 -11   0   21.02    5.63
  -6  11   0   33.56    7.07
  -6 -11   1   37.74    6.86
  -6 -11  -1   39.79    6.94
   6 -11   1   23.49    5.70
   6 -11  -1   44.63    7.62
   6 -11  -1   46.09    7.00
  -6 -11   1   45.16    8.29
  -6 -11  -1   34.60    7.33
  -6  11  -1   31.71    6.68
  -6  11   1   30.83    6.66
  -6 -11   2   36.84    6.76
  -6 -11  -2   40.56    6.87
   6 -11   2   44.15    7.41
   6 -11  -2   47.32    7.82
   6 -11  -2   41.47    6.64
  -6 -11   2   46.51    8.14
  -6 -11  -2   36.10    6.99
  -6  11  -2   35.06    7.25
  -6  11   2   41.45    7.58
   6 -11  -3   91.65    9.69
  -6 -11   3   92.60   11.10
  -6 -11  -3   95.03   10.96
  -6 -11   3   94.79   10.61
  -6 -11  -3   88.82    9.45
  -6  11  -3   97.84   11.12
  -6  11   3  101.87   11.01
   6 -11   3   95.58   10.74
   6 -11  -3   92.64   10.82
  -6 -11  -4   13.30    4.15
   6 -11   4   14.34    4.77
   6 -11  -4    6.09    3.68
  -6 -11   4    4.28    4.07
  -6 -11  -4    5.97    3.93
  -6  11  -4    7.30    4.28
  -6  11   4    5.11    3.97
  -6 -11   4    8.23    4.32
   6 -11   5    0.96    3.12
   6 -11  -5    4.68    3.56
  -6 -11   5   -1.32    3.95
  -6 -11  -5    5.07    3.92
  -6 -11   5    4.49    3.94
  -6  11  -5    4.20    3.87
  -6  11   5    1.02    3.76
   6 -11   6   -2.58    4.23
  -6 -11   6   -2.64    4.57
  -6 -11  -6    9.70    4.64
   6 -11  -6    6.02    3.79
  -6  11  -6    0.53    3.78
  -6  11   6    2.08    4.44
   6 -11   7    9.75    4.23
  -6 -11   7   10.89    4.99
  -6 -11  -7    7.43    3.95
   6 -11  -7   12.47    4.50
  -6  11  -7   12.47    4.78
  -6  11   7   13.10    4.72
   6 -11   8   -4.89    3.75
  -6 -11   8   11.45    5.18
  -6 -11  -8   -7.48    4.49
  -6  11  -8    5.39    4.91
  -6  11   8    2.74    3.98
   6 -11   9   18.54    5.21
  -6 -11   9   21.67    6.24
  -6 -11  -9   13.82    4.95
  -6  11  -9   10.56    4.77
  -6  11   9   24.70    6.24
   6 -11  10   -2.27    3.34
  -6 -11  10    0.00    4.26
  -6 -11 -10   -6.10    3.85
  -6  11 -10    2.67    4.25
  -6  11  10    6.63    5.02
  -6 -11  11    0.35    3.40
  -6 -11 -11    0.63    2.94
  -6  11  11    8.52    5.34
  -6  11 -11    0.02    3.60
  -6  11  11    8.85    5.52
  -6 -11  12   41.51    8.29
  -6 -11 -12   49.10    7.89
  -6  11 -12   69.72   10.27
  -6  11  12   52.39    8.95
  -6  11  12   46.32    8.52
  -6 -11 -13   51.51    8.67
  -6  11 -13   48.51    8.66
  -6  11  13   58.02    9.63
  -6 -11 -14    9.29    4.24
  -6  11  14   11.28    5.42
  -6  11  14   21.00    6.79
  -6 -11  15    2.58    3.95
  -6 -11 -15    7.28    4.25
  -6  11  15    3.84    4.01
  -6  11  15    7.09    5.10
  -6 -11  16   45.12    8.25
  -6 -11 -16   31.28    6.78
  -6  11  16   32.77    7.97
  -6 -12   0   40.73    7.49
   6 -12   0   42.16    7.93
  -6 -12   0   49.54    8.83
  -6  12   0   45.59    8.17
  -6 -12   1   47.77    8.07
  -6 -12  -1   43.97    7.54
   6 -12   1   34.34    6.91
   6 -12  -1   45.92    8.10
  -6 -12   1   47.67    8.78
  -6 -12  -1   42.81    8.21
  -6  12  -1   43.77    7.89
  -6  12   1   48.73    8.26
   6 -12  -2   79.70   10.49
  -6 -12   2   86.23   11.40
  -6 -12  -2   77.08   10.72
  -6 -12   2   85.90   10.36
  -6 -12  -2   84.55    9.89
  -6  12  -2   98.81   11.37
  -6  12   2  108.23   11.59
   6 -12   2   93.53   10.98
  -6 -12   3   72.07    9.80
  -6 -12  -3   60.25    8.63
   6 -12   3   70.65    9.63
   6 -12  -3   66.74    9.63
   6 -12  -3   58.56    8.15
  -6 -12   3   79.29   10.87
  -6 -12  -3   72.46   10.55
  -6  12  -3   59.86    8.94
  -6  12   3   64.67    9.23
   6 -12   4   41.06    7.70
   6 -12  -4   39.01    7.86
  -6 -12   4   33.27    7.62
  -6 -12  -4   31.73    7.07
  -6  12  -4   45.74    8.08
  -6  12   4   48.17    8.36
  -6 -12   4   39.19    7.37
   6 -12   5   19.58    5.41
   6 -12  -5   16.60    5.52
  -6 -12   5   25.69    7.13
  -6 -12  -5   18.82    6.10
  -6  12  -5    9.16    4.09
  -6  12   5   16.69    5.34
  -6 -12   5   15.28    5.35
   6 -12   6    7.88    3.99
   6 -12  -6    7.52    3.48
  -6 -12  -6    2.14    3.59
  -6  12  -6    3.38    3.66
  -6  12   6    2.41    3.36
  -6 -12   6   13.37    5.31
   6 -12   7    4.88    3.54
  -6 -12   7    5.69    4.26
  -6 -12  -7    2.32    3.35
   6 -12  -7    2.65    3.52
  -6  12  -7    8.30    4.29
  -6  12   7   -0.89    4.84
   6 -12   8   14.92    5.02
  -6 -12  -8   13.73    5.17
  -6  12  -8   17.22    5.55
  -6  12   8   22.72    5.86
   6 -12   9   41.12    7.29
  -6 -12  -9   47.40    8.18
  -6  12  -9   41.58    8.02
  -6  12   9   40.69    7.56
  -6 -12 -10   17.62    5.76
  -6  12 -10    6.20    4.52
  -6  12  10   19.36    6.39
  -6 -12 -11  166.60   14.47
  -6  12 -11  171.03   15.72
  -6  12  11  157.33   14.56
  -6  12  12   -2.70    4.11
  -6  12  13    1.64    3.84
  -6 -13   0   52.88    8.58
   6 -13   0   54.23    9.03
  -6  13   0   53.29    8.59
  -6 -13   1    9.54    4.78
  -6 -13  -1    8.52    3.97
   6 -13   1   14.78    5.83
   6 -13  -1    5.50    4.39
  -6  13  -1    4.86    3.34
  -6  13   1    6.29    4.30
  -6 -13   2   15.07    5.09
   6 -13   2   15.60    5.56
   6 -13  -2    9.54    4.40
  -6  13  -2   12.70    4.85
  -6  13   2   10.52    4.21
  -6 -13   3   15.29    5.36
   6 -13   3   23.47    6.54
   6 -13  -3   11.42    5.15
  -6  13  -3   13.31    5.07
  -6  13   3    8.26    4.59
  -6 -13   4   15.04    5.05
   6 -13   4   16.09    5.83
  -6  13  -4   19.90    6.53
  -6  13   4   20.32    5.94
  -6 -13   5    4.68    3.64
   6 -13   5    3.28    3.10
  -6  13  -5    3.45    3.74
   6 -13   6   -1.50    3.40
  -6  13  -6    0.52    3.30
  -6 -13   6    0.74    3.23
   6 -13   7   18.19    5.83
  -6  13  -7   18.76    5.77
   6 -13   8   -2.07    3.34
  -6  13  -8    2.88    3.33
   7   0   0    5.65    3.96
  -7   0   0    3.75    1.23
  -7   0   0    1.53    3.23
   7   0  -1    7.56    4.57
   7   0   1   14.32    5.10
  -7   0  -1   -1.64    1.04
  -7   0   1    1.54    1.10
   7   0  -1   -8.79    3.57
  -7   0  -1   -1.68    3.29
  -7   0   1   -4.01    3.21
   7   0  -2 1269.38   29.69
   7   0   2 1254.88   30.81
   7   0  -2 1202.02   30.74
  -7   0  -2 1225.59   29.18
   7   0  -2 1235.53   23.74
  -7   0   2 1263.55   29.93
  -7   0   2 1232.45   20.40
   7   0  -3    1.89    3.13
   7   0  -3    6.81    4.03
   7   0   3   13.16    5.14
   7   0  -3   -1.69    2.51
  -7   0  -3   -4.68    4.37
  -7   0   3    5.29    4.45
   7   0  -4  657.62   21.08
   7   0   4  670.54   23.06
   7   0  -4  657.65   16.01
   7   0  -4  669.15   23.03
  -7   0  -4  659.43   21.37
   7   0  -5   15.16    5.71
   7   0  -5    0.45    2.80
   7   0   5   13.18    5.61
   7   0  -5    7.77    2.93
  -7   0  -5    7.00    3.93
  -7   0   5    4.05    4.95
   7   0  -6  176.94   10.91
   7   0   6  176.98   12.25
  -7   0  -6  169.18   11.35
   7   0  -6  181.30   12.60
  -7   0   6  197.71   13.19
   7   0   7    1.85    4.31
   7   0  -7   -1.74    3.39
  -7   0  -7   -1.06    3.43
  -7   0   7    1.36    4.59
   7   0   8  695.46   24.47
  -7   0  -8  707.17   23.29
   7   0  -8  726.44   24.91
  -7   0   8  719.79   25.17
  -7   0   9    8.66    5.72
   7   0   9   11.12    5.13
   7   0  -9    2.86    3.60
  -7   0  -9    3.73    3.55
   7   0  10  109.07   10.20
  -7   0 -10  112.31    9.71
   7   0 -10  103.86   10.26
  -7   0  10  113.34   10.58
  -7   0  11   -3.39    4.34
   7   0  11    3.76    4.08
   7   0 -11    5.94    4.36
  -7   0 -11   -1.31    3.18
   7   0  12  221.72   14.47
  -7   0 -12  184.99   13.16
  -7   0  12  206.70   14.76
   7   0 -12  195.72   13.83
  -7   0  13   32.93    8.54
   7   0  13   23.47    7.35
  -7   0 -13   11.92    5.72
   7   0  14 1160.27   33.29
  -7   0 -14 1157.90   32.55
  -7   0  14 1207.76   35.57
  -7   0  15   14.60    7.97
  -7   0 -15    7.54    4.74
  -7   0 -16  806.24   28.35
  -7   0  16  852.18   31.12
  -7   0  17   22.08    7.79
  -7   0 -17    8.26    4.90
  -7   0 -18   94.76   10.27
  -7   0  18   90.21   11.65
  -7   0  19    0.76    5.29
  -7   0 -19    2.35    3.63
  -7   0 -20  152.45   13.88
  -7   0  20  169.53   15.36
  -7   0  21   11.24    6.59
  -7   0 -21   -4.44    4.68
  -7   0  22   63.29   10.48
  -7   0 -22   58.23    8.98
  -7   0 -23    3.65    4.51
  -7   0 -24  252.58   18.98
   7   1   0    4.18    3.66
  -7   1   0   -0.87    1.28
   7   1   0    3.21    3.48
  -7  -1   0    0.27    0.91
   7   1   0   -3.67    3.50
  -7  -1   0   -0.60    0.54
  -7   1   0   -6.33    4.80
  -7  -1   0   -0.13    3.43
   7   1  -1  290.75   14.73
   7   1   1  273.93   14.68
   7   1   1  265.92   14.36
  -7  -1   1  274.13    6.82
  -7   1  -1  272.60    7.68
   7   1   1  261.46   12.63
   7   1  -1  276.23   14.95
  -7   1   1  261.77    9.22
  -7  -1  -1  278.73   13.52
  -7   1  -1  278.00   14.48
  -7   1   1  291.32   15.19
  -7  -1   1  279.58   13.87
  -7  -1  -1  266.68    6.67
   7   1  -1  270.91   12.32
   7   1  -2  480.80   18.77
   7   1   2  483.47   19.34
  -7   1  -2  442.93    8.37
  -7   1   2  428.79    7.50
   7   1  -2  453.94   19.02
  -7  -1  -2  456.57   17.09
  -7   1  -2  455.79   18.47
  -7   1   2  458.04   19.15
  -7  -1   2  457.93   17.80
   7   1  -2  475.81   15.63
   7   1  -3  207.96   12.30
   7   1   3  222.16   13.33
   7   1  -3  194.66    9.94
   7   1  -3  202.64   12.91
   7  -1  -3  196.88    8.68
  -7   1   3  206.09    6.43
  -7  -1  -3  190.81   11.28
  -7   1  -3  176.03   11.40
  -7   1   3  201.22   12.81
  -7  -1   3  211.45   12.43
   7   1  -4  132.04    9.83
   7   1   4  136.02   10.69
   7   1  -4  130.76    7.90
  -7   1  -4  114.44    4.78
   7  -1  -4  124.88   10.30
  -7  -1  -4  131.24    9.54
  -7   1  -4  131.70   10.41
   7   1  -4  125.90   10.41
  -7   1   4  121.21    5.69
   7  -1  -4  119.66    6.56
  -7  -1   4  133.38   10.61
   7  -1  -5    8.48    4.74
   7   1  -5    1.55    3.10
   7  -1  -5    3.91    2.00
   7   1   5    1.14    3.65
   7   1  -5    7.43    4.49
  -7   1  -5    1.80    0.70
  -7  -1  -5    7.60    3.57
  -7   1  -5    4.25    3.88
  -7  -1   5   -2.22    3.62
   7   1  -6  431.74   16.89
   7   1   6  439.17   18.91
   7  -1  -6  442.37   19.16
  -7  -1  -6  444.76   17.27
  -7   1  -6  426.46   18.36
   7   1  -6  416.11   18.81
  -7   1   6  451.77   19.58
  -7  -1   6  451.63   19.28
  -7  -1   7   32.33    6.92
   7  -1  -7   24.33    5.32
   7   1  -7   25.74    4.75
   7   1   7   19.26    5.45
   7   1  -7   22.97    5.74
  -7  -1  -7   17.20    3.92
  -7   1  -7   18.87    4.70
  -7   1   7   27.93    6.24
   7   1  -8  350.79   15.03
   7   1   8  327.48   17.01
  -7  -1  -8  315.25   15.28
  -7   1  -8  337.90   16.67
   7  -1  -8  347.80   17.27
   7   1  -8  341.68   17.33
  -7   1   8  347.40   17.66
  -7  -1   8  344.72   17.47
   7   1  -9  256.88   12.77
   7   1   9  268.66   15.26
  -7  -1  -9  254.17   13.64
  -7   1  -9  246.49   14.41
   7  -1  -9  250.85   15.00
   7   1  -9  241.34   14.86
  -7   1   9  266.93   16.06
  -7  -1   9  274.93   15.84
  -7  -1  10   40.51    7.60
   7   1 -10   44.02    5.48
   7   1  10   41.29    6.79
   7  -1 -10   43.83    7.16
   7   1 -10   42.67    7.08
  -7  -1 -10   37.91    5.80
  -7   1 -10   37.87    6.14
  -7   1  10   53.11    8.24
   7   1  11  304.52   17.17
  -7  -1 -11  302.36   15.64
  -7   1 -11  321.86   16.81
   7  -1 -11  320.64   17.07
  -7   1  11  318.71   18.12
  -7  -1  11  335.32   18.21
   7   1 -11  342.59   17.95
   7   1  12  639.47   24.23
  -7  -1 -12  623.32   22.63
  -7   1 -12  700.10   24.97
   7  -1 -12  637.20   24.17
  -7   1  12  669.97   25.99
  -7  -1  12  634.48   25.25
  -7   1  13   26.79    7.28
  -7  -1  13   23.24    7.12
   7   1  13   18.65    5.17
  -7  -1 -13    7.61    3.77
   7  -1 -13   14.51    4.83
  -7   1 -13   21.32    5.77
   7   1  14  114.71   10.81
  -7  -1 -14  123.50   10.59
  -7   1 -14  119.03   11.28
  -7   1  14  132.00   12.40
  -7  -1  14  118.93   11.67
   7  -1 -14  108.25   10.46
  -7   1  15    2.68    4.76
  -7  -1  15   -3.31    4.53
   7   1  15    8.25    4.47
  -7  -1 -15   -0.30    2.97
  -7   1 -15    1.49    3.02
  -7   1  16   -3.27    5.20
  -7  -1  16   -1.02    4.41
   7   1  16    3.34    3.81
  -7  -1 -16   -0.79    3.18
  -7   1 -16   -1.33    4.03
  -7   1  17   15.22    6.51
  -7  -1  17   16.62    5.89
   7   1  17   12.40    4.49
  -7  -1 -17   13.85    4.24
  -7   1 -17   11.23    4.48
  -7   1  18    3.10    4.66
  -7  -1  18    8.55    5.88
   7   1  18    5.81    4.21
  -7  -1 -18    8.44    3.81
  -7   1 -18    6.91    4.91
   7   1  19    9.00    4.30
  -7   1  19    7.13    5.81
  -7  -1  19    1.39    3.95
  -7  -1 -19    4.01    3.51
  -7   1 -19    9.09    4.46
  -7   1  20    9.53    5.99
  -7  -1  20    5.17    4.34
  -7  -1 -20    0.70    3.08
  -7   1 -20   -2.53    3.97
  -7   1  21    5.24    4.81
  -7  -1  21   -8.37    6.27
  -7  -1 -21   -3.24    3.49
  -7   1 -21   -1.37    4.48
  -7   1  22   -4.43    5.01
  -7  -1  22   -1.95    4.61
  -7  -1 -22    2.87    3.47
  -7   1 -22   -3.01    4.30
  -7  -1 -23    1.58    3.28
  -7   1 -23   -2.38    4.27
  -7  -1 -24    0.38    3.56
  -7   2   0   -0.16    1.35
   7   2   0    3.43    3.99
   7   2   0    4.99    3.64
   7   2   0   -2.08    3.08
  -7   2   0   -2.31    4.39
  -7  -2   0   -3.26    3.82
   7   2  -1  515.24   17.65
   7   2  -1  516.06   19.60
   7   2   1  554.36   20.54
  -7   2  -1  530.89   13.16
  -7   2  -1  514.91   11.96
   7   2   1  538.71   20.19
   7   2  -1  545.19   20.64
  -7  -2  -1  536.29   18.08
  -7   2  -1  525.10   20.40
  -7   2   1  559.67   20.99
  -7  -2   1  540.83   18.35
   7   2   1  529.23   18.51
   7   2  -2  141.21   10.59
   7   2   2  148.75   11.25
   7   2  -2  131.78    9.15
  -7   2  -2  129.41    5.99
  -7   2   2  124.91    4.36
   7   2   2  140.46   10.75
  -7  -2  -2  131.25    9.14
   7   2   2  134.19    9.70
  -7   2  -2  127.50   10.29
   7   2  -2  133.70   10.69
  -7   2   2  138.65   11.32
  -7  -2   2  137.50    9.83
   7   2  -3  103.86    9.12
   7   2   3  105.66    9.58
   7   2  -3  127.09    8.69
  -7   2  -3  105.79    4.88
   7   2   3  118.15    9.74
  -7   2   3  115.60    5.07
   7   2   3  101.98    8.52
  -7  -2  -3  108.68    8.53
  -7   2  -3  111.89    9.44
   7   2  -3  105.12    9.35
  -7   2   3  115.70   10.61
  -7  -2   3  108.60    9.08
  -7  -2   3  113.89    9.78
   7   2  -4   13.69    4.81
   7   2   4   16.62    5.86
   7   2  -4    2.03    4.38
   7   2   4    1.21    3.51
   7  -2  -4   -1.04    1.97
   7   2   4    6.63    4.61
  -7  -2  -4    6.54    3.12
  -7   2  -4    8.36    5.64
  -7   2   4   19.34    6.42
  -7   2   4    4.94    1.88
  -7  -2   4    3.51    3.57
   7   2  -5 1475.75   31.69
   7   2   5 1528.88   35.12
  -7  -2  -5 1488.10   29.94
  -7   2  -5 1491.55   34.20
  -7   2   5 1473.32   21.91
   7   2  -5 1511.20   35.21
   7  -2  -5 1466.24   18.94
  -7  -2   5 1464.70   33.70
   7   2  -6   83.73    8.04
   7   2   6   82.10    9.44
   7  -2  -6   71.26    3.76
   7   2  -6   68.68    8.58
  -7  -2  -6   72.42    7.09
  -7   2  -6   90.18    9.28
  -7   2   6   72.69    5.46
  -7  -2   6   82.95    9.13
   7  -2  -6   77.23    8.66
   7   2  -7  286.50   13.85
   7   2   7  276.20   15.56
   7  -2  -7  269.46   15.10
  -7  -2  -7  267.71   13.33
  -7   2  -7  263.48   15.18
  -7   2   7  267.32   10.86
   7   2  -7  279.79   15.77
  -7  -2   7  262.82   15.35
  -7  -2   8   79.44    8.93
   7   2  -8   74.30    7.24
   7  -2  -8   65.86    7.80
   7   2   8   73.38    8.70
   7   2  -8   66.38    8.01
  -7  -2  -8   70.68    7.23
  -7   2  -8   75.22    8.26
  -7   2   8   73.59    6.16
  -7   2   8   77.84    8.83
  -7  -2   9    4.27    4.12
   7  -2  -9   -0.08    3.32
   7   2  -9    0.49    2.41
   7   2   9    6.01    4.27
   7   2  -9   -1.25    3.46
  -7  -2  -9    1.21    2.70
  -7   2  -9   -2.10    4.21
  -7   2   9   -2.61    4.89
   7   2 -10  435.82   16.59
   7   2  10  451.57   20.28
  -7  -2 -10  482.15   18.59
  -7   2 -10  444.65   19.83
   7  -2 -10  442.13   19.83
  -7   2  10  436.07   20.46
  -7  -2  10  476.53   20.92
   7   2 -11   90.00    7.55
   7   2  11  105.71   10.22
  -7  -2 -11  102.04    9.10
  -7   2 -11  101.16    9.99
   7  -2 -11   89.50    9.35
  -7   2  11  113.98   11.27
  -7  -2  11  104.62   10.70
  -7  -2  12   45.59    7.77
   7   2 -12   29.10    4.49
   7   2  12   35.19    6.72
   7  -2 -12   25.70    5.36
  -7  -2 -12   35.27    5.88
  -7   2 -12   35.77    6.76
  -7   2  12   18.66    5.54
   7   2 -13  287.18   12.84
   7   2  13  278.21   16.40
  -7  -2 -13  303.22   15.55
  -7   2 -13  283.96   17.24
   7  -2 -13  277.52   16.09
  -7   2  13  295.57   17.85
  -7  -2  13  303.80   17.65
  -7   2  14    2.29    4.66
  -7  -2  14    4.07    5.02
   7   2  14   -2.92    3.20
   7  -2 -14    2.31    3.59
  -7  -2 -14    3.60    3.34
  -7   2 -14    7.38    5.04
  -7   2  15   94.69   10.69
  -7  -2  15   81.05   10.16
   7   2  15   82.17    9.35
   7  -2 -15   69.54    8.50
  -7  -2 -15   81.20    8.88
  -7   2 -15   75.95    9.73
   7   2  16  212.10   14.74
  -7  -2 -16  202.99   13.54
  -7   2 -16  182.19   14.54
  -7   2  16  206.46   15.77
  -7  -2  16  209.27   15.69
  -7   2  17   50.90    8.83
  -7  -2  17   44.28    8.23
   7   2  17   62.00    8.49
  -7  -2 -17   55.77    7.65
  -7   2 -17   50.21    8.35
  -7   2  18    8.62    6.60
  -7  -2  18   12.34    6.49
   7   2  18    4.44    3.41
  -7  -2 -18   -3.76    3.32
  -7   2 -18    7.38    4.78
   7   2  19  347.78   19.22
  -7  -2 -19  326.56   18.58
  -7   2 -19  357.98   21.14
  -7   2  19  343.89   21.11
  -7  -2  19  349.29   21.56
   7   2  20  288.05   17.82
  -7  -2 -20  306.85   18.27
  -7   2 -20  320.13   20.29
  -7   2  20  319.43   20.91
  -7  -2  20  330.81   21.37
  -7   2  21   13.21    6.51
  -7  -2  21   12.82    5.85
   7   2  21   20.67    5.47
  -7  -2 -21   17.17    5.61
  -7   2 -21    4.10    4.70
   7   2  22    3.59    3.78
  -7   2  22    0.12    5.21
  -7  -2  22   15.77    6.72
  -7  -2 -22   10.73    4.75
  -7   2 -22   -0.86    3.30
  -7  -2 -23  171.47   14.85
  -7   2 -23  181.96   16.43
  -7   2  23  200.22   17.43
  -7  -2 -24   11.08    5.32
  -7  -2 -25    3.00    3.60
   7   3   0   -9.09    4.41
   7   3   0   -2.56    3.74
  -7  -3   0    3.74    3.21
  -7   3   0   -3.29    4.43
  -7  -3   0    0.47    2.43
   7   3   0    2.56    3.29
   7   3   1   39.89    6.09
   7   3  -1   39.05    5.76
   7   3   1   37.02    5.93
  -7   3  -1   38.36    3.68
   7   3  -1   48.75    6.59
  -7  -3  -1   42.51    6.48
  -7  -3   1   38.12    6.14
   7   3   1   39.89    5.80
   7   3  -1   46.02    6.22
  -7  -3  -1   38.85    5.06
  -7   3  -1   39.06    6.31
  -7   3   1   45.89    7.33
  -7  -3   1   46.79    5.59
   7   3  -2   43.34    6.01
   7   3   2   40.83    6.08
   7   3   2   44.75    6.03
   7   3  -2   36.96    5.62
   7   3   2   46.50    6.83
   7   3  -2   41.19    6.12
  -7  -3  -2   49.13    6.82
  -7  -3   2   51.54    7.19
  -7  -3  -2   48.51    3.20
  -7   3   2   44.92    3.16
  -7  -3  -2   34.58    4.64
  -7   3  -2   38.52    6.11
  -7   3   2   45.64    7.22
  -7  -3   2   49.27    5.92
   7   3   3    2.15    3.44
  -7  -3  -3    5.70    1.02
   7   3   3    4.46    3.28
   7   3  -3    5.28    3.23
   7   3   3    1.01    3.56
   7   3  -3   10.95    4.19
  -7  -3  -3    7.26    3.49
  -7  -3   3    7.33    3.73
  -7   3   3    8.32    1.76
  -7  -3  -3    4.64    2.41
  -7   3  -3    2.09    3.70
  -7   3   3   15.04    5.60
  -7  -3   3    7.25    3.66
  -7  -3   3    2.69    3.13
   7   3  -4   80.00    8.30
   7   3   4   80.78    8.90
  -7  -3  -4   69.74    8.08
  -7  -3   4   81.26    9.44
   7   3  -4   80.44    8.81
  -7   3   4   69.15    4.82
   7   3   4   74.40    8.14
  -7  -3  -4   72.82    6.74
  -7   3  -4   86.97    9.36
   7   3   4   59.71    7.01
  -7   3   4   81.74   10.28
  -7  -3   4   77.62    8.43
   7   3  -5  760.60   23.62
   7   3   5  752.97   25.59
  -7  -3  -5  786.70   24.03
  -7  -3   5  785.45   25.88
   7  -3  -5  774.64   13.15
   7   3   5  780.76   23.74
  -7  -3  -5  757.32   20.80
  -7   3   5  759.04   16.76
  -7   3  -5  790.42   25.81
   7   3   5  768.37   25.05
  -7   3   5  766.77   26.14
  -7  -3   5  783.33   24.59
   7   3  -5  771.70   25.36
  -7  -3   6   27.43    6.37
   7   3   6   21.12    5.48
   7   3  -6   19.28    5.38
   7   3   6   33.97    7.07
  -7  -3  -6   25.45    5.93
  -7  -3   6   21.49    6.43
   7   3   6   16.10    4.77
   7   3  -6   22.49    6.22
  -7  -3  -6   18.17    4.06
  -7   3  -6   24.42    6.51
  -7   3   6   14.51    3.10
   7   3  -7  155.49   10.72
   7   3   7  166.76   12.63
  -7  -3   7  184.98   13.15
   7  -3  -7  148.70   11.50
   7   3   7  142.78   11.51
   7   3   7  158.77   10.81
  -7  -3  -7  151.65    9.73
  -7   3  -7  147.45   11.77
  -7   3   7  154.77    8.48
  -7  -3   7  158.48   11.65
   7   3  -8  112.37    9.05
   7   3   8  102.42   10.08
  -7  -3   8  116.67   10.82
   7   3   8   99.87    9.60
   7   3   8  107.99    8.87
  -7  -3  -8  108.86    8.40
   7  -3  -8   98.20    9.48
  -7   3  -8  106.56   10.15
  -7   3   8  113.41    7.69
  -7  -3   8  112.09   10.28
   7   3  -9  109.27    8.73
   7   3   9  104.45   10.09
  -7  -3   9  113.56   10.60
  -7  -3  -9  130.57    9.40
  -7   3  -9  109.73   10.79
   7  -3  -9  111.39    9.98
  -7   3   9  109.24    7.96
  -7  -3   9  124.85   10.95
  -7  -3  10   11.54    4.64
   7  -3 -10    2.01    2.96
   7   3 -10    1.86    2.50
   7   3  10    8.84    4.25
  -7  -3  10    4.02    3.78
  -7  -3 -10    3.50    2.55
  -7   3 -10    0.84    3.84
  -7   3  10   -3.33    4.91
  -7   3  10   -1.82    2.61
   7   3 -11  257.91   12.87
   7   3  11  276.11   16.19
  -7  -3  11  264.88   15.92
  -7  -3 -11  255.44   13.29
  -7   3 -11  255.38   15.69
   7  -3 -11  259.76   15.26
  -7   3  11  250.23   13.00
  -7   3  11  274.22   16.89
  -7  -3  11  270.41   16.38
   7   3 -12  161.80   10.11
   7   3  12  153.22   12.43
  -7  -3 -12  144.10   10.47
  -7   3 -12  162.34   13.15
  -7   3  12  167.60   11.09
   7  -3 -12  142.80   11.53
  -7   3  12  162.78   13.21
  -7  -3  12  159.25   13.00
  -7   3  13   43.47    5.87
  -7  -3  13   56.76    8.07
   7   3 -13   51.24    5.66
   7   3  13   49.59    7.53
   7  -3 -13   55.38    7.50
  -7  -3 -13   51.23    6.42
  -7   3 -13   46.38    7.19
  -7   3  13   57.24    8.31
  -7   3  14    5.95    2.62
  -7  -3  14    4.03    4.09
   7   3  14    5.96    2.99
   7  -3 -14    6.29    3.62
  -7  -3 -14    4.51    2.44
  -7   3 -14    4.32    3.51
  -7   3  14    2.67    3.93
  -7   3  15   51.71    6.87
  -7  -3  15   51.42    8.45
   7   3  15   47.87    6.95
   7  -3 -15   46.22    7.04
  -7  -3 -15   40.71    6.05
  -7   3 -15   44.37    7.51
  -7   3  15   53.64    8.19
  -7   3  16    7.05    4.78
  -7  -3  16    4.18    4.35
   7   3  16    7.96    3.77
   7  -3 -16    0.76    3.08
  -7  -3 -16    1.84    2.73
  -7   3 -16    1.79    3.63
  -7   3  17   32.44    7.11
  -7  -3  17   26.05    6.70
   7   3  17   26.23    5.82
  -7  -3 -17   23.30    5.31
  -7   3 -17   31.73    6.96
  -7   3  18   -1.59    4.55
  -7  -3  18   -3.56    4.78
   7   3  18    5.42    3.53
  -7  -3 -18    5.00    3.25
  -7   3 -18    8.07    5.13
  -7   3  19   -2.20    4.43
  -7  -3  19    0.85    4.56
   7   3  19   -1.32    2.97
  -7  -3 -19    0.08    2.68
  -7   3 -19    4.78    4.57
  -7   3  20    1.96    4.94
  -7  -3  20   -5.43    5.52
   7   3  20    1.05    2.97
  -7  -3 -20   -0.73    2.90
  -7   3 -20    2.46    4.06
  -7   3  21    7.63    5.11
  -7  -3  21   -7.27    5.00
   7   3  21   -0.87    3.25
  -7  -3 -21   -0.87    3.73
  -7   3 -21   -5.74    5.38
  -7   3  22   -1.96    4.42
   7   3  22    0.73    2.82
  -7  -3 -22   -4.32    3.98
  -7   3 -22   -3.37    4.38
  -7  -3 -23   -1.09    3.26
   7   4   0   16.11    5.07
   7   4   0    8.48    4.61
  -7  -4   0    4.53    4.66
  -7  -4   0   -4.58    3.20
  -7   4   0   -7.82    5.77
   7   4   1  215.25   13.26
  -7  -4  -1  226.94   13.92
  -7  -4   1  207.97   13.59
   7   4  -1  202.07   12.65
  -7  -4  -1  193.52   10.06
  -7   4  -1  189.35   13.37
  -7   4   1  191.65   13.37
  -7  -4   1  211.89   10.90
   7   4   1  188.37   12.48
   7   4  -1  218.15   13.70
   7   4   2  650.02   22.78
  -7  -4  -2  687.02   23.39
  -7  -4   2  664.01   23.94
  -7  -4  -2  679.30   14.03
  -7  -4  -2  684.38   18.73
  -7   4  -2  654.05   23.95
  -7   4   2  694.36   24.76
  -7  -4   2  671.32   19.43
   7   4   2  683.10   22.66
  -7  -4   2  666.80   21.76
   7   4  -2  699.93   23.71
  -7  -4  -3   17.76    2.18
   7   4   3   15.48    4.46
  -7  -4  -3   27.21    6.17
  -7  -4   3   39.36    7.47
   7   4   3   26.87    6.10
   7   4  -3   23.04    5.69
  -7   4   3   22.92    3.05
  -7  -4  -3   14.99    3.18
  -7   4  -3   17.77    5.23
  -7   4   3   21.08    6.01
  -7  -4   3   24.99    4.83
  -7  -4   3   18.34    4.62
  -7  -4  -4  836.09   25.52
  -7  -4   4  894.75   27.83
  -7   4   4  886.27   18.03
  -7  -4  -4  842.71   20.65
  -7   4  -4  841.74   27.52
   7   4   4  866.01   25.11
  -7   4   4  865.05   28.39
  -7  -4   4  854.40   25.31
   7   4   4  839.37   26.42
   7   4  -4  852.45   26.94
  -7  -4  -5  189.98   12.57
  -7  -4   5  205.96   14.07
  -7   4   5  196.93    9.16
  -7  -4  -5  176.74    9.63
  -7   4  -5  197.06   13.94
   7   4   5  198.64   12.26
  -7   4   5  215.82   14.91
   7   4   5  188.15   13.36
   7  -4   5  203.89    8.61
  -7  -4   5  202.94   13.07
  -7  -4  -6  141.79   10.71
  -7  -4   6  166.53   12.66
  -7  -4  -6  143.09    8.79
  -7   4   6  150.91    8.41
  -7   4  -6  139.96   11.82
   7   4   6  145.49   10.60
   7   4   6  143.24   11.87
   7  -4   6  152.62    7.22
  -7  -4   6  155.59   11.70
  -7  -4   7   34.29    5.84
   7   4   7   29.83    5.12
  -7  -4  -7   34.43    5.80
  -7  -4   7   34.91    7.09
  -7   4   7   41.02    4.84
  -7  -4  -7   33.17    4.46
  -7   4  -7   26.93    5.76
   7   4   7   34.23    6.01
   7   4  -8  166.22   11.25
  -7  -4  -8  167.58   11.49
  -7  -4   8  176.61   13.25
  -7  -4  -8  174.84    9.94
  -7   4  -8  174.62   13.08
  -7   4   8  181.57   10.08
   7   4   8  163.71   10.87
   7   4   8  176.93   13.03
  -7  -4   8  199.32   13.34
   7   4  -9  255.13   13.67
   7   4   9  244.29   15.52
  -7  -4  -9  249.27   13.49
  -7  -4   9  269.96   16.19
  -7  -4  -9  265.26   12.60
   7  -4  -9  249.79   14.92
  -7   4  -9  247.12   15.56
   7   4   9  224.23   15.00
   7   4   9  247.05   13.10
  -7   4   9  256.41   12.42
  -7  -4   9  253.58   15.37
   7  -4 -10   12.74    4.10
  -7  -4  10   12.25    4.76
   7   4  10   14.51    3.83
   7   4 -10   18.43    3.99
   7   4  10   10.00    4.15
  -7  -4 -10   11.55    3.94
  -7  -4  10   15.08    4.84
   7   4  10   10.92    4.36
  -7  -4 -10   15.17    3.56
  -7   4 -10   13.29    4.36
  -7   4  10   12.18    3.33
  -7  -4  11    0.75    3.56
   7   4  11    2.13    2.72
   7  -4 -11    0.46    3.06
   7   4 -11   -1.09    2.46
   7   4  11   -4.38    4.26
   7   4  11   -2.20    4.74
  -7  -4  11   -4.24    3.62
  -7  -4 -11    0.10    1.86
  -7   4 -11   -7.21    5.38
  -7   4  11    1.23    2.32
   7   4  12   10.95    3.56
  -7  -4  12   14.28    5.78
   7  -4 -12    7.68    3.94
   7   4 -12    4.63    2.38
   7   4  12    6.39    3.56
  -7  -4  12   11.48    4.32
   7   4  12    8.08    3.79
  -7  -4 -12    9.03    2.87
  -7   4 -12    4.67    4.05
  -7   4  12   16.93    5.83
  -7   4  12   12.18    3.67
   7   4 -13  253.56   12.78
   7   4  13  250.77   16.00
  -7  -4  13  246.15   15.98
  -7  -4 -13  242.28   12.95
  -7   4 -13  256.07   16.85
   7   4  13  250.13   12.84
  -7   4  13  262.06   14.56
   7  -4 -13  254.92   15.45
  -7   4  13  253.78   16.79
  -7  -4  13  257.49   16.54
  -7  -4  14    1.54    3.87
   7   4  14    1.14    2.97
   7  -4 -14    8.11    3.44
  -7  -4  14    0.51    3.06
  -7  -4 -14    3.27    2.41
  -7   4 -14    6.02    4.50
  -7   4  14    3.00    4.49
  -7   4  14    2.01    2.47
  -7  -4  15   21.97    6.69
   7   4  15   20.99    5.53
  -7  -4  15   11.44    4.18
   7  -4 -15   16.51    4.35
  -7  -4 -15   11.63    3.62
  -7   4 -15   12.33    4.94
  -7   4  15   21.03    5.89
  -7   4  15   16.68    4.29
   7   4  16  111.50   11.18
  -7  -4 -16  121.89   10.04
  -7   4 -16  122.57   12.81
  -7   4  16  109.00   10.42
  -7   4  16  118.88   12.27
   7  -4 -16  106.39   10.39
  -7  -4  16  106.14   11.71
  -7  -4  17  108.15   12.10
   7   4  17   97.39   10.77
  -7  -4 -17  104.64    9.52
  -7   4 -17  106.04   11.65
  -7   4  17   99.65   10.37
   7  -4 -17  106.03   10.55
  -7   4  17  108.96   11.78
  -7  -4  18   92.83   11.40
   7   4  18  106.60   11.20
  -7  -4 -18  108.46   10.08
  -7   4 -18  107.73   12.20
  -7   4  18  104.88   10.58
  -7   4  18  116.27   12.48
  -7   4  19   43.44    7.66
  -7  -4  19   62.82   10.19
   7   4  19   63.93    8.98
  -7   4 -19   56.88    9.83
  -7   4  19   54.25    9.08
   7   4  20  118.21   11.89
  -7   4 -20  147.37   14.61
  -7   4  20  131.82   12.81
  -7   4  20  123.16   13.49
  -7  -4  20  129.00   13.67
  -7   4  21    9.09    5.33
  -7   4  21   11.02    4.61
  -7  -4  21    5.57    4.13
   7   4  21    3.69    3.19
  -7   4 -21    7.85    4.71
  -7   4  22    1.45    3.08
  -7   4  22    2.46    4.69
   7   4  22    6.58    3.90
  -7   4  23   -1.99    3.78
  -7  -5   0   -1.15    3.43
   7   5   0   -0.68    3.01
  -7  -5   0    1.44    2.02
  -7   5   0   -5.44    5.15
  -7  -5  -1    3.76    3.37
  -7  -5   1    3.52    3.61
   7   5   1   10.22    3.92
  -7  -5  -1    7.93    2.54
  -7  -5  -1    8.88    2.81
  -7   5  -1    1.45    4.62
   7   5   1   19.01    5.88
  -7   5   1    9.96    5.15
  -7  -5   1    6.26    2.83
  -7  -5  -2   24.67    3.42
  -7  -5  -2   26.48    5.70
  -7  -5   2   28.56    5.96
   7   5   2   16.76    4.01
  -7  -5  -2   25.62    3.79
  -7   5  -2   22.16    5.15
  -7   5   2   26.34    5.91
  -7  -5   2   28.15    4.26
   7   5   2   29.35    5.90
  -7  -5   2   25.03    4.63
   7   5   3   42.59    7.00
   7   5   3   48.52    6.49
  -7  -5  -3   54.52    6.99
  -7  -5   3   48.13    7.17
  -7  -5  -3   55.19    4.43
  -7  -5  -3   52.23    5.00
  -7  -5   3   59.41    6.06
  -7   5  -3   56.23    8.08
  -7   5   3   54.64    7.88
   7  -5   3   54.15    5.31
  -7  -5   3   53.68    6.51
  -7  -5   4   19.79    4.68
   7   5   4   23.30    4.84
  -7  -5  -4   24.80    4.87
  -7  -5   4   24.13    5.35
   7  -5   4   21.73    3.56
  -7  -5  -4   19.75    3.34
  -7   5   4   23.67    3.70
  -7   5  -4   26.14    6.32
   7   5   4   24.62    6.32
  -7   5   4   17.69    5.39
  -7  -5   5   17.56    4.46
   7   5   5    7.92    3.29
   7  -5   5   14.78    3.10
  -7  -5  -5   13.46    4.27
  -7  -5   5   12.58    4.59
   7   5   5   11.19    5.16
  -7  -5  -5    7.92    1.97
  -7   5  -5    8.20    4.53
  -7   5   5    8.83    2.72
  -7   5   5   13.77    5.69
  -7  -5  -6  103.20    9.45
  -7  -5   6  105.75   10.45
  -7  -5  -6  116.97    7.50
  -7   5   6  114.40    7.83
  -7   5  -6  109.45   10.65
   7  -5   6  116.21    7.24
  -7   5   6  115.46   11.43
   7   5   6  112.12    9.23
  -7  -5   6  119.02   10.15
   7   5   6   99.10   10.39
  -7  -5  -7  146.81   11.03
  -7  -5   7  152.13   12.44
  -7  -5  -7  158.38    8.78
  -7   5   7  138.93    8.98
  -7   5  -7  152.35   12.42
   7   5   7  143.12   10.14
   7   5   7  149.74   12.32
  -7  -5   7  134.48   11.17
  -7  -5   8    8.48    4.80
   7   5   8   10.65    5.18
   7   5   8   10.07    3.29
  -7  -5  -8    6.50    3.37
  -7  -5   8   10.45    4.65
  -7  -5  -8    5.41    2.16
  -7   5  -8    6.51    4.63
  -7   5   8    2.30    2.13
  -7  -5   9   -1.54    3.66
   7   5   9    0.89    2.16
  -7  -5  -9    0.36    2.68
  -7  -5   9    1.64    3.48
  -7  -5  -9   -0.57    1.60
  -7   5  -9   -0.62    3.65
  -7   5   9   -0.47    2.15
   7   5   9   -0.44    4.10
   7  -5 -10    3.56    3.25
  -7  -5  10   -1.56    3.48
   7   5  10    2.03    2.67
  -7  -5 -10   -1.23    2.71
  -7  -5  10    2.64    3.27
  -7  -5 -10    0.75    1.59
  -7   5 -10    3.44    3.78
   7   5  10   -2.84    4.61
  -7   5  10    2.89    3.07
   7  -5 -11   46.62    7.04
  -7  -5  11   45.94    7.42
   7   5  11   43.83    5.46
  -7  -5 -11   46.43    6.19
  -7  -5  11   52.93    8.06
  -7   5 -11   39.85    6.61
   7   5  11   41.19    7.33
  -7   5  11   49.88    6.54
  -7  -5  12   20.67    5.71
   7  -5 -12   23.52    5.18
   7   5 -12   24.15    4.47
  -7  -5 -12   22.41    4.17
  -7  -5  12   16.72    4.61
   7   5  12    9.97    4.43
  -7   5 -12   24.92    5.97
  -7   5  12   19.52    4.44
  -7  -5  13   -0.40    3.93
   7  -5 -13    1.07    2.92
   7   5 -13    4.03    2.66
   7   5  13   -0.29    3.26
  -7  -5 -13   -1.01    2.46
  -7  -5  13   -4.84    4.64
   7   5  13   -4.00    5.77
  -7   5 -13    3.47    4.69
  -7   5  13    2.60    2.64
  -7  -5  14    7.33    4.26
   7  -5 -14    8.75    3.61
   7   5  14   16.47    5.29
  -7  -5  14   12.48    4.37
   7   5  14    1.88    4.93
  -7   5 -14    6.81    4.31
  -7   5  14   11.74    3.88
  -7  -5  15   28.55    6.13
   7   5  15   34.35    6.73
   7  -5 -15   21.85    4.81
  -7  -5  15   28.93    6.19
   7   5  15   22.26    5.83
  -7   5 -15   31.88    6.77
  -7   5  15   29.42    6.97
  -7   5  15   26.86    5.57
  -7  -5  16   50.06    8.35
   7   5  16   31.06    6.77
   7  -5 -16   50.25    7.07
  -7  -5  16   41.05    7.54
   7   5  16   32.53    7.12
  -7   5 -16   43.78    8.20
  -7   5  16   42.28    7.03
  -7   5  16   42.82    7.96
  -7  -5  17   12.40    5.05
   7   5  17   15.82    4.90
  -7  -5  17   15.69    5.47
   7   5  17   18.90    5.99
   7  -5 -17   15.44    4.45
  -7   5 -17   11.64    5.08
  -7   5  17   16.69    4.91
  -7   5  17   19.79    6.23
  -7  -5  18   14.99    5.95
   7   5  18    6.32    3.47
  -7  -5  18   14.38    5.21
   7   5  18    1.31    4.56
  -7   5 -18   11.20    5.25
  -7   5  18    4.57    3.18
  -7   5  18    7.55    4.99
  -7  -5  19   15.50    5.74
   7   5  19   14.42    4.86
   7   5  19   -0.69    5.46
  -7   5 -19    8.74    4.48
  -7   5  19   12.06    4.08
  -7   5  19   12.76    5.47
  -7  -5  20    2.18    4.20
   7   5  20    2.71    3.06
   7   5  20   -1.99    5.28
  -7   5 -20    4.42    3.75
  -7   5  20    2.14    3.43
  -7   5  20   -1.21    3.52
   7   5  21    5.37    4.00
  -7   5  21    0.18    3.91
   7   5  22   49.78    8.19
  -7   5  22   34.04    7.44
  -7   5  22   46.10    8.43
  -7  -6   0    5.83    4.98
  -7   6   0   -1.71    4.92
  -7  -6  -1  409.96   19.69
  -7  -6   1  422.15   20.17
  -7  -6  -1  402.44   14.26
  -7   6  -1  420.38   20.46
  -7  -6   1  425.45   13.42
  -7   6   1  416.67   20.53
   7  -6   1  422.63   16.17
  -7  -6   1  431.22   16.92
  -7  -6  -2  496.56   21.40
  -7  -6   2  517.57   22.35
   7   6   2  498.94   21.96
  -7  -6  -2  503.78   15.41
  -7   6  -2  525.25   22.88
  -7   6   2  534.59   23.05
  -7  -6   2  519.76   15.26
   7  -6   2  537.08   18.06
  -7  -6   2  497.03   18.39
  -7  -6  -3    1.91    1.84
   7  -6   3    0.82    1.99
  -7  -6  -3    6.83    3.98
  -7  -6   3    9.59    5.28
   7   6   3    5.32    4.80
  -7   6  -3   10.32    5.55
  -7   6   3   -2.88    4.92
  -7  -6   3    1.47    1.87
  -7  -6   3    4.30    3.36
  -7  -6   4    1.41    2.75
   7  -6   4    1.06    2.45
  -7  -6  -4    8.99    4.08
  -7  -6   4    3.09    4.22
  -7   6  -4   -2.07    3.81
  -7   6   4   -0.22    4.48
  -7  -6   4   -0.06    1.84
   7   6   4    6.87    4.83
   7   6   5  531.90   23.37
  -7  -6  -5  529.79   21.47
  -7  -6   5  557.25   23.59
  -7   6   5  556.77   17.51
  -7   6  -5  544.13   23.68
  -7   6   5  534.39   23.80
   7  -6   5  558.38   17.53
  -7  -6   5  538.78   20.60
  -7  -6   6    4.01    3.54
   7   6   6    5.56    4.94
   7  -6   6    0.58    1.96
  -7  -6  -6    1.30    2.75
  -7  -6   6   10.12    4.80
  -7   6  -6   -2.29    3.71
  -7   6   6    3.35    2.51
  -7   6   6    5.10    4.54
   7   6   7  146.01   12.88
  -7  -6  -7  129.27   10.75
  -7  -6   7  132.32   12.04
  -7   6   7  119.34    8.82
  -7   6  -7  142.87   12.60
  -7   6   7  141.60   12.97
  -7  -6   7  128.14   10.74
   7   6   7  135.68    9.86
  -7  -6   8   38.19    6.60
  -7  -6  -8   36.32    5.98
  -7  -6   8   46.66    7.84
   7   6   8   35.87    5.61
   7   6   8   36.92    7.39
  -7   6  -8   32.15    6.37
  -7   6   8   37.18    5.27
  -7   6   8   44.12    8.01
  -7  -6  -9   77.25    8.43
   7   6   9   78.66   10.13
  -7  -6   9   77.63    9.78
  -7   6   9   78.69    7.75
  -7   6  -9   70.10    9.19
   7   6   9   74.28    7.29
  -7  -6   9   82.03    9.30
  -7  -6 -10  266.64   14.70
  -7  -6  10  260.77   17.00
  -7   6 -10  267.09   17.37
  -7   6  10  261.16   14.12
   7   6  10  261.60   17.60
  -7  -6  10  269.28   16.24
   7  -6 -11   55.50    7.76
  -7  -6  11   49.22    7.71
   7   6  11   56.60    9.53
  -7  -6 -11   47.15    6.60
  -7  -6  11   53.95    8.39
  -7   6 -11   37.43    7.39
  -7   6  11   53.42    6.98
  -7  -6 -12  463.84   19.17
  -7  -6  12  528.62   24.22
  -7   6 -12  481.23   23.77
   7  -6 -12  473.46   21.08
  -7   6  12  476.93   20.17
   7   6  12  495.80   24.70
  -7  -6  12  463.68   22.25
  -7  -6 -13  147.53   10.98
  -7  -6  13  158.82   13.79
  -7   6 -13  144.22   13.76
  -7   6  13  173.19   12.71
   7  -6 -13  161.38   12.59
   7   6  13  166.26   14.99
  -7  -6  13  141.93   12.99
  -7  -6  14    7.41    5.13
   7  -6 -14    8.69    4.02
  -7  -6  14   11.19    5.11
  -7   6 -14    1.45    4.02
  -7   6  14    4.87    3.52
   7   6  14    0.23    4.32
  -7  -6  15   10.35    5.17
   7  -6 -15    3.63    2.56
  -7  -6  15   11.16    4.73
  -7   6 -15    3.28    4.04
   7   6  15   11.07    4.55
  -7   6  15    7.56    3.92
  -7  -6  16  108.24   11.93
   7   6  16  110.76   11.79
  -7  -6  16  113.39   11.98
  -7   6 -16  131.60   13.66
  -7   6  16  128.41   12.05
   7  -6 -16  123.73   10.94
   7   6  16  102.95   12.28
  -7  -6  17   39.39    7.75
   7   6  17   38.94    7.50
  -7  -6  17   40.40    7.35
  -7   6 -17   39.37    8.26
   7   6  17   33.90    7.57
  -7   6  17   41.80    7.18
  -7  -6  18   23.05    6.82
   7   6  18   19.39    5.29
  -7  -6  18   21.71    5.89
  -7   6 -18   18.62    5.91
   7   6  18   14.10    6.14
  -7   6  18   19.65    5.51
  -7  -6  19   32.14    7.55
   7   6  19   28.55    6.61
  -7  -6  19   25.06    6.00
  -7   6 -19   23.18    6.45
   7   6  19   26.38    7.31
  -7   6  19   30.94    7.24
  -7   6  19   30.21    6.94
   7   6  20  100.92   11.49
  -7  -6  20  108.73   11.91
  -7   6  20   99.85   11.60
  -7   6  20  113.31   12.83
   7   6  21   -2.04    3.45
  -7  -6  21   -0.73    3.23
  -7   6  21    0.92    3.79
  -7   6  21    7.50    5.17
   7   6  22   31.04    6.76
  -7   6  22   26.63    7.03
  -7   6  22   31.63    7.69
  -7  -7   0   -3.70    4.23
   7  -7   0   -3.09    2.90
  -7   7   0    1.15    4.40
  -7  -7   0    1.95    2.28
  -7  -7  -1    4.98    2.61
  -7  -7   1    1.42    3.31
  -7  -7  -1    0.07    3.81
   7  -7   1    4.67    2.52
   7  -7  -1    2.76    2.39
  -7   7  -1   -2.77    3.44
  -7   7   1    6.04    4.10
  -7  -7   1    1.29    2.27
  -7  -7   2   94.33   10.17
  -7  -7  -2   83.53    8.92
  -7  -7  -2   93.52    7.51
  -7   7  -2   95.88   10.68
   7  -7   2   94.42    8.47
  -7   7   2  101.29   10.94
  -7  -7   2   87.84    7.97
  -7  -7   3  155.91   13.24
  -7  -7  -3  122.79   11.16
  -7   7  -3  163.31   13.45
  -7   7   3  129.35   12.19
   7  -7   3  140.58    9.90
  -7  -7   3  141.03   10.21
  -7  -7   4    4.41    3.34
   7  -7   4   -2.29    2.12
  -7  -7   4    6.00    4.77
  -7  -7  -4    3.92    3.76
  -7   7  -4    4.77    3.87
   7   7   4   16.73    6.78
  -7   7   4    2.00    4.57
  -7  -7   5   47.95    6.61
   7  -7   5   47.35    5.91
  -7  -7   5   54.86    8.08
  -7  -7  -5   41.81    6.41
  -7   7  -5   52.66    8.18
  -7   7   5   53.77    8.63
   7   7   5   55.25    8.84
  -7  -7   6    2.06    3.37
   7   7   6    8.97    5.54
   7  -7   6    1.55    2.05
  -7  -7   6   -1.43    4.07
  -7  -7  -6   -0.28    2.96
  -7   7  -6   -1.45    4.11
  -7   7   6    0.54    2.48
  -7   7   6   -1.62    4.64
  -7  -7   7   14.31    4.32
  -7  -7  -7   13.44    4.06
  -7  -7   7   15.69    5.19
   7   7   7   20.54    6.06
  -7   7  -7   12.83    4.77
  -7   7   7   17.45    4.24
  -7   7   7   20.61    6.22
  -7  -7   8    1.25    3.36
   7   7   8    4.48    5.15
  -7  -7  -8    5.59    3.46
  -7  -7   8   -1.55    3.89
  -7   7  -8    0.46    3.66
  -7   7   8    1.30    2.34
  -7   7   8   -1.52    3.95
   7   7   9  118.12   12.66
  -7  -7  -9  105.93   10.00
  -7  -7   9   99.97   10.93
  -7   7   9  101.56    9.07
  -7   7  -9  103.74   11.09
  -7   7   9  118.37   12.46
  -7  -7   9   92.79    9.81
  -7  -7  10   13.58    4.96
  -7  -7 -10   16.57    4.41
  -7  -7  10   17.51    5.77
  -7   7 -10   10.44    4.31
  -7   7  10   16.61    4.39
   7   7  10   13.86    5.80
  -7  -7  11   27.01    6.15
  -7  -7 -11   28.65    5.59
  -7  -7  11   30.04    6.74
   7  -7 -11   24.83    5.38
   7   7  11   18.61    5.94
  -7   7 -11   27.69    6.72
  -7   7  11   23.78    4.92
   7  -7 -12   24.97    5.52
  -7  -7  12   17.55    5.62
  -7  -7 -12   22.30    5.06
  -7  -7  12   34.29    7.18
   7   7  12   22.11    6.80
  -7   7 -12   27.96    7.17
  -7   7  12   21.09    5.10
   7   7  13  289.72   19.74
  -7  -7 -13  305.14   15.87
  -7  -7  13  295.52   18.75
  -7   7 -13  297.51   19.76
  -7   7  13  283.86   16.80
   7  -7 -13  306.85   17.08
  -7  -7  13  281.09   17.89
  -7  -7  14   61.84    9.35
   7  -7 -14   65.43    8.07
   7   7  14   48.87    9.09
  -7  -7  14   66.48    9.42
  -7   7 -14   51.92    8.97
  -7   7  14   45.90    7.36
  -7  -7  15    5.98    5.02
   7   7  15   -2.00    4.90
  -7  -7  15   -0.08    3.25
  -7   7 -15   -1.39    3.43
  -7   7  15    3.15    3.03
  -7  -7  16   17.09    5.13
   7   7  16   25.59    6.87
  -7  -7  16   23.38    5.84
  -7   7 -16   21.61    6.65
  -7   7  16   22.35    5.60
  -7  -7  17   20.02    6.11
   7   7  17   15.21    5.99
  -7  -7  17   22.35    5.91
  -7   7 -17   20.50    6.65
  -7   7  17   24.54    6.16
  -7  -7  18    3.19    4.54
  -7  -7  18    1.87    3.84
  -7   7  18    8.44    4.86
  -7  -7  19   94.90   11.97
   7   7  19   76.99   10.56
  -7  -7  19   87.82   10.93
  -7   7  19   80.99   10.55
   7   7  20   92.27   11.50
  -7  -7  20   94.06   11.67
  -7   7  20   98.59   12.10
   7   7  21   84.58   10.85
  -7  -7  21   95.67   11.73
  -7   7  21   77.55   10.93
   7   7  22   22.55    5.99
  -7  -7  22   21.44    5.61
   7  -8   0   -1.49    2.59
  -7  -8   0    7.54    4.95
  -7   8   0   -4.95    5.28
  -7  -8   0    1.11    2.69
  -7  -8   1  523.39   23.77
  -7  -8  -1  566.89   24.46
  -7  -8   1  540.17   20.16
  -7  -8  -1  526.44   18.95
  -7   8  -1  569.05   25.04
  -7   8   1  543.37   24.28
   7  -8   1  535.98   21.09
   7  -8  -1  550.96   21.66
   7  -8   2   39.36    6.27
  -7  -8   2   43.22    7.84
  -7  -8  -2   45.46    7.85
   7  -8  -2   37.12    6.33
  -7   8  -2   41.13    8.03
  -7   8   2   36.74    7.61
  -7  -8   3   74.88    9.34
  -7  -8  -3   75.35    9.20
  -7   8  -3   78.36    9.42
   7  -8   3   76.06    7.94
  -7   8   3   85.38   10.25
  -7  -8   3   78.60    7.58
  -7  -8   4   29.22    5.21
   7  -8   4   23.08    4.72
  -7  -8   4   21.97    5.67
  -7  -8  -4   18.32    4.99
  -7   8  -4   22.40    5.66
  -7   8   4   21.31    6.00
  -7  -8  -5   80.21    9.32
  -7  -8   5   84.66   10.25
  -7   8  -5   77.59    9.85
   7  -8   5   77.48    7.83
  -7   8   5   83.86    9.90
  -7  -8   5   85.39    8.52
  -7  -8   6    2.67    3.46
   7  -8   6   -1.43    2.45
  -7  -8   6    3.92    4.83
  -7  -8  -6    6.86    4.40
  -7   8  -6    4.80    4.44
  -7   8   6    1.56    4.37
   7   8   7  114.22   12.53
  -7  -8   7  108.64   11.62
  -7  -8  -7  103.46   10.21
  -7   8   7  125.73   10.12
  -7   8  -7  106.82   11.62
  -7   8   7  109.36   11.98
  -7  -8   7  102.75    9.68
  -7  -8   8    0.16    2.90
  -7  -8   8    7.35    4.69
  -7  -8  -8   -0.76    2.77
  -7   8  -8    3.37    4.50
  -7   8   8    5.12    3.70
  -7   8   8    2.02    4.44
   7   8   9  407.03   23.03
  -7  -8   9  422.39   22.46
  -7  -8  -9  402.10   19.84
  -7   8   9  399.43   18.53
  -7   8  -9  404.03   22.25
  -7   8   9  401.61   22.19
  -7  -8   9  407.14   19.78
  -7  -8  10   17.62    5.52
  -7  -8  10   35.21    7.48
  -7  -8 -10   18.68    5.20
  -7   8 -10   21.80    6.19
   7   8  10   31.78    8.14
  -7   8  10   23.18    5.49
  -7   8  10   45.32    9.24
  -7  -8  11   16.73    4.71
   7   8  11    9.85    5.41
  -7  -8 -11   10.63    4.09
  -7  -8  11   18.03    5.99
  -7   8 -11   12.37    5.60
  -7   8  11   11.92    3.99
  -7   8  11   23.60    7.24
  -7  -8  12   20.70    5.72
   7   8  12   28.11    7.44
  -7  -8 -12   19.50    4.77
  -7  -8  12   23.22    6.61
   7  -8 -12   18.90    4.59
  -7   8 -12   24.45    6.48
  -7   8  12   20.11    4.85
  -7  -8  13   58.17    8.65
   7   8  13   64.85   10.42
  -7  -8  13   74.62   10.37
  -7   8 -13   64.96    9.96
  -7   8  13   62.01    8.28
  -7  -8  14    9.03    4.61
  -7  -8  14   15.14    5.18
  -7   8 -14   28.73    7.19
  -7   8  14   15.61    4.99
   7   8  14   22.76    7.48
  -7  -8  15  151.57   13.80
   7   8  15  155.76   15.56
  -7  -8  15  137.40   13.82
  -7   8 -15  159.02   15.20
  -7   8  15  143.02   12.94
  -7  -8  16    4.70    4.98
  -7  -8  16   12.13    5.37
  -7   8 -16   10.46    6.12
   7   8  16   13.43    7.06
  -7   8  16    3.30    3.11
  -7  -8  17  131.19   13.57
  -7  -8  17  124.69   13.24
  -7   8  17  122.52   12.62
  -7  -8  18   26.84    7.44
  -7  -8  18   30.80    7.62
  -7   8  18   13.32    4.93
  -7  -8  19  165.51   15.59
  -7   8  19  171.54   15.41
  -7  -9   0    4.83    3.08
   7  -9   0    3.60    3.22
  -7  -9   0    1.95    3.04
  -7   9   0    1.63    3.60
   7  -9   1    3.70    3.15
   7  -9  -1   -1.81    3.24
  -7  -9   1    0.81    3.13
  -7  -9  -1    5.28    3.69
  -7   9  -1    4.78    4.26
  -7   9   1    3.31    3.62
  -7  -9   1    8.60    3.58
   7  -9   2   -4.63    3.36
  -7  -9   2   -1.42    4.33
  -7  -9  -2    0.48    3.90
   7  -9  -2   -7.88    4.00
  -7   9  -2    2.67    3.85
  -7   9   2  -10.24    6.23
  -7  -9   2    5.41    3.65
   7  -9   3   -1.53    2.54
  -7  -9   3   -3.24    4.43
  -7  -9  -3   -1.84    3.62
   7  -9  -3   -0.78    2.77
  -7   9  -3    3.21    3.58
  -7   9   3    2.59    4.15
   7  -9   4   14.35    4.08
  -7  -9   4   13.07    4.77
  -7  -9  -4   21.79    5.54
  -7   9  -4   12.63    5.09
  -7   9   4   11.87    4.65
  -7  -9   5  162.60   14.34
  -7  -9  -5  141.91   12.59
  -7   9  -5  139.91   13.36
  -7   9   5  161.58   14.13
   7  -9   5  151.56   11.61
   7  -9   6   14.84    4.55
  -7  -9   6    5.36    4.25
  -7  -9  -6   13.06    4.68
  -7   9  -6    5.95    4.39
  -7   9   6    4.34    4.13
  -7  -9  -7   85.37    9.87
  -7  -9   7   91.08   10.82
  -7   9  -7   97.31   11.49
  -7   9   7   88.85   10.86
  -7  -9   7   90.69    9.14
  -7  -9   8   30.53    5.87
  -7  -9   8   23.76    6.34
  -7  -9  -8   32.97    6.75
  -7   9   8   30.05    5.75
  -7   9  -8   23.21    5.83
  -7   9   8   31.42    7.57
  -7  -9   9   36.68    6.61
  -7  -9   9   20.77    5.80
  -7  -9  -9   37.27    6.63
  -7   9  -9   29.95    6.82
   7   9   9   39.03    9.31
  -7   9   9   34.16    6.17
  -7   9   9   57.43    9.77
  -7  -9  10   10.50    4.60
  -7  -9  10    9.17    4.65
  -7  -9 -10   14.05    4.67
  -7   9 -10   14.04    5.25
  -7   9  10   10.93    4.46
  -7   9  10   21.75    6.65
   7   9  11  104.04   12.94
  -7  -9 -11   82.20    9.46
  -7  -9  11   78.43   10.58
  -7   9  11   83.66    9.52
  -7   9 -11   84.99   11.04
  -7   9  11   81.26   11.05
  -7  -9  11   85.54    9.85
  -7  -9  12   -4.59    4.42
   7   9  12   17.31    7.28
  -7  -9  12    2.32    4.22
  -7  -9 -12    3.14    3.24
  -7   9 -12   -2.93    4.17
  -7   9  12   -1.36    3.18
  -7   9  12   13.25    6.92
  -7  -9  13   91.58   10.53
   7   9  13   96.73   12.87
  -7  -9  13   89.59   11.42
  -7   9  13   82.97   10.18
  -7   9 -13  103.24   12.42
  -7   9  13  108.43   12.90
  -7  -9  14    5.73    4.18
  -7  -9  14    3.78    4.11
  -7   9 -14   -2.38    4.75
  -7   9  14    4.06    3.60
  -7  -9  15    3.14    3.60
  -7  -9  15    0.02    3.15
  -7   9  15   -2.95    3.85
  -7  -9  16   -1.30    3.88
  -7  -9  16    5.47    4.40
  -7   9  16    4.60    4.42
  -7  -9  17  225.14   17.82
  -7   9  17  218.31   17.10
  -7   9  18   14.21    6.02
   7 -10   0   -3.36    3.17
  -7 -10   0   -1.66    4.09
  -7  10   0   -2.50    4.80
  -7 -10   1    3.86    3.18
   7 -10   1    2.19    3.18
   7 -10  -1    1.99    3.01
  -7 -10   1    3.32    4.09
  -7 -10  -1    2.21    3.51
  -7  10  -1    0.32    3.37
  -7  10   1    7.86    4.73
  -7 -10   2  134.97   13.18
  -7 -10  -2  105.84   11.66
  -7 -10   2  125.28   11.15
  -7  10  -2  122.51   12.59
  -7  10   2  113.61   12.15
   7 -10   2  123.58   11.31
   7 -10  -2  101.70   10.65
   7 -10   3   53.18    7.60
  -7 -10   3   52.79    8.75
  -7 -10  -3   56.99    8.65
   7 -10  -3   54.45    7.75
  -7  10  -3   57.60    9.04
  -7  10   3   50.39    8.31
  -7 -10   3   58.38    8.05
   7 -10   4    0.21    2.87
  -7 -10   4   -0.26    3.87
  -7 -10  -4   -2.88    3.95
  -7 -10   4    1.57    3.11
   7 -10  -4    2.00    2.88
  -7  10  -4   -5.30    4.84
  -7  10   4   -0.61    5.02
   7 -10   5    6.12    3.95
  -7 -10   5   14.83    6.07
  -7 -10  -5    7.89    4.22
  -7  10  -5    4.47    4.43
  -7  10   5    6.19    4.26
  -7 -10   6  110.88   12.59
  -7 -10  -6  102.24   11.28
  -7  10  -6  111.31   12.13
  -7  10   6   99.23   11.48
  -7 -10  -7  103.36   11.19
  -7 -10   7   97.13   11.71
  -7  10  -7   90.99   11.40
  -7  10   7  101.33   11.75
  -7 -10   8   83.39   10.98
  -7 -10  -8   75.23    9.66
  -7  10  -8   74.12   10.58
  -7  10   8   84.70   11.25
  -7 -10   9  102.95   12.37
  -7 -10  -9  104.63   11.25
  -7  10  -9  100.28   11.90
  -7  10   9  108.05   12.33
  -7 -10  10  169.74   15.48
  -7 -10 -10  148.96   13.14
  -7  10  10  166.31   13.75
  -7  10 -10  152.18   14.75
  -7  10  10  151.37   14.87
  -7 -10  11    3.48    5.12
  -7 -10 -11    4.73    3.87
  -7  10 -11    2.67    4.50
  -7  10  11    3.14    4.00
  -7  10  11    1.84    5.00
  -7  10 -12  184.91   16.80
  -7  10  12  145.28   13.33
  -7  10  12  159.34   15.33
  -7 -10  12  142.48   13.13
  -7 -10  13   35.99    6.93
  -7  10  13   43.43    7.89
  -7  10  13   43.85    9.16
  -7 -10  14    1.41    3.39
  -7  10  14    9.51    4.55
  -7  10  14    9.06    6.23
  -7 -10  15   27.30    6.57
  -7  10  15   25.22    6.55
  -7 -10  16  177.68   15.61
  -7  10  16  181.44   15.70
   7 -11   0    1.51    2.75
  -7 -11   0    0.61    3.27
  -7  11   0   -0.56    3.94
   7 -11   1    6.46    4.36
   7 -11  -1    5.92    3.80
  -7 -11   1    1.88    4.22
  -7 -11  -1    7.31    3.95
  -7  11  -1    3.20    4.22
  -7  11   1    4.80    4.71
   7 -11   2    3.67    3.09
   7 -11  -2    2.45    2.91
  -7 -11   2   10.58    5.12
  -7 -11  -2   14.72    4.81
  -7  11  -2   13.45    5.09
  -7  11   2   11.11    5.33
   7 -11   3   15.22    4.99
  -7 -11   3    8.19    4.19
  -7 -11  -3   11.19    4.55
   7 -11  -3    6.35    3.69
  -7  11  -3   12.29    4.95
  -7  11   3   16.91    5.99
  -7 -11   3   10.26    4.40
   7 -11   4   14.24    4.70
  -7 -11   4   10.10    4.74
  -7 -11  -4   14.31    5.60
   7 -11  -4   16.09    5.36
  -7  11  -4   16.65    5.67
  -7  11   4    7.06    3.75
  -7 -11   4   21.40    5.77
  -7 -11   5   44.18    8.55
  -7 -11  -5   36.55    7.39
  -7  11  -5   29.31    6.86
  -7  11   5   38.86    7.52
  -7 -11   5   29.68    6.81
  -7 -11  -6   -0.66    3.31
  -7 -11   6   -0.63    2.95
  -7  11  -6   -2.09    4.74
  -7  11   6   -1.32    5.20
  -7 -11  -7    2.09    3.01
  -7  11  -7    5.93    4.46
  -7  11   7   -2.40    4.34
  -7 -11  -8    2.33    3.08
  -7  11  -8   -2.05    4.73
  -7  11   8   11.48    5.83
  -7 -11  -9    1.25    3.80
  -7  11  -9    8.20    4.46
  -7  11   9    2.91    4.07
  -7 -11 -10    0.90    2.98
  -7  11  10    5.02    4.65
  -7 -11 -11    6.24    3.30
  -7  11  11   13.97    6.02
  -7  11  12   12.56    6.10
   7 -12   0    0.27    2.80
  -7  12   0    3.70    3.96
   7 -12   1    1.14    3.15
   7 -12  -1    6.88    4.46
  -7  12  -1   -3.50    4.57
  -7  12   1    2.47    4.37
   7 -12   2   86.82   10.82
   7 -12  -2   82.04   10.81
  -7  12  -2   87.78   11.27
  -7  12   2   87.06   11.44
  -7  12  -3   73.66   10.42
   7 -12   3   82.62   10.52
  -7  12   3   93.60   11.60
   7 -12  -3   93.46   11.59
   7 -12  -4   -1.08    3.68
  -7  12  -4    4.03    4.60
  -7  12   4   10.04    5.41
   7 -12  -5   -4.17    4.04
  -7  12  -5   -4.01    4.79
  -7  12   5    1.95    4.60
  -7 -12   5    4.41    4.03
  -7  12  -6   28.47    7.20
  -7  12   6   23.02    6.13
  -7 -12   6   25.95    6.56
  -7  12   7   -3.27    4.59
  -7 -12   7    3.21    3.82
  -7 -12   8   79.43   10.78
  -7  12   8   87.64   11.43
  -7  12   9  120.74   13.44
   7 -13   2   -5.22    3.81
   8   0   0 1148.41   31.52
   8   0   0 1124.19   25.91
  -8   0   0 1102.54   30.28
   8   0  -1   17.59    5.92
   8   0   1   14.31    5.82
   8   0  -1    2.86    4.56
   8   0  -1    0.13    2.41
  -8   0  -1    7.19    4.09
  -8   0   1    2.82    3.64
   8   0  -2  108.54    9.90
   8   0   2  110.83   10.42
   8   0  -2  115.74   10.59
  -8   0  -2  107.14    9.40
  -8   0   2  109.49    9.78
   8   0  -2  120.82    8.13
   8   0  -3    4.16    3.81
   8   0  -3    2.92    4.44
   8   0   3    3.53    4.22
   8   0  -3    0.32    2.34
  -8   0  -3    2.65    3.10
  -8   0   3    1.50    3.84
   8   0  -4  102.16    9.25
   8   0   4  115.04   10.55
   8   0  -4  112.04    7.32
   8   0  -4  107.46   10.11
  -8   0  -4  115.15   10.00
  -8   0   4   96.81    9.65
   8   0  -5    2.12    4.24
   8   0   5   -4.23    4.07
  -8   0  -5    2.03    2.90
   8   0   6  130.91   11.25
  -8   0  -6  125.31   10.55
   8   0  -6  126.92   11.38
   8   0   7   -0.29    3.80
   8   0  -7   -1.41    3.54
  -8   0  -7   -2.79    3.31
  -8   0   7   -0.79    4.23
   8   0   8   26.93    5.84
   8   0  -8   18.36    4.78
  -8   0  -8   20.64    4.87
  -8   0   8   30.97    6.29
   8   0  -9    0.62    3.38
  -8   0  -9    3.71    3.61
  -8   0   9   -1.55    4.12
   8   0  10  798.70   28.49
  -8   0 -10  816.45   27.18
   8   0 -10  782.33   28.61
  -8   0  10  823.66   29.45
   8   0  11    9.80    5.28
   8   0 -11    2.82    3.33
  -8   0 -11    2.47    3.94
  -8   0  11    4.51    4.87
  -8   0  12   16.24    5.72
   8   0  12   28.66    6.28
   8   0 -12   19.18    5.84
  -8   0 -12   13.98    4.38
  -8   0  13   -1.69    4.52
   8   0 -13    9.48    4.74
  -8   0 -13    2.62    3.50
  -8   0 -14  247.52   16.26
  -8   0  14  264.40   18.17
  -8   0  15    7.91    6.67
  -8   0 -15    2.26    3.88
  -8   0  16   47.21    8.93
  -8   0 -16   50.39    7.94
  -8   0  17    7.23    5.73
  -8   0 -17    1.38    3.34
  -8   0  18   54.31    9.76
  -8   0 -18   65.10    9.26
  -8   0  19    9.87    6.38
  -8   0 -19    0.53    3.53
  -8   0  20   65.06   10.71
  -8   0 -20   64.41    9.77
  -8   0 -21    0.85    4.50
  -8   0 -22   84.77   11.09
   8   1   0  554.46   21.91
   8   1   0  516.09   21.62
  -8  -1   0  532.04   20.39
  -8   1   0  533.62   21.53
   8   1   0  528.83   18.75
   8   1  -1  460.73   19.85
   8   1   1  434.69   19.83
   8  -1  -1  429.69   15.20
   8   1   1  439.59   19.90
   8   1  -1  441.31   20.12
   8   1   1  418.55   16.99
  -8  -1  -1  427.27   17.99
  -8   1  -1  447.57   19.70
  -8   1   1  445.36   19.98
  -8  -1   1  441.82   18.70
   8   1  -1  411.61   15.96
   8   1  -2   -0.52    3.70
   8   1  -2    2.73    3.90
   8   1   2    5.36    4.46
   8   1   2   -1.82    3.71
   8  -1  -2   -1.93    2.60
   8   1   2    5.32    4.36
   8   1  -2    0.75    2.38
  -8  -1  -2   -4.19    4.27
  -8   1  -2   -9.57    4.88
  -8   1   2   -0.51    3.72
  -8  -1   2    1.03    3.63
   8   1  -3   30.43    6.12
   8   1  -3   36.50    5.90
   8   1   3   38.60    6.79
   8   1  -3   34.29    5.06
   8   1   3   29.75    5.38
   8  -1  -3   38.15    6.74
  -8  -1  -3   38.47    6.02
  -8   1  -3   29.16    5.31
  -8   1   3   34.26    6.66
  -8  -1   3   46.15    6.84
   8  -1  -3   29.60    3.98
   8  -1  -4  352.19   12.10
   8   1  -4  357.13   16.96
   8   1   4  359.31   18.51
   8   1  -4  341.39   13.50
   8  -1  -4  365.42   18.44
  -8  -1  -4  342.47   16.14
  -8   1  -4  344.55   17.38
   8   1  -4  347.11   18.21
  -8   1   4  340.80   17.79
  -8  -1   4  370.93   17.54
   8  -1  -5   15.15    5.58
   8   1  -5    7.88    3.71
   8   1   5   11.49    5.00
   8   1  -5    8.51    3.87
  -8  -1  -5    6.78    3.44
  -8   1  -5    7.52    3.84
  -8   1   5   13.57    5.44
   8   1  -6  140.50   10.65
   8   1   6  148.62   12.06
  -8  -1  -6  155.01   11.22
  -8   1  -6  144.45   11.80
   8  -1  -6  159.07   12.63
   8   1  -6  155.61   12.62
  -8  -1   6  156.76   12.63
   8   1  -7  109.74    9.50
   8   1   7  114.99   10.92
  -8  -1  -7   99.98    9.20
  -8   1  -7  122.89   10.77
   8  -1  -7   93.43    9.98
   8   1  -7  100.44   10.45
  -8  -1   7  108.01   10.86
   8   1  -8  125.00    9.90
   8   1   8  121.11   11.16
  -8  -1  -8  111.49    9.91
  -8   1  -8  106.42   10.07
   8  -1  -8  101.42   10.19
   8   1  -8  112.81   10.98
  -8   1   8  110.40   11.02
  -8  -1   8  136.04   12.04
   8   1  -9   29.76    5.35
   8   1   9   36.09    6.79
   8  -1  -9   22.98    5.51
   8   1  -9   38.04    6.87
  -8  -1  -9   33.54    5.69
  -8   1  -9   31.89    6.13
  -8   1   9   34.92    6.57
  -8  -1   9   40.57    7.18
  -8  -1  10   51.83    8.42
   8   1  10   48.23    7.96
   8  -1 -10   54.70    8.02
   8   1 -10   52.06    7.99
  -8  -1 -10   43.81    6.65
  -8   1 -10   39.68    6.67
  -8   1  10   51.12    8.11
  -8  -1  11   35.17    8.25
   8   1  11   43.47    7.87
   8  -1 -11   27.68    6.58
   8   1 -11   36.19    7.65
  -8  -1 -11   35.05    6.62
  -8   1 -11   29.05    6.50
  -8   1  11   32.22    8.10
   8   1  12  456.32   21.96
  -8  -1 -12  442.76   20.22
  -8   1 -12  425.16   20.97
   8  -1 -12  419.23   21.21
  -8   1  12  469.62   23.30
  -8  -1  12  454.01   22.77
  -8  -1  13    5.28    4.98
   8   1  13   10.60    4.59
   8  -1 -13    2.65    3.23
  -8  -1 -13    9.18    4.17
  -8   1 -13    4.75    3.79
  -8   1  13    7.41    5.07
   8   1  14  117.83   11.70
  -8  -1 -14  117.46   11.04
  -8   1 -14  119.40   11.80
  -8   1  14  108.03   12.08
  -8  -1  14  103.43   11.98
   8  -1 -14  114.78   11.60
   8   1  15  159.52   13.55
  -8  -1 -15  149.65   12.65
  -8   1 -15  160.19   13.83
  -8   1  15  166.37   14.93
  -8  -1  15  153.95   14.38
  -8   1  16   64.94    9.78
  -8  -1  16   75.17   10.83
   8   1  16   76.49    9.68
  -8  -1 -16   66.16    8.76
  -8   1 -16   55.96    8.28
  -8   1  17   64.63   10.58
   8   1  17   75.64    9.87
  -8  -1  17   74.14   11.24
  -8  -1 -17   55.78    8.49
  -8   1 -17   67.93    9.72
  -8  -1 -18  691.71   27.84
  -8   1 -18  668.12   28.61
  -8   1  18  742.17   31.76
  -8  -1  18  709.89   31.25
  -8   1  19   21.09    7.90
  -8  -1  19   14.77    8.34
  -8  -1 -19   13.89    6.14
  -8   1 -19    8.78    6.02
  -8   1  20   10.89    6.76
  -8  -1  20    4.63    4.93
  -8  -1 -20    1.25    3.44
  -8   1 -20   -0.78    3.24
  -8  -1 -21   59.40    9.29
  -8   1 -21   75.19   10.60
  -8  -1 -22  157.90   14.87
  -8  -1 -23    5.04    4.24
   8   2   0   72.11    8.62
   8   2   0   84.08    9.24
  -8  -2   0   84.81    8.36
  -8   2   0   69.98    8.62
   8   2   0   77.81    7.93
   8   2  -1  159.51   10.54
   8   2  -1  161.12   11.92
   8   2   1  175.82   12.64
   8   2   1  162.96   12.34
   8   2  -1  177.53   12.75
  -8  -2  -1  160.48   10.82
  -8   2  -1  159.96   12.07
  -8   2   1  150.89   12.37
  -8  -2   1  146.28   10.73
   8   2   1  159.41   11.14
   8   2   2   19.63    5.18
   8   2  -2   11.97    4.33
   8   2   2   15.02    4.72
   8   2  -2    9.36    4.00
   8   2  -2   14.65    4.00
  -8  -2  -2   16.54    4.20
  -8   2  -2    8.00    4.24
  -8   2   2   16.52    5.69
  -8  -2   2   12.62    3.85
   8   2   2   10.12    3.62
   8   2  -3  421.70   19.06
   8   2   3  445.92   20.23
   8   2  -3  428.44   16.32
   8  -2  -3  413.92   13.05
   8   2   3  421.67   19.24
  -8  -2  -3  414.67   17.43
  -8   2  -3  449.17   20.09
   8   2   3  423.86   18.32
   8   2  -3  442.76   20.21
  -8   2   3  423.70   20.10
  -8  -2   3  398.65   17.50
   8   2   4   37.29    6.35
   8   2  -4   26.74    5.03
   8   2   4   33.22    6.37
   8   2  -4   25.92    5.62
   8   2   4   27.75    5.17
  -8  -2  -4   34.65    5.44
  -8   2  -4   27.73    6.01
  -8   2   4   37.88    7.69
  -8  -2   4   31.87    6.06
   8   2  -5   30.92    5.50
   8   2   5   38.09    6.71
   8   2  -5   28.34    5.89
   8   2   5   37.88    5.97
   8  -2  -5   31.50    6.56
   8   2   5   37.54    5.99
  -8  -2  -5   27.21    4.99
  -8   2  -5   37.88    6.42
  -8   2   5   53.70    8.55
  -8  -2   5   31.37    5.79
   8   2  -6  122.75   10.38
   8   2   6  129.32   11.93
   8   2   6  105.11   10.28
   8  -2  -6  123.44   11.44
  -8  -2  -6  116.91    9.56
  -8   2  -6  117.74   10.97
   8   2  -6  122.90   11.52
  -8  -2   6  139.67   12.02
   8   2  -7  677.55   23.18
   8   2   7  662.12   25.52
  -8  -2  -7  672.27   22.62
   8  -2  -7  685.74   25.75
  -8   2  -7  673.21   25.42
   8   2  -7  641.32   25.47
  -8  -2   7  670.75   25.67
   8  -2  -8   27.94    6.57
   8   2  -8   26.74    5.14
   8   2   8   29.71    6.69
   8   2  -8   18.75    5.78
  -8  -2  -8   22.18    4.78
  -8   2  -8   24.41    6.44
  -8  -2   8   26.10    6.89
  -8   2   9   11.75    2.67
  -8  -2   9   20.46    6.14
   8  -2  -9    5.84    3.39
   8   2  -9   13.28    3.96
   8   2   9   13.53    5.14
   8   2  -9   19.21    5.45
  -8  -2  -9    8.93    3.14
  -8   2  -9    9.89    4.51
  -8  -2  10    7.90    4.82
  -8   2  10   -0.75    1.93
   8   2 -10    5.13    3.42
   8   2  10    1.29    3.87
   8  -2 -10   -0.30    4.33
  -8  -2 -10    1.82    3.12
  -8   2 -10   -3.16    3.85
  -8   2  10    1.35    4.30
   8   2 -11  187.26   11.91
   8   2  11  195.87   14.65
  -8  -2 -11  182.48   12.67
  -8   2 -11  214.07   14.99
   8  -2 -11  201.97   14.59
  -8   2  11  210.48   15.50
  -8  -2  11  218.98   15.86
  -8  -2  12   76.08   10.21
   8   2 -12   69.01    7.38
   8   2  12   79.29    9.75
   8  -2 -12   61.02    8.39
  -8  -2 -12   72.02    8.30
  -8   2 -12   67.10    8.97
  -8   2  12   71.51    9.70
  -8  -2  13   41.07    7.75
   8   2  13   39.42    7.13
   8  -2 -13   41.79    7.53
  -8  -2 -13   38.81    6.25
  -8   2 -13   41.75    7.18
  -8   2  13   41.12    7.52
  -8  -2  14   30.35    6.48
   8   2  14   43.55    7.56
   8  -2 -14   38.85    7.09
  -8  -2 -14   36.41    6.31
  -8   2 -14   36.52    7.02
  -8   2  14   40.58    7.81
  -8  -2  15    5.60    4.23
   8   2  15    3.22    3.75
   8  -2 -15    5.34    3.92
  -8  -2 -15    5.58    3.34
  -8   2 -15    6.16    4.25
  -8   2  15    4.88    5.31
  -8  -2  16    8.56    4.45
   8   2  16    2.24    3.73
  -8  -2 -16    4.31    3.51
  -8   2 -16   -0.73    4.13
  -8   2  16    1.53    4.14
  -8   2  17   11.03    5.86
  -8  -2  17    7.79    5.54
   8   2  17   -5.41    4.49
  -8  -2 -17    5.52    3.78
  -8   2 -17   -3.57    4.62
  -8   2  18    1.62    4.51
  -8  -2  18   12.17    6.14
   8   2  18   13.60    5.27
  -8  -2 -18    9.98    4.64
  -8   2 -18    9.24    5.29
  -8   2  19   96.07   12.36
  -8  -2  19   96.25   12.53
   8   2  19   81.35   10.23
  -8  -2 -19   83.07    9.88
  -8   2 -19   90.19   11.37
  -8   2  20   40.83    8.70
   8   2  20   47.83    8.24
  -8  -2 -20   43.57    7.80
  -8   2 -20   44.34    8.43
   8   2  21  214.92   16.53
  -8  -2 -21  238.76   16.96
  -8   2 -21  220.80   17.93
  -8  -2 -22    4.36    4.19
  -8  -2 -23    1.37    3.26
   8   3   0   47.68    6.92
   8   3   0   53.69    7.35
   8   3   0   52.27    7.22
  -8  -3   0   49.88    6.18
  -8   3   0   56.67    7.73
   8   3   1   67.36    8.11
   8   3  -1   57.25    7.29
   8   3   1   52.68    7.05
   8   3  -1   68.38    7.69
   8   3  -1   62.29    8.05
   8   3   1   64.98    7.69
  -8  -3  -1   48.23    6.10
  -8   3  -1   49.69    7.38
  -8   3   1   58.38    7.81
  -8  -3   1   59.45    6.88
   8   3   2   26.53    5.41
   8   3  -2   28.97    5.72
   8   3   2   32.06    6.08
   8   3  -2   16.90    4.44
   8   3   2   25.55    5.18
   8   3  -2   32.11    5.49
  -8  -3  -2   17.90    4.13
  -8   3  -2   10.78    4.19
  -8   3   2   25.86    5.98
  -8  -3   2   31.15    5.46
   8   3  -3  144.09   11.32
   8   3   3  144.84   12.11
  -8  -3  -3  143.38   10.18
  -8   3  -3  146.70   12.24
   8   3   3  150.49   11.66
  -8   3   3  158.89   12.94
  -8  -3   3  145.77   10.89
   8   3  -3  146.54   12.01
   8   3   3  139.63   11.09
   8   3  -4  108.08    9.97
   8   3   4  109.32   10.70
  -8  -3  -4  110.90    8.89
   8   3   4  128.52   10.90
  -8   3  -4  128.74   11.48
  -8   3   4  109.42   11.18
   8   3   4  105.25    9.98
  -8  -3   4  113.16    9.65
   8   3  -4  115.47   11.07
  -8  -3   4  106.41   10.28
   8   3   5   34.32    6.36
   8   3  -5   29.10    5.71
   8   3   5   44.57    7.70
   8   3  -5   46.18    7.29
  -8  -3  -5   32.03    5.34
  -8   3  -5   34.47    7.05
   8   3   5   27.50    5.97
  -8   3   5   37.86    8.03
  -8  -3   5   35.56    6.77
   8   3  -6  380.63   17.78
   8   3   6  365.68   19.10
  -8  -3  -6  362.74   16.04
   8   3   6  384.09   18.18
  -8   3  -6  389.35   19.93
   8   3   6  380.36   18.84
  -8   3   6  409.18   20.80
  -8  -3   6  380.56   18.88
   8   3  -6  368.82   19.27
   8   3  -7  157.68   11.54
   8   3   7  154.64   12.77
   8  -3  -7  158.11   12.73
  -8  -3  -7  181.27   11.35
   8   3   7  151.67   11.44
   8   3   7  146.35   11.97
  -8   3  -7  152.04   12.68
  -8  -3   7  177.69   13.36
   8   3  -7  154.95   13.02
   8   3  -8  200.12   12.84
   8   3   8  204.29   14.65
  -8  -3  -8  196.75   11.90
   8   3   8  192.64   12.89
   8   3   8  191.34   14.17
   8  -3  -8  220.32   15.04
  -8   3  -8  195.02   14.31
  -8  -3   8  207.87   14.64
   8   3   9    0.38    2.86
  -8  -3   9    4.27    4.66
   8  -3  -9    2.67    3.95
   8   3  -9    0.46    2.41
   8   3   9    0.58    3.58
   8   3   9   -3.18    4.76
  -8  -3  -9    4.95    3.39
  -8   3  -9   -3.93    4.29
  -8  -3  10    9.85    4.94
   8  -3 -10    8.24    4.13
   8   3 -10    8.89    3.22
   8   3  10    3.21    3.34
   8   3  10    2.91    2.90
  -8  -3 -10    5.12    2.94
  -8   3 -10    4.10    3.39
  -8   3  10    2.30    2.27
   8   3 -11  156.21   11.06
   8   3  11  172.10   13.78
   8   3  11  153.42   11.33
  -8  -3 -11  165.79   11.66
  -8   3 -11  161.26   13.21
  -8   3  11  158.01   10.32
   8  -3 -11  168.23   13.38
  -8  -3  11  159.93   13.45
  -8  -3  12    1.54    4.26
   8   3 -12    1.33    2.18
   8   3  12    0.47    3.54
   8  -3 -12   -3.56    3.70
  -8  -3 -12    0.95    2.30
  -8   3 -12    1.03    3.56
  -8   3  12   -7.10    5.38
  -8   3  12    0.63    2.01
  -8  -3  13   21.34    6.23
   8   3 -13   24.28    4.30
   8   3  13   22.01    5.81
   8  -3 -13   19.93    5.43
  -8  -3 -13   23.60    4.87
  -8   3 -13   24.82    5.78
  -8   3  13   16.59    5.44
  -8   3  13   23.56    4.44
  -8   3  14   22.41    4.69
  -8  -3  14   16.33    5.20
   8   3  14   31.76    6.34
   8  -3 -14   24.77    6.08
  -8  -3 -14   22.54    4.77
  -8   3 -14   15.82    5.53
  -8   3  14   21.26    6.16
  -8   3  15   52.80    7.13
  -8  -3  15   56.25    9.03
   8   3  15   51.97    8.29
   8  -3 -15   58.52    8.45
  -8  -3 -15   58.86    7.77
  -8   3 -15   55.68    8.99
  -8   3  15   52.47    8.88
  -8   3  16   52.81    7.50
  -8  -3  16   51.13    9.13
   8   3  16   43.21    7.58
   8  -3 -16   40.97    7.38
  -8  -3 -16   55.99    7.59
  -8   3 -16   43.75    8.15
  -8   3  16   38.29    7.56
   8   3  17  151.44   13.73
  -8  -3 -17  161.92   12.59
  -8   3 -17  155.43   14.52
  -8   3  17  159.89   12.82
  -8   3  17  158.36   14.93
  -8  -3  17  155.95   14.82
  -8   3  18   10.90    4.98
  -8  -3  18   18.03    6.87
   8   3  18   16.15    6.56
  -8  -3 -18   10.99    4.64
  -8   3 -18   13.88    5.82
  -8   3  18   20.07    7.82
   8   3  19  233.85   17.11
  -8  -3 -19  227.64   15.57
  -8   3 -19  236.70   18.31
  -8   3  19  218.04   15.81
  -8   3  19  247.15   19.19
  -8  -3  19  274.13   20.21
  -8   3  20    8.62    4.68
   8   3  20   10.43    4.75
  -8   3 -20   14.54    6.87
  -8   3  20    7.86    5.41
   8   3  21  119.87   12.66
  -8   3  21  134.83   13.25
  -8   3  22   50.43    8.56
   8   3  22   81.22   10.57
   8   4   0   24.67    5.79
   8   4   0   20.12    5.09
  -8  -4   0   20.70    5.20
  -8  -4   0   18.61    3.94
  -8   4   0   15.82    4.52
   8   4   1   89.46    9.73
   8   4   1   84.77    9.09
   8   4  -1   81.22    9.16
   8   4  -1   90.11    9.26
   8   4  -1   70.71    8.61
  -8  -4  -1   71.22    8.74
  -8  -4   1   77.15    9.09
  -8  -4  -1   77.89    7.20
  -8  -4   1   71.92    7.25
   8   4   1   80.23    9.14
  -8   4  -1   68.58    8.75
  -8   4   1   82.35    9.05
   8   4   2  274.90   15.73
   8   4  -2  264.15   15.64
   8   4   2  249.68   15.65
  -8  -4  -2  265.84   15.93
  -8  -4   2  250.68   15.82
  -8  -4  -2  254.29   12.62
  -8   4  -2  246.27   15.79
  -8   4   2  254.19   16.22
  -8  -4   2  246.80   13.06
   8   4   2  266.29   15.45
   8   4  -2  252.40   15.60
   8   4  -3    3.48    3.54
   8   4   3   11.19    5.10
   8   4   3    1.49    2.94
  -8  -4  -3    6.14    4.43
  -8  -4   3    2.14    3.64
   8   4  -3    9.32    4.73
   8   4   3   -2.73    3.77
  -8  -4  -3    0.17    2.17
  -8   4  -3   -0.95    3.85
  -8   4   3    4.35    4.86
  -8  -4   3    2.93    3.51
   8   4  -4   39.21    6.84
   8   4   4   46.61    7.81
   8   4   4   34.44    5.98
   8   4   4   24.85    5.70
  -8  -4  -4   32.39    6.43
  -8  -4   4   35.64    6.88
   8   4  -4   38.53    7.15
  -8  -4  -4   32.87    4.94
  -8   4  -4   38.83    7.48
  -8   4   4   29.40    7.36
  -8  -4   4   39.01    6.05
  -8  -4   4   30.24    6.05
   8   4  -5  349.63   17.90
   8   4   5  343.59   18.87
  -8  -4  -5  356.62   17.89
  -8  -4   5  350.61   18.95
  -8  -4  -5  353.22   14.80
  -8   4  -5  348.72   19.10
   8   4   5  341.89   17.28
  -8   4   5  358.15   19.79
   8   4   5  349.41   18.36
  -8  -4   5  337.50   17.68
   8   4   6   84.49    9.50
   8   4  -6   99.75    9.62
   8   4   6  103.75   10.72
  -8  -4  -6   90.45    9.37
  -8  -4   6  110.18   11.07
  -8  -4  -6   97.30    7.93
   8   4   6   98.52    9.40
  -8   4  -6   85.94    9.94
  -8   4   6  118.82   12.08
  -8  -4   6  101.28   10.11
   8   4  -7   95.70    9.30
   8   4   7  105.26   11.07
  -8  -4   7  104.06   11.02
  -8  -4  -7  105.51    8.27
  -8   4  -7   99.56   10.79
   8   4   7  104.81    9.82
  -8   4   7  108.14   11.70
   8   4   7   86.12    9.81
  -8  -4   7   97.90   10.19
   8   4  -8  201.01   13.09
   8   4   8  210.52   15.15
  -8  -4   8  208.50   15.03
   8  -4  -8  190.20   13.94
  -8  -4  -8  212.97   11.89
  -8   4  -8  203.88   14.98
   8   4   8  187.67   12.64
   8   4   8  175.70   13.79
  -8  -4   8  205.32   14.57
  -8  -4   9   38.36    6.89
   8  -4  -9   39.90    7.06
   8   4   9   35.41    6.04
   8   4  -9   46.09    6.42
   8   4   9   40.63    7.30
  -8  -4   9   34.02    7.25
  -8  -4  -9   43.20    5.77
   8   4   9   32.76    6.05
  -8   4  -9   34.66    6.63
  -8  -4  10   59.79    8.59
   8  -4 -10   62.08    8.61
   8   4  10   48.63    6.73
   8   4 -10   55.05    6.89
   8   4  10   45.98    7.86
  -8  -4  10   50.12    8.10
   8   4  10   37.29    6.68
  -8  -4 -10   52.83    6.28
  -8   4 -10   50.06    8.06
  -8  -4  11   45.67    8.04
   8   4  11   46.66    6.47
   8  -4 -11   45.43    7.33
   8   4 -11   45.62    6.23
   8   4  11   43.74    7.79
  -8  -4  11   61.66    8.85
   8   4  11   41.62    7.33
  -8  -4 -11   54.95    6.42
  -8   4 -11   35.41    6.62
  -8   4  11   40.80    5.55
  -8  -4  12   15.56    5.76
   8   4  12   10.94    3.65
   8  -4 -12   14.88    5.14
   8   4 -12   19.09    4.30
   8   4  12   19.01    5.72
   8   4  12    7.67    4.07
  -8  -4 -12   15.74    3.80
  -8   4 -12    9.95    4.69
  -8   4  12    8.95    3.22
  -8  -4  13    7.37    4.71
   8   4  13    5.17    3.45
   8  -4 -13    6.21    3.46
   8   4  13    1.27    4.75
  -8  -4 -13    3.90    2.19
  -8   4 -13    7.92    4.71
  -8   4  13    4.73    2.14
  -8  -4  14   16.26    6.05
   8   4  14    9.56    4.24
   8  -4 -14   20.39    5.13
  -8   4 -14   10.82    4.50
  -8   4  14   11.76    3.84
  -8  -4  15   56.53    9.12
   8   4  15   52.41    8.12
   8  -4 -15   32.38    6.34
   8   4  15   42.32    7.80
  -8   4 -15   47.42    8.69
  -8   4  15   40.72    7.53
  -8   4  15   43.22    6.54
  -8  -4  16   -1.46    4.37
   8   4  16   -0.24    3.48
   8  -4 -16   -3.95    3.83
   8   4  16    1.39    4.81
  -8   4 -16    4.22    4.39
  -8   4  16   -3.38    5.38
  -8   4  16    3.49    3.11
  -8  -4  17   49.81    9.12
   8   4  17   54.19    8.51
   8  -4 -17   53.89    8.18
  -8   4 -17   58.74    9.72
  -8   4  17   47.96    8.87
  -8   4  17   41.27    6.80
  -8  -4  18  101.76   12.59
   8   4  18   97.03   11.39
  -8   4 -18   90.25   11.81
  -8   4  18  101.17   10.80
  -8   4  18  115.56   13.43
  -8  -4  19   64.11   10.44
   8   4  19   64.03    9.64
  -8   4 -19   71.21   10.75
  -8   4  19   79.52   11.35
  -8   4  19   72.32    9.37
   8   4  20   25.41    6.22
  -8   4  20   28.11    7.52
  -8   4  20   30.09    6.60
   8   4  21   -1.67    3.11
  -8   4  21   -5.52    4.44
   8   4  22    3.09    3.24
  -8   4  22    2.10    3.68
  -8  -5   0 1538.93   39.03
  -8  -5   0 1559.02   29.86
  -8   5   0 1584.80   40.87
   8   5   0 1493.48   37.22
   8   5   1   88.34   10.53
  -8  -5  -1  100.56   11.02
  -8  -5   1   91.85   10.63
  -8  -5  -1   78.29    6.98
  -8  -5   1   70.92    6.90
  -8   5  -1   73.69   10.51
  -8   5   1   76.50    9.94
   8   5   1   89.98    9.72
   8   5   2   15.32    5.77
  -8  -5  -2    6.32    4.47
  -8  -5   2    9.35    4.98
   8   5   2   12.86    4.35
  -8  -5  -2    5.69    2.38
  -8   5  -2    5.93    5.07
  -8   5   2    5.79    4.42
  -8  -5   2    4.49    2.46
   8   5   3  131.69   11.76
  -8  -5  -3  122.73   11.26
  -8  -5   3  125.43   11.95
  -8  -5  -3  110.06    7.83
  -8   5  -3  111.97   11.41
  -8  -5   3  118.90    8.85
  -8   5   3  102.77   10.97
  -8  -5   3  116.32   10.46
   8   5   3  115.19   10.27
   8   5   4  100.71   10.43
  -8  -5  -4  105.86   10.38
  -8  -5   4  107.28   10.90
  -8   5  -4  103.57   10.99
  -8  -5   4   97.35    8.60
  -8   5   4  105.75   10.89
   8   5   4   98.31    9.49
  -8  -5   4   89.21    9.03
  -8  -5  -5  103.01   10.31
  -8  -5   5  115.27   11.60
  -8   5  -5  123.56   12.12
   8   5   5  100.30   10.67
  -8  -5   5  109.82    9.31
   8   5   5  102.99    9.64
  -8   5   5  107.18   11.15
  -8  -5   5  119.19   10.56
   8   5   6  200.61   14.93
  -8  -5  -6  188.58   13.62
  -8  -5   6  193.34   14.92
  -8   5  -6  186.03   14.95
  -8   5   6  191.94   15.01
   8   5   6  194.53   13.08
  -8  -5   6  201.09   13.76
   8   5  -7  101.23    9.85
  -8  -5  -7   99.36    9.98
  -8  -5   7  115.51   11.90
  -8   5  -7   97.28   11.03
  -8   5   7  103.81   11.86
   8   5   7  101.77    9.51
  -8  -5   7   99.14   10.17
   8   5   7  104.63   11.33
   8   5  -8   94.99    9.39
   8   5   8   94.96   10.95
   8   5   8   89.41   10.22
  -8  -5  -8   97.11    9.63
  -8  -5   8   90.00   10.43
  -8   5  -8   92.37   10.71
   8   5   8   87.59    8.76
  -8   5   8  102.56   11.72
  -8  -5   8   97.02   10.29
  -8  -5   9   32.93    6.21
   8   5   9   34.18    7.23
   8   5  -9   36.42    5.92
   8   5   9   40.09    7.29
   8   5   9   29.78    5.34
  -8  -5  -9   32.72    5.96
  -8  -5   9   43.21    7.88
   8  -5  -9   39.20    6.91
  -8   5  -9   37.18    7.09
   8   5 -10   88.81    8.96
   8   5  10   85.02   10.09
  -8  -5 -10   87.37    8.93
  -8  -5  10   93.94   10.63
   8  -5 -10   90.77   10.02
  -8   5 -10   96.84   11.03
   8   5  10   92.64    8.72
  -8  -5  10   94.16   10.52
   8   5  10   82.68   10.32
  -8  -5  11   27.41    6.46
   8  -5 -11   38.25    6.78
   8   5 -11   36.15    5.96
   8   5  11   27.54    6.49
  -8  -5  11   28.68    6.51
  -8   5 -11   35.13    7.42
   8   5  11   27.24    6.93
  -8  -5  12    1.11    3.82
   8  -5 -12    7.06    3.92
   8   5 -12    2.15    2.08
   8   5  12    1.73    3.33
  -8  -5  12   -5.14    4.81
  -8   5 -12    1.04    4.01
   8   5  12   -4.39    5.07
  -8  -5  13   13.68    5.11
   8  -5 -13   24.48    5.89
   8   5  13   22.84    5.90
  -8  -5  13   13.34    4.57
  -8   5 -13   14.88    5.68
   8   5  13    6.27    4.73
  -8  -5  14   59.31    9.19
   8   5  14   61.69    9.14
   8  -5 -14   60.51    8.56
  -8  -5  14   57.39    8.82
   8   5  14   65.38    9.59
  -8   5 -14   56.99    8.92
  -8   5  14   64.35    7.91
  -8  -5  15    6.70    5.52
   8   5  15    1.31    3.61
  -8  -5  15    4.02    3.38
   8  -5 -15    1.13    3.12
   8   5  15    2.27    3.71
  -8   5 -15   -0.81    4.20
  -8   5  15   -0.97    2.37
  -8  -5  16   -3.17    4.24
   8   5  16    1.94    3.25
   8  -5 -16   -2.08    2.87
   8   5  16   -8.26    5.78
  -8   5 -16   -1.76    4.53
  -8   5  16    4.01    3.30
  -8  -5  17   15.33    6.42
   8   5  17   16.37    5.42
   8  -5 -17   18.59    5.27
   8   5  17   13.78    5.49
  -8   5 -17   21.87    6.28
  -8   5  17   11.77    4.05
  -8  -5  18  112.34   13.01
   8   5  18  103.22   11.92
  -8   5  18  116.11   11.64
  -8   5  18  134.28   14.07
   8   5  19   -0.68    3.37
  -8   5  19    5.14    5.17
  -8   5  19   -1.39    3.45
   8   5  20   18.99    5.67
  -8   5  20   18.87    5.61
   8   5  21   15.16    5.53
  -8   5  21   15.58    5.39
  -8  -6   0   12.76    5.45
  -8   6   0   -3.06    4.98
  -8  -6  -1   24.68    6.32
  -8  -6   1   17.08    6.39
  -8   6  -1   10.25    5.53
  -8   6   1   11.69    5.85
  -8  -6  -2  641.06   25.76
  -8  -6   2  671.09   26.81
   8   6   2  672.57   26.53
  -8   6  -2  694.76   27.92
  -8   6   2  689.71   28.06
   8   6   3  231.39   16.27
  -8  -6  -3  212.78   15.04
  -8  -6   3  220.97   15.88
  -8   6  -3  239.92   16.62
  -8   6   3  221.80   16.28
  -8  -6   3  214.17   13.80
   8   6   4   19.27    6.68
  -8  -6  -4   16.13    5.34
  -8  -6   4    9.24    4.91
  -8   6  -4   13.29    5.55
  -8   6   4   10.17    4.96
  -8  -6   4   12.27    4.32
  -8  -6  -5    2.99    3.66
  -8  -6   5    4.07    4.39
   8   6   5    5.85    5.36
  -8   6  -5    0.68    3.94
  -8   6   5    1.64    4.49
  -8  -6   5    6.41    4.09
  -8  -6   6    0.20    3.04
   8   6   6    2.29    4.28
  -8  -6  -6    3.88    3.28
  -8  -6   6    4.02    4.17
   8   6   6    0.50    2.83
  -8   6  -6    2.84    4.07
  -8   6   6   -2.69    5.33
  -8  -6   7    4.08    3.68
  -8  -6  -7    6.87    4.02
  -8  -6   7    6.25    3.62
   8   6   7    7.43    3.02
  -8   6  -7    1.89    3.87
  -8   6   7   -0.29    5.17
   8   6   7   11.76    5.38
  -8  -6   8    2.63    3.24
  -8  -6  -8    0.81    2.73
  -8  -6   8    0.73    3.64
   8   6   8   -2.62    2.95
   8   6   8   -2.69    5.14
  -8   6  -8    1.47    3.86
  -8   6   8   -0.88    4.55
  -8  -6   9   -0.14    3.49
  -8  -6  -9    0.94    2.62
  -8  -6   9    4.75    4.32
   8   6   9    6.71    3.01
   8   6   9    7.36    4.35
  -8   6  -9   15.36    5.86
  -8   6   9    6.27    5.67
  -8  -6  10   29.87    6.64
   8   6  10   29.06    6.75
  -8  -6 -10   29.04    5.42
  -8  -6  10   23.12    5.99
   8  -6 -10   47.98    7.60
  -8   6 -10   30.79    6.67
   8  -6 -11   31.01    6.81
  -8  -6  11   39.51    7.59
   8   6 -11   28.34    5.66
   8   6  11   25.44    6.79
  -8  -6 -11   22.04    4.92
  -8  -6  11   27.94    6.77
  -8   6 -11   29.74    6.73
  -8  -6  12   65.79    9.45
   8  -6 -12   76.57    9.49
   8   6 -12   79.81    8.52
   8   6  12   62.66    9.71
   8   6  12   72.28   10.00
  -8  -6 -12   67.50    8.02
  -8  -6  12   82.24   10.66
  -8   6 -12   82.62   11.02
  -8  -6  13   -4.64    4.62
   8  -6 -13   -0.09    3.46
   8   6  13   -3.41    4.33
   8   6  13   -1.57    3.09
  -8  -6  13   -4.09    3.01
  -8   6 -13    7.93    5.23
  -8  -6  14   73.50   10.40
   8   6  14   71.40   10.33
   8  -6 -14   63.70    8.78
   8   6  14   67.54    9.77
  -8  -6  14   55.04    9.13
  -8   6 -14   75.50   10.97
   8   6  15   -9.05    6.96
  -8  -6  15    4.85    4.43
   8   6  15   -0.98    3.63
   8  -6 -15   -1.44    3.18
  -8  -6  15    1.40    3.58
  -8   6 -15    3.06    4.29
  -8  -6  16   -2.03    4.38
   8   6  16    3.13    3.67
   8  -6 -16   -0.08    2.93
  -8  -6  16    1.27    3.14
  -8   6 -16   -0.45    4.36
   8   6  16   -1.90    5.19
  -8  -6  17   24.25    6.72
   8   6  17   28.08    6.62
  -8  -6  17   31.64    7.15
   8   6  18   48.94    8.86
  -8  -6  18   45.29    7.96
   8   6  19   -0.61    3.62
  -8  -7   0   53.54    9.31
  -8   7   0   37.67    8.46
  -8  -7  -1  280.64   17.70
  -8  -7   1  274.02   17.80
  -8   7  -1  296.43   18.84
  -8   7   1  281.20   18.36
  -8  -7  -2   18.50    6.21
  -8  -7   2   24.77    6.73
  -8   7  -2   26.34    7.19
  -8   7   2   14.62    5.31
  -8  -7  -3  479.77   22.84
  -8  -7   3  533.22   24.79
  -8   7  -3  499.00   24.39
  -8   7   3  469.44   23.78
  -8  -7   3  507.28   20.27
  -8  -7  -4   62.53    8.88
  -8  -7   4   70.24    9.70
   8   7   4   76.60   10.68
  -8   7  -4   55.62    8.91
  -8   7   4   52.78    8.95
  -8  -7   4   56.61    7.57
   8   7   5    3.72    5.00
  -8  -7  -5    0.33    3.01
  -8  -7   5    4.96    4.90
  -8   7  -5   -1.27    4.80
  -8   7   5   -4.19    5.63
  -8  -7   5   -0.29    3.04
  -8  -7   6    0.21    3.08
   8   7   6    9.71    6.34
  -8  -7  -6   -0.30    3.17
  -8  -7   6    7.89    4.56
  -8   7  -6   -1.47    4.43
  -8   7   6   -5.40    5.10
   8   7   7  133.02   13.40
  -8  -7  -7  109.31   11.02
  -8  -7   7  126.69   12.97
  -8   7  -7  128.09   12.96
  -8   7   7  127.84   13.18
  -8  -7   7  121.94   11.16
   8   7   8  113.35   12.82
  -8  -7  -8   90.80    9.87
  -8  -7   8  119.25   12.52
  -8   7  -8   88.84   10.97
  -8   7   8  101.73   11.94
  -8  -7   8  105.08   10.59
  -8  -7   9   20.28    5.85
   8   7   9   30.93    8.20
  -8  -7  -9   25.74    5.86
  -8  -7   9   16.04    5.79
  -8   7  -9   24.00    6.47
  -8   7   9   29.31    8.03
   8   7  10  120.82   13.49
  -8  -7 -10  125.19   11.57
  -8  -7  10  123.36   12.87
  -8   7 -10  117.95   12.85
  -8   7  10  130.15   13.92
  -8  -7  10  115.13   11.73
   8   7  11  308.84   20.65
  -8  -7 -11  291.44   16.97
  -8  -7  11  310.49   20.30
   8  -7 -11  288.16   18.19
  -8   7 -11  307.68   20.28
  -8   7  11  320.93   21.40
  -8  -7  11  292.12   18.36
   8  -7 -12    5.80    4.12
  -8  -7  12    6.72    4.63
  -8  -7 -12    2.16    3.00
  -8  -7  12    1.83    4.34
   8   7  12    4.31    5.57
  -8   7 -12   -0.53    4.81
  -8  -7  13   33.26    7.59
   8  -7 -13   38.62    6.93
  -8  -7  13   36.72    7.67
   8   7  13   39.68    8.55
  -8   7 -13   43.48    8.73
  -8  -7  14   20.48    6.50
   8  -7 -14   19.14    5.22
   8   7  14   18.10    6.95
  -8  -7  14   23.54    7.13
  -8   7 -14   29.62    7.39
  -8  -7  15   28.70    7.40
   8   7  15   25.33    6.44
  -8  -7  15   25.76    6.36
  -8  -7  16    4.55    4.35
   8   7  16    2.45    4.23
  -8  -7  16    2.65    4.28
  -8  -7  17   72.16   10.57
   8   7  17   84.70   11.18
  -8  -7  17   78.32   11.07
  -8  -8   0  252.72   17.59
  -8   8   0  260.19   18.06
  -8  -8  -1   64.47    9.15
  -8  -8   1   66.88    9.73
  -8   8  -1   81.80   10.75
  -8   8   1   52.90    8.78
  -8  -8  -2    4.80    3.01
  -8  -8   2    1.17    3.40
  -8   8  -2    1.28    4.84
  -8   8   2   -2.20    4.95
  -8  -8  -3   13.16    4.50
  -8  -8   3   18.23    6.31
  -8   8  -3    7.59    4.23
  -8   8   3   23.31    6.56
  -8  -8  -4   16.76    5.24
  -8  -8   4   12.71    5.59
  -8   8  -4    5.45    3.80
  -8   8   4    0.53    4.52
  -8  -8  -5   72.14    9.59
  -8  -8   5   73.70    9.89
  -8   8  -5   62.57    9.75
  -8   8   5   63.07    9.51
  -8  -8   5   63.17    7.88
  -8  -8   6   52.49    7.37
  -8  -8  -6   57.54    8.62
  -8  -8   6   55.25    9.15
  -8   8  -6   48.98    8.55
  -8   8   6   50.82    8.63
  -8  -8  -7  106.01   11.09
  -8  -8   7  127.02   12.94
   8   8   7  117.54   13.36
  -8   8  -7  111.06   12.33
  -8   8   7  118.66   12.88
  -8  -8   7  120.83   11.08
  -8  -8   8   -1.25    3.07
  -8  -8  -8    4.12    2.89
  -8  -8   8    2.60    3.63
  -8   8  -8   -1.49    4.46
  -8   8   8    1.68    4.44
  -8  -8   9   -0.33    3.41
   8   8   9    7.26    6.10
  -8  -8  -9    9.30    4.47
  -8  -8   9    0.84    4.02
  -8   8  -9    3.72    5.27
  -8   8   9    5.00    4.46
  -8  -8  10    7.17    4.11
  -8  -8 -10    8.45    4.33
  -8  -8  10    8.53    5.36
  -8   8 -10    0.88    4.09
   8   8  10    9.36    5.55
   8   8  11  181.48   16.55
  -8  -8 -11  171.96   13.56
  -8  -8  11  156.55   14.96
   8  -8 -11  174.77   14.18
  -8   8 -11  170.17   15.66
  -8   8  11  195.40   17.06
  -8  -8  11  163.25   13.95
   8  -8 -12   12.13    4.71
  -8  -8  12   10.92    4.85
   8   8  12    9.48    5.52
  -8  -8  12    8.94    4.96
  -8   8 -12    9.52    5.12
  -8   8  12    8.81    6.13
  -8  -8  13    1.93    4.09
  -8  -8  13    1.93    4.10
  -8   8 -13    3.61    4.03
  -8  -8  14    8.64    4.95
  -8  -8  14   23.76    7.05
  -8  -8  15  169.88   15.37
  -8  -8  16    6.16    4.82
  -8  -9   0  147.24   14.02
  -8   9   0  152.39   14.37
  -8  -9   1   98.40   11.45
  -8  -9  -1  103.42   11.77
  -8   9  -1   87.08   11.11
  -8   9   1  100.99   11.70
  -8  -9   2   37.19    7.91
  -8  -9  -2   40.01    7.65
  -8   9  -2   55.36    9.17
  -8   9   2   39.74    7.21
  -8  -9   3   69.28   10.03
  -8  -9  -3   69.52   10.00
  -8   9  -3   80.70   10.62
  -8   9   3   65.66    9.58
  -8  -9   4    2.49    4.73
  -8  -9  -4    5.10    3.75
  -8   9  -4    2.41    4.61
  -8   9   4   -2.34    5.02
  -8  -9   5   45.61    8.68
  -8  -9  -5   34.56    7.14
  -8   9  -5   31.68    7.40
  -8   9   5   36.17    7.68
  -8  -9  -6   33.69    7.30
  -8  -9   6   43.43    8.50
  -8   9  -6   38.77    8.28
  -8   9   6   37.10    8.53
  -8  -9  -7  414.94   22.31
  -8  -9   7  437.62   24.62
  -8   9  -7  423.92   24.15
  -8   9   7  394.05   23.33
  -8  -9  -8  112.84   12.04
  -8  -9   8  113.70   13.15
  -8   9  -8  109.42   12.78
  -8   9   8  124.68   13.66
  -8  -9  -9   -1.43    3.00
  -8  -9   9    2.08    4.08
  -8   9  -9    1.18    4.35
  -8   9   9    7.53    5.28
  -8  -9  10   22.02    5.83
   8   9  10   34.12    8.82
  -8  -9 -10   13.98    4.93
  -8  -9  10   22.11    6.63
  -8   9 -10   14.21    5.68
  -8   9  10   19.28    6.28
  -8  -9 -11  100.26   10.98
  -8   9  11  105.01   12.93
  -8  -9  11  102.72   11.50
  -8  -9  12   34.73    7.31
  -8  -9  13   74.62   10.25
  -8  -9  14   43.46    8.49
  -8  -9  15   45.92    8.69
  -8 -10   0   -0.17    3.70
  -8  10   0    6.88    4.19
  -8 -10   1   28.37    6.79
  -8 -10  -1   36.96    7.41
  -8  10  -1   33.18    7.68
  -8  10   1   30.71    7.42
  -8 -10   2    2.84    3.66
  -8 -10  -2    0.54    3.46
  -8  10  -2    5.66    5.04
  -8  10   2   13.63    5.61
  -8 -10   3    3.31    4.19
  -8 -10  -3    2.62    3.77
  -8  10  -3    8.59    5.18
  -8  10   3    4.58    4.59
  -8 -10   4  116.63   13.30
  -8 -10  -4   96.46   11.56
  -8  10  -4  104.38   12.48
  -8  10   4  104.54   12.44
  -8 -10  -5    8.79    4.74
  -8  10  -5    7.81    4.42
  -8  10   5   15.92    6.16
  -8 -10  -6    5.41    4.17
  -8  10  -6   -6.23    5.11
  -8  10   6  -10.27    6.29
  -8 -10  -7   25.07    6.18
  -8  10  -7   30.68    7.15
  -8  10   7   24.72    7.25
  -8 -10  -8    5.93    3.60
  -8  10   8   13.52    5.53
  -8 -10  -9   16.09    4.80
  -8  10   9   10.11    5.84
  -8 -10 -10    4.14    4.09
  -8  11   0   56.63    9.51
  -8  11  -1   12.16    6.06
  -8  11   1    1.43    3.74
  -8  11  -2    6.99    5.01
  -8  11   2    8.09    5.07
  -8  11   3   32.91    8.40
  -8 -11  -8   17.06    5.17
  -8 -11  -9   44.20    8.07
  -8 -11 -10  112.35   12.45
   9   0   0    0.37    3.33
  -9   0   0    1.73    3.55
   9   0   0    5.80    4.28
   9   0  -1    2.03    4.03
   9   0   1    6.24    4.48
   9   0  -1    2.04    2.47
   9   0   1   -2.40    3.74
  -9   0  -1   -3.32    3.74
  -9   0   1    3.16    3.77
   9   0   2   24.34    5.97
   9   0  -2   16.19    5.60
   9   0  -2   19.97    4.08
   9   0   2   14.28    3.93
  -9   0  -2   16.64    4.63
  -9   0   2   29.09    6.22
   9   0   3    7.44    4.61
   9   0  -3    5.38    4.64
  -9   0  -3   12.78    5.07
   9   0   4   14.25    5.34
   9   0  -4    9.97    4.01
  -9   0  -4   17.15    5.14
  -9   0   4    6.30    3.81
   9   0   5    0.09    3.12
   9   0  -5   -5.65    4.29
  -9   0  -5    5.29    4.08
  -9   0   5   -2.79    4.01
   9   0   6  109.52   11.35
  -9   0  -6  100.61   10.03
   9   0  -6  112.51   11.49
  -9   0   6  104.46   10.99
   9   0   7   -2.98    3.85
   9   0  -7   -4.11    4.13
  -9   0  -7   -3.27    3.75
   9   0   8   32.62    6.98
   9   0  -8   36.17    7.01
  -9   0  -8   40.43    6.96
   9   0   9    2.37    4.48
   9   0  -9    2.09    4.26
  -9   0  -9    1.54    3.95
  -9   0   9    2.40    4.87
   9   0 -10   29.06    6.99
  -9   0 -10   26.55    6.30
  -9   0  10   32.65    7.13
   9   0 -11   -0.53    3.78
  -9   0 -11    2.53    3.01
  -9   0  11    3.35    4.62
   9   0 -12   17.62    5.18
  -9   0 -12   14.03    4.62
  -9   0  12    4.96    5.03
   9   0 -13   -2.07    4.22
  -9   0 -13    0.47    3.44
  -9   0  13   -7.06    5.30
  -9   0 -14   55.86    8.45
  -9   0  14   50.46    8.79
  -9   0 -15   -1.14    3.52
  -9   0  15   -1.81    4.13
  -9   0  16   30.85    7.23
  -9   0 -16   31.00    6.62
  -9   0  17   -6.22    5.57
  -9   0 -17    1.60    3.46
  -9   0 -18  118.90   12.72
  -9   0 -19    3.32    4.11
  -9   0 -20   59.73    9.49
   9   1   0    9.00    5.45
   9   1   0   16.03    5.86
   9   1   0    1.54    3.59
   9  -1   0   -1.61    3.19
  -9  -1   0   -5.78    4.34
  -9   1   0   -1.40    4.04
   9   1  -1  239.12   13.23
   9   1  -1  226.31   15.33
   9   1   1  248.14   16.27
   9   1   1  251.49   16.46
   9   1  -1  245.83   16.63
   9  -1  -1  232.37   12.00
  -9  -1  -1  221.10   14.57
  -9   1  -1  243.47   15.63
  -9   1   1  228.63   15.63
  -9  -1   1  215.88   14.58
   9   1   1  226.21   13.54
   9   1  -2  901.83   29.42
   9   1   2  893.07   30.39
   9   1  -2  886.73   24.29
   9  -1  -2  869.12   30.47
   9   1   2  914.47   30.46
   9   1  -2  897.22   30.95
  -9  -1  -2  873.98   27.73
  -9   1  -2  928.32   30.02
   9   1   2  889.90   26.63
  -9   1   2  882.98   29.84
  -9  -1   2  850.06   28.24
   9  -1  -3    9.95    5.56
   9   1  -3    9.41    3.63
   9   1  -3   16.24    5.63
   9   1   3   28.14    7.03
   9   1  -3   12.43    5.53
   9   1   3    6.45    3.85
   9   1   3   16.49    5.93
  -9  -1  -3   17.62    5.25
  -9   1  -3   21.30    5.59
  -9   1   3   12.20    5.48
  -9  -1   3    7.44    4.34
   9   1  -4  256.59   15.69
   9   1   4  264.67   16.98
   9   1   4  239.97   14.67
   9  -1  -4  244.00   16.37
  -9  -1  -4  243.03   14.80
  -9   1  -4  230.42   15.53
   9   1  -4  267.49   17.48
  -9   1   4  257.04   16.55
  -9  -1   4  243.33   15.45
   9   1  -5   71.39    8.88
   9   1   5   90.80   10.67
   9  -1  -5   77.58   10.03
   9   1  -5   56.88    9.01
  -9  -1  -5   63.78    8.17
  -9   1  -5   54.91    8.33
  -9   1   5   59.11    9.07
  -9  -1   5   66.92    9.34
   9   1  -6  197.14   13.64
   9   1   6  185.86   14.54
  -9  -1  -6  175.07   12.77
  -9   1  -6  171.16   13.52
   9  -1  -6  179.31   14.10
   9   1  -6  179.68   14.52
  -9   1   6  192.90   14.74
  -9  -1   6  199.87   14.41
   9   1  -7    7.00    3.82
   9   1   7    8.46    5.23
   9  -1  -7    6.51    4.45
   9   1  -7    5.23    4.57
  -9  -1  -7    0.75    3.58
  -9   1  -7    1.37    3.69
  -9   1   7   19.45    6.77
   9   1   8  334.39   19.59
  -9  -1  -8  321.04   17.74
  -9   1  -8  311.42   18.25
   9  -1  -8  297.53   18.80
   9   1  -8  320.47   19.35
  -9  -1   8  335.02   20.01
   9   1   9  202.58   16.09
  -9  -1  -9  187.28   14.04
  -9   1  -9  194.22   14.57
   9  -1  -9  187.32   15.11
   9   1  -9  198.10   15.61
  -9  -1   9  206.54   16.29
   9   1  10  286.63   18.48
  -9  -1 -10  275.77   16.74
  -9   1 -10  258.46   17.23
   9  -1 -10  285.55   18.48
  -9  -1  10  291.68   19.08
   9   1 -10  301.85   19.13
   9   1  11   22.63    6.59
   9  -1 -11   21.96    6.16
   9   1 -11   26.26    6.39
  -9  -1 -11   19.31    5.67
  -9   1 -11   17.07    5.27
  -9   1  11   20.24    6.42
  -9  -1  11   20.49    7.30
   9   1  12  236.55   16.95
  -9  -1 -12  237.31   15.59
  -9   1 -12  211.53   15.74
   9  -1 -12  210.22   16.30
  -9   1  12  247.13   18.06
  -9  -1  12  229.61   17.40
   9   1  13  107.01   11.88
  -9  -1 -13   94.46   10.22
  -9   1 -13   89.14   10.52
  -9  -1  13  108.18   12.55
   9  -1 -13   98.27   11.41
  -9   1  13  114.01   13.06
  -9  -1  14    6.70    5.15
   9   1  14   13.40    5.84
   9  -1 -14    3.34    4.64
  -9  -1 -14    3.85    3.21
  -9   1 -14   -2.51    4.19
  -9   1  14   11.11    5.34
  -9  -1  15   13.27    6.29
   9   1  15   11.43    5.57
  -9  -1 -15    4.97    3.01
  -9   1 -15    4.84    4.35
  -9   1  15   10.18    5.44
   9   1  16  209.00   16.54
  -9  -1 -16  178.76   14.46
  -9   1 -16  182.05   15.36
  -9   1  16  196.31   17.14
  -9  -1  16  179.01   16.46
  -9  -1  17   36.52    8.39
  -9  -1 -17   41.45    7.53
  -9   1 -17   43.59    7.92
  -9   1  17   42.63    8.90
  -9  -1 -18   14.99    5.19
  -9   1 -18   18.43    6.08
  -9  -1 -19    3.55    3.94
  -9   1 -19    2.72    4.03
  -9  -1 -20   88.39   11.08
  -9  -1 -21    1.61    3.53
   9   2   0    4.16    3.03
   9   2   0   -2.55    3.59
   9   2   0   -1.71    3.12
  -9  -2   0   -3.21    3.33
  -9   2   0   -6.33    5.47
   9   2   1    4.63    3.88
   9   2  -1    3.00    3.33
   9   2   1    1.24    4.00
   9   2  -1    4.41    4.11
   9   2  -1    6.26    3.31
   9   2   1   -1.11    3.71
  -9  -2  -1    2.88    3.08
  -9   2  -1   -3.52    5.40
  -9  -2   1    2.57    3.25
  -9   2   1    7.72    4.88
   9   2   2   -2.11    3.96
   9   2   2   -3.15    3.63
   9   2  -2   -0.54    3.72
   9   2   2   -4.56    4.84
   9   2  -2    5.50    3.40
   9   2  -2    3.07    3.40
  -9  -2  -2    2.00    3.27
  -9   2  -2   -4.73    4.88
  -9   2   2    2.14    4.18
  -9  -2   2    6.00    4.17
   9   2   3    1.61    3.03
   9   2  -3    1.69    3.07
   9   2   3    5.39    3.68
   9   2  -3   -7.87    5.41
  -9  -2  -3    7.12    3.98
  -9   2  -3    6.57    4.07
  -9   2   3    4.80    4.82
  -9  -2   3    2.11    3.07
   9   2   3    3.06    3.61
   9   2   4    9.51    4.22
   9   2  -4    2.69    3.52
   9   2   4    6.28    4.07
   9   2  -4   11.16    4.77
   9  -2  -4    9.86    4.58
   9   2   4    4.36    3.24
  -9  -2  -4    6.55    3.70
  -9   2  -4    5.89    3.46
  -9   2   4   15.53    5.92
  -9  -2   4    9.66    4.34
   9   2  -5  100.54   10.10
   9   2   5   93.52   10.31
   9  -2  -5   98.81   10.58
   9   2   5   88.31    9.68
  -9  -2  -5   92.33    8.94
  -9   2  -5   94.56   10.31
   9   2   5   88.87    9.39
  -9   2   5   95.32   11.27
  -9  -2   5   96.35   10.06
   9   2  -5   90.87   10.39
   9   2   6    9.00    3.85
   9  -2  -6   11.60    4.11
   9   2  -6   15.92    4.36
   9   2   6   12.15    4.67
   9   2  -6   22.28    6.19
   9   2   6    7.16    3.23
  -9  -2  -6   13.57    4.06
  -9   2  -6   15.85    5.18
  -9   2   6   17.41    6.39
  -9  -2   6   14.10    5.28
   9  -2  -7   66.25    8.94
   9   2  -7   63.67    8.14
   9   2   7   63.11    9.09
   9   2   7   63.55    8.44
   9   2  -7   61.10    8.80
   9   2   7   66.52    8.64
  -9  -2  -7   63.24    7.71
  -9   2  -7   69.52    9.02
  -9   2   7   75.36   10.19
  -9  -2   7   65.56    8.94
   9  -2  -8    6.00    4.26
   9   2  -8    4.64    3.20
   9   2   8    4.49    4.46
   9   2  -8    3.57    4.14
   9   2   8    2.08    3.99
   9   2   8    3.51    3.93
  -9  -2  -8    9.60    4.20
  -9   2  -8    4.38    3.97
  -9  -2   8   -4.25    4.47
   9   2  -9   64.52    7.86
   9   2   9   61.62    8.98
   9  -2  -9   64.98    9.20
   9   2  -9   69.18    9.47
  -9  -2  -9   57.72    7.74
  -9   2  -9   57.10    8.75
  -9  -2   9   69.28    9.67
   9   2 -10   28.91    5.21
   9   2  10   31.01    7.18
   9  -2 -10   28.36    6.21
  -9  -2 -10   36.88    6.29
  -9   2 -10   28.12    6.66
  -9  -2  10   36.13    7.46
   9   2 -11    4.94    3.24
   9   2  11   -3.07    3.14
   9  -2 -11   -5.17    4.70
  -9  -2 -11    2.85    2.92
  -9   2 -11   -4.09    4.72
  -9  -2  11    0.68    4.64
  -9  -2  12    4.33    5.15
   9   2  12    5.07    4.45
   9  -2 -12    7.41    5.20
  -9  -2 -12    2.90    3.30
  -9   2 -12    4.21    3.95
  -9  -2  13   -1.00    3.68
   9   2  13   -0.67    3.67
   9  -2 -13   -0.68    3.39
  -9  -2 -13    0.57    2.72
  -9   2 -13    2.80    3.69
  -9   2  13   -5.11    5.16
  -9  -2  14    6.53    4.85
   9   2  14   13.04    5.52
   9  -2 -14    9.56    4.15
  -9  -2 -14   13.99    4.39
  -9   2 -14    9.12    4.66
  -9   2  14   12.24    6.07
   9   2  15  162.94   14.71
  -9  -2 -15  160.13   13.18
  -9   2 -15  167.45   14.91
  -9   2  15  144.34   14.64
  -9  -2  15  172.02   15.72
   9  -2 -15  154.04   14.14
  -9  -2  16    5.26    4.76
   9   2  16    0.85    3.80
  -9  -2 -16    2.99    3.10
  -9   2 -16   -0.81    3.75
  -9   2  16    4.76    4.73
   9   2  17  119.28   12.96
  -9  -2 -17  110.42   11.30
  -9   2 -17  108.64   12.35
  -9  -2  17  134.73   14.56
  -9   2  17  103.57   12.86
   9   2  18    4.05    3.53
  -9  -2 -18    1.96    3.12
  -9   2 -18    3.29    4.21
   9   2  19    6.84    4.11
  -9  -2 -19    9.66    4.20
   9   3   0    3.57    3.69
   9   3   0   -0.54    3.23
   9   3   0    4.01    3.58
  -9  -3   0   -1.73    3.66
  -9   3   0   -5.91    5.19
   9   3  -1  308.47   17.79
   9   3   1  297.21   17.80
   9   3   1  300.93   16.40
   9   3  -1  294.03   15.74
  -9  -3  -1  290.21   15.20
  -9   3  -1  305.66   18.23
  -9  -3   1  313.31   15.85
  -9   3   1  296.91   18.15
   9   3   1  308.51   17.94
   9   3  -1  315.64   18.46
   9   3  -2   19.47    5.80
   9   3   2    6.87    4.22
   9   3   2    8.23    4.57
   9   3  -2    9.81    5.23
   9   3   2   12.01    4.71
  -9  -3  -2    7.90    4.06
  -9   3  -2    5.33    4.02
  -9   3   2    1.82    3.96
  -9  -3   2    0.92    2.97
   9   3  -3   85.00    9.64
   9   3   3   96.34   10.58
   9   3   3   75.07    8.85
  -9  -3  -3   78.70    8.16
   9   3   3   91.54   10.22
  -9   3  -3   84.79   10.08
   9   3  -3   85.41   10.08
  -9   3   3   85.79   10.13
  -9  -3   3   71.00    7.98
   9   3   4   16.94    5.31
   9   3   4   13.46    4.73
   9   3  -4   15.46    4.74
   9   3   4   18.40    5.60
   9   3  -4    5.39    3.74
  -9  -3  -4    7.69    3.47
  -9   3  -4   12.73    5.12
  -9   3   4   15.28    6.11
  -9  -3   4   16.16    5.11
   9   3  -5  258.80   15.98
   9   3   5  265.15   17.51
  -9  -3  -5  234.60   13.74
  -9   3  -5  262.84   17.31
   9   3   5  267.86   16.51
  -9   3   5  282.98   18.24
  -9  -3   5  258.84   15.33
   9   3   5  277.67   16.91
   9   3  -5  241.88   16.54
   9  -3  -6   -4.67    3.96
   9   3   6    4.97    3.66
   9   3  -6   -0.53    2.68
   9   3   6    3.52    3.51
   9   3  -6   -4.32    4.34
  -9  -3  -6    2.17    2.60
  -9   3  -6    6.36    5.08
   9   3   6   -3.63    4.29
  -9   3   6    9.17    5.58
  -9  -3   6   11.40    4.85
  -9  -3   6   -0.59    3.51
   9  -3  -7    3.55    3.11
   9   3   7    6.05    3.63
   9   3  -7    6.74    3.77
   9   3   7    3.35    4.28
   9   3  -7    8.63    3.92
   9   3   7    4.02    3.88
  -9  -3  -7    2.40    2.33
  -9   3  -7    7.77    4.31
  -9   3   7   10.38    5.58
  -9  -3   7    1.63    4.05
   9   3   8   28.80    6.54
   9  -3  -8   24.45    6.86
   9   3  -8   22.68    5.29
   9   3   8   21.02    5.58
   9   3   8   18.28    5.22
  -9  -3  -8   17.60    4.51
  -9   3  -8   24.23    6.28
  -9   3   8   22.83    7.28
  -9  -3   8   20.47    6.03
   9   3  -9  361.69   18.39
   9   3   9  364.29   20.88
  -9  -3  -9  372.56   17.93
  -9   3  -9  404.66   21.64
   9   3   9  370.07   19.07
   9   3   9  352.39   20.03
   9  -3  -9  357.91   20.48
  -9  -3   9  394.28   21.44
   9   3  10   40.18    6.81
   9   3 -10   40.45    6.50
   9  -3 -10   33.20    6.80
   9   3  10   45.75    8.35
   9   3  10   32.08    6.94
  -9  -3 -10   37.75    6.32
  -9   3 -10   33.17    7.41
  -9  -3  10   55.30    9.09
  -9  -3  11   26.50    6.36
   9   3  11   13.69    4.09
   9   3 -11   26.62    5.08
   9   3  11   25.75    6.35
   9  -3 -11   21.31    5.95
   9   3  11   13.21    4.96
  -9  -3 -11   17.14    4.44
  -9   3 -11   15.88    5.10
  -9  -3  12   29.21    7.39
   9   3  12   13.92    4.20
   9   3 -12   17.96    4.43
   9   3  12   20.67    6.07
   9  -3 -12   14.95    5.16
   9   3  12   20.55    6.12
  -9  -3 -12   24.80    5.33
  -9   3 -12   18.62    5.38
  -9  -3  13   52.60    9.20
   9   3  13   49.15    8.79
   9  -3 -13   46.88    7.91
  -9  -3 -13   44.80    6.74
  -9   3 -13   51.04    8.66
   9   3  13   45.60    6.98
  -9  -3  14   13.08    5.98
   9   3  14   14.07    5.00
   9  -3 -14   12.78    4.70
  -9  -3 -14    6.93    3.67
  -9   3 -14    5.08    4.24
   9   3  15  213.77   17.04
  -9   3 -15  205.06   16.86
  -9   3  15  208.13   17.51
   9  -3 -15  212.06   16.33
  -9  -3  15  222.56   17.79
  -9  -3  16   10.75    6.08
   9   3  16   22.43    6.59
   9  -3 -16    7.25    4.20
  -9   3 -16   10.84    5.22
  -9   3  16    9.88    5.18
   9   3  17    4.13    3.63
  -9   3 -17   -1.54    4.61
   9   3  18   20.16    6.46
   9   3  19  166.06   15.54
   9   4   0   -0.60    3.17
   9   4   0    0.40    3.71
   9   4   0   -4.78    3.68
  -9  -4   0   -1.20    2.62
  -9   4   0   -5.92    5.26
   9   4   1   15.99    5.43
   9   4  -1    4.07    3.09
   9   4   1    9.80    4.34
   9   4   1    9.10    4.07
   9   4  -1   10.53    4.14
  -9  -4  -1   15.34    4.08
  -9   4  -1    4.99    4.14
  -9  -4   1   10.34    3.34
  -9   4   1   17.11    5.61
   9   4  -2   44.81    7.39
   9   4   2   33.38    6.37
   9   4   2   36.35    6.56
   9   4   2   44.54    7.51
   9   4  -2   39.36    6.95
  -9  -4  -2   45.33    6.12
  -9   4  -2   42.10    7.77
  -9   4   2   35.73    7.22
  -9  -4   2   43.16    6.17
   9   4  -3   -4.05    3.93
   9   4   3    0.82    3.50
   9   4   3   -1.96    3.41
   9   4  -3   -7.70    4.72
  -9  -4  -3    2.26    2.60
  -9   4  -3   -2.05    3.98
  -9   4   3    2.81    3.85
  -9  -4   3   -0.59    2.85
   9   4   3    6.17    4.37
   9   4  -4    7.24    3.49
   9   4   4    4.59    3.75
   9   4   4    5.34    3.50
   9   4  -4    1.31    3.08
   9   4   4   10.11    4.69
  -9  -4  -4    3.07    2.33
  -9   4  -4    7.45    4.28
  -9   4   4    3.75    4.53
  -9  -4   4    7.31    3.53
   9   4  -5   41.56    6.69
   9   4   5   37.39    7.36
   9   4   5   31.08    6.30
   9   4   5   39.41    7.63
  -9  -4  -5   35.95    5.42
  -9   4  -5   38.83    7.59
  -9   4   5   28.95    7.43
  -9  -4   5   43.67    6.70
   9   4  -6   33.57    6.35
   9   4   6   15.49    5.47
   9   4   6   31.50    5.99
   9   4   6   29.27    6.70
  -9  -4  -6   29.22    5.01
  -9   4  -6   22.73    6.30
  -9   4   6   34.49    7.85
  -9  -4   6   32.78    6.35
  -9  -4   6   26.69    6.24
   9   4   7    9.55    4.39
   9   4   7   16.99    4.76
   9   4  -7   16.24    5.02
   9   4   7   16.17    5.95
   9  -4  -7    6.75    4.10
  -9   4  -7   21.00    6.46
  -9   4   7   16.39    6.52
  -9  -4   7   18.62    5.30
   9   4  -8  226.90   15.04
   9   4   8  248.72   17.39
   9  -4  -8  258.19   17.49
  -9   4  -8  228.19   16.79
   9   4   8  232.58   15.14
  -9   4   8  233.57   17.91
   9   4   8  241.28   17.19
  -9  -4   8  237.22   16.69
   9  -4  -9   13.75    5.14
   9   4   9   14.29    4.70
   9   4  -9   12.47    4.08
   9   4   9    9.87    4.66
  -9   4  -9   13.43    5.61
   9   4   9   12.39    5.24
  -9   4   9   25.78    7.39
  -9  -4   9   23.60    6.76
  -9  -4  10   20.75    5.92
   9  -4 -10   20.22    5.26
   9   4  10   32.99    5.97
   9   4 -10   27.62    5.32
   9   4  10   33.99    7.42
  -9   4 -10   26.32    6.65
   9   4  10   30.52    6.70
  -9  -4  11   14.16    5.84
   9   4  11    6.92    3.27
   9  -4 -11    3.46    3.33
   9   4 -11    3.08    2.74
   9   4  11    6.23    3.74
   9   4  11    3.50    4.07
  -9   4 -11    8.13    4.73
  -9  -4  12   10.42    5.22
   9   4  12    5.60    3.43
   9  -4 -12    4.11    3.66
   9   4  12    2.44    3.69
  -9   4 -12    8.32    4.49
  -9  -4  13    3.71    3.76
   9   4  13   -1.60    3.87
   9  -4 -13   -5.57    4.76
   9   4  13   -4.56    5.13
  -9   4 -13    5.11    4.25
  -9  -4  14   36.32    8.40
   9   4  14   25.56    6.55
   9  -4 -14   20.21    5.46
   9   4  14    9.45    4.50
  -9   4 -14   20.29    6.03
  -9  -4  15   -0.17    3.75
   9   4  15   -3.30    4.67
   9  -4 -15   -5.74    4.96
   9   4  15   -7.84    6.24
  -9   4 -15    0.24    4.11
  -9  -4  16    4.90    4.78
   9   4  16    1.26    3.41
   9  -4 -16    0.14    3.55
  -9   4 -16    3.55    3.37
   9   4  17    3.44    3.70
   9  -4 -17    0.64    2.91
   9   4  18   17.77    6.06
   9   5   0    8.67    3.87
  -9  -5   0   -2.22    4.17
   9   5   0   -2.27    4.13
  -9   5   0   -3.90    4.95
   9   5  -1    3.88    4.26
   9   5   1    0.16    3.42
  -9  -5  -1    0.62    3.51
  -9  -5   1   -3.49    4.15
   9   5   1    7.69    4.34
   9   5   1    2.13    3.95
   9   5  -1   -1.85    3.59
  -9   5  -1   -0.45    5.00
  -9   5   1   -0.67    3.83
   9   5  -2  177.22   14.20
   9   5   2  161.58   13.84
   9   5   2  184.69   14.39
  -9  -5  -2  150.83   13.33
  -9  -5   2  172.83   14.45
  -9   5  -2  187.35   15.20
  -9   5   2  171.45   14.53
   9   5   2  168.63   13.50
   9   5  -3   19.54    5.76
   9   5   3   14.58    4.99
   9   5   3   24.59    5.90
  -9  -5  -3    7.85    3.83
  -9  -5   3   15.74    5.13
  -9   5  -3   23.85    6.71
  -9   5   3   25.49    6.71
   9   5   3   17.16    5.64
   9   5  -4    2.71    2.88
   9   5   4   -4.03    4.84
  -9  -5  -4   -3.13    4.04
   9   5   4    6.13    4.07
   9   5   4    4.99    3.94
  -9  -5   4   -3.14    3.48
  -9   5  -4    3.18    4.22
  -9   5   4    4.81    5.29
   9   5   5    7.00    4.46
   9   5  -5    4.65    3.42
   9   5   5    1.29    4.12
  -9  -5  -5    6.63    4.01
   9   5   5    3.55    3.42
  -9  -5   5    5.78    4.88
  -9   5  -5    7.09    4.11
  -9   5   5    5.73    4.44
  -9  -5   5    7.31    3.42
  -9  -5   5    4.50    4.13
   9   5  -6   74.45    9.01
   9   5   6   80.00   10.47
  -9  -5  -6   74.95    9.37
   9   5   6   73.39    8.65
  -9  -5   6   84.09   10.69
   9   5   6   81.26   10.31
  -9   5  -6   82.25   10.80
  -9  -5   6   80.42    8.45
  -9   5   6   75.36   10.43
  -9  -5   6   70.51    9.13
   9   5  -7    9.08    3.96
   9   5   7   11.04    5.25
   9   5   7    7.33    3.78
  -9  -5   7    9.33    4.88
   9   5   7   11.80    5.42
  -9   5  -7    3.86    4.10
  -9   5   7   22.91    7.76
  -9  -5   7   19.27    5.24
  -9  -5   7   10.75    4.73
   9   5  -8  200.22   14.31
   9   5   8  203.16   16.18
  -9  -5   8  203.75   16.28
   9  -5  -8  203.52   15.90
  -9   5  -8  219.19   16.89
  -9   5   8  231.50   17.81
   9   5   8  218.64   14.56
  -9  -5   8  210.10   15.68
   9   5   8  224.02   16.91
  -9  -5   9   23.14    6.93
   9  -5  -9   14.96    5.96
   9   5  -9   14.34    4.75
   9   5   9   23.49    7.16
   9   5   9   15.84    5.41
   9   5   9   21.78    5.50
  -9  -5   9   28.70    7.50
  -9   5  -9   23.47    7.60
  -9   5   9   25.48    7.99
   9   5 -10  148.89   12.23
   9   5  10  141.63   13.90
  -9  -5  10  167.35   15.14
  -9   5 -10  154.57   14.42
   9  -5 -10  157.86   13.94
  -9   5  10  154.39   15.06
   9   5  10  139.08   13.75
  -9  -5  10  148.19   13.74
  -9  -5  11   42.80    8.29
   9   5  11   45.29    8.48
   9  -5 -11   38.66    7.42
   9   5 -11   31.42    5.84
   9   5  11   46.17    8.69
  -9  -5  11   28.79    7.06
  -9   5 -11   46.96    8.85
   9   5  12  172.72   15.41
  -9   5 -12  168.05   15.28
   9  -5 -12  153.23   14.08
   9   5  12  145.91   14.52
  -9  -5  12  146.45   14.33
  -9  -5  13   60.20    9.74
   9  -5 -13   56.21    9.11
   9   5  13   68.46   10.44
  -9   5 -13   51.61    9.30
   9   5  13   41.36    9.26
  -9  -5  14   80.60   11.07
   9   5  14   79.55   10.96
   9  -5 -14   55.94    8.58
  -9   5 -14   77.17   10.98
   9   5  14   77.99   11.04
  -9  -5  15   35.66    8.00
   9   5  15   55.24    9.14
   9  -5 -15   39.75    7.56
   9   5  16  269.28   19.69
   9  -5 -16  269.31   18.41
   9  -5 -17   10.55    4.87
  -9  -6   0    2.52    3.66
  -9   6   0   -5.75    5.62
  -9  -6  -1   15.48    5.22
  -9  -6   1    9.59    5.20
  -9   6  -1   23.86    6.60
  -9   6   1   17.10    5.36
  -9  -6  -2   27.51    6.62
  -9  -6   2   17.09    5.71
  -9   6  -2   20.17    6.40
  -9   6   2   18.48    5.94
   9   6   3   45.94    8.44
   9   6  -3   32.01    6.43
  -9  -6  -3   41.32    7.26
  -9  -6   3   37.83    7.44
  -9   6  -3   40.29    8.08
  -9   6   3   36.51    7.48
   9   6  -4   -2.00    3.49
   9   6   4    4.99    3.19
  -9  -6  -4    3.14    3.85
  -9  -6   4   -4.47    4.68
   9   6   4    8.22    5.31
  -9   6  -4    1.63    3.94
  -9   6   4    0.50    5.20
   9   6  -5    1.12    3.09
   9   6   5   -1.18    4.43
  -9  -6  -5    5.56    3.67
  -9  -6   5    1.63    3.27
   9   6   5    2.39    2.83
  -9   6  -5    2.72    3.79
  -9   6   5    6.17    4.32
   9   6   5    9.49    5.13
  -9  -6   5   -1.50    3.59
   9   6  -6    8.00    4.17
   9   6   6    0.12    3.81
  -9  -6  -6    5.97    4.12
  -9  -6   6    3.95    4.56
   9   6   6   16.81    6.52
   9   6   6    2.04    3.14
  -9   6  -6    1.74    4.01
  -9   6   6    5.10    4.28
  -9  -6   6    9.96    4.72
   9   6   7    9.68    5.67
   9   6  -7    6.13    3.73
   9   6   7    5.41    4.00
  -9  -6  -7    5.43    3.45
  -9  -6   7   16.51    5.68
   9   6   7    6.04    3.61
  -9   6  -7    2.56    3.78
  -9   6   7   15.70    6.35
  -9  -6   7    0.24    3.86
   9   6  -8   22.48    5.35
   9   6   8   17.05    5.30
  -9  -6  -8   22.14    5.58
  -9  -6   8   27.90    6.82
  -9   6  -8   29.65    7.09
  -9   6   8   39.00    8.82
   9   6   8   32.88    7.62
  -9  -6   8   30.65    6.64
  -9  -6   9   10.67    4.77
   9   6  -9   12.80    4.41
   9   6   9   14.08    5.48
  -9  -6  -9   10.26    4.40
  -9  -6   9    7.82    4.72
   9  -6  -9   10.94    4.06
   9   6   9    5.80    4.33
  -9   6  -9    9.35    5.09
  -9   6   9   12.09    5.79
  -9  -6  10    2.25    3.57
   9  -6 -10   -3.52    4.11
   9   6 -10   -4.61    3.49
   9   6  10   -4.53    4.49
  -9  -6 -10   -3.65    4.08
  -9  -6  10   -0.77    4.34
   9   6  10   -4.59    4.76
  -9   6 -10    0.11    4.33
  -9   6  10    4.36    5.13
  -9  -6  11   -3.45    4.31
   9  -6 -11   -3.74    4.04
   9   6 -11    0.39    2.49
   9   6  11   -3.56    4.77
   9   6  11    7.69    4.77
  -9  -6  11    2.57    3.82
  -9   6 -11   -1.69    4.08
  -9   6  11    7.52    6.60
  -9  -6  12    9.14    5.13
   9  -6 -12    3.00    3.01
   9   6  12    3.37    3.57
   9   6  12    3.80    4.41
  -9  -6  12    2.98    3.89
  -9   6 -12   12.07    6.44
  -9   6  12   17.73    7.51
  -9  -6  13   16.05    5.30
   9  -6 -13   19.81    5.75
   9   6  13   15.70    5.33
   9   6  13    5.93    4.29
  -9  -6  13   17.20    6.06
  -9  -6  14    6.59    4.69
   9  -6 -14    1.01    3.50
   9   6  14   -2.96    4.10
  -9  -6  14    4.23    3.83
  -9  -6  15    1.79    4.04
   9  -6 -15    9.07    4.31
  -9  -7   0   -6.81    4.32
  -9   7   0   -7.30    4.96
  -9  -7  -1   25.23    6.49
  -9  -7   1   26.90    6.51
  -9   7  -1   11.80    5.71
  -9   7   1   17.05    5.56
  -9  -7  -2   89.39   10.98
  -9  -7   2   71.63   10.29
  -9   7  -2   77.82   10.87
  -9   7   2   73.93   10.60
  -9  -7  -3  262.82   18.02
  -9  -7   3  249.50   18.21
  -9   7  -3  280.28   19.48
  -9   7   3  269.67   19.10
  -9  -7  -4    0.62    3.29
  -9  -7   4    4.94    4.33
  -9   7  -4   -1.07    4.04
  -9   7   4   -5.88    5.33
  -9  -7  -5  161.75   14.15
  -9  -7   5  154.58   14.70
   9   7   5  165.33   15.24
  -9   7  -5  149.01   14.79
  -9   7   5  140.18   14.16
  -9  -7   5  143.40   12.30
  -9  -7  -6   41.72    7.69
  -9  -7   6   52.59    9.71
  -9   7  -6   39.43    8.53
  -9   7   6   45.25    9.15
   9   7   6   55.30   10.02
  -9  -7   6   38.30    6.80
   9   7   7   18.53    6.68
  -9  -7  -7   10.60    4.68
  -9  -7   7   14.80    5.39
  -9   7  -7    9.46    5.67
  -9   7   7   17.39    6.68
  -9  -7   7   13.14    4.83
  -9  -7  -8   10.78    4.57
  -9  -7   8    5.11    5.12
  -9   7  -8    1.18    4.39
   9   7   8   18.26    6.65
  -9   7   8    3.57    5.14
  -9  -7   8    5.36    4.10
   9   7  -9  216.37   15.60
   9   7   9  208.99   17.54
  -9  -7  -9  186.22   14.73
  -9  -7   9  217.55   17.77
  -9   7  -9  185.71   16.41
  -9   7   9  214.90   17.84
  -9  -7   9  187.33   15.07
  -9  -7  10   75.48   10.09
   9   7  10   63.73   10.70
   9   7 -10   65.65    8.73
   9   7  10   68.25   10.21
  -9  -7 -10   69.71    9.02
  -9  -7  10   75.16   11.17
   9  -7 -10   89.37   11.05
  -9   7 -10   75.92   11.13
  -9   7  10   84.87   12.14
  -9  -7  11    3.70    3.94
   9  -7 -11    5.12    3.48
   9   7  11    4.89    3.95
   9   7 -11    5.43    3.49
   9   7  11   14.74    5.54
  -9  -7 -11    2.65    2.89
  -9  -7  11    5.71    4.72
  -9   7  11   18.29    8.17
  -9  -7  12   59.17    9.83
   9  -7 -12   58.87    9.12
   9  -7 -13  264.61   18.55
  -9  -7  13  292.37   19.98
  -9  -7  14    5.77    5.25
   9  -7 -14    7.60    4.00
  -9  -8   0   -2.76    3.65
  -9   8   0   11.10    5.71
  -9  -8  -1   10.58    4.38
  -9  -8   1   -2.23    4.53
  -9   8  -1    3.12    4.03
  -9   8   1    6.55    4.74
  -9  -8  -2   10.85    5.00
  -9  -8   2    1.04    3.77
  -9   8  -2   14.97    5.64
  -9   8   2    8.72    5.17
  -9  -8  -3   32.59    7.35
  -9  -8   3   44.89    8.84
  -9   8  -3   38.29    7.99
  -9   8   3   25.98    6.76
  -9  -8  -4   11.16    4.57
  -9  -8   4   18.76    6.27
  -9   8  -4   16.34    6.42
  -9   8   4    8.28    4.66
  -9  -8  -5   58.30    9.01
  -9  -8   5   72.85   10.68
  -9   8  -5   76.16   10.88
  -9   8   5   66.22   10.01
  -9  -8  -6   19.20    5.35
  -9  -8   6   26.61    7.38
  -9   8  -6   18.19    6.79
  -9   8   6   18.63    6.58
  -9  -8  -7   10.85    4.90
  -9  -8   7   15.60    6.20
  -9   8  -7    6.91    4.26
  -9   8   7   16.46    6.52
  -9  -8  -8    8.56    4.28
   9   8   8   18.03    7.11
  -9   8   8    9.21    5.08
  -9  -8   9   20.99    5.68
  -9  -8  -9   17.92    5.53
  -9  -8  10    9.73    4.64
  -9  -8 -10    0.66    2.86
   9  -8 -10   10.06    4.54
   9  -8 -11    4.64    3.45
  -9  -8  11    4.30    4.38
  -9  -8  12    9.85    4.85
   9  -8 -12    1.09    3.66
  -9  -8  13    4.84    4.34
  -9  -9   0    1.39    3.61
  -9   9   0    2.54    4.89
  -9  -9  -1   89.85   11.72
  -9  -9   1   82.77   11.25
  -9   9   1  103.47   12.83
  -9   9  -1   90.12   12.04
  -9  -9  -2   27.94    6.97
  -9   9  -2   31.82    8.20
  -9   9   2   19.43    6.50
  -9  -9  -3   30.06    7.16
  -9   9   3   18.08    6.01
  -9  -9  -4   10.73    4.60
  -9  -9  -5   18.35    6.48
  -9  -9  -6  241.28   17.84
  -9  -9  -7   23.09    6.43
  -9  -9  -8   16.42    5.22
  -9  -9  -9  212.57   16.59
  -9  -9 -10   10.21    5.10
  10   0   0  240.08   17.17
 -10   0   0  255.39   16.64
  10   0   1    2.16    4.24
  10   0  -1   14.19    6.17
 -10   0  -1   -0.58    4.06
 -10   0   1    2.67    4.86
  10   0   2  122.95   12.43
  10   0  -2  107.07   11.74
  10   0   2  121.63   10.34
 -10   0  -2  131.58   12.20
 -10   0   2  122.16   11.91
  10   0  -3   -4.09    4.30
  10   0   3   -2.36    3.93
 -10   0  -3   -2.71    3.77
 -10   0   3   -2.97    4.80
  10   0  -4   54.64    8.68
  10   0   4   51.71    7.11
 -10   0  -4   51.98    7.95
 -10   0   4   60.42    8.75
  10   0  -5    0.91    3.95
 -10   0  -5    1.50    3.49
 -10   0   5   -0.02    4.65
  10   0  -6   -1.27    4.08
 -10   0  -6    1.68    3.51
  10   0  -7    2.86    4.11
 -10   0  -7    0.95    3.71
 -10   0   7    6.86    5.54
 -10   0  -8  123.98   12.12
 -10   0   8  119.37   13.13
  10   0  -8  128.93   13.23
  10   0  -9   -0.11    3.99
 -10   0  -9   -0.90    3.49
 -10   0   9    2.81    4.58
  10   0 -10   16.60    5.65
 -10   0 -10    3.35    3.73
  10   0 -11   -0.58    3.73
 -10   0 -11    1.79    3.42
  10   0 -12   61.91    9.67
 -10   0 -12   70.89    9.61
 -10   0  12   79.66   11.27
  10   0 -13    4.61    4.34
 -10   0 -13   -0.68    3.10
 -10   0  13   -7.14    5.58
 -10   0 -14   41.73    7.84
 -10   0 -15   -6.70    4.32
 -10   0 -16    7.15    4.51
 -10   0 -17   -4.47    4.33
  10   1   0    6.37    3.92
  10   1   0    6.38    4.00
  10  -1   0    7.66    4.61
 -10  -1   0    2.73    3.50
 -10   1   0    2.38    3.80
  10  -1  -1   25.88    6.43
  10   1   1   20.87    5.69
  10   1  -1   26.93    6.27
  10   1   1   27.52    6.48
  10   1  -1   19.16    6.10
  10   1   1   21.14    4.90
 -10  -1  -1   20.96    5.41
 -10   1  -1   21.90    5.39
 -10  -1   1   14.13    4.67
 -10   1   1   15.03    5.73
  10  -1  -2    3.78    4.61
  10   1   2   -0.18    3.09
  10   1   2   -0.20    3.41
  10   1  -2   -1.68    3.06
  10   1   2   -0.46    2.98
  10   1  -2    1.10    3.86
 -10  -1  -2   -3.37    3.43
 -10   1  -2   -3.21    4.12
 -10  -1   2    3.24    4.37
 -10   1   2   -7.81    5.33
  10   1  -3   22.64    5.36
  10   1   3   28.69    6.97
  10  -1  -3   22.55    5.89
  10   1   3   28.81    6.23
  10   1  -3   35.21    7.13
 -10  -1  -3   23.96    5.70
 -10   1  -3   16.01    5.15
  10   1   3   21.75    5.15
 -10   1   3   25.30    6.19
 -10  -1   3   30.77    6.33
  10   1  -4  170.24   13.73
  10   1   4  154.23   14.00
  10   1   4  167.69   14.15
  10  -1  -4  159.71   14.32
 -10  -1  -4  160.23   12.93
 -10   1  -4  146.35   12.92
  10   1   4  150.81   12.22
 -10   1   4  136.43   13.39
  10   1  -4  161.38   14.53
 -10  -1   4  159.22   13.51
  10  -1  -5   42.75    7.62
  10   1   5   36.41    7.17
  10   1  -5   34.03    6.84
  10   1   5   38.86    6.65
 -10  -1  -5   32.15    6.09
 -10   1  -5   31.17    6.22
 -10   1   5   45.12    7.79
 -10  -1   5   32.12    7.19
  10   1   5   41.87    7.76
  10   1   6   48.14    8.22
  10  -1  -6   36.30    7.03
  10   1  -6   47.18    8.52
  10   1   6   33.52    6.54
  10   1   6   37.30    7.27
 -10  -1  -6   34.32    6.17
 -10   1  -6   39.78    7.23
 -10   1   6   46.88    8.54
 -10  -1   6   49.27    8.30
  10   1   7  121.14   13.05
  10   1   7  115.43   11.47
 -10  -1  -7  104.80   10.81
 -10   1  -7   96.79   11.08
  10  -1  -7  117.68   12.69
 -10   1   7  120.95   13.23
 -10  -1   7  116.98   12.16
  10   1  -7  101.11   11.95
  10   1   8  178.76   15.42
 -10  -1  -8  152.69   12.96
 -10   1  -8  142.40   13.37
  10  -1  -8  158.34   14.64
 -10   1   8  175.38   15.44
 -10  -1   8  189.00   15.05
  10   1  -8  144.40   13.84
  10   1   9   34.00    7.78
  10  -1  -9   41.89    8.26
  10   1  -9   26.23    6.70
 -10  -1  -9   34.23    6.80
 -10   1  -9   35.91    7.36
 -10   1   9   45.01    9.14
  10   1  10   92.18   11.65
 -10  -1 -10   86.73   10.28
 -10   1 -10   88.13   10.87
  10  -1 -10   92.49   11.77
  10   1 -10   96.70   12.12
  10   1  11  195.11   16.27
 -10  -1 -11  189.37   14.72
 -10   1 -11  179.77   15.26
  10  -1 -11  178.22   15.81
 -10  -1  11  186.30   16.43
  10   1 -11  177.15   15.92
  10   1  12   19.43    6.30
  10  -1 -12    9.97    5.31
 -10  -1 -12   12.61    4.75
 -10   1 -12   17.62    6.07
 -10  -1  12    3.92    4.87
  10   1  13   33.42    7.53
  10  -1 -13   29.88    7.29
 -10  -1 -13   26.09    5.74
 -10   1 -13   27.89    6.53
 -10  -1  13   34.87    8.64
  10  -1 -14   39.92    8.07
 -10  -1 -14   39.03    7.31
 -10   1 -14   36.12    7.68
 -10  -1 -15   48.59    8.28
 -10   1 -15   39.07    7.65
 -10  -1 -16    6.71    3.92
 -10   1 -16   15.33    4.99
 -10  -1 -17    6.36    4.15
 -10  -1 -18   90.50   11.25
  10   2   0    1.02    2.77
  10   2   0    0.64    2.83
  10   2   0    2.28    3.15
 -10  -2   0    0.99    3.00
 -10   2   0    0.94    4.13
  10   2  -1    1.11    3.40
  10   2   1    2.23    3.28
  10   2   1   -5.19    4.56
  10   2  -1   -2.14    3.66
  10   2   1   -0.54    2.83
 -10  -2  -1   -1.60    3.68
 -10  -2   1   -3.36    3.88
 -10   2   1   -1.58    4.70
  10   2   2    9.03    4.94
  10   2  -2    2.50    3.17
  10   2   2    5.38    4.20
  10   2  -2   -5.91    4.90
  10   2   2    5.71    3.36
  10  -2  -2    5.82    4.78
 -10  -2  -2   -2.01    3.44
 -10   2  -2    7.46    4.97
 -10  -2   2    3.17    3.22
 -10   2   2    1.96    3.96
  10  -2  -3    0.77    3.53
  10   2   3   -3.93    4.09
  10   2  -3    1.04    3.74
  10   2   3    0.83    3.54
  10   2   3    0.43    3.44
  10   2  -3    2.24    3.26
 -10  -2  -3   -2.37    2.98
 -10   2  -3    1.64    4.16
 -10   2   3    4.19    4.75
 -10  -2   3    1.37    3.67
  10  -2  -4   69.86    9.95
  10   2   4   65.32    8.22
  10   2   4   75.86    9.93
  10   2  -4   72.52    9.39
  10   2   4   71.38    9.84
  10   2  -4   76.81   10.34
 -10  -2  -4   69.93    8.50
 -10   2  -4   70.89    9.77
 -10   2   4   78.35   10.32
 -10  -2   4   79.32    9.63
  10  -2  -5   12.47    4.94
  10   2   5   11.17    4.85
  10   2  -5   10.76    4.63
  10   2   5    5.04    3.92
  10   2  -5    9.96    4.36
 -10  -2  -5    5.23    3.31
 -10   2  -5    1.53    3.38
  10   2   5    6.29    3.70
 -10   2   5    3.64    4.45
 -10  -2   5   12.71    4.95
  10   2   6   10.27    4.89
  10  -2  -6   14.95    5.34
  10   2  -6   13.64    4.65
  10   2   6   12.96    4.47
  10   2  -6   19.99    6.09
  10   2   6   25.13    6.01
 -10  -2  -6   20.79    5.23
 -10   2  -6    6.02    4.10
 -10   2   6   25.97    7.18
 -10  -2   6   26.30    6.80
  10   2   7    7.30    4.67
  10   2  -7    4.00    3.96
  10  -2  -7    9.54    4.56
  10   2   7    7.29    4.56
  10   2  -7   10.58    5.35
  10   2   7    1.30    3.82
 -10  -2  -7   11.47    4.60
 -10   2  -7    3.67    3.73
 -10   2   7   13.94    6.33
 -10  -2   7   18.73    6.03
  10   2   8   56.15    8.91
  10   2  -8   55.98    8.06
  10   2   8   55.32    9.02
  10  -2  -8   50.34    8.71
  10   2  -8   57.91    9.02
  10   2   8   42.20    7.42
 -10  -2  -8   48.74    7.44
 -10   2  -8   60.38    9.04
 -10   2   8   77.01   11.18
 -10  -2   8   65.15    9.31
  10   2   9    8.60    3.94
  10   2  -9    5.65    3.90
  10   2   9    7.93    4.36
  10  -2  -9   -0.01    3.94
  10   2   9   -0.10    4.16
  10   2  -9   13.04    5.61
 -10  -2  -9    0.69    2.82
 -10   2  -9    7.71    5.22
 -10   2   9   13.14    6.59
  10   2  10  109.36   12.67
  10   2  10  109.44   11.58
  10   2  10  101.59   11.66
 -10  -2 -10   97.49   10.27
 -10   2 -10  120.29   12.78
  10  -2 -10  108.81   12.38
 -10   2  10  136.04   14.23
 -10  -2  10  120.34   13.17
  10   2  11   57.45    9.33
  10  -2 -11   44.86    8.17
  10   2  11   48.49    8.78
  10   2  11   66.54    9.43
 -10  -2 -11   56.73    8.10
 -10   2 -11   49.22    8.45
 -10  -2  11   63.19   10.15
  10   2  12   24.42    7.21
  10  -2 -12   12.90    4.95
 -10  -2 -12   15.90    4.84
 -10   2 -12   22.02    6.58
 -10  -2  12   20.59    6.42
  10   2  13   10.35    4.66
  10  -2 -13    6.26    4.74
 -10  -2 -13    5.39    2.88
 -10   2 -13    9.00    4.52
 -10  -2  13    1.71    5.17
  10   2  14   32.31    7.72
  10  -2 -14   22.62    6.51
 -10  -2 -14   26.40    6.23
 -10   2 -14   25.93    6.72
  10  -2 -15   -4.84    4.26
 -10   2 -15    0.15    3.84
  10   3   0   10.22    4.07
  10   3   0    3.42    3.12
 -10  -3   0    7.21    3.34
 -10   3   0   -2.39    5.29
  10   3  -1   10.37    4.47
  10   3  -1    6.46    4.28
  10   3   1    7.63    3.86
  10   3   1    0.77    3.55
  10   3  -1    6.02    4.63
  10   3   1    6.83    3.98
 -10  -3  -1    6.04    3.05
 -10   3  -1    4.38    4.55
 -10  -3   1    5.70    3.01
 -10   3   1   -1.59    4.47
  10   3  -2   11.58    5.10
  10   3   2    6.12    4.44
  10   3   2    7.96    4.76
  10   3  -2   18.04    6.14
 -10  -3  -2    6.72    3.39
 -10   3  -2    9.23    5.20
 -10  -3   2    7.97    3.92
 -10   3   2    2.75    4.63
  10   3   2    7.33    4.56
  10   3   3  225.57   15.49
  10   3  -3  221.90   16.23
  10   3   3  243.00   17.44
 -10  -3  -3  247.14   14.90
 -10   3  -3  238.39   17.33
 -10   3   3  272.30   18.64
 -10  -3   3  237.32   15.39
  10   3   3  247.57   17.22
  10   3  -3  244.18   17.47
  10   3  -4   25.13    6.51
  10   3   4   23.24    7.13
  10   3   4   22.56    6.45
  10   3   4   15.31    5.72
  10   3  -4   11.96    5.55
  10  -3  -4   11.09    5.21
 -10  -3  -4    8.45    3.85
 -10   3  -4    8.29    5.45
 -10   3   4   12.20    5.87
 -10  -3   4    9.67    4.27
  10  -3  -5   77.99   10.73
  10   3  -5   94.75   10.55
  10   3   5   98.72   11.65
  10   3   5   89.66   10.52
  10   3   5   89.66   10.16
  10   3  -5  100.78   11.63
 -10  -3  -5   87.22    9.00
 -10   3  -5   80.37   10.39
 -10  -3   5   91.07   10.02
 -10   3   5   93.10   11.65
  10  -3  -6   40.66    8.53
  10   3   6   31.97    7.05
  10   3   6   36.71    7.64
  10   3  -6   31.64    6.79
  10   3   6   25.85    6.88
  10   3  -6   20.03    5.86
 -10  -3  -6   25.36    5.44
 -10   3  -6   25.17    6.95
 -10   3   6   37.29    8.51
 -10  -3   6   34.72    6.85
  10   3  -7  440.66   21.92
  10   3   7  478.45   25.00
 -10  -3  -7  434.81   20.23
 -10   3  -7  414.37   23.55
  10  -3  -7  437.96   24.13
  10   3   7  466.26   23.16
 -10   3   7  459.61   24.93
  10   3   7  425.13   22.56
 -10  -3   7  448.15   22.06
  10   3  -7  476.29   25.06
  10   3   8   46.13    8.19
  10  -3  -8   30.00    7.04
  10   3  -8   44.51    7.68
  10   3   8   48.64    9.21
 -10   3  -8   41.21    8.19
  10   3   8   29.58    7.18
 -10   3   8   43.95    9.10
 -10  -3   8   47.63    8.13
  10   3   9   30.52    6.47
  10   3  -9   35.55    6.71
  10  -3  -9   25.72    6.70
  10   3   9   30.59    7.19
  10   3   9   33.19    7.17
 -10   3  -9   23.69    6.44
 -10   3   9   31.21    8.31
 -10  -3   9   31.02    7.15
  10   3  10    5.99    3.71
  10   3 -10    3.59    3.39
  10   3  10    7.89    5.12
  10  -3 -10    0.09    3.68
  10   3  10   -1.37    4.46
 -10   3 -10    0.29    4.16
 -10  -3  10    2.06    4.59
  10   3  11   70.51    9.23
  10   3  11   62.98    9.77
  10  -3 -11   71.80   10.03
  10   3  11   51.15    8.83
 -10   3 -11   62.24    9.65
 -10   3  11   74.30   11.46
 -10  -3  11   78.36   11.02
  10   3  12   -4.06    4.28
  10  -3 -12    0.84    3.24
  10   3  12   -9.86    6.17
 -10   3 -12    0.56    3.54
 -10  -3  12    3.02    4.40
  10   3  13   73.16   10.64
  10  -3 -13   81.12   10.84
  10   3  13   63.16    9.47
 -10   3 -13   71.10   10.12
 -10  -3  13   54.15    9.56
  10  -3 -14    3.15    3.94
  10   4   0   29.74    7.08
  10   4   0   32.05    6.69
  10   4   0   28.35    6.88
 -10   4   0   13.91    5.32
  10   4   1   83.76   10.63
  10   4  -1   82.80   10.39
  10   4   1   88.99   10.03
  10   4   1   71.20    9.63
  10   4  -1   77.77   10.17
 -10   4  -1   75.44   10.44
 -10   4   1   58.74    9.14
  10   4  -2    1.01    3.29
  10   4   2   -0.42    3.09
  10   4   2    1.58    3.17
  10   4  -2    5.15    4.48
 -10   4  -2    7.95    5.46
 -10   4   2   -1.22    4.52
  10   4   2   12.77    5.15
  10   4  -3    0.45    3.30
  10   4   3    6.41    4.33
  10   4   3   -6.32    4.72
  10   4   3   -0.63    3.45
  10   4  -3   -0.39    3.59
 -10   4  -3    8.91    4.92
 -10  -4   3    6.19    3.68
 -10   4   3   -0.57    4.86
  10   4  -4    0.91    3.15
  10   4   4   12.30    5.18
  10   4   4   -1.28    4.53
  10   4  -4    1.72    3.28
 -10   4  -4    4.87    4.78
 -10   4   4    5.65    5.14
 -10  -4   4    4.99    3.41
  10   4   4   12.57    4.67
  10   4  -5    0.52    3.15
  10   4   5    3.76    4.08
  10   4   5    0.46    3.54
  10  -4  -5   -4.58    4.83
  10   4   5    3.77    3.51
 -10   4  -5    1.24    3.90
 -10   4   5    5.39    4.86
 -10  -4   5    0.54    3.14
  10   4  -6    4.99    3.69
  10   4   6    9.71    4.97
  10   4   6    7.12    4.44
  10   4   6   -1.89    4.61
 -10   4  -6   15.08    5.92
 -10   4   6    2.19    4.15
 -10  -4   6   16.10    5.01
  10  -4  -6    1.31    4.22
  10   4  -7  113.18   11.46
  10   4   7  128.65   13.39
  10  -4  -7  138.76   13.58
 -10   4  -7  131.65   13.66
  10   4   7  113.75   11.41
 -10   4   7  129.75   13.91
 -10  -4   7  134.67   11.90
  10   4   7  124.94   12.81
  10  -4  -8    5.26    4.40
  10   4  -8    2.18    3.21
  10   4   8   -2.98    4.56
  10   4   8   -1.80    3.59
  10   4   8    5.18    4.14
 -10   4  -8    2.21    4.55
 -10   4   8    5.01    5.54
 -10  -4   8   14.15    5.54
 -10  -4   8    3.42    3.67
  10   4   9    5.36    4.46
  10  -4  -9    9.08    5.12
  10   4  -9    6.02    3.67
  10   4   9   -6.22    5.58
  10   4   9    1.49    3.01
 -10   4  -9    8.28    4.60
 -10   4   9   17.61    6.69
 -10  -4   9    0.18    4.43
  10  -4 -10   -4.18    4.65
  10   4 -10   -3.26    3.55
  10   4  10    2.07    3.37
  10   4  10    0.40    3.14
 -10   4 -10    2.89    4.32
 -10   4  10    9.90    5.85
 -10  -4  10   -4.94    4.52
  10   4  10   -8.14    5.40
  10   4  11   -0.33    4.48
  10  -4 -11   -3.82    4.43
 -10   4 -11   -4.83    5.19
  10   4  11   -3.19    5.33
 -10   4  11    4.09    5.81
 -10  -4  11    5.43    5.24
  10  -4 -12   12.99    5.40
 -10   4 -12   21.02    6.18
  10   4  12   12.43    5.05
 -10  -4  12    9.28    5.42
  10  -4 -13   71.92   10.24
 -10  -4  13   67.64   10.77
  10  -4 -14   -6.79    5.22
  10   5   0  124.23   12.94
 -10   5   0   97.65   12.32
  10   5   0  113.19   12.38
  10   5  -1  148.87   14.02
  10   5   1  132.85   13.57
 -10   5  -1  166.61   15.53
 -10   5   1  132.56   13.74
  10   5   1  133.81   13.25
  10   5  -2   28.32    6.82
  10   5   2   33.36    7.74
  10   5   2   29.52    6.57
 -10   5  -2   23.32    7.15
  10   5   2   37.92    7.69
 -10   5   2   18.75    6.81
  10   5  -3   31.67    7.15
  10   5   3   34.62    7.79
  10   5   3   48.98    8.78
  10   5   3   36.06    7.37
 -10   5  -3   41.57    8.46
 -10   5   3   34.95    7.72
  10   5  -4  128.36   12.74
  10   5   4  127.25   13.31
  10   5   4  130.43   13.00
 -10   5  -4  141.69   14.41
 -10   5   4  122.18   13.37
  10   5   4  125.56   12.21
  10   5  -5    6.43    4.38
  10   5   5    3.96    3.39
  10   5   5    9.61    4.96
  10   5   5    8.67    4.28
 -10   5  -5    3.32    3.93
 -10   5   5    4.33    4.77
  10   5   6    2.62    4.31
  10   5  -6   -2.13    3.14
  10   5   6    8.57    5.63
  10   5   6    9.89    3.93
 -10   5  -6    1.37    4.61
 -10   5   6    2.33    4.65
  10   5  -7   -5.72    4.07
  10   5   7    2.14    4.22
  10   5   7    3.95    3.73
 -10   5  -7   -1.57    3.98
  10   5   7   -0.45    4.36
 -10   5   7    8.39    5.36
  10  -5  -7   -4.03    4.33
  10  -5  -8   46.13    8.51
  10   5  -8   58.10    8.51
  10   5   8   52.78    8.96
  10   5   8   68.02    8.91
  10   5   8   56.11    9.36
 -10   5  -8   51.50    9.09
 -10   5   8   72.28   11.03
 -10  -5   8   51.94    8.70
  10  -5  -9   45.88    8.53
  10   5  -9   59.11    8.63
  10   5   9   60.13    9.82
  10   5   9   54.89    9.56
 -10   5  -9   46.99    9.34
 -10   5   9   58.98   10.41
 -10  -5   9   57.19    9.38
  10   5 -10  195.37   14.89
  10  -5 -10  222.47   17.50
 -10  -5  10  187.69   16.15
  10   5  10  205.43   17.46
  10  -5 -11   25.02    6.65
  10   5  11   29.39    7.61
 -10  -5  11   16.66    6.17
  10  -5 -12    3.26    4.26
 -10  -5  12   -1.06    4.29
  10  -5 -13   -0.64    3.66
  10   6   0  103.52   12.16
 -10  -6   0   99.08   12.01
 -10   6   0  118.52   13.68
  10   6  -1   17.22    6.21
  10   6   1   10.15    5.09
 -10  -6  -1   19.71    6.41
 -10  -6   1   16.66    6.11
 -10   6  -1   32.27    8.12
 -10   6   1    6.13    5.06
  10   6  -2    7.85    4.42
  10   6   2   12.76    5.59
 -10  -6  -2   10.20    4.43
 -10  -6   2    3.85    4.47
 -10   6  -2   18.06    7.32
 -10   6   2    6.07    4.63
  10   6  -3   10.11    5.05
  10   6   3    4.29    4.26
 -10  -6  -3    3.28    4.13
 -10  -6   3   11.88    5.08
 -10   6  -3   23.98    7.35
 -10   6   3    5.07    5.30
  10   6  -4   68.68    9.66
  10   6   4   64.77   10.06
 -10  -6  -4   56.88    8.93
 -10  -6   4   70.96   10.36
  10   6   4   78.07   10.78
 -10   6  -4   63.34    9.84
 -10   6   4   62.62   10.10
  10   6  -5   14.99    5.04
  10   6   5   15.20    5.46
 -10  -6   5   10.93    5.61
  10   6   5   20.74    6.73
 -10   6  -5   13.07    5.25
 -10   6   5   12.79    5.26
  10   6  -6   11.85    4.78
  10   6   6   12.44    5.40
 -10  -6   6   12.69    5.39
  10   6   6   10.87    3.80
 -10   6  -6    8.67    4.46
 -10   6   6    1.86    4.80
  10   6   6    8.46    5.19
  10   6  -7    1.90    2.76
  10   6   7   10.70    5.69
 -10  -6   7   -0.49    4.04
  10   6  -8   26.90    6.48
  10   6   8   44.28    8.73
 -10  -6   8   30.57    7.14
  10  -6  -8   22.68    6.44
  10  -6  -9   36.17    7.82
  10   6   9   26.94    7.43
  10   6  -9   35.55    6.92
 -10  -6   9   16.71    5.74
  10   6 -10  179.05   14.50
  10  -6 -10  162.70   15.33
 -10  -6  10  178.80   15.81
  10  -6 -11   12.81    5.52
 -10  -6  11   -7.42    4.75
  10  -6 -12    5.28    3.95
 -10  -6  12    2.18    4.30
  10   7   0   44.50    9.11
 -10  -7   0   53.03   10.00
  10   7  -1  231.01   17.98
  10   7   1  261.78   19.40
 -10  -7  -1  238.00   18.44
 -10  -7   1  233.78   18.45
  10   7  -2   40.57    8.29
  10   7   2   58.19    9.54
 -10  -7  -2   42.99    8.47
 -10  -7   2   48.97    9.26
  10   7  -3  111.22   12.56
 -10  -7  -3  110.67   12.55
  10   7  -4   37.62    8.07
 -10  -7  -4   33.36    7.50
  10   7  -5   14.31    5.38
 -10  -7  -5    5.65    4.22
  10   7  -6   19.18    5.66
  10   7   6   27.47    7.81
 -10  -7  -6   18.85    5.70
  10   7  -7   75.26   10.23
 -10  -7  -7   73.39   10.11
  10   7   7   86.68   11.95
 -10  -7   7   63.70    9.07
  10   7  -8   -0.80    3.16
 -10  -7  -8    3.80    3.70
 -10  -7   8    2.23    3.64
  10   7  -9   10.35    4.99
 -10  -7   9    6.14    4.57
 -10  -7  10   12.49    5.77
 -10  -7  11  240.25   18.25
  10   8  -6   41.81    8.05
 -10  -8  -6   41.35    8.17
  10   8  -7  112.51   12.53
 -10  -8  -7  117.74   13.02
  10   8  -8    6.10    4.00
 -10  -8  -8    5.46    3.74
  10   8  -9    5.61    4.16
 -10  -8  -9    1.66    3.75
  11   0   0   -4.24    4.47
 -11   0   0   -3.97    4.34
  11   0   1    7.48    4.86
  11   0  -1    3.11    3.74
 -11   0  -1    5.78    4.67
 -11   0   1   -2.37    3.48
  11   0   2  167.25   15.35
 -11   0  -2  179.91   15.01
  11   0  -2  178.66   16.19
 -11   0   2  179.74   15.04
  11   0   3   -1.59    4.27
  11   0  -3   -1.34    3.95
 -11   0  -3    1.88    3.98
 -11   0   3    0.57    3.80
  11   0  -4   57.88    9.48
 -11   0  -4   56.09    8.85
 -11   0   4   49.75    8.65
  11   0   4   64.19   10.03
  11   0  -5    7.12    4.80
  11   0   5    8.01    4.97
 -11   0  -5   -0.20    3.63
 -11   0   5    4.83    4.95
  11   0  -6   32.33    7.26
  11   0   6   24.82    5.24
 -11   0  -6   37.06    7.37
 -11   0   6   46.41    8.79
  11   0  -7    5.04    4.68
  11   0   7  -11.01    5.43
 -11   0  -7   -3.96    4.22
 -11   0   7   -1.23    3.74
 -11   0  -8   16.97    5.25
 -11   0   8   35.40    8.05
 -11   0  -9   -1.38    3.29
 -11   0   9   14.76    6.96
 -11   0 -10   96.26   11.48
 -11   0  10  127.59   14.24
 -11   0 -11   -3.09    3.28
 -11   0  11   17.32    7.01
 -11   0 -12    6.66    4.24
 -11   0 -13    6.47    4.47
  11  -1   0    1.68    3.97
  11   1   0   -1.96    3.14
 -11  -1   0   -4.32    4.50
 -11   1   0   -7.19    5.11
  11  -1   1   -0.07    3.06
  11  -1  -1    1.40    3.64
  11   1   1    3.91    3.70
  11   1  -1    1.13    3.33
 -11  -1  -1    6.17    4.27
 -11   1  -1    3.43    4.15
 -11  -1   1   -2.27    3.79
 -11   1   1   -5.24    4.54
  11  -1  -2   13.86    5.04
  11   1   2   16.93    5.81
  11   1  -2   21.69    6.66
  11  -1   2   10.43    4.58
 -11  -1  -2   18.26    5.68
 -11   1  -2   11.36    5.22
 -11  -1   2   10.81    4.49
 -11   1   2   13.08    5.05
  11   1   3    8.63    5.31
  11   1   3   12.42    5.36
  11  -1  -3   11.61    5.58
  11   1  -3    6.06    4.41
 -11  -1  -3    9.89    4.22
 -11   1  -3   10.53    4.72
 -11  -1   3   -3.92    4.88
 -11   1   3    0.88    4.04
  11   1   4   14.99    5.55
  11   1   4   15.19    5.87
  11  -1  -4   12.96    5.57
  11   1  -4   15.59    5.21
 -11  -1  -4   20.68    6.15
 -11   1  -4   20.48    6.23
 -11   1   4    6.28    4.56
 -11  -1   4    9.72    5.28
  11   1   5    6.06    4.97
  11   1   5    5.58    4.53
  11  -1  -5    3.66    4.16
  11   1  -5    7.24    4.75
 -11  -1  -5    1.26    3.81
 -11   1  -5   -0.01    3.27
  11   1   5    0.78    3.27
 -11   1   5    1.62    4.17
 -11  -1   5    6.03    4.63
  11   1   6   55.21    9.26
  11   1   6   51.58    8.68
  11  -1  -6   48.80    8.99
  11   1  -6   54.21    9.39
  11   1   6   60.74    8.59
 -11  -1  -6   51.51    7.99
 -11   1  -6   57.74    8.96
 -11   1   6   57.41    9.63
 -11  -1   6   50.94    8.61
  11   1   7    8.60    4.64
  11  -1  -7   20.08    6.37
  11   1  -7   10.12    4.90
  11   1   7    5.04    3.43
 -11  -1  -7   12.23    4.37
 -11   1  -7    8.83    5.12
 -11   1   7   20.20    6.72
 -11  -1   7   19.29    5.99
  11   1   8    1.55    4.00
 -11  -1  -8   -5.21    4.23
 -11   1  -8   -4.66    4.50
 -11   1   8    2.85    5.62
 -11  -1   8    7.04    5.42
  11   1   8    0.88    3.24
  11   1   9    7.24    4.46
  11   1   9    3.44    3.84
 -11  -1  -9    5.00    4.31
 -11   1  -9    7.37    4.84
 -11   1   9   21.45    7.46
 -11  -1   9   19.86    6.91
  11   1  10   71.60   10.19
  11   1  10   79.14   10.53
 -11  -1 -10   77.15   10.09
 -11   1 -10   83.51   11.14
 -11  -1  10   87.67   11.55
 -11  -1 -11   13.65    5.15
 -11   1 -11    2.90    3.90
 -11  -1  11   19.71    6.90
 -11  -1 -12   32.85    7.28
 -11   1 -12   31.54    7.38
 -11  -1 -13   68.36    9.87
 -11  -1 -14   44.10    8.14
  11   2   0    4.54    3.67
  11   2   0   -0.29    3.95
  11  -2   0    5.11    5.38
 -11  -2   0   -4.08    4.14
 -11   2   0   -3.50    4.90
  11   2  -1   51.45    8.66
  11   2   1   41.13    8.45
  11   2   1   46.65    8.35
  11   2  -1   63.20    9.71
 -11  -2  -1   50.57    7.87
 -11   2  -1   51.43    8.90
 -11  -2   1   39.25    7.22
 -11   2   1   40.80    7.73
  11  -2  -1   56.66    9.48
  11  -2  -2   91.23   11.51
  11   2  -2  102.22   11.83
  11   2   2  113.58   12.72
  11   2   2   97.95   11.80
 -11  -2  -2  107.79   11.23
 -11   2  -2  111.72   12.55
 -11   2   2  114.47   12.96
  11   2  -2   97.15   12.05
 -11  -2   2   83.67    9.83
  11  -2  -3    7.59    5.04
  11   2  -3   -5.39    4.75
  11   2   3   12.75    5.39
  11   2   3    2.64    3.86
  11   2  -3   -1.82    4.42
 -11  -2  -3    0.55    3.15
 -11   2  -3    2.79    4.43
 -11  -2   3   -0.79    3.82
 -11   2   3    0.80    3.74
  11  -2  -4   28.89    7.14
  11   2  -4   21.31    6.15
  11   2   4   26.32    6.95
  11   2   4   32.33    7.43
  11   2   4   26.76    6.38
  11   2  -4   23.59    6.62
 -11  -2  -4   21.14    5.64
 -11   2  -4   24.14    6.62
 -11   2   4   21.46    6.20
 -11  -2   4   21.25    5.60
  11   2  -5   25.59    6.31
  11  -2  -5   23.98    6.80
  11   2   5   39.03    7.95
  11   2   5   29.97    7.28
  11   2   5   26.07    5.88
  11   2  -5   33.05    7.64
 -11  -2  -5   26.85    5.91
 -11   2  -5   34.70    7.74
 -11   2   5   27.32    6.89
 -11  -2   5   29.24    6.67
  11   2  -6   -0.46    3.15
  11   2   6   -0.94    3.78
  11   2   6   -4.45    4.22
  11   2   6    3.76    4.31
  11  -2  -6   -2.40    4.16
  11   2  -6    8.15    5.40
 -11  -2  -6    0.97    3.39
 -11   2  -6    2.62    3.60
 -11   2   6    2.95    5.32
 -11  -2   6    2.35    4.40
  11   2   7   -1.91    3.58
 -11  -2  -7    0.71    3.26
 -11   2  -7   -2.20    4.60
 -11   2   7    3.12    5.15
  11   2   7   -6.25    4.68
 -11  -2   7    4.76    4.29
  11   2   8    7.70    4.54
 -11  -2  -8   15.73    4.82
 -11   2  -8   25.47    6.25
  11   2   8   19.02    5.84
 -11   2   8   20.21    7.11
 -11  -2   8   20.12    6.32
  11   2   9   56.37    9.08
  11   2   9   56.01    9.11
 -11   2  -9   52.93    9.29
 -11  -2   9   56.62    9.28
  11   2  10   64.77    9.72
  11   2  10   55.97    9.79
 -11   2 -10   64.20   10.25
 -11  -2  10   85.10   11.22
  11   2  11  116.10   13.09
  11   2  11  112.17   12.25
 -11  -2  11  131.54   13.82
  11   3   0   -3.41    4.30
  11   3   0    2.63    4.30
 -11   3   0   -7.26    6.04
  11   3  -1   -0.05    4.03
  11   3   1    2.04    3.65
  11   3   1   10.92    5.84
  11   3  -1    1.59    3.61
 -11   3  -1    4.43    4.01
 -11   3   1   -0.90    4.55
  11   3  -2    6.55    3.85
  11   3   2    6.92    4.23
  11   3   2    6.32    4.20
  11   3  -2   12.95    5.61
  11  -3  -2   16.57    6.24
 -11   3  -2    8.53    5.10
 -11  -3   2    7.91    4.36
 -11   3   2    5.98    4.54
  11  -3  -3    6.74    4.57
  11   3   3    3.10    3.70
  11   3  -3    6.89    4.75
  11   3   3    7.42    5.10
  11   3   3    6.74    4.08
  11   3  -3    3.26    3.49
 -11   3  -3    5.52    5.31
 -11  -3   3    1.48    3.42
 -11   3   3   -4.82    5.64
  11  -3  -4   18.88    6.58
  11   3  -4    1.92    3.48
  11   3   4    6.27    4.93
  11   3   4   -2.18    4.03
  11   3  -4   11.10    5.88
  11   3   4    2.09    4.00
 -11   3  -4    2.84    4.24
 -11  -3   4    1.54    3.71
 -11   3   4    7.00    5.18
  11   3  -5   79.72   10.62
  11   3   5   85.97   11.07
  11   3  -5   95.06   12.17
  11   3   5   86.17   10.82
 -11   3  -5   97.37   12.39
 -11   3   5   97.32   12.13
 -11  -3   5   86.78   10.26
  11   3  -6   10.65    4.30
  11   3   6    3.60    3.25
  11   3   6   14.15    5.68
 -11   3  -6   13.71    5.79
 -11   3   6   17.98    6.30
 -11  -3   6   11.52    4.78
  11   3  -7   -4.00    3.56
  11   3   7    0.23    2.91
  11   3   7   -2.33    4.53
 -11   3  -7   -2.49    4.09
 -11  -3   7   -5.62    4.61
  11   3   8   -0.55    4.14
  11   3  -8    1.48    2.92
  11   3   8    4.18    3.35
 -11  -3   8   12.93    5.30
  11   3  -9    3.22    3.48
  11   3   9    3.62    3.82
 -11  -3   9   17.06    5.85
  11   3   9   10.40    5.39
  11   3  10   32.59    6.99
  11   3  10   26.85    6.87
 -11  -3  11   10.11    5.79
  11   4   0    4.42    4.37
  11   4   0    5.12    4.55
 -11   4   0   -5.36    4.97
  11   4  -1  114.49   12.91
  11   4   1  111.53   12.69
 -11   4  -1  123.22   13.68
 -11   4   1  109.28   13.02
  11   4   1  106.71   12.46
  11   4  -1  106.43   12.54
  11   4  -2   11.13    5.01
  11   4   2   21.92    6.77
  11   4   2   13.36    5.12
  11   4  -2   16.46    5.44
 -11   4  -2   27.60    8.06
 -11   4   2   17.68    6.59
  11   4   3   11.54    5.59
  11   4  -3    0.73    3.34
  11   4   3    8.00    4.75
  11   4  -3    0.68    3.34
 -11   4  -3    2.15    5.03
  11   4  -4    2.72    3.55
  11   4   4    1.96    3.18
  11   4   4    2.42    4.43
  11   4  -4    3.03    3.54
  11   4   5    3.29    4.14
  11   4  -5    0.14    3.74
  11   4   5    1.42    3.17
  11   4  -6    0.42    2.91
  11   4   6   -1.84    3.34
  11   4   6   -1.90    3.50
  11   4  -7   -3.06    3.74
  11   4   7    0.01    3.42
  11   4   7   -2.08    3.72
  11   4  -8   18.84    5.40
  11   4   8   25.57    6.07
  11   4   8   22.73    6.37
  11   4  -9    8.30    4.27
  11   4   9   17.19    6.21
  11   5   0   12.75    5.70
  11   5   1   59.39    9.56
  11   5  -2  181.90   16.06
  11   5   2  161.28   15.21
  11   5  -3    3.99    3.57
  11   5   3    1.72    3.87
  11   5  -4   27.37    6.71
  11   5   4   25.77    6.52
  11   5   4   37.22    8.65
  11   5   5   17.11    7.03
  11   5  -5    4.57    4.09
  11   5   5    9.59    4.78
  11   5  -6   65.27    9.64
  11   5   6   53.30    8.63
  11   5   6   62.94   10.04
  11   5  -7    4.62    4.11
  11   5   7   -3.63    4.24
  11   5  -8   18.91    5.83
  11   5  -9    2.04    2.99
  11   6   5   27.89    7.64
 -12   0   0   38.82    8.09
 -12   0  -1    1.60    4.00
 -12   0   1  -11.30    5.81
 -12   0  -2    1.51    3.76
 -12   0   2   -2.75    4.81
 -12   0  -3   -0.39    3.75
 -12   0   3   -0.31    4.39
 -12   0  -4   71.98   10.18
 -12   0  -5   -4.88    4.12
 -12   0  -6    3.92    3.46
 -12  -1   0    4.12    4.37
 -12  -1  -1   24.43    6.07
 -12  -1   1   16.95    5.55
 -12  -1  -2    3.86    4.03
 -12  -1   2   -6.99    5.03
 -12  -1  -3   -1.94    3.95
 -12  -1   3   -4.16    3.92
 -12  -1  -4   14.82    5.69
 -12  -1   4    3.59    4.11
 -12  -1  -5   18.45    5.79
 -12  -1   5   20.73    6.15
 -12  -1  -6    0.45    3.03
 -12  -1  -7   -3.21    3.65
 -12  -2   2   -4.61    4.95
 -12  -2   3   64.63    9.75
 -12  -2   4   98.16   11.59
 -12  -2   5   30.31    7.27
 -12  -2   6   24.73    6.77
 -12  -2   7  194.89   16.62
  
TITL smz_fiilt175 in Pbca
REM Pbca (#61 in standard setting)
CELL 0.71073   9.096288  11.557437  22.861224  90.0000  90.0000  90.0000
ZERR    6.00   0.000248   0.000334   0.000707   0.0000   0.0000   0.0000
LATT  1
SYMM -x+1/2,-y, z+1/2
SYMM -x, y+1/2,-z+1/2
SYMM  x+1/2,-y+1/2,-z
SFAC C H N O S
UNIT 90.00 90.00 18.00 12.00 6.00
TREF
HKLF 4
END
_computing_structure_solution     'SHELXT 2014/4 (Sheldrick, 2014)'
;
_shelx_hkl_checksum              46047
loop_
_space_group_symop_operation_xyz
'x, y, z'
'-x+1/2, -y, z+1/2'
'-x, y+1/2, -z+1/2'
'x+1/2, -y+1/2, -z'
'-x, -y, -z'
'x-1/2, y, -z-1/2'
'x, -y-1/2, z-1/2'
'-x-1/2, y-1/2, z'
loop_
_atom_site_label
_atom_site_type_symbol
_atom_site_fract_x
_atom_site_fract_y
_atom_site_fract_z
_atom_site_U_iso_or_equiv
_atom_site_adp_type
_atom_site_occupancy
_atom_site_site_symmetry_order
_atom_site_calc_flag
_atom_site_refinement_flags_posn
_atom_site_refinement_flags_adp
_atom_site_refinement_flags_occupancy
_atom_site_disorder_assembly
_atom_site_disorder_group
S1 S 0.33169(4) 0.34597(3) 0.38964(2) 0.02105(12) Uani 1 1 d . . . . .
O2 O 0.19643(12) 0.39710(10) 0.40960(5) 0.0268(3) Uani 1 1 d . . . . .
O1 O 0.34183(14) 0.22278(10) 0.38653(5) 0.0294(3) Uani 1 1 d . . . . .
N4 N 0.66662(14) 0.42616(12) 0.48536(6) 0.0241(3) Uani 1 1 d . . . . .
N3 N 0.65601(15) 0.28477(11) 0.40875(6) 0.0251(3) Uani 1 1 d . . . . .
N2 N 0.45127(15) 0.39532(12) 0.43717(6) 0.0233(3) Uani 1 1 d . . . . .
N1 N 0.45433(19) 0.53232(15) 0.15437(7) 0.0342(4) Uani 1 1 d . . . . .
C1 C 0.37456(17) 0.40362(13) 0.32145(7) 0.0219(3) Uani 1 1 d . . . . .
C2 C 0.4480(2) 0.33650(14) 0.28012(8) 0.0295(4) Uani 1 1 d . . . . .
H2 H 0.4774 0.2617 0.2895 0.038 Uiso 1 1 calc R U . . .
C3 C 0.4770(2) 0.38068(15) 0.22544(8) 0.0312(4) Uani 1 1 d . . . . .
H3 H 0.5277 0.3358 0.1984 0.041 Uiso 1 1 calc R U . . .
C4 C 0.43125(18) 0.49245(14) 0.20985(7) 0.0260(3) Uani 1 1 d . . . . .
C5 C 0.35760(19) 0.55908(13) 0.25230(8) 0.0271(3) Uani 1 1 d . . . . .
H5 H 0.3268 0.6336 0.2430 0.035 Uiso 1 1 calc R U . . .
C6 C 0.33045(17) 0.51552(13) 0.30751(7) 0.0243(3) Uani 1 1 d . . . . .
H6 H 0.2828 0.5609 0.3353 0.032 Uiso 1 1 calc R U . . .
C7 C 0.59830(17) 0.36601(13) 0.44315(7) 0.0210(3) Uani 1 1 d . . . . .
C8 C 0.80891(18) 0.40054(16) 0.49301(8) 0.0282(4) Uani 1 1 d . . . . .
H8 H 0.8615 0.4400 0.5216 0.037 Uiso 1 1 calc R U . . .
C9 C 0.88012(19) 0.31831(15) 0.46022(8) 0.0296(4) Uani 1 1 d . . . . .
H9 H 0.9791 0.3019 0.4662 0.038 Uiso 1 1 calc R U . . .
C10 C 0.79946(18) 0.26070(14) 0.41801(8) 0.0268(3) Uani 1 1 d . . . . .
C11 C 0.8672(2) 0.16744(17) 0.38141(9) 0.0384(4) Uani 1 1 d . . . . .
H11A H 0.8219 0.0946 0.3905 0.050 Uiso 1 1 calc R U . . .
H11B H 0.9706 0.1631 0.3895 0.050 Uiso 1 1 calc R U . . .
H11C H 0.8525 0.1848 0.3408 0.050 Uiso 1 1 calc R U . . .
H1N2 H 0.419(3) 0.445(2) 0.4594(10) 0.044(6) Uiso 1 1 d . . . . .
H1N1 H 0.517(3) 0.4941(19) 0.1334(10) 0.041(6) Uiso 1 1 d . . . . .
H2N1 H 0.446(3) 0.604(2) 0.1463(11) 0.050(7) Uiso 1 1 d . . . . .
loop_
_atom_site_aniso_label
_atom_site_aniso_U_11
_atom_site_aniso_U_22
_atom_site_aniso_U_33
_atom_site_aniso_U_23
_atom_site_aniso_U_13
_atom_site_aniso_U_12
S1 0.0216(2) 0.0223(2) 0.0193(2) -0.00175(14) -0.00055(14) -0.00288(14)
O2 0.0202(5) 0.0365(6) 0.0235(6) -0.0017(5) 0.0006(4) -0.0020(5)
O1 0.0393(7) 0.0219(6) 0.0269(6) -0.0010(4) -0.0007(5) -0.0059(5)
N4 0.0218(6) 0.0283(7) 0.0221(7) -0.0016(5) -0.0015(5) 0.0014(5)
N3 0.0261(7) 0.0245(7) 0.0246(7) -0.0001(5) 0.0018(5) 0.0039(5)
N2 0.0221(7) 0.0257(7) 0.0221(7) -0.0079(5) -0.0025(5) 0.0029(5)
N1 0.0449(9) 0.0298(8) 0.0279(8) 0.0042(6) 0.0113(7) 0.0019(7)
C1 0.0231(7) 0.0230(7) 0.0197(7) -0.0011(6) 0.0000(6) -0.0014(6)
C2 0.0368(9) 0.0238(8) 0.0278(9) -0.0010(6) 0.0046(7) 0.0071(7)
C3 0.0379(9) 0.0286(8) 0.0269(9) -0.0026(7) 0.0098(7) 0.0055(7)
C4 0.0278(8) 0.0271(8) 0.0232(8) -0.0002(6) 0.0037(6) -0.0039(6)
C5 0.0324(9) 0.0197(7) 0.0292(8) 0.0001(6) 0.0038(7) 0.0000(6)
C6 0.0257(8) 0.0210(7) 0.0261(8) -0.0046(6) 0.0045(6) -0.0012(6)
C7 0.0217(7) 0.0222(7) 0.0193(7) 0.0022(6) 0.0006(6) 0.0007(6)
C8 0.0245(8) 0.0351(9) 0.0249(8) 0.0021(7) -0.0034(6) 0.0000(7)
C9 0.0218(8) 0.0386(9) 0.0283(9) 0.0064(7) 0.0016(6) 0.0052(7)
C10 0.0277(8) 0.0263(8) 0.0266(8) 0.0060(6) 0.0069(6) 0.0057(6)
C11 0.0363(10) 0.0359(10) 0.0430(11) -0.0024(8) 0.0087(8) 0.0128(8)
loop_
_atom_type_symbol
_atom_type_description
_atom_type_scat_dispersion_real
_atom_type_scat_dispersion_imag
_atom_type_scat_source
C C 0.0033 0.0016 'International Tables Vol C Tables 4.2.6.8 and 6.1.1.4'
H H 0.0000 0.0000 'International Tables Vol C Tables 4.2.6.8 and 6.1.1.4'
N N 0.0061 0.0033 'International Tables Vol C Tables 4.2.6.8 and 6.1.1.4'
O O 0.0106 0.0060 'International Tables Vol C Tables 4.2.6.8 and 6.1.1.4'
S S 0.1246 0.1234 'International Tables Vol C Tables 4.2.6.8 and 6.1.1.4'
loop_
_geom_angle_atom_site_label_1
_geom_angle_atom_site_label_2
_geom_angle_atom_site_label_3
_geom_angle
_geom_angle_site_symmetry_1
_geom_angle_site_symmetry_3
O1 S1 O2 118.70(7) . .
O1 S1 N2 109.68(7) . .
O2 S1 N2 102.36(7) . .
O1 S1 C1 108.83(7) . .
O2 S1 C1 108.57(7) . .
N2 S1 C1 108.18(7) . .
C8 N4 C7 115.27(14) . .
C7 N3 C10 115.67(15) . .
C7 N2 S1 128.32(12) . .
C7 N2 H1N2 117.2(17) . .
S1 N2 H1N2 114.5(17) . .
C4 N1 H1N1 116.4(15) . .
C4 N1 H2N1 120.9(16) . .
H1N1 N1 H2N1 116(2) . .
C2 C1 C6 120.04(15) . .
C2 C1 S1 120.13(12) . .
C6 C1 S1 119.78(12) . .
C3 C2 C1 120.11(15) . .
C3 C2 H2 119.9 . .
C1 C2 H2 119.9 . .
C2 C3 C4 121.03(15) . .
C2 C3 H3 119.5 . .
C4 C3 H3 119.5 . .
N1 C4 C3 120.07(16) . .
N1 C4 C5 121.91(16) . .
C3 C4 C5 117.99(15) . .
C6 C5 C4 121.03(15) . .
C6 C5 H5 119.5 . .
C4 C5 H5 119.5 . .
C5 C6 C1 119.77(14) . .
C5 C6 H6 120.1 . .
C1 C6 H6 120.1 . .
N3 C7 N4 127.37(14) . .
N3 C7 N2 119.61(14) . .
N4 C7 N2 113.01(13) . .
N4 C8 C9 122.54(16) . .
N4 C8 H8 118.7 . .
C9 C8 H8 118.7 . .
C8 C9 C10 117.63(16) . .
C8 C9 H9 121.2 . .
C10 C9 H9 121.2 . .
N3 C10 C9 121.51(15) . .
N3 C10 C11 117.27(16) . .
C9 C10 C11 121.21(16) . .
C10 C11 H11A 109.5 . .
C10 C11 H11B 109.5 . .
H11A C11 H11B 109.5 . .
C10 C11 H11C 109.5 . .
H11A C11 H11C 109.5 . .
H11B C11 H11C 109.5 . .
loop_
_geom_bond_atom_site_label_1
_geom_bond_atom_site_label_2
_geom_bond_distance
_geom_bond_site_symmetry_2
S1 O1 1.4284(12) .
S1 O2 1.4393(12) .
S1 N2 1.6399(14) .
S1 C1 1.7395(16) .
N4 C8 1.339(2) .
N4 C7 1.342(2) .
N3 C7 1.332(2) .
N3 C10 1.351(2) .
N2 C7 1.386(2) .
N2 H1N2 0.82(2) .
N1 C4 1.366(2) .
N1 H1N1 0.87(2) .
N1 H2N1 0.86(2) .
C1 C2 1.393(2) .
C1 C6 1.391(2) .
C2 C3 1.376(2) .
C2 H2 0.9300 .
C3 C4 1.403(2) .
C3 H3 0.9300 .
C4 C5 1.408(2) .
C5 C6 1.381(2) .
C5 H5 0.9300 .
C6 H6 0.9300 .
C8 C9 1.373(2) .
C8 H8 0.9300 .
C9 C10 1.383(3) .
C9 H9 0.9300 .
C10 C11 1.497(2) .
C11 H11A 0.9600 .
C11 H11B 0.9600 .
C11 H11C 0.9600 .
loop_
_geom_torsion_atom_site_label_1
_geom_torsion_atom_site_label_2
_geom_torsion_atom_site_label_3
_geom_torsion_atom_site_label_4
_geom_torsion
_geom_torsion_site_symmetry_1
_geom_torsion_site_symmetry_2
_geom_torsion_site_symmetry_3
_geom_torsion_site_symmetry_4
O1 S1 N2 C7 46.36(16) . . . .
O2 S1 N2 C7 173.27(14) . . . .
C1 S1 N2 C7 -72.21(15) . . . .
O1 S1 C1 C2 -17.27(16) . . . .
O2 S1 C1 C2 -147.79(14) . . . .
N2 S1 C1 C2 101.84(15) . . . .
O1 S1 C1 C6 160.33(13) . . . .
O2 S1 C1 C6 29.80(15) . . . .
N2 S1 C1 C6 -80.56(14) . . . .
C6 C1 C2 C3 0.0(3) . . . .
S1 C1 C2 C3 177.58(14) . . . .
C1 C2 C3 C4 -1.2(3) . . . .
C2 C3 C4 N1 -176.53(17) . . . .
C2 C3 C4 C5 1.4(3) . . . .
N1 C4 C5 C6 177.53(16) . . . .
C3 C4 C5 C6 -0.4(3) . . . .
C4 C5 C6 C1 -0.8(3) . . . .
C2 C1 C6 C5 1.0(2) . . . .
S1 C1 C6 C5 -176.56(12) . . . .
C10 N3 C7 N4 0.3(2) . . . .
C10 N3 C7 N2 -179.25(14) . . . .
C8 N4 C7 N3 0.2(2) . . . .
C8 N4 C7 N2 179.71(14) . . . .
S1 N2 C7 N3 -2.8(2) . . . .
S1 N2 C7 N4 177.59(12) . . . .
C7 N4 C8 C9 -0.2(2) . . . .
N4 C8 C9 C10 -0.1(3) . . . .
C7 N3 C10 C9 -0.7(2) . . . .
C7 N3 C10 C11 178.27(15) . . . .
C8 C9 C10 N3 0.6(3) . . . .
C8 C9 C10 C11 -178.29(16) . . . .
