#------------------------------------------------------------------------------
#$Date: 2017-09-28 15:45:42 +0300 (Thu, 28 Sep 2017) $
#$Revision: 201417 $
#$URL: file:///home/coder/svn-repositories/cod/cif/1/54/74/1547415.cif $
#------------------------------------------------------------------------------
#
# This file is available in the Crystallography Open Database (COD),
# http://www.crystallography.net/
#
# All data on this site have been placed in the public domain by the
# contributors.
#
data_1547415
loop_
_publ_author_name
'Anuradha R. Pallipurath'
'Jonathan M. Skelton'
'Mark R. Warren'
'Naghmeh Kamali'
'Patrick McArdle'
'Andrea Erxleben'
_publ_section_title
;
 Sulfamerazine: Understanding the Influence of Slip Planes in the
 Polymorphic Phase Transformation through X-Ray Crystallographic Studies
 and ab Initio Lattice Dynamics
;
_journal_name_full               'Molecular Pharmaceutics'
_journal_page_first              3735
_journal_page_last               3748
_journal_paper_doi               10.1021/acs.molpharmaceut.5b00504
_journal_volume                  12
_journal_year                    2015
_chemical_absolute_configuration ad
_chemical_formula_moiety         'C11 H12 N4 O2 S'
_chemical_formula_sum            'C11 H12 N4 O2 S'
_chemical_formula_weight         264.31
_chemical_name_common            Sulfamerazine
_chemical_name_systematic        4-amino-N-(4-methylpyrimidin-2-yl)
_space_group_crystal_system      orthorhombic
_space_group_IT_number           33
_space_group_name_Hall           'P 2c -2n'
_space_group_name_H-M_alt        'P n a 21'
_symmetry_space_group_name_Hall  'P 2c -2n'
_symmetry_space_group_name_H-M   'P n a 21'
_atom_sites_solution_hydrogens   mixed
_cell_angle_alpha                90
_cell_angle_beta                 90
_cell_angle_gamma                90
_cell_formula_units_Z            8
_cell_length_a                   14.46380(10)
_cell_length_b                   8.18350(10)
_cell_length_c                   21.7953(2)
_cell_measurement_reflns_used    11961
_cell_measurement_temperature    170
_cell_measurement_theta_max      29.4700
_cell_measurement_theta_min      1.8090
_cell_volume                     2579.79(4)
_computing_cell_refinement
;
CrysAlisPro, Agilent Technologies,
Version 1.171.37.35 (release 13-08-2014 CrysAlis171 .NET)
(compiled Aug 13 2014,18:06:01)
;
_computing_data_collection
;
CrysAlisPro, Agilent Technologies,
Version 1.171.37.35 (release 13-08-2014 CrysAlis171 .NET)
(compiled Aug 13 2014,18:06:01)
;
_computing_data_reduction
;
CrysAlisPro, Agilent Technologies,
Version 1.171.37.35 (release 13-08-2014 CrysAlis171 .NET)
(compiled Aug 13 2014,18:06:01)
;
_computing_molecular_graphics    OSCAIL
_computing_structure_refinement  'SHELXL-2014/7 (Sheldrick, 2014)'
_computing_structure_solution    SHELXT
_diffrn_ambient_temperature      170
_diffrn_measured_fraction_theta_full 0.998
_diffrn_measured_fraction_theta_max 0.997
_diffrn_measurement_device       'CrystalLogic Kappa (3 circle)'
_diffrn_measurement_device_type  'Rigaku Saturn724+ (2x2 bin mode)'
_diffrn_measurement_method
;
omega rotation with 1 degree frames
;
_diffrn_measurement_specimen_support 'MiTeGen loop'
_diffrn_radiation_monochromator  'double crystal Silicon 111'
_diffrn_radiation_source         'Diamond Light Source Beamline I19'
_diffrn_radiation_type           Synchrotron
_diffrn_radiation_wavelength     0.68890
_diffrn_reflns_av_R_equivalents  0.0468
_diffrn_reflns_av_unetI/netI     0.0443
_diffrn_reflns_Laue_measured_fraction_full 0.998
_diffrn_reflns_Laue_measured_fraction_max 0.997
_diffrn_reflns_limit_h_max       20
_diffrn_reflns_limit_h_min       -13
_diffrn_reflns_limit_k_max       11
_diffrn_reflns_limit_k_min       -11
_diffrn_reflns_limit_l_max       31
_diffrn_reflns_limit_l_min       -27
_diffrn_reflns_number            23198
_diffrn_reflns_point_group_measured_fraction_full 0.988
_diffrn_reflns_point_group_measured_fraction_max 0.967
_diffrn_reflns_theta_full        24.415
_diffrn_reflns_theta_max         29.473
_diffrn_reflns_theta_min         1.811
_exptl_absorpt_coefficient_mu    0.251
_exptl_absorpt_correction_T_max  1.00000
_exptl_absorpt_correction_T_min  0.98220
_exptl_absorpt_correction_type   multi-scan
_exptl_absorpt_process_details
;
CrysAlisPro, Agilent Technologies,
Version 1.171.36.28 (release 01-02-2013 CrysAlis171 .NET)
Empirical absorption correction using spherical harmonics,
implemented in SCALE3 ABSPACK scaling algorithm.
;
_exptl_crystal_colour            Colourless
_exptl_crystal_density_diffrn    1.361
_exptl_crystal_description       Parallelepiped
_exptl_crystal_F_000             1104
_exptl_crystal_size_max          0.50
_exptl_crystal_size_mid          0.40
_exptl_crystal_size_min          0.20
_refine_diff_density_max         0.339
_refine_diff_density_min         -0.375
_refine_diff_density_rms         0.059
_refine_ls_abs_structure_details
;
 Flack x determined using 2592 quotients [(I+)-(I-)]/[(I+)+(I-)]
 (Parsons, Flack and Wagner, Acta Cryst. B69 (2013) 249-259).
;
_refine_ls_abs_structure_Flack   0.00(5)
_refine_ls_extinction_coef       .
_refine_ls_extinction_method     none
_refine_ls_goodness_of_fit_ref   1.071
_refine_ls_hydrogen_treatment    mixed
_refine_ls_matrix_type           full
_refine_ls_number_parameters     344
_refine_ls_number_reflns         7616
_refine_ls_number_restraints     1
_refine_ls_restrained_S_all      1.070
_refine_ls_R_factor_all          0.0539
_refine_ls_R_factor_gt           0.0443
_refine_ls_shift/su_max          0.013
_refine_ls_shift/su_mean         0.000
_refine_ls_structure_factor_coef Fsqd
_refine_ls_weighting_details
'w=1/[\s^2^(Fo^2^)+(0.0541P)^2^+0.3587P] where P=(Fo^2^+2Fc^2^)/3'
_refine_ls_weighting_scheme      calc
_refine_ls_wR_factor_gt          0.1097
_refine_ls_wR_factor_ref         0.1175
_reflns_Friedel_coverage         0.894
_reflns_Friedel_fraction_full    0.977
_reflns_Friedel_fraction_max     0.935
_reflns_number_gt                6531
_reflns_number_total             7616
_reflns_threshold_expression     'I > 2\s(I)'
_cod_data_source_file            Exp_Form-I2FSynchrotron_Form-I_170K.cif
_cod_data_source_block           170k_smz-f1_a
_cod_database_code               1547415
_shelx_space_group_comment
;
The symmetry employed for this shelxl refinement is uniquely defined
by the following loop, which should always be used as a source of
symmetry information in preference to the above space-group names.
They are only intended as comments.
;
_shelx_estimated_absorpt_t_min   0.885
_shelx_estimated_absorpt_t_max   0.952
_shelx_res_file
;
    170k_smz-f1_a.res created by SHELXL-2014/7
TITL 170k_smz-f1_a.res in Pna2(1)
REM Old TITL 015_170K_SulfamerazineF1_ in Pna2(1)
REM SHELXT solution in Pna2(1)
REM R1 0.088,  Rweak 0.019,  Alpha 0.003,  Orientation as input
REM Flack x =  0.030 ( 0.047 ) from Parsons' quotients
REM Formula found by SHELXT:  C25 N5 O4 S2
CELL  0.68890  14.4638   8.1835  21.7953   90.000   90.000   90.000
ZERR    8.000   0.0001   0.0001   0.0002    0.000    0.000    0.000
REM SG 33 4 4 Pna21 PGmm2 Orthorhombic
LATT -1
REM SG  ASUN  1  .5 .5 1.
REM SG  ORGN  on 2(1)
SYMM -X,-Y,0.5+Z
SYMM 0.5+X,0.5-Y,Z
SYMM 0.5-X,0.5+Y,0.5+Z
SFAC C H N O S
UNIT 88.00 96.00 32.00 16.00 8.00
L.S. 10
SIZE    0.50  0.40  0.20
BOND $H
FMAP 2
PLAN 20
ACTA
CONF
EQIV $1 x, y-1, z
HTAB N5 O4_$1
EQIV $2 -x+3/2, y+1/2, z-1/2
HTAB N1 O4_$2
EQIV $3 x, y+1, z
HTAB N1 O1_$3
HTAB N2 N8
HTAB N6 N4
LIST 4
WGHT    0.054100    0.358700
FVAR       0.54209   0.35344
S1    5    0.356029    0.505462    0.656395    11.00000    0.02036    0.02351 =
         0.02182    0.00189   -0.00120   -0.00164
S2    5    0.421881    0.501873    0.346767    11.00000    0.01985    0.02286 =
         0.02108    0.00247   -0.00115   -0.00138
O1    4    0.312690    0.629996    0.692481    11.00000    0.03415    0.02542 =
         0.02894   -0.00367    0.00054   -0.00171
O2    4    0.453419    0.477966    0.662907    11.00000    0.02161    0.03464 =
         0.02692    0.00451   -0.00309   -0.00311
O3    4    0.324177    0.529562    0.340384    11.00000    0.01993    0.03662 =
         0.02583    0.00551   -0.00448   -0.00210
O4    4    0.464318    0.374774    0.311323    11.00000    0.03274    0.02301 =
         0.02837   -0.00222   -0.00023   -0.00001
N1    3    0.158851   -0.117451    0.687723    11.00000    0.02865    0.02489 =
         0.04755   -0.00686    0.01221   -0.00380
N2    3    0.346580    0.552982    0.582895    11.00000    0.01802    0.03295 =
         0.02397    0.00642    0.00078   -0.00024
N3    3    0.186714    0.591898    0.583416    11.00000    0.02229    0.02857 =
         0.02738    0.00202    0.00096    0.00211
N4    3    0.272661    0.568148    0.490326    11.00000    0.02527    0.06220 =
         0.02248    0.00387   -0.00151    0.01017
N5    3    0.619883    1.120125    0.305302    11.00000    0.03335    0.02534 =
         0.06411   -0.00349    0.01050   -0.00611
AFIX  93
H5A   2    0.676389    1.119043    0.293028    11.00000   -1.30000
H5B   2    0.592443    1.211655    0.311956    11.00000   -1.30000
AFIX   0
N6    3    0.431574    0.458407    0.420214    11.00000    0.02153    0.03601 =
         0.02111    0.00703    0.00191    0.00120
N7    3    0.590646    0.411629    0.419320    11.00000    0.02272    0.02985 =
         0.02973    0.00086    0.00116    0.00305
N8    3    0.505341    0.434231    0.512655    11.00000    0.02767    0.05861 =
         0.02587    0.00315   -0.00332    0.01075
C1    1    0.296931    0.322758    0.666349    11.00000    0.02053    0.02335 =
         0.02031    0.00147   -0.00045    0.00038
C2    1    0.207012    0.320880    0.689913    11.00000    0.02046    0.02547 =
         0.01948   -0.00030   -0.00146    0.00288
AFIX  43
H2    2    0.178156    0.418229    0.700775    11.00000   -1.30000
AFIX   0
C3    1    0.161438    0.174852    0.696969    11.00000    0.02074    0.02809 =
         0.01852   -0.00054    0.00225    0.00074
AFIX  43
H3    2    0.101472    0.174158    0.712363    11.00000   -1.30000
AFIX   0
C4    1    0.204194    0.026524    0.681242    11.00000    0.02504    0.02415 =
         0.02111   -0.00217   -0.00019   -0.00086
C5    1    0.295087    0.030207    0.657272    11.00000    0.02485    0.02408 =
         0.02671   -0.00305    0.00600    0.00281
AFIX  43
H5    2    0.324329   -0.066809    0.646443    11.00000   -1.30000
AFIX   0
C6    1    0.340484    0.177103    0.649903    11.00000    0.02062    0.02557 =
         0.02967    0.00151    0.00511    0.00100
AFIX  43
H6    2    0.400123    0.179058    0.633974    11.00000   -1.30000
AFIX   0
C7    1    0.263896    0.571681    0.551195    11.00000    0.02110    0.02616 =
         0.02535    0.00387   -0.00159    0.00224
C8    1    0.193966    0.592358    0.459208    11.00000    0.03750    0.09372 =
         0.02700    0.00051   -0.00372    0.01835
AFIX  43
H8    2    0.196049    0.593948    0.416565    11.00000   -1.30000
AFIX   0
C9    1    0.110203    0.614956    0.487868    11.00000    0.02492    0.08220 =
         0.03488   -0.00341   -0.01024    0.01410
AFIX  43
H9    2    0.056479    0.631748    0.465287    11.00000   -1.30000
AFIX   0
C10   1    0.108357    0.611950    0.550977    11.00000    0.02308    0.03705 =
         0.03814   -0.00116   -0.00126    0.00511
C11   1    0.021938    0.632456    0.587098    11.00000    0.02426    0.05509 =
         0.04820   -0.00379    0.00333    0.00871
AFIX 137
H11A  2    0.021052    0.739212    0.605347    11.00000   -1.30000
H11B  2    0.019491    0.551029    0.618763    11.00000   -1.30000
H11C  2   -0.030532    0.620369    0.560507    11.00000   -1.30000
AFIX   0
C12   1    0.480674    0.683042    0.333979    11.00000    0.02094    0.02168 =
         0.02223    0.00105    0.00078    0.00039
C13   1    0.436235    0.831175    0.344717    11.00000    0.02305    0.02508 =
         0.03692   -0.00022    0.00701    0.00335
AFIX  43
H13   2    0.375363    0.832015    0.358458    11.00000   -1.30000
AFIX   0
C14   1    0.481903    0.976190    0.335105    11.00000    0.02889    0.02103 =
         0.04626    0.00040    0.00490    0.00314
AFIX  43
H14   2    0.451781    1.074652    0.342478    11.00000   -1.30000
AFIX   0
C15   1    0.573789    0.976690    0.314215    11.00000    0.02779    0.02537 =
         0.02637   -0.00093    0.00204   -0.00255
C16   1    0.618265    0.827412    0.303423    11.00000    0.02166    0.02488 =
         0.02575   -0.00390    0.00284   -0.00128
AFIX  43
H16   2    0.679161    0.826183    0.289733    11.00000   -1.30000
AFIX   0
C17   1    0.571914    0.681774    0.313059    11.00000    0.02416    0.02074 =
         0.02350   -0.00147    0.00219    0.00157
AFIX  43
H17   2    0.601562    0.582913    0.305593    11.00000   -1.30000
AFIX   0
C18   1    0.513860    0.433506    0.451424    11.00000    0.02256    0.02793 =
         0.02592    0.00328   -0.00039    0.00157
C19   1    0.583008    0.403958    0.543600    11.00000    0.03391    0.09336 =
         0.02794   -0.00026   -0.00631    0.01958
AFIX  43
H19   2    0.580776    0.401230    0.586232    11.00000   -1.30000
AFIX   0
C20   1    0.666403    0.376574    0.514881    11.00000    0.02959    0.08661 =
         0.03963   -0.00659   -0.01047    0.02413
AFIX  43
H20   2    0.719578    0.353588    0.537264    11.00000   -1.30000
AFIX   0
C21   1    0.668099    0.384552    0.451424    11.00000    0.02312    0.03728 =
         0.03867   -0.00437   -0.00207    0.00635
C22   1    0.754747    0.362556    0.414861    11.00000    0.02446    0.06049 =
         0.05554   -0.00646    0.00222    0.00769
AFIX 137
H22A  2    0.754446    0.256582    0.395972    11.00000   -1.30000
H22B  2    0.807392    0.371743    0.441462    11.00000   -1.30000
H22C  2    0.758004    0.445227    0.383686    11.00000   -1.30000
AFIX   0
H1N1  2    0.109356   -0.119776    0.704975    11.00000    0.04154
H2N1  2    0.190678   -0.202736    0.683793    11.00000    0.05029
H1N2  2    0.386294    0.523100    0.562114    11.00000    0.03320
H1N6  2    0.380473    0.496732    0.441703    11.00000    0.05527
HKLF 4
REM  170k_smz-f1_a.res in Pna2(1)
REM R1 =  0.0443 for    6531 Fo > 4sig(Fo)  and  0.0539 for all    7616 data
REM    344 parameters refined using      1 restraints
END
WGHT      0.0600      0.2301
REM Highest difference peak  0.339,  deepest hole -0.375,  1-sigma level  0.059
Q1    1   0.1911  0.1038  0.7009  11.00000  0.05    0.34
Q2    1   0.4559  0.5928  0.3463  11.00000  0.05    0.31
Q3    1   0.5928  0.9011  0.3100  11.00000  0.05    0.31
Q4    1   0.3172  0.4121  0.6602  11.00000  0.05    0.30
Q5    1   0.3163  0.2440  0.6533  11.00000  0.05    0.29
Q6    1   0.4574  0.7530  0.3446  11.00000  0.05    0.28
Q7    1   0.1843  0.2449  0.6810  11.00000  0.05    0.26
Q8    1   0.5318  0.6881  0.3340  11.00000  0.05    0.26
Q9    1   0.3163  0.1095  0.6545  11.00000  0.05    0.25
Q10   1   0.1847  0.5907  0.6208  11.00000  0.05    0.25
Q11   1   0.5917  0.7573  0.3119  11.00000  0.05    0.24
Q12   1   0.2570  0.3204  0.6598  11.00000  0.05    0.24
Q13   1   0.5163  0.6667  0.3480  11.00000  0.05    0.23
Q14   1   0.4637  0.8952  0.3432  11.00000  0.05    0.23
Q15   1   0.5406  0.4121  0.5242  11.00000  0.05    0.23
Q16   1   0.5313  0.9776  0.3105  11.00000  0.05    0.23
Q17   1   0.6760  0.4369  0.4828  11.00000  0.05    0.22
Q18   1   0.4830  0.3889  0.6507  11.00000  0.05    0.22
Q19   1   0.3441  0.5071  0.6168  11.00000  0.05    0.21
Q20   1   0.2945  0.6190  0.3500  11.00000  0.05    0.21
;
_shelx_res_checksum              13163
_shelx_hkl_file
;
   0   0 -19   -0.82    1.91
   0   0 -18   90.99    7.69
   0   0 -17   -1.44    1.67
   0   0 -16  529.68   17.44
   0   0 -15    0.66    0.80
   0   0 -14   57.41    5.33
   0   0 -13    0.28    0.75
   0   0 -12 5119.16   45.48
   0   0 -11    0.37    0.80
   0   0 -10  319.45   10.26
   0   0  -9   -0.06    0.58
   0   0  -7   -0.38    0.30
   0   0  -5    0.34    0.25
   0   0  -4 5001.36   25.97
   0   0   2  290.97    5.80
   0   0   3    0.88    0.41
   0   0   4 5069.99   34.30
   0   0   5    0.66    0.48
   0   0   7    1.25    0.81
   0   0   9    0.70    1.05
   0   0  10  326.56   13.72
   0   0  11    0.19    1.21
   0   0  12 4975.44   59.68
   0   0  13   -0.62    1.56
   0   0  14   49.65    6.50
   0   0  15    0.62    2.46
   0   0  16  536.09   22.40
   0   0  17   -0.57    1.46
   0   0  18   79.17    9.32
   0   0  19    0.69    2.56
   0   0  20 1080.89   35.14
   0   0  21    0.21    2.22
   0   0  22  101.39   11.63
   0   0  23    0.04    2.62
   0   0  24   19.06    5.57
   0   0  25   -1.18    2.32
   0   0  26 1138.31   41.65
   0   0  27    2.27    3.61
   0   0  28  668.11   33.19
   0   0  29   -4.01    4.95
   0  -1 -20    1.71    2.30
   0  -1 -19   57.92    7.11
   0  -1 -18   -1.28    0.94
   0  -1 -18   -0.29    0.83
   0  -1 -17   36.66    4.48
   0   1 -17   32.23    3.83
   0  -1 -17   25.37    4.15
   0  -1 -16    0.81    1.00
   0   1 -16    1.05    0.80
   0  -1 -16    1.14    1.13
   0  -1 -15  112.17    8.61
   0   1 -15  115.13    6.65
   0   1 -14    1.06    0.68
   0  -1 -14    0.39    0.76
   0  -1 -13  183.16   10.45
   0   1 -13  190.70    7.84
   0   1 -12    0.92    0.75
   0  -1 -12   -0.68    0.86
   0   1 -11   49.92    3.57
   0  -1 -11   55.72    5.37
   0   1 -10    1.25    0.89
   0  -1 -10   -1.00    1.37
   0  -1  -9 2344.98   32.16
   0   1  -9 2285.63   21.39
   0  -1  -8    0.57    0.49
   0   1  -8   -0.43    0.46
   0   1  -7 1993.68   17.26
   0   1  -6   -0.21    0.25
   0   1  -5 2931.17   18.66
   0   1  -3 1692.27   14.04
   0  -1  -2    0.60    0.75
   0   1  -2    0.60    0.45
   0   1  -1  517.07    8.78
   0  -1  -1  447.15    9.20
   0  -1   0    0.30    0.22
   0   1   0   -0.05    0.36
   0   1   1  476.03    8.18
   0   1   1  463.67    9.90
   0  -1   1  454.09    8.69
   0   1   2    0.45    0.50
   0  -1   2   -0.17    0.31
   0   1   2    0.53    0.44
   0   1   3 1665.64   20.34
   0  -1   3 1614.91   16.07
   0   1   3 1638.84   20.94
   0   1   4    0.37    0.72
   0  -1   4    0.18    0.49
   0   1   4   -0.24    0.86
   0  -1   4   -0.19    0.33
   0  -1   5 3127.38   27.22
   0  -1   5 3208.49   22.09
   0   1   5 3210.11   34.43
   0   1   5 3155.60   32.50
   0   1   6   -0.45    0.59
   0  -1   6   -0.21    0.41
   0  -1   6    0.48    0.51
   0  -1   7 1978.11   18.23
   0  -1   7 1939.18   25.99
   0   1   8   -1.11    1.08
   0  -1   8   -0.06    0.42
   0  -1   8    1.50    0.75
   0   1   9 2287.25   36.45
   0  -1   9 2271.17   32.69
   0  -1   9 2271.52   21.10
   0   1  10    0.99    0.85
   0  -1  10    1.69    1.47
   0  -1  11   49.34    5.50
   0   1  11   55.39    6.21
   0  -1  12   -0.28    1.30
   0   1  12   -0.07    0.86
   0  -1  13  172.98   11.02
   0   1  13  185.62   12.30
   0  -1  14    1.98    2.26
   0   1  14   -1.30    1.71
   0   1  15  108.08    9.90
   0  -1  15  105.07    9.26
   0   1  16    0.86    1.28
   0  -1  16   -0.09    1.15
   0  -1  17   33.56    5.45
   0   1  17   31.37    5.91
   0  -1  18   -0.45    1.24
   0   1  18    2.11    2.29
   0  -1  19   64.87    8.68
   0   1  19   39.29    6.73
   0  -1  20    0.37    1.67
   0   1  20    1.38    1.48
   0   1  21  151.35   13.68
   0  -1  21  179.28   14.58
   0   1  22    3.38    2.40
   0  -1  22    0.24    1.83
   0   1  23    5.24    2.60
   0  -1  23    9.76    4.50
   0   1  24    0.88    2.27
   0  -1  24   -2.04    1.97
   0   1  25    6.07    3.10
   0  -1  25    1.37    2.87
   0   1  26    1.53    1.97
   0  -1  26   -2.24    4.32
   0   1  27    2.90    2.37
   0   1  28   -3.94    2.88
   0   1  29   13.68    4.94
   0   1  30   -0.94    2.43
   0   1  31   17.72    5.19
   0  -2 -22  181.37   14.11
   0  -2 -21    1.36    2.93
   0  -2 -20  214.77   14.81
   0  -2 -19   -0.41    1.01
   0  -2 -19   -1.25    1.62
   0  -2 -18  180.22   12.97
   0  -2 -18  175.52   11.42
   0  -2 -17    2.03    1.26
   0  -2 -17   -0.97    1.43
   0  -2 -16 1274.74   28.95
   0  -2 -16 1264.86   33.05
   0  -2 -15   -0.94    1.58
   0   2 -15    0.56    0.94
   0  -2 -15    2.91    2.20
   0   2 -14  355.14    9.66
   0  -2 -14  357.04   14.88
   0  -2 -14  353.38   16.72
   0   2 -13    0.29    0.74
   0  -2 -13   -0.63    1.34
   0  -2 -13    1.00    1.15
   0  -2 -12 2617.34   38.31
   0  -2 -12 2592.19   42.67
   0  -2 -11    2.83    1.46
   0  -2 -11    2.17    1.82
   0   2 -11   -0.06    0.35
   0  -2 -10 2650.45   37.11
   0   2 -10 2661.82   24.55
   0  -2  -9   -0.03    0.71
   0   2  -9    0.17    0.49
   0   2  -8  183.91    6.33
   0  -2  -8  188.63    9.42
   0  -2  -7    1.44    1.23
   0   2  -7    0.50    0.53
   0  -2  -6 2087.08   30.61
   0   2  -6 2145.64   22.66
   0  -2  -5   -0.06    0.76
   0   2  -5    0.44    0.37
   0   2  -4 1870.15   22.46
   0  -2  -4 1864.75   27.06
   0  -2  -3    0.80    1.06
   0   2  -3    0.82    0.71
   0  -2  -2  781.30   16.96
   0   2  -2  774.71   10.17
   0   2  -2  743.17   14.96
   0   2  -1    0.33    1.38
   0  -2  -1   -0.73    0.62
   0   2  -1    1.49    0.88
   0   2   1    0.03    0.67
   0  -2   1    0.00    0.58
   0   2   1    0.91    0.77
   0  -2   2  761.23   15.98
   0   2   2  736.94   17.39
   0   2   3    1.28    1.23
   0  -2   3    0.23    0.65
   0   2   3   -0.21    0.53
   0   2   4 1833.83   26.75
   0  -2   4 1850.53   24.46
   0   2   4 1776.86   29.49
   0  -2   5    0.45    0.71
   0   2   5    0.36    0.91
   0   2   5    0.45    0.99
   0   2   6 2290.18   34.70
   0  -2   6 2368.61   26.85
   0   2   7    0.71    1.08
   0   2   7    0.82    1.27
   0  -2   7    1.14    0.57
   0  -2   8  185.36    7.63
   0   2   8  173.55   10.04
   0   2   9    1.53    1.61
   0  -2   9   -0.39    0.59
   0  -2  10 2739.39   29.22
   0   2  10 2727.11   43.96
   0   2  11    1.70    1.76
   0  -2  11    0.70    1.09
   0  -2  11   -0.70    0.57
   0  -2  12 2591.89   28.62
   0  -2  12 2588.04   39.52
   0   2  12 2534.99   45.44
   0   2  13   -1.19    1.60
   0  -2  13   -0.28    0.96
   0  -2  13    1.50    1.69
   0  -2  14  361.00   16.58
   0  -2  14  334.53   10.39
   0   2  14  344.89   17.73
   0  -2  15    2.40    1.90
   0   2  15    2.77    3.25
   0  -2  16 1253.09   32.71
   0   2  16 1222.09   35.25
   0   2  17   -1.61    2.05
   0  -2  17   -0.99    1.81
   0  -2  18  182.79   13.75
   0   2  18  173.07   14.30
   0   2  19   -1.38    2.10
   0  -2  19    2.49    2.24
   0   2  20  195.13   15.37
   0   2  21    1.96    2.43
   0   2  22  171.75   14.99
   0   2  23   -1.04    2.33
   0   2  24   30.55    6.59
   0   2  25    0.95    3.56
   0   2  26  279.53   20.59
   0   2  27    1.85    3.44
   0   2  28   90.64   12.01
   0   2  29   -0.42    3.21
   0   2  30  223.11   19.80
   0  -3 -23    0.16    1.78
   0  -3 -22    1.19    1.85
   0  -3 -21  150.41   13.43
   0  -3 -20   -1.21    2.13
   0  -3 -19  256.87   17.07
   0  -3 -19  258.01   15.77
   0  -3 -18    2.16    1.80
   0  -3 -18    2.11    3.21
   0  -3 -17   72.09    8.79
   0  -3 -17   80.76    8.52
   0  -3 -16    0.40    1.41
   0  -3 -16   -1.36    2.12
   0  -3 -15  131.24   11.31
   0  -3 -15  125.33   10.12
   0   3 -14    0.89    0.97
   0  -3 -14   -0.90    1.57
   0  -3 -14    1.59    2.13
   0   3 -13  236.75    8.18
   0  -3 -13  250.29   14.71
   0   3 -12    0.38    0.75
   0  -3 -12   -0.97    1.88
   0  -3 -11  209.41   11.93
   0   3 -11  209.25    8.23
   0   3 -10   -0.72    0.86
   0  -3 -10   -1.47    1.00
   0  -3  -9 3538.57   48.54
   0   3  -9 3573.73   35.41
   0  -3  -8    0.29    0.66
   0   3  -8   -0.93    0.90
   0   3  -7   29.96    3.35
   0  -3  -7   36.14    4.65
   0  -3  -6   -0.56    1.46
   0   3  -6    0.71    0.89
   0  -3  -5  599.48   18.57
   0   3  -5  586.56   15.54
   0   3  -4    0.47    0.57
   0  -3  -4   -0.21    1.40
   0   3  -4    0.34    0.36
   0   3  -3 1058.28   21.98
   0   3  -3 1036.24   14.24
   0  -3  -2   -0.19    1.33
   0   3  -2    0.17    1.08
   0   3  -2    0.08    0.81
   0  -3  -1 2057.87   32.85
   0   3  -1 1864.01   20.97
   0   3   0    1.17    0.87
   0  -3   0    1.25    1.92
   0   3   0    0.62    1.26
   0  -3   1 2017.12   31.96
   0   3   1 1991.60   33.72
   0  -3   2    1.58    1.13
   0   3   2   -0.02    0.81
   0   3   2    2.05    1.16
   0   3   3 1005.73   24.66
   0  -3   3  981.57   22.13
   0   3   4   -0.17    0.97
   0   3   4   -0.68    1.26
   0  -3   4    0.20    0.74
   0  -3   5  606.53   17.12
   0   3   5  618.18   20.39
   0   3   5  595.42   17.57
   0   3   6   -0.34    1.74
   0   3   6    0.69    0.64
   0  -3   6   -0.05    1.24
   0  -3   7   40.97    4.46
   0   3   7   37.14    4.78
   0   3   7   45.16    5.69
   0   3   8   -0.64    1.30
   0   3   8   -0.27    1.58
   0  -3   8    0.41    1.02
   0  -3   9 3665.68   41.99
   0   3   9 3589.08   53.33
   0  -3  10    0.26    1.10
   0   3  10    2.08    2.01
   0   3  11  222.48   13.46
   0  -3  11  205.95    9.90
   0  -3  12   -1.42    1.31
   0   3  12    0.62    1.30
   0  -3  13  227.49   10.37
   0   3  13  183.49   13.04
   0  -3  14    0.43    0.96
   0   3  14   -2.02    2.49
   0   3  15  129.39   11.56
   0   3  16   -0.02    1.84
   0   3  17   87.97   10.03
   0   3  18   -0.14    1.66
   0   3  19  315.22   20.01
   0   3  20    3.62    3.12
   0   3  21  156.63   14.28
   0   3  22   -2.98    2.78
   0   3  23    6.36    3.67
   0   3  24    1.95    3.25
   0   3  25    3.40    1.82
   0   3  26    2.44    2.48
   0   3  27   46.90    8.48
   0   3  28   -3.93    3.90
   0   3  29   12.79    5.26
   0   3  30    1.20    3.07
   0  -4 -24    4.71    3.82
   0  -4 -23    0.71    2.39
   0  -4 -22  552.87   27.89
   0  -4 -21    4.10    3.96
   0  -4 -20   45.86    8.16
   0  -4 -20   42.92    7.29
   0  -4 -19    1.62    2.27
   0  -4 -19    4.23    2.65
   0  -4 -18  461.95   22.12
   0  -4 -18  438.45   23.61
   0  -4 -17    1.64    2.76
   0  -4 -17    1.00    1.37
   0  -4 -16 1291.36   38.01
   0  -4 -16 1212.03   35.49
   0  -4 -15    0.20    1.88
   0  -4 -15    1.63    1.95
   0  -4 -14  192.97   13.43
   0  -4 -14  185.48   14.16
   0  -4 -13    0.30    1.19
   0   4 -13   -0.49    0.90
   0  -4 -12 1200.37   32.73
   0   4 -12 1178.38   23.00
   0  -4 -11    0.02    1.23
   0   4 -11   -0.29    1.29
   0  -4 -10 3132.74   50.79
   0   4 -10 2905.02   38.45
   0   4  -9   -0.85    0.79
   0  -4  -9    1.14    2.04
   0  -4  -8  745.97   24.54
   0   4  -8  798.89   20.69
   0  -4  -7    2.07    1.69
   0   4  -7    0.68    1.07
   0   4  -7    0.12    1.30
   0   4  -6 1471.32   29.23
   0   4  -6 1515.72   20.24
   0  -4  -5    1.34    1.58
   0   4  -5    0.24    1.02
   0   4  -5    3.35    1.20
   0   4  -4 2511.42   39.40
   0   4  -4 2452.82   24.61
   0  -4  -3    0.49    0.97
   0   4  -3   -1.20    1.48
   0   4  -3    2.87    0.80
   0  -4  -2  875.28   24.70
   0   4  -2  883.56   16.06
   0   4  -1   -0.70    1.34
   0  -4  -1    0.72    1.01
   0   4  -1    0.45    0.77
   0   4   0  441.49   12.68
   0  -4   0  471.30   17.98
   0   4   1    0.34    0.66
   0  -4   1    0.61    1.96
   0   4   1    0.37    1.01
   0   4   2  792.17   19.22
   0  -4   2  831.09   23.76
   0   4   3    1.12    1.79
   0   4   3   -0.40    0.96
   0  -4   3    0.79    1.65
   0  -4   4 2528.38   40.98
   0   4   4 2461.68   37.56
   0   4   5   -0.62    1.72
   0  -4   5    0.31    1.74
   0   4   5   -0.70    1.07
   0   4   6 1520.79   36.16
   0  -4   6 1492.47   31.41
   0   4   6 1574.19   32.44
   0   4   7    0.68    2.14
   0  -4   7   -0.89    0.99
   0   4   7    1.21    1.01
   0   4   8  803.58   25.05
   0  -4   8  737.29   22.15
   0   4   8  758.56   26.05
   0   4   9    0.65    1.23
   0  -4   9    1.38    1.79
   0   4   9    1.05    1.43
   0   4  10 3023.12   51.44
   0   4  10 2965.58   53.92
   0  -4  10 2958.16   43.85
   0  -4  11    0.64    1.04
   0   4  11    1.04    1.61
   0  -4  12 1133.94   27.39
   0   4  12 1028.67   31.88
   0   4  13    0.81    1.39
   0  -4  13    0.80    1.92
   0   4  14  268.42   16.94
   0   4  15    2.82    2.95
   0   4  16 1415.07   40.38
   0   4  17    1.37    3.87
   0   4  18  485.14   24.45
   0   4  19    0.46    2.16
   0   4  20   50.93    7.82
   0   4  21    1.59    2.22
   0   4  22  560.68   28.38
   0   4  23    3.77    4.88
   0   4  24    3.47    2.00
   0   4  25    4.48    3.83
   0   4  26   96.31   12.46
   0   4  27   -0.80    3.24
   0   4  28    0.47    4.28
   0   4  29    0.38    2.47
   0  -5 -25   -0.74    2.72
   0  -5 -24   -3.24    3.10
   0  -5 -23   23.62    6.29
   0  -5 -22   -2.78    4.03
   0  -5 -21    6.55    3.57
   0  -5 -20   -0.31    3.08
   0  -5 -20   -1.14    2.51
   0  -5 -19   13.70    5.38
   0  -5 -19   21.41    5.58
   0  -5 -18   -1.77    2.04
   0  -5 -18    4.93    4.07
   0  -5 -17    6.85    3.08
   0  -5 -17    3.85    2.58
   0  -5 -16    0.98    2.18
   0  -5 -16   -0.55    2.73
   0  -5 -15   34.99    6.48
   0  -5 -15   32.78    6.32
   0  -5 -14    0.06    2.10
   0  -5 -13   91.17    9.74
   0   5 -12   -0.10    1.59
   0  -5 -12   -0.25    2.43
   0   5 -11   45.11    5.62
   0  -5 -11   32.51    6.73
   0  -5 -10   -0.24    2.45
   0   5 -10   -0.52    0.73
   0   5 -10    1.58    1.78
   0   5  -9    1.62    1.25
   0  -5  -9    5.24    2.61
   0   5  -8   -0.19    0.92
   0   5  -8    0.74    1.37
   0  -5  -8   -0.45    2.02
   0   5  -7  193.34   11.89
   0   5  -7  176.61    7.17
   0  -5  -7  179.33   12.70
   0   5  -6   -0.16    0.60
   0  -5  -6   -0.85    0.96
   0  -5  -5  151.48   11.78
   0   5  -5  172.64   11.66
   0   5  -5  171.51    6.88
   0  -5  -4    1.35    2.17
   0   5  -4   -0.28    0.92
   0   5  -4   -0.99    1.31
   0  -5  -3  247.58   14.66
   0   5  -3  223.62   13.44
   0   5  -3  234.58    8.90
   0   5  -2   -1.52    1.47
   0   5  -2    0.28    0.80
   0  -5  -2    1.17    2.11
   0  -5  -1   66.75    7.56
   0   5  -1   64.04    5.08
   0   5  -1   67.32    7.39
   0   5   0   -0.59    1.03
   0   5   0   -0.89    1.56
   0  -5   0   -0.54    0.97
   0  -5   1   52.16    6.63
   0   5   1   65.02    7.67
   0   5   1   46.44    4.81
   0   5   2    3.44    2.32
   0  -5   2   -1.13    0.98
   0   5   2    1.35    1.34
   0   5   3  263.38   15.40
   0  -5   3  244.61   14.34
   0   5   3  242.02   12.15
   0  -5   4    4.00    1.82
   0   5   4   -1.23    2.22
   0   5   4   -0.17    1.01
   0   5   5  145.27   10.09
   0   5   5  156.81   12.53
   0  -5   5  150.43   11.15
   0  -5   6    0.16    1.04
   0   5   6    1.52    0.98
   0   5   6    1.75    3.26
   0   5   7  186.40   12.50
   0   5   7  203.10   14.31
   0  -5   7  190.19   12.49
   0  -5   8    2.82    2.14
   0   5   8   -0.06    1.46
   0   5   8   -1.16    1.84
   0  -5   9    2.92    2.49
   0   5   9    2.06    1.25
   0   5   9   -0.13    1.29
   0  -5  10    2.27    2.40
   0   5  10    0.20    1.14
   0   5  10   -0.56    1.36
   0  -5  11   31.17    4.96
   0   5  11   37.99    6.49
   0  -5  12    0.17    1.30
   0   5  12   -0.29    1.75
   0   5  13   88.47    9.80
   0  -5  13   69.75    8.07
   0   5  14    0.50    3.09
   0   5  15   28.21    5.99
   0   5  16   -2.10    2.90
   0   5  17   14.58    4.16
   0   5  18    3.75    3.29
   0   5  19    7.47    2.79
   0   5  20    0.83    2.35
   0   5  21    3.73    2.35
   0   5  22   -0.15    2.49
   0   5  23   56.72    8.79
   0   5  24   -1.68    2.41
   0   5  25    4.21    4.04
   0   5  26    0.19    3.65
   0   5  27    6.39    3.60
   0   5  28    0.06    2.32
   0  -6 -25    1.24    2.37
   0  -6 -24   58.64   11.09
   0  -6 -23    2.10    2.48
   0  -6 -22  427.99   27.03
   0  -6 -21    0.51    3.16
   0  -6 -21    0.79    3.16
   0  -6 -20  148.91   14.95
   0  -6 -20  155.08   15.45
   0  -6 -19   -2.35    2.31
   0  -6 -19    1.86    3.81
   0  -6 -18   13.67    4.52
   0  -6 -18    1.38    2.08
   0  -6 -17    0.28    2.13
   0  -6 -17    5.31    3.63
   0  -6 -16  395.52   23.48
   0  -6 -16  400.35   22.44
   0  -6 -15    3.41    2.78
   0  -6 -15    0.02    3.40
   0  -6 -14   12.73    5.27
   0  -6 -13   -0.20    2.66
   0  -6 -11    3.29    3.09
   0   6 -11    1.27    1.78
   0   6 -10  546.83   21.92
   0  -6 -10  507.14   24.08
   0   6  -9   -1.07    2.17
   0  -6  -9    0.36    2.09
   0  -6  -8   84.67    9.74
   0   6  -8   69.05    8.42
   0   6  -7    1.49    2.62
   0  -6  -7    0.88    1.43
   0   6  -6 3272.30   55.88
   0  -6  -6 3199.26   58.36
   0   6  -5    0.93    2.97
   0   6  -5    0.89    0.92
   0  -6  -5   -0.25    2.75
   0  -6  -4 1402.17   38.11
   0   6  -4 1341.38   21.71
   0  -6  -3    0.17    2.16
   0   6  -3   -0.24    1.55
   0   6  -3    0.43    0.91
   0   6  -2 2417.24   49.27
   0  -6  -2 2486.86   50.15
   0   6  -2 2418.88   34.21
   0   6  -1    0.20    2.82
   0  -6  -1    3.06    3.91
   0   6  -1    0.47    1.92
   0   6   0 1477.25   28.98
   0  -6   0 1496.60   39.01
   0   6   0 1588.14   40.50
   0  -6   1    5.00    3.54
   0   6   1    6.35    4.01
   0   6   1    1.16    0.88
   0   6   2 2506.35   51.64
   0  -6   2 2446.62   49.49
   0   6   3    1.22    1.88
   0   6   3   -0.07    2.75
   0  -6   3    3.98    2.75
   0   6   4 1266.86   37.40
   0  -6   4 1312.59   35.87
   0   6   4 1234.69   30.98
   0  -6   5    1.43    1.66
   0   6   5    2.44    2.37
   0   6   5   -0.17    3.37
   0   6   6 3087.80   52.37
   0  -6   6 3114.06   55.96
   0  -6   7    0.98    3.06
   0   6   7    1.30    1.89
   0   6   7    1.99    1.58
   0   6   8   76.67    9.07
   0  -6   8   79.16    9.33
   0   6   8   85.84   10.02
   0   6   9    1.31    3.15
   0  -6   9    0.99    1.35
   0   6   9    0.80    3.02
   0   6  10  506.98   23.44
   0  -6  10  528.91   23.34
   0   6  10  528.84   25.80
   0   6  11    2.26    2.43
   0  -6  11    3.29    2.71
   0   6  12  464.92   22.82
   0  -6  12  469.27   22.01
   0   6  13    0.38    2.71
   0  -6  13    3.89    3.00
   0   6  14   12.27    3.66
   0   6  15    1.63    3.31
   0   6  16  382.49   22.23
   0   6  17    0.37    3.34
   0   6  18   11.07    3.83
   0   6  19   -0.27    3.06
   0   6  20  156.54   15.30
   0   6  21    1.92    4.23
   0   6  22  477.56   27.18
   0   6  23    5.04    3.47
   0   6  24   64.25   10.71
   0   6  25    3.87    2.17
   0   6  26  217.91   19.31
   0  -7 -24   -0.23    3.74
   0  -7 -23    8.61    4.98
   0  -7 -22   10.96    6.18
   0  -7 -21   19.22    5.81
   0  -7 -21   15.53    4.68
   0  -7 -20   -1.50    2.16
   0  -7 -20    0.25    4.19
   0  -7 -19   25.58    6.40
   0  -7 -19   36.03    7.66
   0  -7 -18    1.35    3.16
   0  -7 -18   -1.89    2.59
   0  -7 -17    1.76    2.11
   0  -7 -17    6.22    3.46
   0  -7 -16   -1.15    2.04
   0  -7 -16    2.69    3.40
   0  -7 -15   67.96   10.19
   0  -7 -15   67.72   10.10
   0  -7 -14    3.51    2.43
   0  -7 -13   68.57    9.62
   0  -7 -12    2.99    2.27
   0  -7 -11   19.78    6.17
   0   7 -10    0.14    1.27
   0  -7 -10    1.71    2.94
   0  -7  -9  284.53   18.75
   0   7  -9  291.23   17.91
   0   7  -8    3.26    3.25
   0  -7  -8    1.48    2.87
   0   7  -7 1038.80   34.91
   0  -7  -7 1090.32   36.33
   0   7  -6   -1.82    2.05
   0  -7  -6   -0.48    2.22
   0  -7  -5  571.47   26.02
   0   7  -5  509.81   24.69
   0  -7  -4    2.10    3.62
   0   7  -4    1.19    2.60
   0   7  -3   55.77    7.92
   0  -7  -3   79.94   10.27
   0  -7  -2    2.43    2.42
   0   7  -2    1.55    2.46
   0  -7  -1 1981.13   48.60
   0   7  -1 2128.65   50.59
   0  -7   0    1.80    3.40
   0   7   0    3.97    1.82
   0   7   0    5.55    3.78
   0   7   1 2077.08   38.76
   0  -7   1 2056.06   49.06
   0   7   1 2026.94   49.15
   0  -7   2   -0.32    2.19
   0   7   2   -0.33    3.68
   0   7   2   -0.59    1.05
   0   7   3   58.53    8.66
   0   7   3   73.80    7.65
   0  -7   3   63.79    8.79
   0  -7   4   -2.23    2.50
   0   7   4    0.88    1.58
   0   7   4    0.68    1.79
   0  -7   5  592.80   26.06
   0   7   5  613.83   27.83
   0   7   5  652.07   25.31
   0  -7   6    1.50    3.81
   0   7   6    2.57    1.87
   0   7   6    0.70    1.74
   0  -7   7 1118.62   36.30
   0   7   7 1062.05   37.45
   0   7   7 1024.62   33.41
   0  -7   8    5.56    3.71
   0   7   8   -0.64    1.85
   0   7   8    0.72    2.94
   0   7   9  248.00   18.64
   0  -7   9  280.94   18.38
   0  -7  10    0.57    2.22
   0   7  10   -3.33    3.23
   0   7  11   15.90    4.12
   0  -7  11   32.97    6.47
   0  -7  12   -1.06    2.40
   0   7  12   -0.28    1.91
   0   7  13   62.05    8.84
   0   7  14   -2.33    3.54
   0   7  15   67.38    9.65
   0   7  16    1.22    2.80
   0   7  17    7.85    4.12
   0   7  18   -0.46    3.19
   0   7  19   36.56    7.77
   0   7  20    1.79    3.36
   0   7  21   30.67    6.87
   0   7  22   -1.20    2.73
   0   7  23   14.60    5.07
   0   7  24    5.42    4.96
   0  -8 -22   54.84   10.13
   0  -8 -21   -4.67    3.31
   0  -8 -21   -7.07    4.42
   0  -8 -20   65.15   10.68
   0  -8 -20   58.01   10.41
   0  -8 -19   -1.25    2.87
   0  -8 -19    0.72    2.52
   0  -8 -18    1.92    4.79
   0  -8 -18    9.91    4.74
   0  -8 -17   -2.67    3.04
   0  -8 -17   -0.61    2.95
   0  -8 -16   98.73   12.50
   0  -8 -16   89.30   11.64
   0  -8 -15    0.93    2.11
   0  -8 -15    1.67    2.69
   0  -8 -14    5.65    2.86
   0  -8 -14    7.38    4.08
   0  -8 -13   -0.39    3.18
   0  -8 -12   30.56    6.60
   0  -8 -11    3.76    3.16
   0  -8 -10  104.82   11.74
   0  -8  -9   -0.75    2.26
   0   8  -9    0.01    2.26
   0  -8  -8    0.26    2.28
   0   8  -8   -0.46    2.96
   0   8  -7    2.76    2.55
   0  -8  -7   -1.29    2.59
   0   8  -6  236.46   17.81
   0  -8  -6  296.39   19.80
   0  -8  -5   -0.08    1.44
   0   8  -5    2.25    2.66
   0   8  -4  115.39   12.41
   0  -8  -4  127.18   12.80
   0  -8  -3   -4.71    3.10
   0   8  -3    2.81    2.55
   0   8  -2  144.31   13.52
   0  -8  -2  123.29   12.28
   0   8  -1    3.11    3.15
   0  -8  -1    1.05    3.04
   0  -8   0  206.70   16.44
   0   8   0  241.92   18.61
   0   8   1    3.52    3.29
   0  -8   1    1.34    2.85
   0  -8   2  143.31   13.57
   0   8   2  122.39   12.73
   0  -8   3   -0.91    2.71
   0   8   3    3.53    2.43
   0   8   4  106.35   10.12
   0  -8   4  112.68   12.14
   0   8   4   99.18   11.75
   0  -8   5    0.57    1.74
   0   8   5    1.99    2.21
   0   8   5   -3.68    2.37
   0   8   6  225.22   15.94
   0   8   6  238.51   18.55
   0  -8   6  230.00   17.29
   0   8   7   -1.69    3.16
   0  -8   7    4.53    2.94
   0   8   7   -4.08    3.37
   0   8   8    0.30    2.07
   0  -8   8   -2.09    2.49
   0   8   8    0.94    2.30
   0  -8   9    2.25    2.29
   0   8   9   -0.72    2.42
   0   8  10  124.40   12.96
   0  -8  10  132.27   13.52
   0   8  11    0.74    2.15
   0  -8  11    2.50    3.83
   0  -8  12   31.55    7.42
   0   8  12   33.07    6.92
   0   8  13    3.46    3.68
   0   8  14   16.46    5.31
   0   8  15   -2.00    3.66
   0   8  16  107.71   12.32
   0   8  17    5.11    3.93
   0   8  18    5.70    3.60
   0   8  19   -2.69    2.45
   0   8  20   77.88   11.68
   0   8  21    4.34    2.49
   0   8  22   48.13    9.01
   0  -9 -19   25.68    7.28
   0  -9 -19   25.78    8.13
   0  -9 -18   -0.05    2.59
   0  -9 -18    9.35    4.70
   0  -9 -17   44.68    9.46
   0  -9 -17   38.56    8.26
   0  -9 -16    1.99    2.55
   0  -9 -16    2.00    2.47
   0  -9 -15    5.10    2.31
   0  -9 -15    7.47    3.86
   0  -9 -14   -2.72    2.27
   0  -9 -14    1.12    2.79
   0  -9 -13    1.50    2.27
   0  -9 -13   -2.15    3.71
   0  -9 -12   -5.11    3.17
   0  -9 -11   70.78   10.53
   0  -9 -10   -2.69    2.57
   0  -9  -9   22.37    6.33
   0   9  -8    2.46    3.96
   0  -9  -8   -4.86    3.82
   0   9  -7   15.44    5.74
   0  -9  -7   12.87    5.22
   0   9  -6   -1.51    2.32
   0  -9  -6   -0.51    1.95
   0   9  -5   -1.79    2.17
   0  -9  -5    1.80    3.99
   0   9  -4   -1.97    2.27
   0  -9  -4    2.71    3.10
   0   9  -3   36.88    7.03
   0  -9  -3   39.85    6.94
   0   9  -2    0.82    3.25
   0  -9  -2    2.47    1.88
   0   9  -1   10.50    5.21
   0  -9  -1   24.09    6.63
   0  -9   0    0.48    2.72
   0   9   0   -2.03    3.56
   0  -9   1    9.94    4.04
   0   9   1   14.19    5.59
   0   9   2   -3.37    3.99
   0  -9   2   -0.89    3.14
   0  -9   3   44.33    7.94
   0   9   3   50.00    8.71
   0  -9   4   -0.93    2.86
   0   9   4   -6.24    4.20
   0  -9   5    3.13    3.66
   0   9   5    2.31    2.26
   0  -9   6   -0.35    2.00
   0  -9   7   20.26    6.01
   0  -9   8    1.08    1.89
   0  -9   9   53.89    8.77
   0  -9  10    6.93    4.49
   0   9  10   -1.55    3.60
   0  -9  11   57.28    9.34
   0   9  11   57.74    9.76
   0   9  12   -2.41    3.84
   0   9  13    1.25    2.51
   0   9  14    1.59    3.78
   0   9  15   10.12    2.94
   0   9  16    1.14    3.51
   0   9  17   41.11    8.91
   0   9  18    2.15    4.49
   0   9  19    8.47    5.07
   0 -10 -16   51.03    9.28
   0 -10 -16   54.73   10.12
   0 -10 -15   -2.96    2.58
   0 -10 -15   -1.01    2.34
   0 -10 -14   12.29    5.87
   0 -10 -14   11.35    6.00
   0 -10 -13   -4.28    3.14
   0 -10 -13   -0.98    3.05
   0 -10 -12   37.95    8.34
   0 -10 -12   44.87    8.69
   0 -10 -11    2.39    4.92
   0 -10 -11   -6.31    4.06
   0 -10 -10  134.45   14.92
   0 -10  -9   -2.59    3.01
   0 -10  -8    2.77    2.88
   0 -10  -7    3.65    3.72
   0 -10  -6  173.93   16.37
   0  10  -6  153.69   16.07
   0 -10  -5   11.99    6.22
   0  10  -5    5.03    3.22
   0  10  -4  109.65   13.81
   0 -10  -4  108.53   13.12
   0  10  -3   -1.55    4.16
   0 -10  -3   -0.09    1.77
   0 -10  -2   58.61   10.66
   0  10  -2   45.29    9.23
   0 -10  -1    5.91    4.01
   0  10  -1    1.68    4.37
   0  10   0  204.05   18.94
   0 -10   0  239.97   19.28
   0 -10   1   -5.99    4.10
   0  10   1    3.39    4.96
   0 -10   2   46.80    9.70
   0 -10   3    1.05    3.04
   0 -10   4   82.98   11.65
   0 -10   5    4.38    2.99
   0 -10   6  168.11   16.77
   0 -10   7   -0.70    3.07
   0 -10   8    9.39    5.19
   0 -10   9   12.81    7.06
   0 -10  10   96.60   13.08
   0 -11 -10    2.48    3.70
   0 -11 -10    4.88    3.76
   0 -11  -9   18.76    6.23
   0 -11  -9    8.83    4.16
   0 -11  -8    1.85    3.26
   0 -11  -7   10.60    3.10
   0 -11  -6    0.96    3.76
   0 -11  -5   -2.38    2.56
   0 -11  -4    6.52    5.00
   0 -11  -3    4.08    2.12
   0 -11  -2   -0.63    4.35
   0 -11  -1    1.11    2.05
   0 -11   0    6.85    4.93
   0 -11   1    2.62    1.97
   0 -11   2    2.95    4.63
   0 -11   3   14.97    6.16
   0 -11   4    4.46    3.12
   0 -11   5    3.85    4.41
   0 -11   6   -3.16    3.87
   0 -11   7    3.90    3.85
   0 -11   8   -1.39    4.23
   0 -11   9    7.80    3.86
   1   0 -19    2.87    1.86
  -1   0 -18    1.32    1.85
   1   0 -18    2.59    1.81
   1   0 -17   -0.52    1.10
  -1   0 -17   -0.74    1.18
   1   0 -16    0.12    1.13
   1   0 -16   -0.92    0.80
  -1   0 -16   -1.15    1.33
   1   0 -15    0.09    1.08
   1   0 -15    0.92    0.43
  -1   0 -15    0.20    1.02
  -1   0 -14   -0.07    1.08
   1   0 -14   -0.08    0.45
   1   0 -14    0.23    0.90
   1   0 -13   -0.17    0.52
   1   0 -13   -0.66    0.86
  -1   0 -13   -0.10    0.80
   1   0 -12   -0.25    0.45
  -1   0 -12    0.31    0.55
   1   0 -12    0.04    1.05
   1   0 -11    0.38    0.86
  -1   0 -11   -0.54    0.76
   1   0 -11    0.42    0.47
   1   0 -10    0.84    1.23
  -1   0 -10   -0.10    0.69
   1   0 -10    0.40    0.47
   1   0  -9    0.78    1.17
   1   0  -9    0.11    0.21
  -1   0  -9    0.08    0.65
  -1   0  -8    0.91    0.89
   1   0  -8   -0.10    0.22
   1   0  -8    0.81    0.70
   1   0  -7    0.26    0.51
   1   0  -6    0.12    0.58
   1   0  -5   -0.20    0.41
   1   0  -4    0.42    0.63
   1   0  -3    0.04    0.29
   1   0  -2    0.15    0.19
   1   0  -1   -0.06    0.20
   1   0   1    0.18    0.28
   1   0   2    0.51    0.37
   1   0   2   -0.15    0.29
   1   0   3   -0.10    0.29
   1   0   3   -0.14    0.45
   1   0   4    0.33    0.60
   1   0   4    0.24    0.30
   1   0   5    0.08    0.52
  -1   0   5    0.30    0.39
   1   0   5    0.21    0.52
  -1   0   6    0.37    0.89
   1   0   6   -0.93    1.14
   1   0   6    0.19    0.40
   1   0   7    1.81    1.06
  -1   0   7    3.08    1.30
  -1   0   8   -0.81    1.15
   1   0   8    0.92    1.00
  -1   0   9   -0.66    1.00
   1   0   9    0.80    1.47
  -1   0  10   -1.42    0.75
   1   0  10   -0.90    1.10
   1   0  11    0.32    1.68
  -1   0  11    2.83    2.08
  -1   0  12    2.02    1.34
   1   0  12    1.08    1.32
  -1   0  13    1.34    2.08
   1   0  13    1.28    1.38
  -1   0  14    0.40    1.07
   1   0  14    0.35    1.83
  -1   0  15   -0.78    1.76
   1   0  15    1.24    1.95
  -1   0  16   -1.43    2.15
   1   0  16    0.99    1.24
   1   0  17   -2.22    1.79
  -1   0  17   -0.73    1.08
  -1   0  18   -1.01    1.93
   1   0  18   -0.40    1.18
   1   0  19    1.45    1.25
  -1   0  19    0.61    2.91
  -1   0  20   -1.70    2.30
   1   0  20    2.05    2.03
  -1   0  21   -2.39    2.46
   1   0  21   -1.02    2.41
  -1   0  22   -0.11    2.54
   1   0  22    1.25    1.98
   1   0  23   -1.64    3.23
  -1   0  23   -0.04    1.92
  -1   0  24   -2.15    2.57
   1   0  24   -1.80    2.12
   1   0  25   -1.80    2.53
  -1   0  25   -0.35    1.72
  -1   0  26   -1.93    2.18
   1   0  26   -0.08    2.70
   1   0  27    0.35    2.16
   1   0  28   -0.83    3.55
   1   0  29    1.19    3.53
   1   0  30    2.51    2.81
   1   0  31    0.08    3.58
   1  -1 -21   19.53    4.00
   1  -1 -20  164.10   12.76
  -1  -1 -20  172.76   12.04
   1  -1 -19  240.68   14.62
  -1  -1 -19  231.15   13.53
  -1  -1 -18   69.86    7.16
   1   1 -18   66.72    6.35
   1  -1 -18   70.00    7.74
   1  -1 -17  170.20    8.78
   1  -1 -17  194.24   12.33
  -1  -1 -17  192.59   11.66
   1   1 -17  163.16    9.77
   1   1 -16  336.31   13.55
   1  -1 -16  362.52   16.42
  -1  -1 -16  372.02   15.74
  -1   1 -16  344.30   10.19
   1  -1 -16  337.01   12.32
   1  -1 -15   26.56    4.42
  -1  -1 -15   27.43    4.42
   1   1 -15   34.11    4.07
  -1   1 -15   22.20    2.44
  -1  -1 -14  145.71    9.44
   1  -1 -14  125.22    7.09
   1  -1 -14  134.86    9.59
   1   1 -14  136.31    7.94
  -1   1 -14  131.11    5.71
  -1   1 -13  656.24   12.03
   1  -1 -13  707.15   16.27
  -1  -1 -13  706.11   20.05
   1   1 -13  691.78   17.19
   1  -1 -13  649.55   20.22
   1  -1 -12 1549.49   30.05
   1   1 -12 1555.18   24.77
  -1  -1 -12 1605.71   29.10
   1  -1 -11  548.75   13.58
  -1   1 -11  513.04    9.21
   1  -1 -11  525.01   17.02
   1   1 -11  516.92   13.77
  -1   1 -10  821.81   10.38
   1   1 -10  848.15   16.88
   1  -1  -9 1112.29   23.22
   1   1  -9 1151.50   18.75
   1  -1  -9 1101.88   18.15
   1  -1  -8  834.38   19.29
   1   1  -8  835.95   15.53
   1   1  -7 1132.41   17.18
   1  -1  -7 1131.88   21.91
   1  -1  -6 1918.28   21.78
   1  -1  -6 1888.79   26.65
   1   1  -6 1868.18   20.88
   1   1  -5 1020.02   15.17
   1  -1  -5  974.06   18.63
   1   1  -4 2905.53   24.38
   1  -1  -4 2897.21   30.44
   1   1  -3 2392.39   21.89
   1  -1  -3 2319.01   25.56
   1   1  -2   56.68    3.42
   1  -1  -2   65.47    3.74
   1  -1  -2   53.29    3.64
   1  -1  -1 3588.20   27.10
   1   1  -1 3527.01   27.59
   1   1   1 3617.08   29.56
   1  -1   1 3506.75   22.48
  -1   1   1 3493.40   22.15
   1  -1   1 3391.28   26.69
   1   1   1 3607.37   27.63
  -1   1   2   63.69    3.55
   1  -1   2   64.89    2.70
   1  -1   2   66.73    3.74
   1   1   2   60.77    3.96
   1   1   2   64.88    4.05
  -1  -1   3 2323.64   17.47
   1   1   3 2123.69   25.43
   1   1   3 2327.01   25.64
   1  -1   3 2229.97   21.88
  -1   1   3 2199.79   24.26
   1   1   4 2865.18   29.95
  -1  -1   4 2920.21   18.70
   1  -1   4 2897.20   25.49
   1   1   4 2934.91   30.95
   1  -1   4 2883.69   21.98
   1  -1   5 1038.44   15.14
   1   1   5 1063.76   20.24
   1   1   5 1032.83   18.66
  -1   1   5 1031.04   19.58
   1   1   6 1812.80   28.21
   1  -1   6 1726.22   21.17
   1  -1   6 1902.76   22.73
   1   1   6 1876.57   26.09
  -1   1   6 1728.21   27.47
   1  -1   7 1079.77   17.29
   1  -1   7 1132.27   19.68
   1   1   7 1110.41   23.45
   1   1   7 1120.96   21.28
   1   1   8  861.13   21.49
  -1   1   8  828.30   21.22
   1  -1   8  824.75   18.26
   1  -1   8  851.06   15.47
  -1  -1   8  809.97   19.42
   1   1   8  850.97   19.06
   1  -1   9 1095.14   22.58
   1   1   9 1127.30   23.21
   1  -1   9 1119.68   18.60
  -1   1   9 1121.24   25.92
  -1  -1   9 1158.02   24.17
   1  -1  10  842.32   20.82
   1   1  10  852.31   24.15
  -1  -1  10  825.79   21.38
   1  -1  10  868.99   16.54
   1  -1  11  518.08   13.35
  -1  -1  11  499.10   17.82
   1   1  11  560.11   20.37
  -1   1  11  514.71   19.16
   1  -1  11  554.47   17.96
  -1  -1  12 1573.31   32.92
   1   1  12 1509.25   33.99
   1  -1  12 1616.82   32.90
  -1   1  12 1469.46   33.53
   1   1  13  702.78   23.73
   1  -1  13  646.37   21.61
  -1  -1  13  716.34   22.88
  -1   1  13  675.85   23.81
   1   1  14  132.71   10.83
  -1  -1  14  142.56   10.66
  -1   1  14  148.05   11.50
   1  -1  14  147.35   10.43
  -1  -1  15   31.62    5.19
   1  -1  15   26.92    4.96
  -1   1  15   34.09    5.82
   1   1  15   29.44    5.38
   1   1  16  389.06   19.55
  -1  -1  16  355.87   18.14
  -1   1  16  327.69   18.34
   1  -1  16  398.14   18.64
   1   1  17  199.92   14.46
  -1   1  17  172.96   13.38
  -1  -1  17  180.86   13.38
   1  -1  17  191.29   13.63
  -1  -1  18   63.97    8.48
  -1   1  18   84.79    9.92
   1  -1  18   50.95    7.40
   1   1  18   73.61    9.02
  -1  -1  19  244.08   16.43
  -1   1  19  224.55   16.28
   1   1  19  241.90   16.47
   1  -1  19  232.70   16.07
  -1  -1  20  193.98   14.97
   1   1  20  163.33   14.28
  -1   1  20  170.34   14.39
   1  -1  20  151.73   13.00
   1  -1  21   22.86    5.45
  -1  -1  21   14.56    3.89
   1   1  21   25.76    5.76
  -1   1  21   22.97    5.33
   1  -1  22  114.21   12.17
  -1   1  22  108.02   11.85
  -1  -1  22  115.06   12.35
   1   1  22  117.49   12.67
   1   1  23   93.76   11.51
  -1   1  23  120.10   12.91
   1  -1  23   96.31   11.27
  -1   1  24    7.86    3.55
   1   1  24    4.86    4.56
   1  -1  24    6.14    3.98
   1   1  25  227.61   18.21
  -1   1  25  218.63   17.96
   1  -1  25  191.76   16.70
  -1   1  26  228.35   18.78
   1  -1  26  198.61   17.80
   1   1  26  198.17   17.56
   1  -1  27   10.31    4.80
   1   1  27    5.45    3.86
  -1   1  27    1.05    1.99
   1   1  28   67.82   10.82
   1  -1  28   73.40   10.71
  -1   1  28   77.57   11.88
  -1   1  29  153.29   16.29
   1   1  29  168.60   16.92
   1   1  30   67.46   10.38
   1  -2 -22   26.36    6.04
   1  -2 -21   19.65    4.47
  -1  -2 -21   28.21    5.64
   1  -2 -20  109.83   10.81
  -1  -2 -20   84.63    9.15
   1  -2 -19   56.77    7.72
  -1  -2 -19   57.67    6.81
  -1  -2 -19   48.29    7.11
  -1  -2 -18   19.87    4.15
  -1  -2 -18   26.35    4.54
   1  -2 -18   22.22    4.34
   1  -2 -18   25.02    5.16
  -1  -2 -17   56.26    7.24
   1  -2 -17   49.46    5.76
   1  -2 -17   57.88    7.37
   1  -2 -16   83.09    8.50
  -1  -2 -16   82.03    8.27
   1  -2 -16   60.82    6.36
   1   2 -16   73.64    5.72
  -1  -2 -15   10.61    3.11
   1   2 -15   11.60    2.33
   1  -2 -15   14.62    3.37
   1  -2 -15   14.87    3.42
   1  -2 -14  164.57    9.61
   1   2 -14  147.14    7.70
   1  -2 -14  158.69   11.11
  -1  -2 -14  145.05   10.47
   1   2 -13   41.71    4.19
   1  -2 -13   33.62    4.99
   1  -2 -13   38.50    4.59
   1  -2 -12   12.91    2.56
   1   2 -12   18.80    2.64
   1  -2 -12   20.15    4.05
   1  -2 -11    2.04    1.67
   1   2 -11    2.99    0.92
   1  -2 -10   48.84    5.74
   1   2 -10   50.03    4.09
   1  -2 -10   49.59    4.88
   1   2  -9  210.56    8.33
   1  -2  -9  188.55   10.70
   1  -2  -9  207.55    9.82
   1  -2  -8  124.36    7.71
   1  -2  -8  137.91    8.84
   1   2  -8  121.49    6.50
   1  -2  -7  226.70    9.91
  -1   2  -7  207.70    5.39
   1  -2  -7  211.33   10.86
   1  -2  -6  290.04   11.25
  -1   2  -6  302.33    7.04
   1   2  -5   42.59    3.79
   1  -2  -5   40.18    4.08
  -1   2  -5   45.05    3.04
   1   2  -4  196.41    8.02
  -1   2  -4  205.56    6.71
   1  -2  -4  207.67    9.14
   1   2  -3 1493.76   23.07
  -1   2  -3 1577.10   20.06
  -1   2  -2 5367.14   38.82
   1   2  -2 5496.02   44.69
   1   2  -1 4940.01   35.48
   1   2  -1 4904.03   43.38
  -1   2  -1 4902.76   39.30
  -1  -2   0 8630.43   55.27
   1   2   0 8132.25   57.58
   1   2   0 8424.19   47.98
   1  -2   0 8627.34   56.55
  -1   2   0 8345.63   54.09
  -1  -2   1 4743.98   40.58
  -1   2   1 4718.62   32.09
  -1   2   1 5155.78   44.31
   1  -2   1 4998.83   42.53
   1   2   1 4671.59   37.68
   1   2   1 5079.29   45.38
   1   2   2 5181.54   46.70
   1  -2   2 5078.36   42.74
  -1   2   2 5109.31   46.08
  -1  -2   2 5036.97   40.73
  -1   2   2 5034.19   35.97
   1   2   3 1531.88   24.20
   1   2   3 1528.30   26.45
  -1   2   3 1577.69   22.94
  -1  -2   3 1572.43   22.04
   1  -2   3 1559.59   23.97
   1   2   4  182.73    9.37
  -1  -2   4  195.40    7.68
   1   2   4  188.77    9.01
   1  -2   4  202.11    8.56
  -1  -2   5   36.81    3.32
   1  -2   5   42.80    3.95
   1   2   5   45.04    4.73
   1   2   5   45.09    4.67
   1   2   6  276.80   12.25
   1  -2   6  315.82   10.77
  -1  -2   6  297.58    9.06
   1  -2   6  304.42    7.91
  -1   2   6  303.28   12.16
   1   2   6  302.00   12.65
  -1  -2   7  216.90    7.64
   1  -2   7  207.81    7.49
   1   2   7  194.02   10.56
   1  -2   7  200.75    8.66
   1   2   7  223.20   11.19
  -1   2   7  202.61   10.54
   1   2   8  126.58    8.71
   1   2   8  132.15    8.94
  -1   2   8  147.64    9.53
   1  -2   8  129.79    6.52
   1  -2   8  134.90    7.37
  -1  -2   8  132.79    5.84
   1   2   9  189.43   11.13
  -1  -2   9  193.12    6.84
   1  -2   9  199.64    8.82
   1   2   9  197.87   11.19
   1  -2   9  189.42    8.47
  -1   2  10   52.44    6.13
   1   2  10   44.23    5.34
  -1  -2  10   40.48    3.21
   1  -2  10   45.78    4.18
   1   2  10   54.20    6.22
   1  -2  10   45.56    4.67
   1   2  11    2.71    2.00
  -1  -2  11    3.01    0.89
  -1   2  11    4.94    1.81
   1   2  11    7.01    2.50
   1  -2  11    6.35    2.03
   1  -2  11    3.45    0.89
  -1  -2  12   12.76    1.75
   1  -2  12   14.20    2.55
   1  -2  12   14.76    2.95
  -1   2  12   16.62    3.50
   1   2  12   20.36    4.35
   1  -2  13   43.78    4.39
  -1   2  13   45.23    6.17
  -1  -2  13   33.02    2.67
   1  -2  13   41.96    5.33
   1   2  13   36.54    5.90
   1   2  14  142.52   11.78
  -1   2  14  169.50   12.49
   1  -2  14  163.38   10.83
   1  -2  14  131.64    7.84
   1  -2  15   13.75    3.54
   1   2  15   15.13    3.97
   1  -2  15   11.86    2.10
  -1   2  15   17.12    4.21
  -1   2  16   67.69    8.73
   1  -2  16   62.50    7.56
   1   2  17   52.73    7.51
   1  -2  17   52.48    7.12
  -1   2  17   45.33    6.81
  -1   2  18   22.24    4.98
   1  -2  18   27.10    5.30
   1   2  18   20.18    5.29
   1  -2  19   42.14    6.78
   1   2  19   53.87    7.64
  -1   2  19   54.40    8.05
   1  -2  20   93.12   10.53
   1   2  20  105.25   11.84
  -1   2  20  104.48   11.52
   1   2  21   22.77    5.48
  -1   2  21   16.27    4.20
   1  -2  21   13.11    4.18
   1   2  22   28.54    6.84
   1  -2  22   23.97    5.40
  -1   2  22   28.49    6.07
  -1   2  23   20.68    5.71
   1  -2  23   24.98    7.17
   1   2  23   13.45    4.57
   1  -2  24   37.00    7.32
   1   2  24   35.85    7.46
  -1   2  24   40.09    7.42
   1   2  25   52.83    9.18
  -1   2  25   52.85    8.93
  -1   2  26   11.35    4.57
   1   2  26    9.34    4.19
   1   2  27   13.15    5.47
  -1   2  27    5.95    4.26
   1   2  28   31.56    7.02
  -1   2  28   42.87    8.86
   1   2  29   26.73    7.05
  -1   2  29   27.79    7.01
  -1   2  30   39.32    8.39
   1   2  30   42.24    9.26
   1  -3 -23   93.06   11.06
   1  -3 -22  235.68   17.51
  -1  -3 -22  276.24   18.51
   1  -3 -21   53.45    8.33
  -1  -3 -21   45.15    7.35
  -1  -3 -20  275.84   18.23
  -1  -3 -20  254.21   16.03
   1  -3 -20  275.28   18.23
  -1  -3 -19  217.70   15.82
   1  -3 -19  211.29   13.95
   1  -3 -19  252.67   16.86
   1  -3 -18   82.72    8.62
  -1  -3 -18  100.87   10.47
   1  -3 -18  102.09   10.32
  -1  -3 -18   89.43    9.25
   1  -3 -17  256.74   16.39
   1  -3 -17  265.52   15.09
  -1  -3 -17  269.64   15.46
  -1  -3 -17  257.16   16.39
  -1  -3 -16 1101.00   30.96
  -1  -3 -16 1139.34   33.51
   1  -3 -16 1155.14   34.23
   1  -3 -16 1094.86   29.91
   1  -3 -15   97.87    9.64
   1  -3 -15  120.00    9.68
   1   3 -15  108.44    7.22
   1   3 -14  702.72   17.75
  -1  -3 -14  695.03   23.65
   1  -3 -14  641.31   22.62
  -1  -3 -13 1201.54   30.47
   1  -3 -13 1196.65   29.48
   1   3 -13 1280.87   23.65
   1  -3 -13 1174.83   32.63
   1  -3 -12  506.69   19.27
   1  -3 -12  530.79   21.24
  -1  -3 -12  569.67   20.74
   1   3 -12  547.22   15.35
   1   3 -11  336.30   12.04
   1  -3 -11  316.27   16.43
   1  -3 -11  317.17   14.83
  -1   3 -10 1597.62   18.88
   1  -3 -10 1641.76   33.24
   1  -3 -10 1650.72   36.70
   1   3  -9  455.22   14.18
   1  -3  -9  401.76   16.17
   1  -3  -8  225.31   11.81
   1   3  -8  251.82   10.61
  -1   3  -8  240.99    8.42
   1   3  -7  791.22   18.87
  -1   3  -7  775.48   15.60
  -1   3  -6  111.64    6.26
   1  -3  -6  103.45    8.01
   1   3  -6  104.72    6.95
  -1  -3  -6  127.51    8.69
  -1   3  -5  317.52   11.15
   1  -3  -5  331.67   13.99
  -1  -3  -5  346.83   14.26
   1   3  -4 1120.38   18.77
   1   3  -4 1071.95   23.03
  -1   3  -4 1089.95   21.31
  -1  -3  -4 1132.54   25.47
  -1  -3  -3  278.34   12.46
   1   3  -3  263.04    9.01
   1  -3  -3  249.83   11.89
   1   3  -3  258.44   11.60
  -1   3  -3  263.80   10.71
   1   3  -2  306.25    9.99
   1   3  -2  332.82   13.19
   1  -3  -2  295.84   12.91
  -1  -3  -2  297.06   12.71
  -1   3  -2  315.76   11.90
  -1  -3  -1 1186.99   25.07
   1   3  -1 1151.05   25.09
   1   3  -1 1175.99   20.04
   1  -3  -1 1181.54   25.43
   1   3   0 2316.47   35.70
   1  -3   0 2297.84   35.14
  -1  -3   0 2263.46   34.49
   1   3   0 2352.73   29.57
  -1   3   0 2311.17   34.95
   1   3   1 1355.28   22.97
  -1   3   1 1290.06   19.81
   1   3   1 1231.40   26.48
  -1  -3   1 1126.98   23.93
  -1   3   1 1120.42   24.91
   1  -3   1 1151.92   24.88
   1  -3   2  287.65   12.37
   1   3   2  268.57   10.89
  -1  -3   2  285.95   11.90
  -1   3   2  328.42   10.90
  -1   3   2  309.95   13.38
   1   3   2  312.83   13.78
  -1   3   3  298.04   11.07
   1   3   3  287.70   13.40
   1   3   3  282.42   11.51
   1  -3   3  281.81   12.16
  -1   3   3  305.94   13.55
  -1  -3   3  296.33   12.07
  -1   3   4 1200.31   23.64
   1   3   4 1185.58   27.68
   1   3   4 1144.88   24.14
  -1  -3   4 1127.41   23.79
  -1   3   4 1191.90   27.49
  -1   3   5  324.94   14.84
   1  -3   5  347.52   13.38
  -1  -3   5  337.60   12.77
   1   3   5  323.82   13.52
  -1   3   5  292.46   12.23
   1   3   5  329.90   15.17
  -1   3   6  108.94    7.93
   1  -3   6  106.87    7.59
  -1  -3   6  116.36    7.36
   1   3   6  118.17    8.61
   1   3   6  121.30    9.23
   1   3   7  703.25   22.93
   1   3   7  770.08   22.35
  -1   3   7  730.82   21.28
  -1  -3   7  713.86   18.21
   1  -3   7  740.71   19.51
   1  -3   8  235.26   11.21
   1   3   8  228.28   12.72
  -1  -3   8  230.19   10.19
  -1   3   8  249.40   13.13
   1   3   8  230.21   13.23
   1   3   9  382.73   16.91
   1  -3   9  401.52   14.60
   1   3   9  387.41   17.70
  -1  -3   9  412.92   13.44
  -1   3   9  408.29   17.38
  -1   3  10 1625.89   35.91
   1   3  10 1685.00   36.75
  -1  -3  10 1718.09   27.04
   1   3  10 1611.96   36.61
   1  -3  10 1637.36   29.73
  -1  -3  11  318.73   11.61
   1   3  11  320.86   16.69
   1   3  11  281.22   15.75
  -1   3  11  290.26   15.90
   1  -3  11  292.91   12.88
  -1   3  12  558.94   22.35
   1  -3  12  518.69   16.81
   1   3  12  498.95   21.20
   1   3  12  569.58   23.00
  -1  -3  12  515.83   14.63
   1   3  13 1164.81   33.49
   1  -3  13 1221.67   25.90
  -1  -3  13 1129.79   21.04
   1   3  14  786.03   28.25
   1  -3  14  720.29   20.07
  -1   3  14  770.40   27.63
   1   3  15  122.44   11.64
  -1   3  15  118.45   10.76
   1   3  16 1151.83   35.25
  -1   3  16 1155.26   35.41
  -1   3  17  285.53   17.90
   1   3  17  276.78   17.73
   1   3  18   88.35   10.38
  -1   3  18   81.37   10.03
  -1   3  19  251.71   17.29
   1   3  19  247.19   17.63
   1   3  20  256.47   18.25
  -1   3  20  263.73   18.39
   1   3  21   47.22    8.20
  -1   3  21   50.92    8.41
   1   3  22  265.82   19.61
  -1   3  22  257.93   18.87
   1   3  23  101.02   12.35
  -1   3  23  106.86   12.31
   1   3  24   42.24    8.21
  -1   3  24   48.11    8.55
   1   3  25   82.84   11.19
  -1   3  25   79.00   11.01
  -1   3  26  116.97   13.66
   1   3  26  151.03   15.26
   1   3  27    8.63    2.41
  -1   3  27   11.75    4.11
  -1   3  28   34.81    7.89
   1   3  28   34.45    7.79
  -1   3  29   78.30   11.91
   1   3  29   79.41   10.99
   1   3  30   38.12    8.64
  -1   3  30   49.07    9.76
   1  -4 -24    8.58    3.72
   1  -4 -23   36.65    7.64
  -1  -4 -23   51.88    9.20
  -1  -4 -22   49.36    8.78
   1  -4 -22   53.52    8.54
  -1  -4 -21   82.31   10.66
   1  -4 -21   73.49    9.96
   1  -4 -20   13.01    5.01
  -1  -4 -20   10.60    3.70
  -1  -4 -20    6.38    4.04
   1  -4 -19   18.59    5.69
  -1  -4 -19   11.41    4.43
   1  -4 -19   15.71    3.81
  -1  -4 -19   11.45    4.52
   1  -4 -18   45.44    7.89
  -1  -4 -18   32.98    6.14
  -1  -4 -18   36.66    7.20
   1  -4 -18   32.56    6.23
   1  -4 -17   50.66    7.63
  -1  -4 -17   37.96    6.30
  -1  -4 -17   40.73    7.29
   1  -4 -17   45.76    6.83
  -1  -4 -16   22.48    4.75
   1  -4 -16   27.19    5.96
   1  -4 -16   20.77    4.19
   1  -4 -15   48.46    7.31
   1  -4 -15   35.08    5.54
  -1  -4 -15   39.37    6.23
   1  -4 -14   12.25    3.73
   1  -4 -14   17.08    4.51
   1   4 -14    9.87    2.82
  -1  -4 -14   13.36    3.94
   1   4 -13   10.53    2.28
   1  -4 -13   13.37    3.80
  -1  -4 -13    6.39    2.68
   1  -4 -13   15.56    4.04
  -1  -4 -12  213.73   13.62
   1  -4 -12  230.39   14.18
   1  -4 -12  238.44   15.29
   1   4 -12  229.35   11.45
   1  -4 -11   81.70    8.47
   1   4 -11   85.11    7.25
   1  -4 -11   74.12    8.53
  -1  -4 -11   96.41    8.96
  -1   4 -11   82.01    5.48
  -1   4 -10  323.62   11.49
   1   4 -10  308.04   13.57
   1  -4 -10  340.27   16.87
  -1  -4 -10  316.65   16.12
  -1  -4  -9  530.39   20.75
  -1   4  -9  555.03   15.90
   1   4  -9  507.29   18.09
   1   4  -8  232.38   11.94
   1  -4  -8  213.44   13.23
  -1   4  -8  220.37   10.34
  -1  -4  -8  231.96   13.49
   1  -4  -7    7.42    2.83
  -1   4  -7    7.89    1.13
  -1  -4  -7    9.81    2.73
   1   4  -7    7.07    1.77
  -1   4  -7    9.66    2.41
   1   4  -6  138.22    7.60
   1   4  -6  119.93    8.76
   1  -4  -6  115.51    9.31
  -1   4  -6  137.90    8.53
  -1  -4  -5  158.04   10.94
   1   4  -5  138.12    7.31
   1  -4  -5  155.36   10.67
  -1   4  -5  146.81    9.30
   1   4  -5  145.10    9.72
   1   4  -4   87.30    7.61
   1  -4  -4  102.30    8.44
   1   4  -4   88.62    5.82
  -1   4  -4   92.03    7.19
  -1  -4  -4   85.02    8.02
  -1   4  -3  126.88    4.15
   1   4  -3  115.95    6.75
  -1  -4  -3  117.82    9.29
   1  -4  -3  115.74    9.25
   1   4  -3  129.10    9.54
  -1  -4  -2  412.20   17.09
   1   4  -2  397.28   16.51
   1   4  -2  388.21   12.39
   1  -4  -2  369.51   16.20
  -1   4  -2  419.89   16.57
  -1   4  -1  850.37   23.71
   1  -4  -1  798.92   23.82
   1   4  -1  793.82   18.40
   1   4  -1  780.32   23.66
  -1   4  -1  762.88   13.97
  -1  -4  -1  775.36   23.38
  -1  -4   0 1826.28   35.42
   1   4   0 1792.01   36.01
   1  -4   0 1849.86   36.03
  -1   4   0 1856.73   24.35
  -1   4   0 1880.12   35.97
   1   4   1  814.75   24.50
  -1   4   1  749.74   16.80
   1  -4   1  750.66   22.80
  -1  -4   1  775.17   22.85
   1   4   1  831.17   20.19
  -1   4   1  789.37   23.67
   1  -4   2  387.52   16.33
   1   4   2  380.10   16.98
  -1   4   2  387.50   13.01
   1   4   2  376.17   14.03
  -1   4   2  392.43   16.81
  -1  -4   2  368.93   16.08
   1   4   3  115.49    8.13
   1  -4   3  150.29   10.10
  -1   4   3  134.73    8.11
  -1   4   3  154.49   10.88
  -1  -4   3  132.85    9.55
   1  -4   4   91.53    8.04
  -1  -4   4   78.38    7.07
   1   4   4   86.38    7.27
   1   4   4   73.26    7.77
  -1   4   4   65.00    7.16
  -1   4   4   94.47    7.16
   1  -4   5  143.26    9.91
  -1   4   5  117.43    9.92
   1   4   5  152.18   11.36
  -1   4   5  144.13    9.45
   1   4   5  149.06    9.84
  -1  -4   5  125.04    8.98
   1  -4   6  128.29    9.48
  -1  -4   6  133.64    9.29
  -1   4   6  149.18   11.29
  -1   4   6  116.16    8.75
   1   4   6  118.16    9.16
   1   4   6  125.94   10.76
   1   4   7    4.35    1.93
  -1   4   7   13.10    3.30
   1   4   7   10.76    2.91
  -1  -4   7   10.18    2.48
   1  -4   7   10.99    3.12
  -1  -4   8  217.81   11.69
   1   4   8  228.79   13.46
   1   4   8  199.64   13.69
   1  -4   8  237.17   12.90
  -1   4   9  496.16   20.10
   1   4   9  517.19   22.17
  -1  -4   9  511.67   17.89
   1  -4   9  520.52   19.12
   1   4  10  322.75   16.84
   1   4  10  293.26   16.92
  -1   4  10  292.29   15.84
   1  -4  10  328.17   15.16
  -1  -4  10  356.54   14.89
   1   4  11   95.12    9.50
   1   4  11   93.81    9.68
  -1   4  11   84.46    8.68
  -1  -4  11   81.03    7.23
   1  -4  11   82.35    7.84
   1   4  12  225.62   15.52
   1  -4  12  236.53   12.91
  -1   4  12  210.92   14.12
  -1  -4  12  220.02   11.65
   1   4  12  226.05   15.14
  -1  -4  13   12.86    2.82
   1   4  13   11.69    3.31
   1   4  13   11.84    4.58
  -1   4  13    6.30    2.94
   1  -4  13    7.11    2.64
   1   4  14   21.52    5.54
  -1   4  14   13.92    3.73
   1  -4  14   10.32    3.13
   1   4  15   38.86    6.79
  -1   4  15   42.18    7.10
   1   4  16   19.72    5.25
  -1   4  16   28.83    5.97
  -1   4  17   58.37    8.86
   1   4  17   49.02    7.75
  -1   4  18   51.71    8.05
   1   4  18   39.88    7.34
   1   4  19   16.32    5.18
  -1   4  19   20.30    5.87
  -1   4  20    5.02    4.20
   1   4  20    1.38    2.02
   1   4  21   64.62    9.67
  -1   4  21   64.47    9.10
  -1   4  22   65.20    9.77
   1   4  22   42.62    7.81
   1   4  23   67.19   10.48
  -1   4  23   63.07    9.93
   1   4  24   15.56    5.46
  -1   4  24   13.87    4.65
  -1   4  25   11.00    5.52
   1   4  25    9.66    4.25
   1   4  26   15.41    5.17
  -1   4  26   12.65    4.34
  -1   4  27    1.87    2.56
   1   4  27   -4.57    3.96
   1   4  28   17.49    6.04
  -1   4  28    4.99    2.45
   1   4  29    4.18    3.05
  -1   4  29   10.92    3.45
   1  -5 -25   26.65    5.89
   1  -5 -24    7.66    5.96
  -1  -5 -24    0.16    2.35
   1  -5 -23   57.59    9.11
  -1  -5 -23   45.98    9.16
  -1  -5 -22  175.31   16.68
   1  -5 -22  176.77   16.23
  -1  -5 -21   40.63    8.03
  -1  -5 -21   44.36    7.55
   1  -5 -21   37.90    7.64
   1  -5 -20   50.54    8.41
  -1  -5 -20   56.96    9.17
  -1  -5 -20   37.96    7.26
   1  -5 -19  152.50   14.77
  -1  -5 -19  145.78   14.14
   1  -5 -19  147.23   13.44
  -1  -5 -19  136.01   13.10
   1  -5 -18   55.52    8.09
   1  -5 -18   71.11    9.81
  -1  -5 -18   57.28    8.86
  -1  -5 -18   69.44    9.98
  -1  -5 -17   31.93    6.71
   1  -5 -17   27.61    5.57
   1  -5 -17   27.41    6.18
  -1  -5 -17   30.54    6.78
   1  -5 -16  457.29   22.63
  -1  -5 -16  385.57   21.67
   1  -5 -16  423.18   23.12
   1  -5 -15  110.55   11.63
  -1  -5 -15  134.98   12.24
   1  -5 -15  103.29   10.75
   1  -5 -14   77.94    9.64
  -1  -5 -14   71.96    8.95
   1  -5 -14   96.66   10.34
   1  -5 -13  318.00   18.38
  -1  -5 -13  359.73   19.40
   1  -5 -13  376.68   20.69
   1   5 -13  328.14   15.28
   1  -5 -12  297.14   17.69
  -1   5 -12  266.04   12.13
   1  -5 -12  280.29   17.72
   1   5 -12  288.09   14.59
   1   5 -11   43.15    5.66
  -1  -5 -11   41.24    7.16
  -1   5 -11   46.25    5.25
   1  -5 -11   37.99    6.41
  -1   5 -10  613.75   19.54
   1  -5 -10  678.33   25.82
   1   5 -10  650.98   22.57
  -1  -5 -10  595.25   25.20
  -1   5  -9  384.66   15.81
   1  -5  -9  381.25   19.19
   1   5  -9  384.60   14.12
   1   5  -9  372.50   16.91
   1   5  -8   74.47    7.45
  -1   5  -8   78.15    7.24
   1   5  -8   65.62    5.79
   1  -5  -8   79.71    8.38
   1   5  -7  346.35   12.64
   1  -5  -7  340.34   17.72
  -1  -5  -7  378.79   18.66
   1   5  -7  354.43   16.93
  -1   5  -7  359.30   16.18
   1   5  -6  353.57   12.82
  -1   5  -6  361.00   16.32
   1  -5  -6  370.34   18.56
   1   5  -6  386.37   17.73
   1   5  -5   77.87    5.95
  -1  -5  -5   74.55    8.20
  -1   5  -5   72.13    7.67
   1   5  -5   85.81    8.48
   1  -5  -5   83.09    8.72
  -1  -5  -4  464.14   20.18
   1   5  -4  477.04   14.40
  -1   5  -4  446.53   18.51
   1  -5  -4  465.39   20.19
   1   5  -4  487.67   20.25
  -1   5  -3  612.21   22.03
  -1  -5  -3  587.39   22.42
  -1   5  -3  539.40   11.00
   1   5  -3  705.59   24.30
   1   5  -3  668.88   17.36
   1  -5  -3  591.85   22.80
   1   5  -2  120.29    7.86
  -1   5  -2  138.79   10.41
   1   5  -2  128.13   10.30
  -1  -5  -2  111.02    9.80
  -1   5  -2  121.53    5.82
   1  -5  -2  139.88   11.29
   1  -5  -1   54.04    6.67
   1   5  -1   60.20    5.68
  -1  -5  -1   56.96    7.02
   1   5  -1   50.48    6.61
  -1   5  -1   42.91    4.01
  -1   5  -1   53.63    6.66
  -1  -5   0  340.58   17.01
   1   5   0  352.68   13.96
  -1   5   0  336.73   16.90
   1   5   0  308.53   16.73
   1  -5   0  363.67   17.59
  -1   5   0  317.05   11.38
   1   5   1   45.17    6.31
  -1   5   1   46.18    6.60
  -1  -5   1   60.38    7.46
   1  -5   1   40.89    5.74
   1   5   1   63.91    5.96
   1   5   2  133.57    9.11
   1  -5   2  111.15    9.58
  -1   5   2  114.86    7.92
  -1   5   2  114.90   10.17
  -1  -5   2  103.46    9.31
   1   5   2  100.22    9.82
   1   5   3  635.22   24.45
   1  -5   3  598.55   22.33
  -1   5   3  606.91   23.41
  -1  -5   3  620.31   22.74
   1   5   3  594.21   19.83
  -1   5   3  647.80   19.35
  -1   5   4  463.80   17.61
  -1  -5   4  438.52   18.94
  -1   5   4  474.54   21.17
   1   5   4  431.80   20.56
   1   5   4  439.06   17.81
   1  -5   4  432.92   19.16
   1   5   5   74.83    7.72
   1   5   5   73.03    8.81
  -1   5   5   67.81    7.18
  -1   5   5   79.40    8.62
   1  -5   5   87.72    8.63
  -1  -5   5   81.91    8.34
  -1  -5   6  358.72   17.11
   1  -5   6  348.76   17.30
   1   5   6  360.95   16.91
  -1   5   6  397.05   17.33
  -1   5   6  360.01   19.26
   1   5   6  351.61   19.04
   1  -5   7  375.74   17.71
   1   5   7  358.15   19.39
  -1   5   7  347.35   16.54
   1   5   7  316.52   16.32
  -1  -5   7  367.20   17.38
   1   5   8   73.53    7.97
   1  -5   8   79.46    8.26
   1   5   8   69.58    8.99
  -1  -5   8   69.38    7.53
  -1   5   8   79.19    8.15
   1   5   9  349.30   17.92
   1   5   9  339.44   19.32
  -1  -5   9  373.01   17.46
   1  -5   9  367.49   17.64
  -1   5   9  363.42   17.95
   1   5  10  667.31   25.37
  -1  -5  10  587.84   22.04
  -1   5  10  627.13   24.23
   1   5  10  610.95   26.08
   1  -5  10  617.35   23.08
  -1  -5  11   52.52    6.89
   1  -5  11   57.09    7.22
   1   5  11   44.24    7.24
   1   5  11   68.14    8.35
  -1   5  11   34.17    5.86
   1   5  12  281.32   18.30
  -1  -5  12  257.97   14.79
   1  -5  12  266.03   15.29
  -1   5  12  292.59   17.47
   1   5  12  304.02   18.18
  -1  -5  13  373.17   17.46
   1   5  13  317.97   18.94
   1  -5  13  341.85   17.50
   1   5  13  366.52   21.22
  -1   5  13  343.70   19.70
   1   5  14   87.48    9.95
  -1   5  14   78.22    9.32
   1  -5  14   61.32    8.04
  -1   5  15  119.78   12.00
   1   5  15  114.54   11.98
  -1   5  16  366.84   21.39
   1   5  16  442.20   23.52
  -1   5  17   27.60    6.70
   1   5  17   28.21    5.86
  -1   5  18   74.79   10.44
   1   5  18   74.42    9.88
   1   5  19  145.66   13.97
  -1   5  19  153.30   14.30
   1   5  20   44.02    8.16
  -1   5  20   46.06    8.14
   1   5  21   47.02    8.49
  -1   5  21   34.53    6.99
  -1   5  22  189.95   16.68
   1   5  22  214.42   18.20
   1   5  23   44.29    8.26
  -1   5  23   55.50    9.58
   1   5  24    1.55    3.38
  -1   5  24    3.64    3.90
  -1   5  25   37.73    8.28
   1   5  25   33.45    7.54
   1   5  26   44.75    8.83
  -1   5  26   63.72   10.70
  -1   5  27    0.34    3.94
   1   5  27   -0.27    2.02
  -1   5  28   23.21    6.43
   1   5  28   29.64    7.57
   1  -6 -26    4.92    4.24
   1  -6 -25    0.86    4.41
  -1  -6 -25    5.74    5.90
  -1  -6 -24   -0.36    4.63
   1  -6 -24    4.24    3.71
   1  -6 -23    7.72    3.91
  -1  -6 -23   12.73    4.80
  -1  -6 -22   14.60    4.99
   1  -6 -22   22.07    7.05
   1  -6 -21    9.92    4.60
  -1  -6 -21    7.07    4.94
  -1  -6 -21   16.76    5.09
   1  -6 -20    7.33    2.46
   1  -6 -20    0.31    3.93
  -1  -6 -20    4.04    4.84
  -1  -6 -20    5.77    4.26
   1  -6 -19   18.61    5.63
  -1  -6 -19   18.68    6.04
   1  -6 -19   13.88    4.99
  -1  -6 -19   15.21    5.46
   1  -6 -18   11.82    5.24
   1  -6 -18    4.32    1.63
  -1  -6 -18    5.31    3.81
  -1  -6 -17    6.60    4.09
   1  -6 -17    5.27    1.69
  -1  -6 -17   12.63    4.90
   1  -6 -16    3.13    2.53
  -1  -6 -16    5.36    1.93
   1  -6 -16    7.10    3.62
  -1  -6 -15   22.29    5.02
   1  -6 -15   18.99    4.82
   1  -6 -15   23.45    5.75
  -1  -6 -14    8.28    3.45
   1  -6 -14   14.93    4.96
   1  -6 -14   19.54    5.99
   1  -6 -13   28.26    5.65
   1  -6 -13   26.07    6.68
  -1  -6 -13   24.94    6.21
   1   6 -12   70.17    8.14
   1  -6 -12   63.81    8.67
  -1  -6 -12   60.43    8.62
   1  -6 -12   52.61    8.36
  -1  -6 -11   35.38    6.35
  -1   6 -11   34.64    5.46
   1   6 -11   32.38    6.03
   1  -6 -11   42.92    7.18
   1   6 -10   20.32    4.24
  -1  -6 -10   23.49    5.46
   1  -6 -10   23.20    5.37
  -1   6 -10   23.94    4.54
   1  -6  -9    4.83    2.16
  -1   6  -9   11.38    3.01
   1   6  -9    6.76    2.33
  -1  -6  -9    6.24    2.35
   1  -6  -8    7.59    3.33
   1   6  -8    6.31    3.13
  -1   6  -8    1.54    1.65
  -1  -6  -8    1.32    1.43
   1  -6  -7   77.78    9.22
  -1   6  -7   79.60    8.36
   1   6  -7   71.46    5.96
  -1  -6  -7   78.63    9.23
   1   6  -7   73.80    8.86
   1  -6  -6  181.47   13.71
  -1   6  -6  162.21   12.23
  -1  -6  -6  168.02   13.45
   1   6  -6  155.33   12.08
   1   6  -6  139.76    8.17
   1   6  -5  119.90    7.94
   1  -6  -5  157.71   12.96
  -1  -6  -5  159.70   12.88
   1   6  -5  142.09   11.72
  -1   6  -5  149.08   11.70
  -1   6  -4  172.64   12.76
   1   6  -4  158.18    9.02
  -1  -6  -4  149.39   12.58
   1   6  -4  148.91   12.12
   1  -6  -4  170.69   13.39
   1   6  -3  150.79    9.24
  -1   6  -3  155.39    6.68
   1   6  -3  169.93   12.98
   1  -6  -3  159.54   12.94
  -1  -6  -3  169.56   13.02
  -1   6  -3  152.35   12.06
   1  -6  -2  138.90   11.87
  -1   6  -2  170.00   12.97
  -1  -6  -2  169.29   13.08
  -1   6  -2  161.83    7.50
   1   6  -2  184.80   14.81
   1   6  -2  143.33    9.14
   1   6  -1   30.17    4.06
   1   6  -1   27.16    5.35
  -1   6  -1   41.71    4.26
  -1   6  -1   38.63    6.35
   1  -6  -1   32.89    6.02
  -1  -6  -1   27.20    5.59
  -1   6   0   53.53    7.61
   1  -6   0   66.77    8.28
   1   6   0   48.49    5.64
  -1  -6   0   48.81    6.88
  -1   6   0   52.56    5.18
   1   6   0   49.49    7.45
   1   6   1   25.66    4.59
  -1   6   1   25.19    5.25
   1   6   1   30.56    4.78
  -1  -6   1   37.74    6.05
  -1   6   1   33.73    4.26
   1  -6   1   33.49    5.67
   1   6   2  175.53   11.44
  -1  -6   2  167.37   13.09
  -1   6   2  136.91    9.54
   1  -6   2  142.45   11.89
  -1   6   2  184.81   13.61
   1   6   2  175.59   14.03
  -1   6   3  175.38   13.87
   1  -6   3  130.01   11.73
  -1  -6   3  176.36   13.28
   1   6   3  158.02   13.37
   1   6   3  145.75   10.82
  -1   6   3  155.17   10.34
  -1  -6   4  175.71   13.09
   1   6   4  131.26   10.46
   1   6   4  156.98   13.16
   1  -6   4  146.93   12.27
  -1   6   4  154.10   13.23
  -1   6   4  174.35   11.47
  -1   6   5  135.69   12.44
   1   6   5  139.91   11.10
   1   6   5  142.28   13.08
   1  -6   5  142.36   12.07
  -1  -6   5  144.05   12.00
  -1   6   5  156.16   11.14
  -1   6   6  177.44   14.61
  -1  -6   6  151.76   12.43
   1   6   6  182.70   14.70
  -1   6   6  156.26   11.28
   1   6   6  158.32   11.55
   1  -6   6  147.76   12.43
   1  -6   7   82.38    8.98
   1   6   7   60.01    7.07
  -1  -6   7   82.42    9.05
  -1   6   7   62.24    7.65
   1   6   7   92.36   10.62
   1  -6   8    3.75    2.49
  -1  -6   8   -0.31    2.24
   1   6   8    6.26    2.49
   1   6   8   -0.57    1.81
  -1   6   8   -0.41    1.19
   1  -6   9    3.20    1.52
   1   6   9    9.47    3.29
  -1   6   9    8.77    1.66
  -1  -6   9    7.84    3.13
   1   6   9    6.63    2.98
   1   6  10   22.05    4.73
   1   6  10   10.88    5.10
  -1   6  10   17.21    4.42
  -1  -6  10   16.89    4.49
   1  -6  10   22.43    5.25
   1  -6  11   35.18    6.35
   1   6  11   34.25    6.31
  -1  -6  11   40.68    6.75
  -1   6  11   44.89    7.22
   1   6  11   33.65    6.33
  -1   6  12   65.38    8.59
   1  -6  12   65.06    8.23
   1   6  12   68.46    9.35
  -1  -6  12   54.05    7.75
   1   6  12   45.59    6.86
   1   6  13   28.32    6.22
  -1   6  13   29.39    6.45
   1   6  13   29.43    6.41
   1  -6  13   22.25    4.89
  -1   6  14    7.12    4.08
   1  -6  14   -5.30    2.41
  -1   6  15   12.37    3.73
   1   6  15    9.37    4.81
   1   6  16   12.24    5.02
  -1   6  16   13.05    5.54
  -1   6  17    5.66    2.78
   1   6  17    4.93    3.95
  -1   6  18    7.05    2.98
   1   6  18    1.15    3.83
  -1   6  19    8.77    4.25
   1   6  19   16.57    4.64
  -1   6  20    0.97    2.70
   1   6  20    8.26    4.53
  -1   6  21   14.42    5.68
   1   6  21   18.50    5.97
  -1   6  22   15.65    4.59
   1   6  22   29.97    6.90
   1   6  23   10.44    5.11
  -1   6  23    6.38    2.18
   1   6  24   11.94    5.09
  -1   6  24    5.89    4.60
   1   6  25    9.55    3.99
  -1   6  25   13.70    4.55
  -1   6  26    4.41    3.56
   1   6  26   16.65    6.08
   1  -7 -24    8.77    6.16
  -1  -7 -24   18.30    5.94
  -1  -7 -23   88.28   13.06
   1  -7 -23   96.08   12.54
  -1  -7 -22   75.88   11.90
   1  -7 -22   72.12   10.95
  -1  -7 -22   68.32   11.07
   1  -7 -21   14.67    5.79
  -1  -7 -21   12.66    4.84
   1  -7 -21    6.61    3.20
  -1  -7 -21   19.26    5.83
   1  -7 -20   31.12    7.42
   1  -7 -20   53.19    9.80
  -1  -7 -20   48.94    9.12
  -1  -7 -20   48.75    8.12
   1  -7 -19   42.75    8.67
  -1  -7 -19   46.46    9.50
  -1  -7 -19   44.62    8.43
   1  -7 -19   62.36   10.30
  -1  -7 -18    7.75    2.95
  -1  -7 -18    3.03    2.35
   1  -7 -18    2.82    2.41
   1  -7 -18    5.84    3.47
  -1  -7 -17   40.16    8.14
   1  -7 -17   42.20    9.25
  -1  -7 -17   47.57    8.02
   1  -7 -17   44.15    8.48
  -1  -7 -16  106.83   12.82
   1  -7 -16  106.68   13.11
   1  -7 -16   78.82   10.81
   1  -7 -15   20.05    5.98
   1  -7 -15   14.23    5.49
  -1  -7 -15   23.09    5.74
  -1  -7 -14   23.67    6.32
   1  -7 -14   20.09    5.52
   1  -7 -14   15.38    5.49
  -1  -7 -13   30.49    6.78
   1  -7 -13   59.21    9.47
   1  -7 -13   52.02    8.98
   1  -7 -12   47.06    8.32
   1  -7 -12   50.35    8.93
  -1  -7 -12   31.93    8.30
   1  -7 -11    6.82    4.38
   1   7 -11    5.85    2.92
  -1  -7 -11   10.67    5.11
  -1   7 -10  194.93   14.13
   1   7 -10  223.24   16.29
   1  -7 -10  197.17   16.23
   1  -7  -9  133.16   13.29
  -1   7  -9  119.69   11.21
  -1  -7  -9  131.05   12.82
  -1  -7  -8    2.15    4.02
   1  -7  -8   -1.61    3.30
   1   7  -8   -0.18    1.61
  -1   7  -8    6.05    3.43
  -1   7  -7  153.22   12.94
   1  -7  -7  177.18   14.90
  -1  -7  -7  162.50   14.07
   1   7  -6  379.31   20.96
   1  -7  -6  381.57   21.67
  -1  -7  -6  406.15   22.51
  -1   7  -6  356.98   19.66
  -1  -7  -5   66.16    8.79
   1   7  -5   82.78   10.13
   1  -7  -5   58.98    8.48
  -1   7  -5   51.36    8.15
  -1  -7  -4  183.54   14.83
  -1   7  -4  168.80   13.87
   1  -7  -4  181.96   14.62
   1   7  -4  174.75   14.50
  -1   7  -3  445.88   22.33
   1  -7  -3  444.08   23.17
   1   7  -3  492.72   24.10
  -1  -7  -3  443.50   22.97
  -1  -7  -2  166.73   14.32
  -1   7  -2  227.76   16.24
   1   7  -2  198.32   15.57
   1  -7  -2  213.46   15.78
   1   7  -2  224.49   12.27
  -1  -7  -1    4.40    2.10
  -1   7  -1    5.34    2.03
   1  -7  -1   -0.01    1.65
   1   7  -1    0.17    1.03
   1   7  -1    3.07    3.04
  -1   7   0   92.89    7.84
   1  -7   0   95.35   10.82
   1   7   0  107.62    9.15
  -1   7   0   78.14   10.03
   1   7   0  118.57   11.96
  -1  -7   0   83.41    9.72
   1  -7   1    5.44    3.41
  -1   7   1    3.25    1.38
  -1   7   1    1.94    2.60
   1   7   1    4.51    3.19
   1   7   1    2.73    1.88
  -1  -7   1    2.14    1.69
   1  -7   2  207.33   15.62
   1   7   2  217.83   13.24
   1   7   2  198.25   15.96
  -1  -7   2  243.13   16.89
  -1   7   2  225.01   16.81
  -1   7   2  214.10   12.38
  -1  -7   3  481.77   23.65
   1  -7   3  455.23   23.01
  -1   7   3  424.84   22.96
   1   7   3  483.30   20.94
   1   7   3  495.10   24.84
  -1   7   3  398.89   17.61
  -1  -7   4  183.30   14.85
   1   7   4  193.93   15.40
   1  -7   4  186.24   14.67
  -1   7   4  206.34   13.13
  -1   7   4  198.85   15.80
   1   7   4  177.21   12.86
   1   7   5   76.94   10.01
  -1   7   5   68.83    9.40
   1   7   5   99.03    9.88
   1  -7   5   68.77    8.95
  -1   7   5   79.30    8.49
  -1  -7   5   75.04    9.91
   1  -7   6  352.67   20.70
  -1  -7   6  372.60   20.66
  -1   7   6  411.39   19.79
   1   7   6  377.92   22.15
   1   7   6  427.96   21.16
   1   7   7  160.75   14.72
   1  -7   7  163.42   13.99
  -1  -7   7  163.21   13.90
   1   7   7  156.28   13.06
  -1   7   7  162.33   12.75
   1   7   8    6.95    4.12
  -1   7   8    4.09    2.61
   1   7   8    7.50    4.35
   1  -7   8    4.47    3.10
  -1  -7   8    3.68    1.76
   1  -7   9  113.39   11.99
  -1   7   9  143.86   12.47
   1   7   9  126.22   11.97
   1   7   9  123.30   13.08
  -1  -7   9  135.80   12.71
   1   7  10  169.90   15.37
   1  -7  10  217.90   16.34
  -1   7  10  211.72   15.63
  -1  -7  10  206.18   15.88
   1   7  10  227.66   17.17
   1  -7  11   13.11    4.18
   1   7  11    8.80    3.40
   1   7  11    8.80    3.48
  -1   7  11    2.61    1.91
  -1  -7  11    6.99    4.05
  -1   7  12   38.07    7.14
   1   7  12   40.31    7.88
   1  -7  12   35.94    7.01
  -1  -7  12   41.34    7.42
   1   7  12   38.15    7.67
  -1   7  13   46.23    8.33
   1   7  13   50.41    7.30
   1  -7  13   54.28    8.46
  -1   7  14   24.39    5.63
   1   7  14   17.33    4.54
  -1   7  15   15.37    5.86
   1   7  15   17.51    5.29
  -1   7  16  102.51   12.00
   1   7  16  107.77   12.48
  -1   7  17   69.89    9.91
   1   7  17   40.47    7.12
  -1   7  18    5.58    3.61
   1   7  18    2.14    2.52
  -1   7  19   62.26   10.03
   1   7  19   65.77   10.46
   1   7  20   41.30    9.59
  -1   7  20   46.64    8.40
  -1   7  21   16.07    4.93
   1   7  21   10.04    4.32
  -1   7  22   76.18   11.43
   1   7  22   88.06   12.25
  -1   7  23   95.74   12.88
   1   7  23   98.28   12.84
   1   7  24   18.67    6.04
  -1   7  24   34.56    8.62
  -1  -8 -22    9.90    5.47
   1  -8 -22   11.45    4.67
  -1  -8 -22   12.23    5.53
  -1  -8 -21    0.08    4.57
   1  -8 -21    0.65    4.91
   1  -8 -21    3.73    5.20
  -1  -8 -21    3.48    3.91
  -1  -8 -20    1.61    2.48
   1  -8 -20    4.42    4.92
   1  -8 -20   -3.29    4.71
  -1  -8 -20    1.44    2.29
  -1  -8 -19    1.45    3.09
   1  -8 -19    5.80    3.97
  -1  -8 -19    5.84    3.80
   1  -8 -19   -0.05    2.37
  -1  -8 -18    4.27    3.41
   1  -8 -18   -1.89    4.49
  -1  -8 -18   -1.09    2.00
   1  -8 -18    2.19    3.89
   1  -8 -17    2.26    2.60
  -1  -8 -17    2.14    2.33
   1  -8 -17    3.84    2.10
  -1  -8 -17    8.82    4.65
  -1  -8 -16    3.38    4.53
   1  -8 -16    6.81    4.63
   1  -8 -16    8.49    5.16
  -1  -8 -15   -3.74    2.76
   1  -8 -15    0.64    2.45
   1  -8 -15    2.34    2.13
   1  -8 -14    3.69    3.73
   1  -8 -14   -3.14    4.08
  -1  -8 -14    1.41    3.35
   1  -8 -13   10.38    4.21
  -1  -8 -13    4.70    2.23
   1  -8 -13    4.48    3.33
   1  -8 -12    4.55    3.69
   1  -8 -12    2.23    2.06
  -1  -8 -12   11.50    5.72
   1  -8 -11   16.02    4.17
  -1  -8 -11   23.15    6.33
   1  -8 -11   27.76    6.52
   1  -8 -10   -1.23    2.78
  -1  -8 -10    0.61    2.12
   1   8 -10    3.84    2.20
   1   8  -9    1.99    2.00
  -1   8  -9    4.56    4.18
   1  -8  -9   -3.36    3.22
  -1  -8  -9    3.02    3.01
  -1  -8  -8   21.85    6.60
   1  -8  -8    7.79    4.07
  -1   8  -8   17.30    5.50
   1   8  -8    8.66    4.70
  -1  -8  -7    6.34    1.93
   1   8  -7    1.75    3.45
   1  -8  -7    5.64    3.36
  -1   8  -7    4.59    3.48
   1   8  -6  143.90   14.17
  -1   8  -6  113.58   12.81
  -1  -8  -6  133.05   13.51
   1   8  -5   41.91    8.15
  -1  -8  -5   39.88    8.10
   1  -8  -5   31.77    6.71
  -1   8  -5   36.54    6.46
   1   8  -4   15.58    4.23
  -1   8  -4   22.24    6.69
  -1  -8  -4   18.54    5.83
   1  -8  -4   28.61    5.91
   1   8  -3   52.67    8.22
   1  -8  -3   57.52    8.86
  -1  -8  -3   55.32    8.42
  -1   8  -3   48.42    8.35
   1   8  -2  131.02   13.27
  -1  -8  -2  124.72   13.00
  -1   8  -2  135.16   13.58
   1  -8  -2  119.42   12.73
   1   8  -1   18.50    4.22
   1  -8  -1   10.02    4.21
  -1   8  -1   17.41    5.29
  -1   8   0   24.34    6.03
   1   8   0   28.81    6.83
  -1  -8   0   32.41    6.59
   1  -8   0   33.16    7.38
   1   8   1   23.69    5.31
  -1  -8   1   19.20    4.73
   1  -8   1   24.25    5.89
  -1   8   1   14.20    4.93
  -1   8   2  105.48   12.21
   1   8   2  144.46   14.13
   1  -8   2  124.67   12.97
  -1  -8   2  103.48   11.79
   1  -8   3   52.96    8.31
  -1  -8   3   48.00    7.75
  -1   8   3   49.63    9.11
   1   8   3   60.29    8.12
   1   8   3   37.08    7.33
   1   8   4   26.60    5.93
   1  -8   4   17.02    4.84
   1   8   4   25.01    6.47
  -1  -8   4   18.01    5.05
   1  -8   5   39.08    7.16
  -1  -8   5   43.63    7.44
   1   8   5   40.06    7.38
   1   8   5   36.47    6.93
  -1   8   5   43.02    6.94
  -1   8   6  131.13   11.57
   1   8   6  145.31   13.07
   1   8   6  128.87   13.77
   1  -8   6  161.14   14.71
  -1  -8   6  136.67   13.79
   1   8   7    8.19    3.58
  -1   8   7    4.30    3.90
   1   8   7    4.87    3.10
  -1  -8   7    4.60    3.00
   1  -8   7    3.95    3.58
  -1  -8   8   11.67    4.31
  -1   8   8    8.07    2.70
   1   8   8   12.42    3.41
   1  -8   8   14.86    4.58
   1   8   8    5.70    4.01
   1  -8   9   -0.71    3.43
   1   8   9    6.75    4.11
  -1   8   9    0.94    1.65
   1   8   9    2.52    4.54
  -1  -8   9    7.65    3.17
   1  -8  10    1.56    1.58
   1   8  10   -0.44    3.34
   1   8  10    5.66    4.37
  -1   8  10    0.60    3.39
  -1  -8  10   -0.27    2.66
  -1   8  11   16.49    5.04
   1   8  11   22.55    6.23
   1  -8  11   10.67    3.09
   1   8  11   31.35    6.44
  -1  -8  11   28.11    6.66
   1  -8  12   -0.64    3.99
  -1   8  12    8.26    4.18
   1   8  12    3.22    2.28
   1   8  13    4.69    2.59
  -1   8  13   13.59    5.01
  -1   8  14    4.18    4.14
   1   8  14   -1.36    3.48
   1   8  15    1.45    3.73
  -1   8  15   -2.91    3.89
   1   8  16    2.66    2.73
  -1   8  16    7.00    3.71
   1   8  17    2.98    4.65
  -1   8  17   10.29    4.68
   1   8  18    6.41    4.63
  -1   8  18    5.23    3.43
   1   8  19   -1.85    4.28
  -1   8  19   19.50    7.40
   1   8  20    2.76    2.35
  -1   8  20    6.45    4.28
  -1   8  21    2.02    3.68
   1   8  21    0.72    3.94
   1   8  22    4.27    3.50
  -1   8  22    4.73    3.86
   1  -9 -19   39.62    8.94
  -1  -9 -19   46.37    9.87
   1  -9 -19   25.96    7.31
  -1  -9 -19   39.14    8.78
  -1  -9 -18   11.46    4.04
   1  -9 -18   13.55    4.63
  -1  -9 -18   19.08    6.99
   1  -9 -18   10.95    5.67
   1  -9 -17   46.66    9.14
   1  -9 -17   41.13    9.16
  -1  -9 -17   49.62    9.16
  -1  -9 -17   57.42    9.80
   1  -9 -16  104.27   13.24
  -1  -9 -16   72.69   11.14
   1  -9 -16   85.31   12.12
  -1  -9 -16  106.34   13.36
   1  -9 -15   16.43    5.45
   1  -9 -15   27.19    6.91
  -1  -9 -15   17.06    4.85
   1  -9 -14   27.08    6.43
  -1  -9 -14   37.23    7.81
   1  -9 -14   19.65    5.21
  -1  -9 -13   54.51    9.37
   1  -9 -13   53.53   10.32
   1  -9 -13   49.55    8.87
  -1  -9 -12   17.97    4.77
   1  -9 -12   17.14    5.70
   1  -9 -12   24.76    6.23
   1  -9 -11   24.81    6.74
  -1  -9 -11   24.41    6.51
   1  -9 -11   32.82    7.74
   1  -9 -10  125.05   14.26
  -1  -9 -10  105.76   12.57
   1  -9 -10  122.80   13.95
  -1  -9  -9   21.28    6.27
   1  -9  -9   41.19    8.11
   1   9  -8    6.25    4.61
   1  -9  -8    1.93    3.02
   1   9  -7   90.34   12.53
  -1  -9  -7  119.51   13.64
   1  -9  -7  106.70   12.27
  -1  -9  -6  207.71   17.58
   1   9  -6  214.61   18.14
   1  -9  -6  193.82   17.32
   1  -9  -5    8.12    3.83
  -1  -9  -5    8.63    5.84
   1   9  -5    6.64    4.48
   1   9  -4  119.81   13.59
  -1  -9  -4   84.02   10.62
   1  -9  -4  106.20   12.31
  -1  -9  -3  145.20   14.83
   1   9  -3  145.22   14.94
   1  -9  -3  144.60   14.39
   1  -9  -2   80.82   10.99
  -1  -9  -2   61.08    9.29
   1   9  -2   99.89   12.02
  -1  -9  -1   18.74    5.08
   1  -9  -1   16.15    5.79
   1   9  -1   19.10    5.62
   1  -9   0  112.10   12.40
   1   9   0   86.79   11.28
  -1  -9   0   91.11   11.33
   1  -9   1    5.98    1.66
   1   9   1    9.31    4.62
  -1  -9   1   13.28    4.30
   1   9   2   94.81   12.08
   1  -9   2   72.69   10.46
  -1  -9   2   93.12   11.35
  -1  -9   3  170.46   16.17
   1   9   3  147.28   15.34
   1  -9   3  128.80   13.65
   1   9   4  115.76   13.73
  -1  -9   4  131.40   14.07
   1  -9   4   97.08   12.23
   1  -9   5    6.39    3.90
  -1  -9   5    2.93    4.07
   1   9   5   10.22    6.25
   1  -9   6  211.34   17.63
   1   9   6  184.14   17.15
  -1  -9   6  165.36   15.69
  -1  -9   7  103.97   12.38
   1  -9   7   73.35   11.46
   1   9   7   95.30   12.43
   1   9   8   10.27    5.76
   1   9   8   11.28    5.43
   1  -9   8    4.57    3.72
  -1  -9   8    7.65    1.80
  -1  -9   9   19.24    5.72
   1  -9   9   42.34    8.59
   1   9   9   52.93    9.41
   1   9   9   51.19    8.97
  -1  -9  10  131.08   14.10
   1   9  10   94.41   11.94
   1  -9  10  129.16   14.60
   1   9  11   30.45    7.11
  -1   9  11   32.60    7.25
   1  -9  11   26.67    6.03
  -1   9  12   27.67    7.48
   1   9  12   16.45    5.57
  -1   9  13   73.99   10.53
   1   9  13   49.10    9.16
  -1   9  14   43.99    7.27
   1   9  14   42.94    8.23
   1   9  15   19.47    6.58
  -1   9  15   20.90    5.49
   1   9  16  108.81   13.63
  -1   9  16   88.99   12.91
   1   9  17   39.77    9.00
  -1   9  17   53.66    9.01
   1   9  18    8.13    4.29
  -1   9  18   21.93    6.25
   1   9  19   49.98    9.75
  -1   9  19   56.63   10.48
  -1 -10 -16    6.28    2.66
  -1 -10 -16    0.56    3.08
   1 -10 -16    1.81    2.47
   1 -10 -16    0.42    3.51
  -1 -10 -15   21.96    6.26
   1 -10 -15   16.36    5.04
   1 -10 -15    9.11    4.58
  -1 -10 -15   20.39    6.91
   1 -10 -14   10.25    4.03
  -1 -10 -14    2.23    2.71
   1 -10 -14   13.34    6.76
  -1 -10 -14    3.17    3.34
   1 -10 -13   25.24    7.62
  -1 -10 -13   11.67    5.07
   1 -10 -13   20.55    6.66
   1 -10 -12   41.29    7.56
   1 -10 -12   33.54    7.95
  -1 -10 -12   31.27    7.22
   1 -10 -11   13.41    5.58
  -1 -10 -11   17.41    5.56
   1 -10 -11   25.83    6.03
   1 -10 -10   23.71    6.00
   1 -10 -10   21.27    6.20
  -1 -10 -10   16.56    5.13
  -1 -10  -9   12.48    5.11
   1 -10  -9   21.13    7.06
  -1 -10  -8   -1.96    3.00
   1 -10  -8    3.44    2.89
   1 -10  -7   24.53    6.23
   1  10  -7   27.19    7.33
   1 -10  -7   43.23    8.00
  -1 -10  -7   23.28    5.38
   1 -10  -6   69.74   10.26
  -1 -10  -6   54.09    9.38
   1  10  -6   63.67   10.67
   1  10  -5   23.04    7.22
  -1 -10  -5   12.38    5.55
   1 -10  -5   10.96    4.12
   1 -10  -4   39.29    8.19
  -1 -10  -4   62.65   10.04
   1  10  -4   77.21   12.39
   1  10  -3   15.95    4.96
   1 -10  -3   19.31    5.49
  -1 -10  -3   30.86    7.42
   1 -10  -2   25.93    6.87
   1  10  -2   29.16    7.88
  -1 -10  -2   14.03    4.48
   1  10  -1   22.22    6.22
  -1 -10  -1   19.50    5.64
   1 -10  -1    7.29    3.68
   1 -10   0   18.78    4.97
   1  10   0   13.80    4.89
  -1 -10   0   12.54    5.41
   1 -10   1   14.29    5.00
   1  10   1   10.85    4.80
  -1 -10   1   27.42    7.80
  -1 -10   2   24.70    6.64
   1 -10   2   20.28    5.52
   1  10   2   16.20    5.00
   1  10   3   15.69    4.78
   1 -10   3   27.73    7.93
  -1 -10   3   21.99    7.13
   1 -10   4   61.91   10.84
   1  10   4   33.74    7.90
  -1 -10   4   51.66    9.48
   1 -10   5   12.20    6.32
   1  10   5   23.16    7.12
  -1 -10   5   15.34    5.35
   1 -10   6   43.07    8.81
  -1 -10   6   69.45   11.16
   1  10   6   64.52   11.31
   1 -10   7   31.02    7.35
  -1 -10   7   30.43    7.76
  -1 -10   8    9.65    4.81
   1 -10   8   -0.53    1.97
  -1 -10   9   26.33    6.52
   1 -10   9   31.22    8.18
   1 -10  10   20.46    6.16
  -1 -10  10   51.90   10.75
   1  10  16    4.68    3.03
   1 -11 -10   51.94    9.32
   1 -11 -10   46.17    9.21
  -1 -11 -10   44.94    8.81
  -1 -11  -9   18.53    5.05
   1 -11  -9   27.61    6.93
   1 -11  -9   28.14    6.02
   1 -11  -8    2.78    3.76
   1 -11  -8   -0.11    3.64
   1 -11  -7   32.67    6.64
  -1 -11  -7   47.79    9.19
   1 -11  -7   33.56    8.09
  -1 -11  -6   46.76    9.38
   1 -11  -6   46.54    9.64
   1 -11  -6   49.68    9.31
   1  11  -5   17.17    6.59
   1 -11  -5    3.63    2.02
   1 -11  -5   10.18    5.19
  -1 -11  -5   14.82    6.02
   1 -11  -4   43.60    9.35
  -1 -11  -4   28.00    7.70
   1  11  -4   32.54    9.10
   1 -11  -4   32.38    7.27
   1 -11  -3   29.63    8.32
   1  11  -3   30.86    8.44
  -1 -11  -3   33.02    7.96
   1 -11  -3   36.08    8.48
   1 -11  -2   20.11    6.76
   1 -11  -2   28.49    7.51
  -1 -11  -2   14.67    5.93
   1  11  -2   20.67    7.66
   1 -11  -1   21.04    6.66
   1  11  -1   16.16    6.89
  -1 -11  -1   21.78    6.68
  -1 -11   0   40.74    8.23
   1 -11   0   56.42   10.18
   1  11   0   41.90    9.40
   1  11   1   25.51    7.44
  -1 -11   1   22.16    6.36
   1 -11   1   25.07    6.95
  -1 -11   2   17.34    4.76
   1 -11   2   20.84    6.16
   1  11   2   27.66    6.90
   1 -11   3   30.48    7.20
  -1 -11   3   38.73    9.16
  -1 -11   4   27.05    6.86
   1 -11   4   39.63    8.84
  -1 -11   5    8.01    5.48
   1 -11   5   10.29    4.69
   1 -11   6   57.30   10.32
  -1 -11   6   58.14    9.85
   1 -11   7   42.00    9.48
  -1 -11   7   21.15    6.52
  -1 -11   8    9.06    4.26
   1 -11   8   14.03    7.08
  -1 -11   9   42.65   10.64
   1 -11   9   18.25    6.34
   1 -11  10   53.31   11.47
   2   0 -20   75.04    8.45
   2   0 -19 1082.79   30.90
   2   0 -18   30.74    5.09
  -2   0 -17  408.34   14.07
   2   0 -17  391.09   17.60
  -2   0 -16   45.31    4.54
   2   0 -16   48.67    5.98
   2   0 -15  954.92   25.29
  -2   0 -15  970.02   20.39
  -2   0 -14   63.12    5.07
   2   0 -14   61.53    6.17
   2   0 -13 6297.74   61.34
  -2   0 -13 6908.18   50.75
  -2   0 -12  111.78    6.21
   2   0 -12  103.55    7.61
   2   0 -11  449.22   14.97
   2   0 -10 3271.66   39.96
   2   0  -9 2485.11   33.58
   2   0  -8  566.98   15.37
   2   0  -7 9999.00   60.59
   2   0  -6  935.67   17.93
   2   0  -5 2614.20   29.03
   2   0  -1  544.25   11.12
   2   0  -1  600.77   10.17
   2   0   0    6.95    1.22
   2   0   0    5.27    1.23
   2   0   1  623.51   11.63
   2   0   1  594.40   10.68
   2   0   1  591.31   11.27
   2   0   2 9773.38   41.60
   2   0   3 8214.42   46.82
   2   0   5 2606.78   28.29
   2   0   5 2631.23   22.99
   2   0   5 2649.91   30.19
   2   0   6  930.65   14.01
   2   0   6  889.25   18.46
  -2   0   7 9689.18   68.33
   2   0   7 9774.90   66.36
   2   0   8  619.32   12.45
  -2   0   8  625.34   17.90
   2   0   9 2563.50   26.98
   2   0   9 2586.01   37.24
   2   0  10 3615.67   46.37
  -2   0  10 3407.71   46.81
   2   0  11  450.87   17.60
  -2   0  11  426.22   17.28
  -2   0  12  119.15    9.37
   2   0  12  124.04    9.38
   2   0  13 6932.49   72.99
  -2   0  13 6312.71   71.19
  -2   0  14   73.97    8.02
   2   0  14   70.14    7.79
  -2   0  15 1014.46   30.60
   2   0  15  981.24   29.32
  -2   0  16   60.37    7.74
   2   0  16   45.41    6.74
   2   0  17  385.78   19.42
  -2   0  17  399.59   20.30
   2   0  18   37.68    6.20
  -2   0  18   30.16    5.84
   2   0  19 1105.33   35.60
  -2   0  19 1215.83   37.32
   2   0  20   51.37    7.85
  -2   0  20   80.21    9.68
  -2   0  21  326.61   20.33
   2   0  21  319.54   19.92
   2   0  22   94.12   11.03
  -2   0  22   99.04   11.61
   2   0  23  334.37   21.30
  -2   0  23  345.93   22.01
   2   0  24  143.96   14.15
   2   0  25  202.97   16.90
   2   0  26    7.81    3.67
   2   0  27   22.98    5.58
   2   0  28   94.79   12.63
   2   0  29   78.50   12.42
   2   0  30   77.22   12.42
   2  -1 -21   13.27    3.95
   2  -1 -20   65.40    8.01
   2  -1 -19   16.89    4.41
  -2  -1 -19   16.65    3.89
   2   1 -18   71.49    6.92
   2  -1 -18   56.42    7.32
  -2  -1 -18   61.09    6.76
  -2  -1 -17   10.71    2.66
   2   1 -17    9.75    2.85
   2  -1 -17    7.56    2.61
   2  -1 -16   59.09    4.81
  -2  -1 -16   71.63    6.96
   2   1 -16   67.65    6.72
   2  -1 -16   54.20    6.64
   2  -1 -15   66.48    4.91
   2  -1 -15   82.03    7.66
  -2  -1 -15   80.73    7.03
   2   1 -15   72.43    6.59
  -2  -1 -14  205.13   10.85
   2  -1 -14  202.18    8.43
   2  -1 -14  189.91   11.66
   2   1 -14  189.92   10.58
   2  -1 -13   65.93    6.73
   2   1 -13   69.27    6.24
   2  -1 -13   68.52    4.80
   2   1 -12  728.97   19.38
   2  -1 -12  759.11   22.05
   2  -1 -12  770.51   15.89
   2  -1 -11   56.46    4.23
   2   1 -11   60.52    5.25
   2  -1 -11   49.10    5.39
   2  -1 -10   64.12    4.45
   2  -1 -10   60.66    5.83
   2   1 -10   73.76    5.54
   2  -1  -9  111.17    5.79
   2  -1  -9  120.90    7.96
   2   1  -9  127.22    7.16
   2  -1  -8  251.17   11.06
   2  -1  -8  234.76    8.23
   2   1  -8  235.75    9.40
   2  -1  -7  126.54    5.88
   2  -1  -7  121.32    7.44
   2   1  -7  138.80    7.03
   2  -1  -6 1090.40   21.58
   2  -1  -6 1122.59   17.24
   2   1  -6 1144.28   19.61
   2   1  -5   28.60    3.10
   2  -1  -5   37.25    3.16
   2  -1  -5   41.24    3.95
   2  -1  -4  161.05    6.44
   2   1  -4  168.93    7.29
   2  -1  -3 1294.09   18.18
   2  -1  -3 1321.86   20.84
   2  -1  -2  177.36    7.22
   2   1  -2  183.87    7.24
   2  -1  -1   38.75    3.20
   2   1  -1   47.15    3.72
   2  -1  -1   39.83    3.16
   2  -1   0    0.26    0.61
   2   1   0    0.09    0.51
   2  -1   0    0.04    0.43
   2   1   0    0.44    0.70
   2   1   1   36.91    3.36
   2  -1   1   40.54    3.35
   2   1   1   41.56    3.43
   2  -1   1   42.66    2.91
   2  -1   2  175.13    5.44
   2  -1   2  186.93    7.28
   2   1   2  168.16    7.23
   2  -1   2  179.58    5.07
   2   1   3 1287.98   21.71
   2  -1   3 1296.45   19.65
   2  -1   3 1382.72   13.80
   2   1   3 1363.07   21.40
   2  -1   3 1318.84   14.76
   2   1   4  157.09    7.45
   2   1   4  164.09    7.99
   2  -1   4  157.07    5.59
  -2   1   4  158.20    7.34
   2  -1   4  160.89    6.97
   2  -1   5   30.34    3.13
   2   1   5   31.03    3.42
   2   1   5   33.69    3.76
  -2   1   5   38.81    3.91
   2  -1   5   33.26    2.90
   2   1   6 1181.38   23.65
   2   1   6 1115.45   20.90
  -2   1   6 1162.77   22.74
   2  -1   6 1162.65   18.43
   2  -1   6 1095.71   19.38
   2  -1   7  126.12    6.57
   2   1   7  128.82    8.13
   2  -1   7  138.24    7.04
   2   1   7  133.88    7.58
  -2   1   7  135.40    8.23
   2  -1   8  241.35   10.00
  -2   1   8  207.13   10.84
   2  -1   8  225.78    9.54
   2   1   8  224.71   10.22
   2   1   8  212.34   10.98
   2  -1   9  106.17    7.35
   2   1   9  108.39    7.38
  -2   1   9  119.48    8.60
   2  -1   9  116.33    6.81
   2   1   9  113.62    8.39
   2   1  10   60.02    6.23
  -2   1  10   65.61    6.66
   2  -1  10   67.78    6.09
   2   1  10   68.42    5.65
   2  -1  10   54.02    4.95
  -2   1  11   57.18    6.39
   2   1  11   39.75    4.64
   2  -1  11   50.85    4.67
   2  -1  11   47.71    5.33
   2   1  11   56.07    6.59
   2   1  12  743.51   20.90
  -2   1  12  781.94   24.75
   2   1  12  741.80   24.07
   2  -1  12  733.07   21.75
  -2   1  13   64.07    7.30
   2   1  13   59.06    7.15
   2  -1  13   79.56    7.50
  -2   1  14  206.32   13.62
   2   1  14  211.38   14.00
   2  -1  14  198.74   12.42
   2  -1  15   81.79    7.80
   2   1  15   68.20    8.11
  -2   1  15   90.79    9.22
   2   1  16   63.81    8.24
   2  -1  16   63.93    7.66
  -2   1  16   70.74    8.32
  -2   1  17   13.95    4.13
   2   1  17   11.81    4.11
   2  -1  17    9.83    3.47
  -2   1  18   60.19    8.22
   2   1  18   72.02    8.75
   2  -1  18   57.70    7.85
  -2   1  19    9.07    3.64
   2  -1  19    7.44    4.33
   2   1  19   14.03    4.58
   2   1  20   49.50    7.79
   2  -1  20   47.72    7.61
  -2   1  20   42.78    7.55
  -2   1  21   12.24    3.42
   2  -1  21   19.63    4.99
   2   1  21   21.97    5.74
  -2   1  22   39.78    7.83
   2  -1  22   43.63    6.85
   2   1  22   51.35    8.35
   2   1  23   -2.06    3.03
   2  -1  23    0.63    1.90
  -2   1  23    3.59    1.54
   2  -1  24    6.79    2.17
  -2   1  24    9.40    4.31
   2   1  24    5.49    3.54
   2   1  25   -2.13    3.95
  -2   1  25    0.87    3.30
   2  -1  25    6.32    2.59
  -2   1  26    1.06    2.98
   2   1  26   -0.24    3.39
   2  -1  26    2.29    3.38
   2   1  27    6.21    3.58
   2  -1  27    3.31    2.57
   2   1  28    9.57    4.32
   2  -1  28   15.94    5.88
   2   1  29    8.03    3.88
   2   1  30    6.18    4.39
   2  -2 -23  369.40   22.07
   2  -2 -22   13.80    4.55
   2  -2 -21   17.82    4.00
   2  -2 -20   38.33    7.02
  -2  -2 -20   38.38    6.29
   2  -2 -19  431.98   21.16
  -2  -2 -19  422.16   20.55
   2  -2 -18   82.89    9.11
  -2  -2 -18   86.41    8.94
  -2  -2 -17  391.07   18.47
   2   2 -17  368.18   15.10
   2  -2 -17  380.64   15.24
   2  -2 -17  404.08   19.48
   2   2 -16    9.21    2.52
  -2  -2 -16   13.29    3.50
   2  -2 -16    4.77    2.33
   2  -2 -16    7.57    1.83
   2   2 -15   97.39    7.21
   2  -2 -15  108.12    7.90
   2  -2 -15   98.23    9.17
   2  -2 -14    5.80    1.79
   2   2 -14    8.76    2.46
   2  -2 -14    9.05    3.07
   2   2 -13 1349.68   26.28
   2  -2 -13 1322.79   26.49
   2  -2 -13 1370.38   32.93
   2  -2 -12  288.69   14.50
   2   2 -12  292.73   11.98
   2  -2 -12  301.73   12.36
   2   2 -11    4.88    1.73
   2  -2 -11    5.03    2.24
   2  -2 -11    6.22    1.74
   2  -2 -10  213.41   10.22
   2   2 -10  200.13    9.58
   2  -2 -10  190.28   11.39
   2  -2  -9  927.58   21.09
   2   2  -9  930.17   20.59
   2  -2  -9  947.93   24.91
   2  -2  -8   75.09    6.83
   2   2  -8   91.10    6.14
   2  -2  -8   79.54    6.07
   2   2  -7  739.73   17.87
   2  -2  -7  763.52   18.54
   2  -2  -6   66.16    5.36
   2   2  -6   62.82    5.11
   2  -2  -6   61.98    5.79
   2  -2  -5  119.89    7.13
   2   2  -5  110.37    6.73
   2  -2  -4  281.76   10.93
   2  -2  -4  305.56   12.30
   2   2  -4  299.04   11.10
   2   2  -3 3887.94   40.10
   2  -2  -3 3898.20   42.24
   2  -2  -3 3839.53   39.50
   2  -2  -2  436.27   13.43
   2  -2  -2  457.02   13.89
   2   2  -2  424.90   12.31
   2   2  -2  468.05   13.89
   2  -2  -1 1216.91   22.34
   2   2  -1 1256.83   21.12
   2  -2  -1 1222.98   21.85
   2   2   0  244.56    9.54
   2  -2   0  233.63    9.14
   2  -2   0  240.95    9.81
   2  -2   1 1259.67   20.25
   2   2   1 1175.79   21.54
   2   2   1 1238.46   24.15
   2  -2   1 1242.14   22.69
  -2   2   1 1233.78   16.74
   2   2   2  422.57   13.42
   2   2   2  477.52   15.04
   2  -2   2  418.36   13.20
  -2   2   2  492.45   11.67
   2  -2   2  447.03   11.60
   2  -2   3 3722.46   39.23
   2   2   3 3746.24   41.59
  -2   2   3 3848.97   35.67
   2  -2   3 3789.92   31.97
  -2  -2   4  281.09    9.41
   2   2   4  279.20   12.19
  -2   2   4  274.71   10.40
   2  -2   4  289.25    8.09
   2   2   4  272.08   11.56
   2  -2   4  285.83   10.87
   2  -2   5  118.14    4.67
  -2  -2   5  116.19    5.80
   2  -2   5  111.40    6.82
  -2   2   5  110.89    7.03
   2   2   5  120.88    8.09
   2   2   5  121.27    8.10
   2  -2   5  117.79    4.08
  -2   2   6   73.82    6.08
   2  -2   6   64.12    5.54
   2   2   6   63.49    5.95
  -2  -2   6   65.97    4.25
   2  -2   6   64.54    3.55
   2  -2   6   65.64    3.12
   2   2   6   62.35    6.01
   2  -2   7  770.93   18.45
   2  -2   7  776.19   14.35
   2   2   7  750.45   21.21
  -2  -2   7  752.85   13.90
  -2   2   7  710.16   19.97
  -2   2   8   69.61    6.47
   2  -2   8   78.90    5.01
   2   2   8   71.32    6.79
   2   2   8   75.73    6.74
  -2  -2   8   77.97    4.31
   2  -2   8   90.72    6.46
  -2  -2   9  982.64   14.36
  -2   2   9  929.22   25.34
   2  -2   9  962.14   19.47
   2  -2   9 1003.76   21.55
   2   2   9  959.17   25.20
  -2  -2  10  174.58    5.73
   2  -2  10  201.36    9.50
   2   2  10  179.37   11.44
   2   2  10  180.19   10.94
   2  -2  10  186.20    9.60
  -2   2  10  200.38   12.11
  -2  -2  11    3.63    0.88
   2   2  11    1.73    1.08
   2   2  11    4.70    2.12
   2  -2  11    2.49    1.22
  -2   2  11    7.31    2.70
   2  -2  11    3.89    1.87
   2  -2  12  279.75   12.81
   2   2  12  282.55   14.53
  -2   2  12  298.38   15.61
   2   2  12  278.67   15.31
   2  -2  12  287.75   12.26
   2   2  13 1378.64   34.96
   2  -2  13 1350.61   29.36
   2  -2  13 1364.72   27.17
  -2   2  13 1302.09   33.83
   2   2  13 1345.90   32.53
   2   2  14   11.28    2.90
  -2   2  14   13.99    3.86
   2  -2  14   13.30    3.14
   2  -2  14   12.56    2.99
   2  -2  15   93.21    7.33
  -2   2  15  107.74   10.21
   2   2  15  110.40   10.80
   2  -2  15   89.16    8.55
   2   2  16   10.84    4.05
   2  -2  16   11.61    3.56
   2  -2  16   14.43    4.33
  -2   2  16    9.82    2.60
  -2   2  17  373.46   20.25
   2  -2  17  400.72   18.97
   2   2  17  400.96   20.95
   2   2  18   85.36    9.99
   2  -2  18   79.60    8.62
  -2   2  18   78.86    9.44
   2   2  19  435.67   22.81
  -2   2  19  413.63   22.12
   2  -2  19  413.27   20.65
   2  -2  20   29.11    6.12
   2   2  20   23.65    5.52
  -2   2  20   30.14    6.44
  -2   2  21    9.12    3.42
   2  -2  21   11.59    4.61
   2   2  21   22.23    5.90
   2  -2  22    5.11    1.52
   2   2  22   11.95    4.74
  -2   2  22    5.72    4.10
   2  -2  23  325.09   20.86
   2   2  23  329.49   21.64
  -2   2  23  364.28   22.58
   2  -2  24   18.15    6.20
   2   2  24   21.70    5.89
  -2   2  24   29.97    6.84
   2   2  25  275.23   20.50
  -2   2  25  280.39   20.21
  -2   2  26   13.95    5.68
   2   2  26   25.68    6.87
  -2   2  27   16.45    5.35
   2   2  27   29.64    7.24
  -2   2  28   56.18   10.49
   2   2  28   41.09    8.06
   2   2  29  187.42   17.78
  -2   2  29  165.19   17.03
   2   2  30    3.39    3.16
   2  -3 -24    4.38    3.55
   2  -3 -23    7.71    3.97
  -2  -3 -22    4.35    2.32
   2  -3 -22    4.59    3.53
   2  -3 -21   30.57    6.54
  -2  -3 -21   43.31    7.01
  -2  -3 -20    9.13    3.92
  -2  -3 -20    9.46    2.99
   2  -3 -20   12.55    5.18
  -2  -3 -19   -2.30    2.57
  -2  -3 -19    2.31    2.14
   2  -3 -19    4.11    3.32
   2  -3 -18    6.64    2.66
   2  -3 -18    9.74    3.93
  -2  -3 -18    3.77    2.25
   2  -3 -17    0.96    1.57
   2  -3 -17   -0.01    1.38
   2  -3 -16   12.65    3.51
   2   3 -16   11.12    2.56
   2  -3 -16   11.36    3.49
   2  -3 -15   12.98    3.21
   2   3 -15   17.60    3.28
   2  -3 -15   16.35    4.21
   2  -3 -14   26.43    4.64
   2  -3 -14   23.40    4.97
   2   3 -14   24.33    3.70
   2   3 -13    4.05    1.37
   2  -3 -13    1.79    1.25
   2  -3 -13    6.30    2.93
   2  -3 -12   47.57    5.73
   2  -3 -12   35.34    5.78
   2   3 -12   44.24    4.95
   2  -3 -11   62.04    7.28
   2   3 -11   65.74    6.12
   2  -3 -11   70.45    6.97
   2   3 -10   82.30    6.69
   2  -3 -10   77.74    7.20
   2  -3 -10   80.15    8.03
   2  -3  -9   94.16    8.59
   2  -3  -9   91.74    7.58
   2   3  -9   91.00    7.02
   2  -3  -8   13.17    3.12
   2   3  -8   13.34    2.55
   2  -3  -7   65.01    6.33
   2  -3  -7   52.30    6.27
   2   3  -7   72.87    6.31
   2   3  -6    0.44    1.10
   2  -3  -6    2.57    1.27
   2  -3  -5  246.78   12.69
   2  -3  -5  266.65   12.58
   2   3  -5  240.50   12.27
   2   3  -4   35.68    4.03
   2  -3  -4   33.14    4.49
   2   3  -4   35.28    4.55
   2  -3  -4   35.67    4.66
   2   3  -3   30.82    3.68
   2  -3  -3   25.49    3.92
   2   3  -3   30.07    4.09
   2  -3  -2   45.34    5.15
   2   3  -2   61.06    6.00
   2   3  -2   57.11    4.89
   2   3  -1 2058.27   30.64
   2   3  -1 2013.69   34.27
  -2   3  -1 2123.00   18.04
   2  -3   0  208.84   10.71
  -2   3   0  222.52    6.91
   2   3   0  206.85    9.67
   2  -3   1 2036.32   33.47
  -2  -3   1 2065.81   32.52
  -2   3   1 2028.15   23.88
   2   3   1 2033.46   31.23
   2   3   2   64.96    6.56
  -2   3   2   58.26    4.40
   2   3   2   53.37    5.18
  -2  -3   2   57.24    5.40
   2  -3   2   58.04    5.56
   2   3   3   29.80    3.94
  -2  -3   3   30.11    3.95
   2   3   3   41.31    5.17
  -2   3   3   32.35    3.65
   2  -3   3   36.49    4.50
  -2  -3   4   28.51    3.79
   2  -3   4   34.75    4.37
   2   3   4   31.25    4.43
  -2   3   4   36.49    3.99
   2   3   4   31.30    4.37
   2   3   5  252.32   13.33
   2  -3   5  276.35   12.47
   2   3   5  282.67   13.16
  -2   3   5  281.06   12.14
  -2  -3   5  259.39   11.12
   2  -3   6    2.36    1.73
   2   3   6    2.35    0.85
   2   3   6    2.98    2.34
  -2  -3   6    1.66    1.23
  -2   3   6    3.55    1.87
  -2   3   7   62.80    6.25
   2   3   7   74.60    7.42
   2  -3   7   51.90    5.52
  -2  -3   7   55.95    4.90
   2   3   7   62.96    6.55
   2   3   8   19.12    3.72
  -2   3   8   15.55    3.44
   2   3   8   16.60    3.75
   2  -3   8   15.48    1.94
  -2  -3   8   16.75    2.85
   2  -3   8   16.90    3.42
   2  -3   9   88.95    7.43
   2   3   9   94.19    8.66
  -2   3   9   75.51    7.71
   2   3   9   87.01    8.30
  -2  -3   9   88.60    6.14
   2  -3   9   80.05    4.08
   2   3  10   81.63    8.06
   2  -3  10   87.79    5.67
   2   3  10   75.74    7.93
   2  -3  10   80.83    6.86
  -2  -3  10   69.99    5.40
  -2   3  10   88.83    8.50
   2  -3  11   74.89    6.73
   2  -3  11   69.80    5.42
   2   3  11   78.38    8.25
  -2   3  11   68.06    7.63
  -2  -3  11   76.53    5.36
   2   3  11   57.25    7.16
   2   3  12   46.56    6.51
  -2   3  12   59.87    7.07
  -2  -3  12   55.27    4.42
   2  -3  12   52.94    5.64
   2   3  12   50.20    7.04
   2  -3  12   43.02    4.44
   2  -3  13    5.32    2.03
  -2   3  13   -1.43    3.26
   2   3  13    0.25    1.17
   2  -3  13    8.25    2.33
   2   3  13    5.41    3.37
   2  -3  14   18.59    3.56
   2   3  14   14.81    3.36
   2  -3  14   20.14    3.68
  -2   3  14   21.33    4.73
   2   3  14   22.25    4.84
   2  -3  15   15.52    3.08
  -2   3  15   11.13    3.35
   2  -3  15   14.10    3.31
   2  -3  16   12.58    3.25
  -2   3  16    4.94    2.90
   2   3  16   16.36    5.03
   2  -3  17   -0.44    1.65
  -2   3  17    0.84    1.69
   2   3  18    7.09    3.35
   2  -3  18    0.45    2.24
  -2   3  18    8.80    3.86
  -2   3  19    4.77    3.60
   2   3  19    1.90    3.21
  -2   3  20    8.78    3.22
   2   3  20    7.66    3.47
  -2   3  21   37.07    7.50
   2   3  21   40.47    7.74
  -2   3  22    6.52    1.87
   2   3  22    3.50    1.98
   2   3  23    1.92    2.78
  -2   3  23    9.37    5.30
   2   3  24    3.70    2.89
  -2   3  24    0.67    3.35
  -2   3  25   38.24    7.86
   2   3  25   18.53    5.81
  -2   3  26    0.96    3.12
   2   3  26   -1.88    2.55
   2   3  27    2.30    2.22
  -2   3  27    1.71    2.50
   2   3  28    8.15    5.44
  -2   3  28   -0.97    1.93
  -2   3  29   30.30    7.99
   2   3  29   30.02    7.52
   2  -4 -25  214.42   19.29
   2  -4 -24    4.72    2.31
  -2  -4 -23  109.65   13.19
   2  -4 -23  121.56   13.46
  -2  -4 -22    6.81    3.35
   2  -4 -22    9.64    3.67
   2  -4 -21    3.66    2.45
  -2  -4 -21    2.61    1.95
  -2  -4 -21    6.29    3.41
  -2  -4 -20   13.46    4.23
  -2  -4 -20    7.04    4.03
   2  -4 -20   16.61    5.30
  -2  -4 -19  422.97   21.93
  -2  -4 -19  430.21   23.48
   2  -4 -19  457.58   24.17
   2  -4 -19  412.31   20.97
  -2  -4 -18  101.67   10.54
   2  -4 -18  130.12   12.54
   2  -4 -18  108.91   10.70
   2  -4 -17  323.34   20.00
  -2  -4 -17  313.01   18.30
   2  -4 -17  311.64   17.90
   2  -4 -16   11.44    4.08
   2  -4 -16   18.14    4.27
  -2  -4 -16   15.78    4.71
   2  -4 -15  131.49   12.24
  -2  -4 -15  118.11   10.67
   2  -4 -15  109.25   10.12
   2   4 -15  120.03    9.36
   2   4 -14  150.81   10.31
  -2  -4 -14  143.11   11.89
   2  -4 -14  184.44   14.19
   2  -4 -14  154.65   12.04
  -2  -4 -13  861.13   28.42
   2   4 -13  891.28   24.93
   2  -4 -13  911.74   28.53
   2  -4 -13  938.38   31.44
   2  -4 -12  223.53   15.24
  -2  -4 -12  272.02   15.81
   2  -4 -12  282.88   15.56
   2   4 -12  235.68   12.85
   2  -4 -11   83.27    8.36
   2   4 -11   74.70    7.01
   2  -4 -11   68.76    8.32
   2  -4 -10    9.90    2.91
   2   4 -10   10.58    2.43
   2  -4 -10   12.24    3.45
   2  -4  -9  948.88   27.85
   2  -4  -9  974.94   30.19
   2   4  -9  905.37   25.18
   2  -4  -8  105.53    9.23
   2   4  -8   98.29    8.12
   2  -4  -8   88.61    9.26
   2  -4  -7  231.43   13.43
   2   4  -7  241.08   12.88
   2  -4  -7  239.30   14.39
   2   4  -6  126.86    8.27
   2  -4  -6  132.72   10.11
   2   4  -6  117.30    9.17
   2  -4  -5   74.69    7.69
   2   4  -5   90.21    6.69
   2   4  -5   82.91    7.44
  -2  -4  -5   80.29    7.67
   2  -4  -4  266.54   14.08
  -2   4  -4  280.58   12.77
  -2  -4  -4  263.24   13.95
   2   4  -4  275.81   11.82
   2   4  -3  627.89   18.08
   2  -4  -3  668.59   22.19
  -2   4  -3  662.58   19.91
  -2  -4  -3  675.33   22.20
   2   4  -2   60.51    5.66
  -2   4  -2   52.78    5.63
  -2   4  -2   51.01    2.72
   2  -4  -2   46.01    5.93
  -2  -4  -2   49.78    6.16
   2   4  -2   36.73    5.41
   2   4  -1 3333.24   50.01
   2   4  -1 3343.55   41.35
   2  -4  -1 3222.62   48.48
  -2   4   0  346.83   10.05
   2  -4   0  342.32   15.59
  -2  -4   0  345.14   15.52
   2   4   0  311.78   15.25
   2   4   0  311.27   13.23
  -2  -4   1 3336.03   47.62
  -2   4   1 3392.74   34.74
   2   4   1 3209.82   43.37
   2   4   1 3277.82   50.34
   2  -4   1 3321.34   48.64
  -2   4   2   53.33    4.77
   2  -4   2   50.88    6.07
   2   4   2   48.63    5.55
  -2  -4   2   48.46    5.58
   2   4   2   45.07    5.91
  -2   4   3  674.77   17.97
   2   4   3  634.51   23.41
   2   4   3  585.81   19.34
   2  -4   3  641.61   21.53
  -2  -4   3  655.24   20.96
  -2  -4   4  257.11   12.96
   2   4   4  274.32   15.28
   2  -4   4  253.33   13.58
   2   4   4  287.93   14.03
  -2   4   4  277.65   12.27
   2   4   5   85.95    8.61
  -2   4   5   87.53    7.19
   2   4   5   72.15    7.07
   2  -4   5   70.01    7.15
  -2  -4   5   72.86    6.89
   2   4   6  120.16    9.53
  -2   4   6  137.20    9.42
   2   4   6  156.55   11.77
  -2  -4   6  130.90    9.17
   2  -4   6  138.69    9.98
   2  -4   7  247.77   13.37
   2   4   7  240.92   15.07
  -2   4   7  235.72   12.77
  -2  -4   7  225.61   12.10
   2   4   7  211.62   12.88
  -2   4   8   89.87    8.38
   2   4   8   84.08    8.85
   2   4   8   89.28    8.65
  -2  -4   8  102.23    8.04
   2  -4   8  104.55    8.68
   2   4   9  960.26   30.75
   2   4   9 1036.58   30.15
  -2  -4   9  968.25   24.43
   2  -4   9  952.47   26.61
   2  -4  10   11.01    2.01
  -2   4  10   11.64    3.54
  -2  -4  10   15.40    3.42
   2   4  10   10.28    3.80
   2  -4  10   10.28    2.94
   2   4  10   11.77    3.59
   2   4  11   72.32    8.19
   2  -4  11   63.49    7.14
  -2  -4  11   68.63    6.46
  -2   4  11   73.90    8.49
   2   4  11   71.32    8.49
  -2  -4  12  247.57   11.99
   2   4  12  249.68   15.60
   2   4  12  266.69   17.17
   2  -4  12  242.34   13.98
  -2   4  12  203.67   13.88
   2   4  13  882.16   30.18
  -2   4  13  945.59   31.01
   2   4  13  880.66   30.65
   2  -4  13  899.52   26.66
   2  -4  14  171.88   11.47
  -2   4  14  151.79   12.59
   2   4  14  162.35   13.50
   2   4  14  161.57   13.38
  -2   4  15  123.43   11.83
   2   4  15  112.83   11.47
   2  -4  15   85.81    8.69
   2   4  15  107.93   11.71
   2   4  16   13.67    4.34
  -2   4  16    8.81    3.23
  -2   4  17  279.79   18.48
   2   4  17  219.17   16.76
   2   4  18  112.22   11.91
  -2   4  18   99.24   11.56
  -2   4  19  417.49   23.60
   2   4  19  468.13   24.61
  -2   4  20   11.31    4.43
   2   4  20   12.78    3.92
   2   4  21   -0.01    2.08
  -2   4  21    4.17    4.28
   2   4  22    7.22    2.95
  -2   4  22    3.54    3.71
  -2   4  23  113.58   12.81
   2   4  23  120.55   13.36
   2   4  24   -0.81    2.13
  -2   4  24   -0.50    2.15
   2   4  25  209.63   18.09
  -2   4  25  277.61   20.70
   2   4  26   14.54    5.10
  -2   4  26    6.25    3.27
  -2   4  27    8.59    5.27
   2   4  27    6.38    5.07
  -2   4  28   24.96    7.70
   2   4  28   22.74    6.54
   2   4  29  144.15   16.00
  -2   4  29  149.24   15.87
   2  -5 -26   -1.12    4.58
   2  -5 -25   46.77    8.86
  -2  -5 -24   11.82    4.98
   2  -5 -24    6.07    3.24
   2  -5 -23   14.25    4.03
  -2  -5 -23   15.39    4.64
  -2  -5 -22   50.46    8.68
   2  -5 -22   40.24    7.86
  -2  -5 -21    7.92    3.61
   2  -5 -21    2.57    2.96
  -2  -5 -21    1.39    2.72
  -2  -5 -20    9.03    3.92
  -2  -5 -20    4.61    3.10
   2  -5 -20    9.89    2.07
   2  -5 -19   36.78    7.01
  -2  -5 -19   23.68    5.04
   2  -5 -19   42.13    7.46
  -2  -5 -19   23.67    6.41
   2  -5 -18    3.62    2.41
   2  -5 -18    8.39    3.49
  -2  -5 -18    5.79    3.76
   2  -5 -17    8.34    2.83
   2  -5 -17   12.14    3.57
  -2  -5 -17    8.37    3.92
  -2  -5 -16   15.89    4.58
   2  -5 -16   14.15    4.50
   2  -5 -16   19.07    5.04
   2  -5 -15    8.40    3.08
  -2  -5 -15   12.91    5.20
   2  -5 -15   18.21    5.13
  -2  -5 -14   11.32    3.32
   2   5 -14   14.74    3.97
   2  -5 -14   12.09    4.00
   2  -5 -14   19.29    5.49
  -2  -5 -13  195.85   14.34
   2  -5 -13  201.06   15.26
   2  -5 -13  223.99   15.44
   2   5 -13  224.06   13.66
   2  -5 -12   97.62   10.60
   2  -5 -12  115.36   11.16
  -2  -5 -12  119.92   10.94
   2   5 -12   94.67    9.08
  -2  -5 -11    7.70    3.36
   2  -5 -11    6.48    2.84
   2  -5 -11    5.63    1.51
   2   5 -11    4.55    2.40
   2  -5 -10   50.33    7.02
  -2  -5 -10   41.25    6.76
   2  -5 -10   40.49    6.59
   2   5 -10   38.59    5.95
   2   5  -9   43.64    6.08
   2  -5  -9   42.84    6.33
  -2  -5  -9   35.61    6.21
   2  -5  -9   37.43    6.36
   2   5  -9   36.76    5.22
   2   5  -8    2.01    2.47
   2  -5  -8    5.00    2.97
   2  -5  -8   -0.22    1.83
   2   5  -8    2.67    1.74
  -2  -5  -7    1.23    1.29
   2  -5  -7   -0.67    1.23
   2   5  -7   -1.42    1.84
   2   5  -7    0.24    0.88
  -2   5  -6   21.29    3.81
   2   5  -6   17.46    3.90
   2   5  -6   14.98    2.99
  -2  -5  -6   28.71    5.27
   2  -5  -6   19.21    4.35
   2   5  -5   43.12    5.06
   2  -5  -5   37.05    5.79
  -2   5  -5   45.79    6.05
  -2  -5  -5   33.13    5.62
   2   5  -5   42.73    6.00
  -2   5  -4  179.13   11.87
   2   5  -4  173.08   12.16
   2  -5  -4  159.65   11.96
  -2  -5  -4  172.52   12.70
   2   5  -4  167.99    9.81
  -2   5  -3  180.42   11.90
   2   5  -3  189.74   10.57
   2  -5  -3  196.88   13.25
   2   5  -3  194.65   13.01
  -2  -5  -3  180.55   12.68
  -2   5  -2   42.58    3.08
  -2   5  -2   38.61    5.60
  -2  -5  -2   49.25    6.57
   2   5  -2   35.61    4.64
   2  -5  -2   32.49    5.67
   2   5  -2   35.52    5.84
  -2  -5  -1  815.79   26.70
   2   5  -1  810.65   22.38
   2  -5  -1  804.04   26.68
   2   5  -1  770.74   26.58
  -2   5  -1  823.18   15.38
  -2   5  -1  732.66   24.53
  -2   5   0   70.00    5.00
  -2   5   0   71.51    8.16
   2  -5   0   58.01    7.32
   2   5   0   66.08    6.49
   2   5   0   63.51    7.53
   2  -5   1  793.70   26.16
   2   5   1  741.53   22.31
  -2   5   1  807.85   19.19
   2   5   1  839.71   27.99
  -2  -5   1  796.60   26.04
   2  -5   2   37.81    5.53
  -2  -5   2   48.15    6.60
   2   5   2   35.28    5.12
  -2   5   2   45.28    4.88
   2   5   2   37.88    6.12
   2  -5   3  168.07   12.02
   2   5   3  161.03   10.95
   2   5   3  168.69   12.86
  -2  -5   3  180.69   12.25
  -2   5   3  189.81   10.43
  -2  -5   4  193.25   12.76
   2  -5   4  177.61   12.62
   2   5   4  185.84   11.86
   2   5   4  171.08   12.89
  -2   5   4  202.31   11.34
  -2  -5   5   35.58    5.27
   2   5   5   47.85    6.86
  -2   5   5   43.48    5.39
   2  -5   5   48.29    6.61
   2   5   5   45.71    6.24
   2   5   6   21.23    5.00
   2  -5   6   16.34    3.41
  -2   5   6   16.00    3.70
  -2  -5   6   21.35    4.25
   2   5   6   15.37    3.55
  -2   5   7    0.43    0.95
   2  -5   7    0.29    1.87
  -2  -5   7   -1.43    1.85
   2   5   7    2.61    2.07
   2   5   7    0.69    1.13
   2   5   8    5.92    3.51
  -2   5   8    0.83    1.50
  -2  -5   8    1.91    1.71
   2  -5   8    0.33    1.43
   2   5   8    0.76    1.85
  -2   5   9   28.35    5.24
  -2  -5   9   33.11    5.12
   2  -5   9   38.30    5.84
   2   5   9   38.41    6.36
   2   5   9   46.28    7.17
  -2   5  10   47.67    6.60
   2   5  10   39.31    6.03
   2  -5  10   44.39    6.40
   2   5  10   44.95    7.20
  -2  -5  10   44.38    6.07
  -2   5  11    8.24    2.29
   2  -5  11    6.76    3.36
  -2  -5  11    7.62    3.07
   2   5  11    9.36    3.82
   2   5  11   10.28    3.96
   2   5  12  110.32   10.96
  -2  -5  12   76.92    8.25
  -2   5  12  100.44   10.15
   2  -5  12   97.95    9.72
   2   5  12   88.76   10.28
  -2   5  13  202.12   14.74
   2   5  13  193.34   14.94
   2   5  13  221.59   16.47
   2  -5  13  196.38   13.69
  -2   5  14   13.35    3.77
   2   5  14   23.53    5.07
   2   5  14   15.45    3.97
   2  -5  14   11.72    4.01
   2   5  15   11.70    3.18
   2   5  15   12.23    4.43
  -2   5  15   11.95    4.35
   2   5  16   14.15    4.62
  -2   5  16   21.30    5.02
  -2   5  17   20.16    4.61
   2   5  17   22.52    5.72
   2   5  18    4.99    3.57
  -2   5  18   10.51    4.39
   2   5  19   33.69    7.08
  -2   5  19   37.40    7.43
   2   5  20    3.53    2.33
  -2   5  20    5.43    3.71
  -2   5  21    1.12    2.54
   2   5  21    7.62    3.30
  -2   5  22   25.88    6.18
   2   5  22   33.38    7.86
  -2   5  23   23.86    5.66
   2   5  23   14.17    4.96
  -2   5  24    8.54    4.39
   2   5  24   15.41    5.61
   2   5  25   23.48    6.58
  -2   5  25   27.72    6.69
   2   5  26    1.65    2.48
  -2   5  26   -1.11    2.14
   2   5  27   23.01    6.70
  -2   5  27   19.16    6.65
   2  -6 -26    2.54    2.47
   2  -6 -25  107.48   13.89
  -2  -6 -25   73.45   11.76
   2  -6 -24   74.69   11.61
  -2  -6 -24   28.59    6.85
   2  -6 -23   26.72    6.76
  -2  -6 -23   54.01    9.67
   2  -6 -22   39.44    8.15
  -2  -6 -22   54.52    9.28
  -2  -6 -22   44.77    8.06
  -2  -6 -21   42.27    8.83
   2  -6 -21   35.39    7.41
  -2  -6 -21   29.74    7.36
  -2  -6 -20   22.39    7.24
  -2  -6 -20   20.82    5.24
   2  -6 -20   23.30    6.72
   2  -6 -20   40.23    8.10
  -2  -6 -19  365.31   23.09
   2  -6 -19  382.46   23.17
  -2  -6 -19  375.80   23.90
   2  -6 -19  390.46   24.18
   2  -6 -18   15.30    4.17
  -2  -6 -18   11.61    4.28
   2  -6 -18   24.10    6.63
   2  -6 -17  160.18   14.68
  -2  -6 -17  149.28   14.07
   2  -6 -17  138.94   14.47
   2  -6 -16   26.01    6.60
  -2  -6 -16   22.69    5.38
   2  -6 -16   26.91    5.71
  -2  -6 -15  253.13   18.77
   2  -6 -15  259.44   18.80
   2  -6 -15  296.16   19.21
   2  -6 -14   49.08    8.59
  -2  -6 -14   68.71    9.63
   2  -6 -14   76.43   10.11
   2  -6 -13 1011.74   36.05
   2  -6 -13 1054.64   35.69
   2  -6 -12   32.07    6.92
   2  -6 -12   35.35    6.67
   2   6 -12   22.56    4.64
  -2  -6 -12   27.31    7.30
   2  -6 -11  129.79   12.58
  -2  -6 -11  151.42   13.75
   2   6 -11  169.55   13.13
   2  -6 -11  154.43   13.57
   2   6 -10   71.79    8.48
  -2  -6 -10   61.71    8.43
   2  -6 -10   53.57    7.91
   2  -6 -10   65.93    8.42
   2   6  -9  740.44   27.90
   2  -6  -9  744.72   28.92
  -2  -6  -9  833.62   30.73
   2  -6  -9  838.13   31.69
   2  -6  -8  489.18   22.82
   2   6  -8  480.82   22.11
   2   6  -8  467.74   17.72
  -2  -6  -8  421.22   23.03
   2   6  -7  664.70   21.14
   2   6  -7  676.71   26.35
   2   6  -6   22.84    3.86
   2  -6  -6   12.73    3.99
  -2  -6  -6   21.15    5.22
   2   6  -6   14.40    4.15
  -2   6  -5   76.03    8.53
   2   6  -5   69.14    6.44
   2   6  -5   71.69    8.81
   2  -6  -5   69.86    8.60
   2   6  -4  807.03   23.04
  -2   6  -4  865.24   28.60
  -2  -6  -4  839.09   29.91
   2   6  -4  797.08   28.78
   2  -6  -3  621.44   25.62
  -2  -6  -3  585.44   24.56
   2   6  -3  608.73   25.29
  -2   6  -3  618.60   24.43
   2   6  -3  555.49   19.22
   2  -6  -2  263.99   16.68
  -2   6  -2  282.15   16.44
  -2  -6  -2  269.48   16.72
  -2   6  -2  258.92    8.57
   2   6  -2  289.67   17.42
   2   6  -1  687.38   27.26
   2  -6  -1  714.44   27.22
  -2   6  -1  722.11   16.20
   2   6  -1  682.15   21.92
  -2  -6  -1  671.69   26.22
  -2   6  -1  666.69   25.84
   2  -6   0   62.08    8.14
  -2  -6   0   69.18    8.61
  -2   6   0   67.29    5.58
   2   6   0   67.39    7.13
   2   6   0   63.37    8.15
   2   6   1  769.53   24.13
  -2  -6   1  718.59   27.12
   2  -6   1  779.46   28.17
   2   6   1  738.09   28.44
  -2  -6   2  274.47   16.62
   2   6   2  272.27   15.10
  -2   6   2  253.55   12.45
   2   6   2  255.40   16.80
   2  -6   2  301.03   17.45
  -2  -6   3  648.85   25.46
   2  -6   3  561.76   23.99
   2   6   3  580.30   25.64
  -2   6   3  685.99   21.49
   2   6   3  563.56   21.52
  -2   6   4  831.01   24.58
   2  -6   4  766.21   28.44
   2   6   4  783.71   30.59
  -2  -6   4  804.99   28.40
  -2  -6   5   70.36    8.18
   2  -6   5   59.12    8.14
  -2   6   5   76.90    7.57
   2   6   5   48.73    7.16
   2   6   5   73.26    8.19
  -2  -6   6   21.31    4.52
   2   6   6   16.00    3.78
   2  -6   6   15.17    4.69
  -2   6   6   19.95    4.06
   2   6   6   22.08    4.94
   2  -6   7  735.65   27.80
  -2   6   7  683.06   25.02
   2   6   7  777.33   27.77
   2   6   7  803.28   31.27
  -2  -6   7  756.25   27.79
  -2  -6   8  460.20   21.44
   2  -6   8  447.08   21.80
   2   6   8  463.83   21.83
   2   6   8  456.08   23.75
  -2   6   8  489.63   21.73
   2  -6   9  848.07   29.87
   2   6   9  809.32   31.95
   2   6   9  951.45   31.55
  -2   6   9  942.93   30.61
  -2  -6   9  814.05   28.48
   2  -6  10   47.79    7.14
   2   6  10   51.47    8.57
  -2   6  10   72.94    9.28
  -2  -6  10   65.98    8.03
   2   6  10   73.45    9.05
   2  -6  11  132.00   12.05
  -2   6  11  152.35   12.85
   2   6  11  139.98   13.81
   2   6  11  157.87   13.35
  -2  -6  11  143.52   12.03
   2   6  12   36.32    7.47
   2   6  12   26.11    6.95
  -2   6  12   39.03    7.14
  -2  -6  12   25.40    5.07
   2  -6  12   31.77    6.17
   2   6  13 1096.27   38.39
   2  -6  13 1078.40   34.71
   2   6  13 1159.21   37.90
  -2   6  13 1189.20   37.47
   2   6  14   80.72   11.00
   2  -6  14   66.45    9.01
   2   6  14   70.04    9.64
  -2   6  14   55.63    8.38
  -2   6  15  237.28   17.51
   2   6  15  276.80   20.30
   2   6  15  284.62   19.44
  -2   6  16   27.62    6.21
   2   6  16   22.22    5.65
  -2   6  17  137.89   13.50
   2   6  17  128.06   13.63
  -2   6  18   15.14    4.87
   2   6  18   14.53    5.48
   2   6  19  389.01   23.62
  -2   6  19  350.76   22.38
  -2   6  20   36.36    7.16
   2   6  20   24.91    5.40
  -2   6  21   44.13    8.02
   2   6  21   34.58    6.70
   2   6  22   55.34    9.72
  -2   6  22   56.62    9.48
  -2   6  23   37.96    7.42
   2   6  23   42.02    8.36
  -2   6  24   46.38    8.64
   2   6  24   44.78    9.24
  -2   6  25  115.97   13.35
   2   6  25   88.47   11.79
  -2   6  26    5.33    4.08
   2   6  26   11.91    4.30
  -2  -7 -24   -0.59    2.86
   2  -7 -24   -0.16    2.70
  -2  -7 -23   -3.11    3.88
   2  -7 -23    5.03    3.74
  -2  -7 -22   -5.65    5.16
  -2  -7 -22    8.95    5.47
   2  -7 -22    4.99    2.85
  -2  -7 -21   14.51    6.56
  -2  -7 -21   13.31    5.99
   2  -7 -21   15.71    5.60
   2  -7 -20   85.67   12.69
  -2  -7 -20   92.79   12.36
   2  -7 -20  125.20   14.37
  -2  -7 -20   92.53   12.30
  -2  -7 -19   25.59    6.88
   2  -7 -19    9.90    5.47
   2  -7 -19   19.74    6.21
  -2  -7 -19   24.62    6.65
   2  -7 -18   38.83    7.79
  -2  -7 -18   31.66    7.23
   2  -7 -18   42.57    8.56
   2  -7 -17    2.89    2.20
  -2  -7 -17    2.60    3.29
   2  -7 -17    0.87    2.23
   2  -7 -16   38.78    7.15
  -2  -7 -16   46.30    8.30
   2  -7 -16   28.82    7.33
   2  -7 -15   -4.47    3.97
   2  -7 -15   -3.03    2.57
  -2  -7 -15    0.89    3.43
   2  -7 -14  145.26   14.55
   2  -7 -14  137.53   13.83
  -2  -7 -14  149.81   14.58
   2  -7 -13   46.14    8.40
   2  -7 -13   34.72    6.97
  -2  -7 -13   33.92    7.92
   2  -7 -12  137.62   13.32
  -2  -7 -12  130.51   13.19
   2  -7 -12  112.74   12.40
  -2  -7 -11  100.26   11.80
   2  -7 -11   97.00   11.43
   2   7 -11  104.64   11.20
   2  -7 -11  113.07   12.34
   2  -7 -10   90.84   11.07
   2  -7 -10  105.16   11.60
   2   7 -10   84.57   10.01
  -2  -7 -10   99.51   11.58
   2  -7  -9  114.42   12.17
   2  -7  -9  117.21   12.11
   2   7  -9  113.10   11.13
  -2  -7  -9  119.79   12.09
   2  -7  -8  257.98   18.24
  -2  -7  -8  266.37   18.31
   2   7  -8  282.83   18.56
   2  -7  -8  262.54   18.40
   2   7  -7    2.18    2.71
   2  -7  -7   -2.31    2.40
  -2  -7  -7    1.11    2.38
   2   7  -6  267.75   18.21
  -2  -7  -6  230.87   16.81
   2  -7  -6  295.24   18.83
   2  -7  -5  212.69   16.09
  -2  -7  -5  232.23   17.02
   2   7  -5  267.10   17.83
  -2  -7  -4   15.49    5.01
   2  -7  -4   12.94    4.46
   2   7  -4   11.98    4.34
  -2  -7  -3  505.37   24.24
   2  -7  -3  525.77   25.19
   2   7  -3  517.02   24.98
   2  -7  -2   79.48    9.60
   2   7  -2   60.28    6.85
  -2  -7  -2   61.69    8.97
   2   7  -2   65.96    8.89
  -2  -7  -1   39.67    7.22
   2   7  -1   33.95    6.73
   2  -7  -1   31.43    6.43
   2   7  -1   29.08    5.16
   2   7   0    1.89    2.07
   2   7   0    5.96    2.38
   2  -7   0    0.79    1.76
  -2  -7   0    7.04    1.93
   2   7   1   45.51    7.63
   2   7   1   37.01    5.72
   2  -7   1   36.91    6.71
  -2   7   1   40.18    5.08
  -2  -7   1   30.47    6.15
  -2   7   2   60.86    6.67
   2   7   2   58.60    7.48
   2   7   2   71.65    9.92
  -2  -7   2   59.53    8.14
   2  -7   2   72.25    9.31
  -2   7   3  524.76   20.06
  -2  -7   3  493.78   24.07
   2  -7   3  492.00   23.95
   2   7   3  491.66   21.55
   2   7   3  520.11   25.85
   2  -7   4    9.07    3.72
  -2   7   4    5.30    2.04
  -2  -7   4    8.57    3.25
   2   7   4   15.57    5.25
   2   7   4    7.73    3.17
   2   7   5  252.63   16.24
  -2  -7   5  216.68   15.95
   2  -7   5  227.47   16.42
   2   7   5  281.59   18.94
  -2   7   5  249.79   14.92
  -2   7   6  308.84   17.17
   2   7   6  269.28   19.70
  -2  -7   6  265.23   17.61
   2   7   6  307.89   18.11
   2  -7   6  298.56   18.76
  -2  -7   7    4.10    2.62
   2  -7   7    1.69    2.87
  -2   7   7    0.84    1.63
   2   7   7    1.63    3.47
   2   7   7    2.41    2.74
   2  -7   8  291.74   18.93
   2   7   8  276.97   17.56
  -2   7   8  328.27   18.89
   2   7   8  265.30   19.09
  -2  -7   8  266.29   17.72
   2   7   9   97.14   10.89
  -2   7   9   91.03   10.29
   2   7   9  114.60   12.39
   2  -7   9  110.02   11.68
  -2  -7   9  116.78   11.94
   2   7  10   99.02   12.35
  -2  -7  10  107.90   11.76
   2  -7  10  112.45   11.39
  -2   7  10  112.56   11.55
   2   7  10  122.91   12.12
   2   7  11  114.87   12.40
  -2   7  11  119.79   11.88
  -2  -7  11   84.37   10.44
   2  -7  11  112.21   12.01
   2   7  11  100.56   12.49
  -2   7  12  127.92   12.71
   2   7  12  113.13   12.34
   2   7  12  127.88   13.93
   2  -7  12  107.83   11.83
   2  -7  13   35.72    7.48
   2   7  13   47.31    8.59
  -2   7  13   51.08    8.55
   2   7  13   45.88    7.99
   2   7  14  149.07   14.45
   2   7  14  137.50   14.57
  -2   7  14  145.03   14.14
   2   7  15    1.44    2.58
  -2   7  15   -1.50    2.34
  -2   7  16   22.97    6.00
   2   7  16   35.24    7.32
  -2   7  17    3.57    3.69
   2   7  17   11.93    3.92
  -2   7  18   23.29    5.97
   2   7  18   35.75    7.74
  -2   7  19   13.27    4.88
   2   7  19   15.52    4.76
  -2   7  20  129.03   14.24
   2   7  20  101.56   13.10
  -2   7  21   16.74    4.69
   2   7  21    8.07    3.71
   2   7  22   -0.36    3.51
  -2   7  22   -2.75    3.02
  -2   7  23   12.42    5.59
   2   7  23   11.48    4.74
   2   7  24    3.54    3.87
  -2   7  24    3.30    4.67
   2  -8 -22   22.43    6.64
  -2  -8 -22   36.65    9.87
  -2  -8 -22   41.00    8.98
  -2  -8 -21    6.72    5.27
  -2  -8 -21    5.87    2.59
   2  -8 -21    4.82    4.12
  -2  -8 -20   10.86    5.02
   2  -8 -20    6.67    4.60
   2  -8 -20   10.28    5.38
  -2  -8 -20    8.06    4.79
   2  -8 -19   41.32    8.56
  -2  -8 -19   52.21    8.90
   2  -8 -19   71.52   10.97
  -2  -8 -19   58.88   10.41
  -2  -8 -18    0.57    3.95
   2  -8 -18    3.45    3.21
   2  -8 -18    3.12    3.17
   2  -8 -17   56.78    9.72
  -2  -8 -17   49.76    8.96
   2  -8 -17   57.89   10.30
   2  -8 -16   38.50    7.88
   2  -8 -16   50.61    9.05
  -2  -8 -16   44.23    8.62
   2  -8 -15    4.61    2.98
   2  -8 -15    0.97    1.77
  -2  -8 -15    5.42    4.05
   2  -8 -14   11.25    3.60
   2  -8 -14   12.50    5.70
  -2  -8 -14   14.22    6.14
   2  -8 -13   54.32    9.20
  -2  -8 -13   63.76   10.32
   2  -8 -13   53.82    9.17
   2  -8 -12    4.63    3.58
  -2  -8 -12    5.56    3.51
   2  -8 -12    9.39    5.23
   2  -8 -11    4.04    3.15
   2  -8 -11    5.75    2.48
   2  -8 -10   23.40    6.30
  -2  -8 -10   26.65    5.52
   2   8 -10   18.57    4.67
   2  -8 -10   24.52    6.69
  -2  -8  -9   93.75   11.44
   2  -8  -9   83.51   11.42
   2  -8  -9   88.89   10.92
   2   8  -9   79.26   10.57
   2   8  -8   23.73    6.42
  -2  -8  -8   12.31    4.79
   2  -8  -8   21.84    5.90
   2  -8  -8   18.02    5.40
  -2  -8  -7  122.69   13.74
   2  -8  -7  118.72   13.00
   2  -8  -7  138.27   13.69
   2   8  -7  129.92   13.99
  -2  -8  -6   19.19    5.89
   2  -8  -6   30.00    6.32
   2   8  -6   28.10    6.49
   2  -8  -5   48.86    8.31
  -2  -8  -5   43.45    8.04
   2   8  -5   33.87    7.46
   2   8  -4  114.32   12.55
  -2  -8  -4  131.11   13.10
   2  -8  -4  136.98   13.57
   2   8  -3  441.69   24.79
   2  -8  -3  445.73   24.23
  -2  -8  -3  388.33   22.87
  -2  -8  -2    7.52    2.84
   2  -8  -2   13.81    4.04
   2   8  -2   10.90    4.96
   2   8  -1   16.61    5.00
   2  -8  -1   11.72    3.61
  -2  -8  -1   15.55    5.31
   2   8   0   21.19    6.35
  -2  -8   0   30.66    6.75
   2  -8   0   16.86    4.82
  -2  -8   1    5.30    3.67
   2  -8   1   11.26    3.79
   2   8   1   16.71    5.85
   2  -8   2    2.55    2.31
  -2  -8   2   12.18    3.42
   2   8   2    4.80    2.19
   2   8   2   13.38    4.43
   2   8   3  402.85   24.30
  -2  -8   3  403.19   23.25
   2  -8   3  382.68   22.72
   2   8   3  414.58   20.87
   2   8   4  128.64   13.61
   2   8   4  142.44   12.76
   2  -8   4  104.73   12.16
  -2  -8   4  108.32   11.95
   2  -8   5   46.30    7.98
   2   8   5   59.45    8.96
   2   8   5   67.44    9.71
  -2  -8   5   53.27    8.64
   2   8   6   20.20    5.10
   2  -8   6   29.25    6.25
   2   8   6   40.61    7.83
  -2   8   6   24.68    5.41
  -2  -8   6   22.04    5.99
   2   8   7  139.15   14.25
   2   8   7  102.68   11.02
   2  -8   7  112.52   12.73
  -2  -8   7  126.34   13.17
  -2   8   7  130.49   12.38
  -2  -8   8   15.87    6.00
   2  -8   8   12.00    4.08
   2   8   8   10.68    5.45
  -2   8   8    9.35    2.80
   2   8   8   13.01    4.22
  -2  -8   9   87.53   11.02
   2   8   9   73.41   10.36
   2  -8   9   91.82   10.76
  -2   8   9   86.09    9.95
   2   8   9  109.25   12.20
  -2  -8  10   20.91    5.41
   2   8  10   19.40    5.72
   2  -8  10   17.58    4.20
   2   8  10   35.70    7.70
  -2   8  10   26.64    6.55
   2   8  11    8.02    3.78
  -2  -8  11    5.52    5.49
  -2   8  11    3.71    4.02
   2   8  11   12.67    4.69
   2  -8  11    4.45    3.56
  -2   8  12    9.11    2.93
   2   8  12    5.01    4.11
   2  -8  12    5.55    2.95
   2   8  12   12.17    5.29
   2   8  13   43.47    8.88
  -2   8  13   48.37    8.45
   2  -8  13   58.79   10.37
   2   8  13   54.09    9.75
  -2   8  14   14.95    5.33
   2   8  14    4.77    3.56
  -2   8  15   -1.40    3.70
   2   8  15    8.96    6.10
   2   8  16   46.34    8.45
  -2   8  16   34.72    7.31
   2   8  17   39.34    8.53
  -2   8  17   42.01    8.05
   2   8  18   -1.21    3.72
  -2   8  18    2.34    3.49
  -2   8  19   60.86   10.46
   2   8  19   52.96    8.66
   2   8  20    7.36    4.80
  -2   8  20   15.79    6.07
  -2   8  21    3.75    4.20
   2   8  21    8.50    3.50
   2   8  22   54.41    9.44
  -2   8  22   35.91    8.23
   2  -9 -19   -4.59    4.78
   2  -9 -19    4.49    3.99
  -2  -9 -19   -0.85    3.17
  -2  -9 -19    3.88    2.47
  -2  -9 -18   15.87    5.05
  -2  -9 -18    9.00    4.56
   2  -9 -18    8.87    5.12
   2  -9 -18   14.21    5.76
   2  -9 -17    4.32    3.49
   2  -9 -17   -6.20    4.93
  -2  -9 -17   -0.33    2.87
   2  -9 -16   10.94    5.34
   2  -9 -16    7.95    3.69
  -2  -9 -16   -0.90    2.81
   2  -9 -15    0.85    3.65
  -2  -9 -15   -1.26    3.61
   2  -9 -15    2.23    3.23
  -2  -9 -14   25.81    6.76
   2  -9 -14   32.77    7.76
   2  -9 -14    9.74    4.45
   2  -9 -13   11.90    5.22
  -2  -9 -13   -2.09    2.64
   2  -9 -13   16.26    6.20
   2  -9 -12    6.56    3.84
   2  -9 -12    5.58    3.56
  -2  -9 -12    7.39    3.79
   2  -9 -11    7.17    3.62
   2  -9 -11    0.51    2.64
  -2  -9 -11    4.10    2.40
   2  -9 -10   24.49    5.73
   2  -9 -10   23.47    6.03
  -2  -9 -10   19.95    5.60
   2  -9  -9   -0.28    3.10
  -2  -9  -9    5.68    2.56
   2   9  -9    1.73    3.86
   2  -9  -9    0.42    1.62
  -2  -9  -8    2.63    3.38
   2  -9  -8   -4.28    3.51
   2   9  -8    3.58    3.47
   2  -9  -8    6.34    4.41
   2   9  -7    4.91    3.23
  -2  -9  -7    1.43    2.36
   2  -9  -7    0.38    1.65
   2  -9  -7    2.03    2.35
   2  -9  -6   18.25    5.82
   2   9  -6   33.18    7.10
   2  -9  -6   21.29    5.65
  -2  -9  -6   34.79    7.55
  -2  -9  -5   34.46    7.68
   2  -9  -5   27.06    6.29
   2   9  -5   26.16    6.34
   2  -9  -5   33.36    7.27
  -2  -9  -4   19.16    5.23
   2  -9  -4   25.75    6.34
   2   9  -4    8.56    3.77
   2  -9  -3   58.12    9.02
  -2  -9  -3   59.78   10.00
   2   9  -3   48.57    9.36
   2   9  -2   23.55    5.73
  -2  -9  -2   34.34    6.54
  -2  -9  -1   16.51    5.73
   2   9  -1   22.37    6.60
   2  -9  -1   16.00    5.21
  -2  -9   0   12.14    4.60
   2   9   0   24.61    6.94
   2  -9   0   20.33    6.30
  -2  -9   1    4.15    2.53
   2   9   1    9.76    3.95
   2  -9   2   22.30    6.75
  -2  -9   2    8.84    3.48
   2   9   2   20.16    5.39
  -2  -9   3   73.56   10.07
   2  -9   3   65.22   10.11
   2   9   3   42.36    8.03
   2   9   4    4.70    3.32
  -2  -9   4    8.23    5.16
   2  -9   4   10.92    4.66
   2  -9   5   33.91    7.62
   2   9   5   60.82   10.03
  -2  -9   5   41.66    8.38
   2  -9   6   37.25    7.84
  -2  -9   6   33.07    7.23
   2   9   6   20.83    6.15
   2  -9   7    1.58    4.02
  -2  -9   7   -2.34    3.65
   2   9   7    3.81    4.29
   2   9   7    4.19    3.89
   2   9   8   -1.45    2.52
   2  -9   8    3.53    3.70
   2   9   8    3.78    4.08
  -2  -9   8   -1.62    2.62
   2   9   9    0.76    4.05
   2  -9   9   -5.87    4.55
   2   9   9    0.51    3.83
  -2  -9   9    5.27    3.65
   2  -9  10   18.36    5.17
   2   9  10   18.25    5.01
  -2  -9  10   26.28    5.97
   2   9  10   25.10    7.05
   2   9  11    5.83    2.54
   2  -9  11    4.12    3.76
   2   9  11    3.02    2.23
   2   9  12    0.87    2.11
   2  -9  12    2.12    2.36
  -2   9  12    2.41    3.85
   2   9  12    1.51    3.26
  -2   9  13    6.20    4.76
   2   9  13    8.10    3.79
  -2   9  14   17.93    5.46
   2   9  14   22.40    7.05
   2   9  15    2.43    3.49
  -2   9  15    2.66    5.12
   2   9  16    6.98    3.52
  -2   9  16   11.66    4.91
   2   9  17   -0.98    3.23
  -2   9  17    1.38    2.50
  -2   9  18   11.19    5.59
   2   9  18   20.89    6.85
   2   9  19   -0.99    2.53
  -2   9  19    1.45    3.08
   2 -10 -15   37.38    7.58
  -2 -10 -15   22.89    6.30
   2 -10 -15   25.65    7.50
  -2 -10 -14   31.63    8.32
   2 -10 -14   31.44    7.69
   2 -10 -14   25.17    6.07
  -2 -10 -13   85.57   12.96
   2 -10 -13   64.93   10.97
   2 -10 -13   98.86   12.57
   2 -10 -12    7.96    2.71
   2 -10 -12    4.58    2.40
  -2 -10 -12    4.55    2.48
   2 -10 -11   47.93    9.33
   2 -10 -11   23.53    5.57
  -2 -10 -11   33.89    7.81
   2 -10 -10   12.34    4.95
   2 -10 -10    6.63    5.10
   2 -10  -9   26.90    7.22
   2 -10  -9   39.96    8.37
  -2 -10  -9   39.60    8.48
  -2 -10  -8   13.29    5.48
   2 -10  -8    2.91    2.74
   2 -10  -8   16.65    5.71
   2 -10  -7  177.01   16.65
   2 -10  -7  203.52   18.51
  -2 -10  -7  193.82   17.80
   2  10  -7  163.74   17.29
   2 -10  -6   21.89    5.67
  -2 -10  -6   25.94    6.71
   2 -10  -6   21.52    6.19
   2 -10  -5    8.30    4.77
   2 -10  -5   18.71    5.96
  -2 -10  -5    7.12    4.49
   2  10  -5    0.93    3.61
   2 -10  -4   33.10    7.25
  -2 -10  -4   31.15    7.92
   2 -10  -4   30.27    7.98
   2  10  -4   17.53    6.16
   2 -10  -3  125.38   14.44
  -2 -10  -3   95.67   12.85
   2 -10  -3   87.70   12.31
   2  10  -3   90.19   12.69
   2 -10  -2   42.31    8.56
  -2 -10  -2   25.34    5.93
   2 -10  -2   31.02    7.11
   2  10  -2   33.69    7.28
   2  10  -1    4.44    2.96
   2 -10  -1    5.30    5.18
   2 -10  -1   -0.51    2.20
  -2 -10  -1    3.70    3.73
  -2 -10   0    3.37    2.13
   2 -10   0   10.24    4.73
   2 -10   0    1.61    1.82
   2  10   0   11.75    3.81
  -2 -10   1    2.93    1.87
   2 -10   1    3.28    2.47
   2 -10   1    1.02    1.92
   2  10   1    0.57    2.49
   2 -10   2   41.88    8.47
  -2 -10   2   36.86    7.49
   2 -10   2   32.10    7.25
   2  10   2   50.47    9.65
   2 -10   3  101.55   12.87
   2 -10   3   86.17   12.31
   2  10   3   89.18   12.32
  -2 -10   3  117.05   13.60
   2  10   4   36.22    7.86
   2 -10   4   43.39   10.21
  -2 -10   4   31.61    8.37
   2 -10   4   27.61    7.52
   2  10   5    7.41    4.54
  -2 -10   5   10.11    4.32
   2 -10   5   14.59    5.17
  -2 -10   6   14.91    4.48
   2 -10   6   21.40    6.41
   2  10   6   34.21    9.20
   2 -10   7  203.71   18.61
  -2 -10   7  164.48   16.89
   2  10   7  235.59   20.54
  -2 -10   8   13.56    5.74
   2  10   8    2.52    3.14
   2 -10   8   13.27    4.39
   2  10   9   26.15    8.01
  -2 -10   9   17.62    5.60
   2 -10   9   28.97    7.11
   2 -10  10    5.13    2.47
   2  10  10   23.51    8.02
   2 -10  11   37.68    7.82
   2  10  15   40.83    9.03
   2 -11 -10    5.88    4.46
  -2 -11 -10   11.72    5.23
   2 -11 -10    7.71    4.69
   2 -11  -9    0.56    4.24
  -2 -11  -9    2.16    2.56
   2 -11  -9    0.33    3.43
   2 -11  -8    1.43    2.85
  -2 -11  -8    5.46    3.61
   2 -11  -8   -2.09    3.84
   2 -11  -7    0.27    3.30
   2 -11  -7    0.16    2.62
  -2 -11  -7    2.41    3.20
   2 -11  -6   12.80    5.41
  -2 -11  -6   14.45    5.36
   2 -11  -6   17.15    6.64
  -2 -11  -5    4.74    3.78
   2 -11  -5    5.13    2.79
   2 -11  -5   -1.87    2.41
   2  11  -5   -0.65    5.32
   2  11  -4    3.97    3.62
   2 -11  -4   -2.20    2.74
   2 -11  -4    7.51    4.07
  -2 -11  -4   -2.06    4.17
   2  11  -3   10.58    3.63
   2 -11  -3    5.94    4.47
  -2 -11  -3    4.74    4.67
   2 -11  -3    7.96    4.22
   2 -11  -2    3.55    2.65
   2 -11  -2    7.32    4.29
   2  11  -2    3.77    2.56
  -2 -11  -2    8.03    4.99
  -2 -11  -1    2.15    3.50
   2 -11  -1    8.27    4.25
   2  11  -1    5.87    3.43
   2 -11  -1   10.03    4.86
  -2 -11   0   -6.40    4.20
   2 -11   0   -0.02    2.92
   2 -11   0   -0.92    2.24
   2  11   0    2.64    4.02
   2 -11   1    6.95    4.82
   2  11   1    6.90    4.11
  -2 -11   1   16.20    5.57
   2 -11   1   13.59    4.77
   2 -11   2    2.03    3.62
  -2 -11   2   10.12    5.63
   2 -11   2    5.83    4.15
   2  11   2    7.24    4.44
   2 -11   3    9.51    4.99
   2  11   3   15.37    5.90
  -2 -11   3    7.07    4.41
   2 -11   4    3.64    3.76
   2  11   4    1.86    4.20
  -2 -11   4   -0.94    3.14
   2 -11   5    0.61    3.47
  -2 -11   5    0.45    2.16
   2  11   5    5.88    4.53
  -2 -11   6   18.24    7.35
   2 -11   6   10.63    5.26
   2  11   6   12.99    6.10
  -2 -11   7    3.86    4.29
   2  11   7    6.82    6.13
   2 -11   7   -2.12    3.59
  -2 -11   8   -7.08    3.46
   2 -11   8   10.03    4.57
   2 -11   9    3.19    3.29
   2 -11  10   -2.55    4.39
   3   0 -21   -0.08    1.27
   3   0 -20   -1.30    1.82
   3   0 -19   -1.16    2.25
   3   0 -18   -0.27    1.66
  -3   0 -17   -1.90    1.80
   3   0 -17   -0.10    1.44
   3   0 -16   -0.42    1.24
  -3   0 -16    1.65    1.32
  -3   0 -15   -0.64    1.18
   3   0 -15    0.69    1.40
   3   0 -14    0.06    1.13
  -3   0 -14    0.71    0.77
   3   0 -13   -0.58    0.82
   3   0 -12   -0.44    0.87
   3   0 -11    2.08    1.47
   3   0 -10    0.91    1.10
   3   0  -9   -0.13    0.33
   3   0  -9   -0.47    0.82
   3   0  -8   -0.01    0.23
   3   0  -8    0.01    0.89
   3   0  -7   -0.47    0.54
   3   0  -7    0.25    0.55
   3   0  -6    0.70    0.50
   3   0  -6    0.72    0.62
   3   0  -5    0.28    0.36
   3   0  -5    0.55    0.90
   3   0  -4   -0.41    0.74
   3   0  -4    0.73    0.65
   3   0  -3   -0.02    0.41
   3   0  -3    0.02    0.42
   3   0  -2    0.51    0.48
   3   0  -2    0.85    0.69
   3   0  -1    0.79    0.85
   3   0  -1    0.29    0.53
   3   0   0   -0.03    0.53
   3   0   0   -0.01    0.70
   3   0   1    0.10    0.46
   3   0   1   -0.12    0.43
   3   0   1   -0.04    0.57
   3   0   2   -0.88    1.02
   3   0   2    0.18    0.36
   3   0   2   -0.67    0.58
   3   0   3    0.70    0.36
   3   0   3    1.33    1.22
   3   0   3   -0.39    0.86
   3   0   4   -0.26    0.68
   3   0   4    0.14    0.69
   3   0   4    0.41    0.94
   3   0   5    1.32    0.91
   3   0   5   -0.54    0.92
   3   0   5   -0.45    1.20
   3   0   6   -0.20    0.52
   3   0   6    0.44    0.67
   3   0   6    0.18    0.65
   3   0   7    1.25    0.58
   3   0   7    0.68    1.07
   3   0   8    0.37    0.70
   3   0   8    0.63    1.25
   3   0   9    1.84    1.63
   3   0   9    1.48    0.69
   3   0  10    0.38    1.19
   3   0  10    0.55    0.83
   3   0  11   -0.45    0.78
   3   0  11   -1.07    1.42
   3   0  12   -0.46    1.22
   3   0  12   -0.04    0.76
   3   0  13   -0.74    2.11
   3   0  14    1.42    1.90
   3   0  15   -0.72    1.36
   3   0  16   -2.23    1.96
   3   0  17    1.09    1.15
   3   0  18    0.20    1.75
   3   0  19    0.45    1.71
   3   0  20    2.04    3.20
   3   0  21   -1.23    1.97
   3   0  22    0.17    2.59
   3   0  23   -2.24    3.17
   3   0  24    1.14    1.80
   3   0  25    0.54    2.69
   3   0  26   -5.91    4.61
   3   0  27    0.27    2.59
   3   0  28   -0.12    2.42
   3   0  29   -3.90    4.96
   3   0  30    0.65    4.92
   3  -1 -22   67.49    9.29
   3  -1 -21    9.35    3.53
   3  -1 -20  105.02   10.96
   3  -1 -19  215.80   14.66
   3   1 -19  196.08   13.26
   3   1 -18   29.08    4.71
  -3  -1 -18   32.49    5.37
   3  -1 -18   25.91    4.75
   3   1 -17  229.55   13.35
  -3  -1 -17  231.57   12.73
   3  -1 -17  230.37   14.49
   3   1 -16   90.80    8.38
   3  -1 -16   78.14    5.22
  -3  -1 -16   75.99    7.17
   3  -1 -15   59.25    7.10
   3  -1 -15   52.28    4.30
   3   1 -15   56.57    6.34
   3  -1 -14  163.91    7.47
   3   1 -14  150.63   10.01
   3  -1 -14  152.20   11.02
   3  -1 -13  687.78   22.62
   3  -1 -13  628.42   14.64
   3   1 -13  664.17   20.48
   3  -1 -12  533.27   20.59
   3  -1 -12  529.35   13.27
   3   1 -12  569.96   18.45
   3   1 -11  161.41    9.70
   3  -1 -11  146.78    9.86
   3  -1 -11  161.27    7.24
   3   1 -10  227.82   11.09
   3  -1 -10  256.86    9.08
   3  -1 -10  231.57   12.01
   3   1  -9  963.49   22.30
   3  -1  -9 1001.57   17.86
   3  -1  -8  323.23   10.01
   3   1  -8  315.56   12.36
   3  -1  -8  304.37   13.04
   3  -1  -7  447.61   11.88
   3   1  -7  490.52   15.08
   3  -1  -7  472.87   15.79
   3   1  -6 1434.38   25.02
   3  -1  -6 1460.59   21.59
   3  -1  -6 1443.66   26.83
   3  -1  -5  117.88    6.01
   3   1  -5  117.32    7.14
   3  -1  -5  117.97    7.37
   3   1  -4  841.80   18.74
   3  -1  -4  847.38   16.39
   3  -1  -3 4631.13   38.34
   3  -1  -3 4618.49   42.98
   3  -1  -2 1655.38   23.18
   3  -1  -2 1643.21   24.88
   3   1  -2 1695.16   25.41
   3  -1  -1  971.99   18.00
   3   1  -1  961.20   18.98
   3  -1  -1  982.13   18.36
   3  -1   0  938.27   18.09
   3   1   0  933.52   18.58
   3   1   0  914.94   19.00
   3  -1   0  905.83   16.98
   3   1   1  935.92   19.55
   3   1   1  910.01   18.72
   3  -1   1  952.95   16.52
   3   1   2 1665.91   26.66
   3   1   2 1688.83   25.78
   3  -1   2 1597.56   24.28
   3  -1   2 1556.85   20.18
   3  -1   2 1681.23   20.79
   3  -1   3 4610.56   32.66
   3   1   3 4643.49   45.03
   3  -1   3 4529.24   41.98
   3  -1   4  816.61   18.21
   3  -1   4  902.77   15.89
   3   1   4  868.16   20.39
   3   1   4  874.39   19.15
   3  -1   4  834.15   13.32
   3   1   5   95.14    7.29
   3   1   5  117.22    7.13
   3  -1   5  112.90    4.61
   3  -1   5  111.70    5.96
   3  -1   5  112.49    6.85
   3   1   6 1501.46   28.53
   3  -1   6 1498.96   15.58
   3   1   6 1505.95   25.83
   3  -1   6 1507.71   25.81
  -3   1   7  511.90   16.92
   3  -1   7  467.09   13.51
   3  -1   7  470.27    8.41
   3   1   7  469.59   16.46
   3  -1   7  496.59   14.99
   3   1   7  511.32   15.44
   3  -1   8  304.89   11.59
   3   1   8  292.41   13.21
   3   1   8  271.11   11.72
  -3   1   8  303.07   13.68
   3  -1   8  306.72   12.25
  -3   1   9  898.45   24.50
   3   1   9  997.46   25.66
   3  -1   9  929.39   21.64
   3   1   9  935.40   21.93
   3  -1   9  975.90   21.90
   3   1  10  275.62   13.92
  -3   1  10  262.87   13.91
   3  -1  10  234.84   11.23
   3   1  10  256.59   11.74
   3  -1  10  258.78   11.74
   3  -1  11  157.10    9.24
  -3   1  11  161.72   11.06
   3  -1  11  162.35    9.96
   3   1  11  161.34   11.20
   3   1  11  149.17    9.10
   3   1  12  587.08   21.56
   3  -1  12  587.84   19.97
   3   1  12  549.77   18.06
   3  -1  12  570.11   18.03
  -3   1  12  560.58   21.39
   3   1  13  639.32   23.52
  -3   1  13  629.97   23.81
   3   1  13  641.70   19.88
   3  -1  13  664.00   22.49
  -3   1  14  148.11   11.65
   3  -1  14  150.18   10.89
   3   1  14  175.14   12.52
   3   1  14  149.94    9.77
   3   1  15   56.07    7.60
   3  -1  15   48.04    6.24
   3  -1  16   92.04    9.00
  -3   1  16   87.99    9.42
  -3   1  17  219.56   15.72
   3  -1  17  218.61   14.41
   3   1  17  223.15   15.56
  -3   1  18   30.55    5.94
   3   1  18   23.48    5.18
   3  -1  18   20.97    4.98
   3  -1  19  213.00   15.37
   3   1  19  242.86   16.71
  -3   1  19  224.71   16.40
   3  -1  20  104.43   11.09
   3   1  20   97.78   10.86
  -3   1  20  104.18   11.37
   3   1  21   11.20    4.06
  -3   1  21    4.64    3.23
   3  -1  21    7.80    3.43
   3  -1  22   84.90   10.22
   3   1  22   97.82   11.54
  -3   1  22   66.21    9.59
   3  -1  23  236.36   17.99
   3   1  23  245.75   18.51
   3  -1  24   59.98    9.00
   3   1  24   36.25    7.87
   3   1  25  106.45   12.30
   3  -1  25   61.46    9.64
   3   1  26   18.79    6.10
   3  -1  26   21.86    6.16
   3  -1  27   40.82    8.63
   3   1  27   46.16    8.30
   3  -1  28   -5.70    3.18
   3   1  28   55.54   10.11
   3   1  29   81.59   12.03
   3   1  30    3.30    2.80
   3  -2 -23   49.46    8.59
   3  -2 -22    5.97    3.77
   3  -2 -21   58.74    8.20
   3  -2 -20   34.67    6.52
  -3  -2 -20   21.32    4.52
   3  -2 -19   33.45    6.98
  -3  -2 -19   39.88    6.45
   3  -2 -18   16.72    3.78
  -3  -2 -18   20.89    4.72
   3   2 -18   14.61    4.03
   3  -2 -17   13.46    3.07
   3  -2 -17    6.27    3.60
   3   2 -17    6.20    2.15
   3  -2 -16   20.65    3.55
   3  -2 -16   23.63    5.06
   3   2 -16   13.02    3.57
   3  -2 -15   67.72    6.15
   3   2 -15   65.48    7.12
   3  -2 -15   75.02    8.14
   3  -2 -14    4.30    1.71
   3  -2 -14    5.38    1.66
   3   2 -14    3.29    1.64
   3  -2 -13    0.84    1.09
   3   2 -13    2.81    0.80
   3  -2 -13    1.99    1.55
   3  -2 -12   56.48    6.71
   3   2 -12   44.98    5.40
   3  -2 -12   55.94    5.38
   3  -2 -11  307.40   12.44
   3   2 -11  325.45   13.79
   3  -2 -10  115.80    9.14
   3  -2 -10  121.07    7.66
   3   2 -10  105.99    7.69
   3   2  -9   21.84    3.65
   3  -2  -9   23.20    3.29
   3  -2  -9   22.95    4.28
   3  -2  -8  101.22    8.17
   3   2  -8   88.43    6.95
   3  -2  -8  101.56    7.03
   3  -2  -7   53.70    5.73
   3   2  -7   59.97    5.71
   3  -2  -7   58.69    5.17
   3  -2  -6  243.97   12.10
   3   2  -6  242.87   11.08
   3  -2  -6  258.64   10.98
   3   2  -5  367.36   13.40
   3  -2  -5  342.02   13.79
   3  -2  -4   56.80    5.08
   3  -2  -4   65.43    5.97
   3  -2  -3 1980.10   30.38
   3  -2  -3 1955.49   31.61
   3   2  -3 1998.52   31.43
   3  -2  -2 1145.65   23.28
   3   2  -2 1078.44   22.01
   3   2  -2 1077.60   23.32
   3  -2  -2 1089.56   22.62
   3   2  -1  441.72   15.07
   3  -2  -1  419.51   13.75
   3   2  -1  437.68   14.24
   3   2   0  369.36   13.74
   3  -2   0  359.82   12.99
   3  -2   0  369.74   12.26
   3   2   0  371.89   13.18
   3   2   1  437.93   15.23
   3   2   1  432.86   14.79
   3  -2   1  434.67   12.77
   3  -2   1  446.62   14.55
   3  -2   2 1061.26   22.33
   3  -2   2 1069.09   19.38
   3   2   2 1059.69   23.19
   3   2   2 1043.96   24.12
   3   2   3 1855.60   31.96
   3  -2   3 2044.81   24.87
   3  -2   3 2006.49   30.83
   3   2   3 1912.17   33.26
   3  -2   3 1964.10   18.52
  -3   2   4   66.62    5.46
   3  -2   4   69.86    5.81
   3   2   4   63.60    6.03
   3  -2   4   65.19    4.16
   3   2   4   70.20    6.28
   3  -2   4   57.90    3.25
   3  -2   5  373.43   13.58
   3   2   5  324.60   13.99
  -3   2   5  377.52   13.54
   3   2   5  347.63   14.49
   3  -2   5  334.44    9.09
   3  -2   5  376.33    8.96
  -3   2   6  251.35   11.71
   3  -2   6  246.32    7.04
   3   2   6  246.21   12.33
   3   2   6  253.37   12.47
   3  -2   6  250.95   11.40
   3  -2   6  236.15    7.55
   3  -2   7   59.17    4.22
   3   2   7   58.76    6.23
   3   2   7   62.38    6.49
   3  -2   7   57.52    2.95
  -3   2   7   71.45    6.56
  -3  -2   7   63.40    4.18
   3  -2   7   53.37    5.28
   3  -2   8   96.89    7.27
  -3  -2   8  109.53    5.28
   3   2   8  101.72    8.22
   3   2   8   89.93    8.05
   3  -2   8   87.06    5.58
  -3   2   8  110.49    8.50
   3  -2   9   23.16    3.64
   3   2   9   28.27    4.60
  -3   2   9   22.57    4.23
   3   2   9   16.93    3.67
  -3  -2   9   22.22    2.27
   3  -2   9   22.21    2.78
   3   2  10  114.17    9.15
   3   2  10  114.67    9.37
   3  -2  10  114.22    7.54
  -3   2  10  124.21    9.61
   3  -2  10  101.84    7.84
   3  -2  11  339.44   13.36
   3   2  11  319.85   16.31
   3   2  11  328.30   16.28
  -3   2  11  329.41   16.07
   3  -2  11  326.63   14.05
   3  -2  12   52.61    5.89
   3  -2  12   59.16    5.91
   3   2  12   44.91    5.60
   3   2  12   38.97    6.09
  -3   2  12   52.06    6.80
   3  -2  13    2.02    1.51
   3   2  13    4.89    2.14
  -3   2  13    4.20    2.31
   3   2  13   -0.17    1.04
   3  -2  13    0.71    0.84
   3  -2  14    4.45    2.53
  -3   2  14    7.22    3.56
   3   2  14    7.86    3.24
   3   2  14    4.75    2.39
   3  -2  14    5.39    2.58
   3  -2  15   70.81    7.54
   3   2  15   60.11    7.34
  -3   2  15   67.60    8.48
   3  -2  15   56.96    6.33
   3   2  15   65.43    8.53
   3  -2  16   29.18    4.85
   3   2  16   21.50    5.15
   3  -2  16   21.91    4.27
  -3   2  16   30.52    6.17
   3  -2  17    3.36    1.68
   3   2  17    8.56    3.25
  -3   2  17    7.17    2.47
   3   2  18   23.18    5.76
  -3   2  18   17.55    5.14
   3  -2  18   19.27    4.81
   3   2  19   48.84    7.91
   3  -2  19   28.42    5.72
  -3   2  19   38.74    6.72
   3  -2  20   26.65    5.38
   3   2  20   17.49    4.66
  -3   2  21   71.94   10.46
   3   2  21   67.08    9.21
   3  -2  21   66.53    9.05
  -3   2  22    2.43    2.32
   3   2  22    5.43    3.83
   3  -2  22    4.79    3.12
   3  -2  23   56.12   10.36
  -3   2  23   42.51    8.10
   3   2  23   50.47    9.54
  -3   2  24   12.41    4.98
   3   2  24    8.04    4.51
  -3   2  25    3.23    2.80
   3   2  25   10.68    5.18
  -3   2  26    8.85    4.48
   3   2  26   10.23    5.47
   3   2  27   50.97    9.00
   3   2  28   16.47    5.98
   3   2  29   53.21    9.41
   3   2  30    4.90    4.39
   3  -3 -24    6.68    4.54
   3  -3 -23  142.97   14.68
   3  -3 -22   29.89    6.92
  -3  -3 -21    2.02    2.38
   3  -3 -21    3.90    3.63
   3  -3 -20   10.74    3.87
  -3  -3 -20   16.46    5.06
  -3  -3 -19  125.05   12.02
   3  -3 -19  142.04   12.91
   3  -3 -18  153.99   11.33
   3  -3 -18  137.87   12.42
   3  -3 -17  107.83   10.83
   3  -3 -17  106.90    9.03
   3   3 -16   99.15    8.83
   3  -3 -16   84.05    8.08
   3  -3 -16   95.73    9.80
   3   3 -15  173.69   11.38
   3  -3 -15  201.49   12.29
   3  -3 -15  219.91   14.97
   3   3 -14   34.17    5.06
   3  -3 -14   34.15    5.79
   3  -3 -14   37.55    5.21
   3   3 -13  616.05   21.10
   3  -3 -13  661.34   25.02
   3  -3 -13  648.48   21.93
   3   3 -12 1045.92   26.92
   3  -3 -12 1066.42   31.13
   3  -3 -12 1049.42   27.18
   3  -3 -11  104.71    8.48
   3  -3 -11  104.31    9.69
   3   3 -11  110.30    8.52
   3  -3 -10  321.68   14.93
   3  -3 -10  363.83   17.59
   3  -3  -9 1640.28   36.43
   3   3  -9 1578.23   32.06
   3  -3  -9 1567.72   32.11
   3   3  -8   42.44    5.42
   3  -3  -8   48.60    5.62
   3  -3  -8   43.72    6.05
   3  -3  -7 1075.91   26.12
   3   3  -7 1027.70   25.53
   3  -3  -7 1024.06   28.33
   3   3  -6 1268.53   28.15
   3  -3  -6 1235.30   27.72
   3  -3  -6 1311.87   30.88
   3  -3  -5  170.24   10.14
   3   3  -5  167.22   10.06
   3  -3  -5  163.83   10.72
   3  -3  -4 2372.27   40.13
   3  -3  -4 2401.68   38.09
   3   3  -4 2375.79   35.60
   3   3  -3 4205.39   51.67
   3   3  -3 4264.14   48.28
   3  -3  -3 4096.93   51.48
   3   3  -2  854.92   23.60
   3  -3  -2  868.59   23.06
   3   3  -2  788.92   20.66
   3  -3  -2  818.29   22.38
   3  -3  -1 1092.76   25.56
   3   3  -1 1093.12   24.11
   3  -3  -1 1041.77   24.72
   3   3  -1 1105.71   26.85
   3  -3   0  823.49   22.16
   3  -3   0  789.95   20.96
   3   3   0  806.02   23.17
   3  -3   1 1082.50   25.57
   3   3   1 1074.42   24.86
   3  -3   1 1095.02   24.01
   3   3   1 1072.58   26.96
   3  -3   2  800.13   21.87
   3   3   2  825.44   21.98
   3   3   2  855.93   24.09
   3  -3   2  796.42   19.63
   3   3   3 4157.39   50.72
  -3   3   3 4542.21   44.08
   3   3   3 4316.96   55.16
   3  -3   3 4523.27   45.06
   3  -3   3 4308.45   51.19
   3  -3   4 2238.78   37.17
  -3   3   4 2266.96   33.28
   3   3   4 2311.27   41.25
   3  -3   4 2301.78   31.17
   3  -3   5  144.69    9.49
  -3   3   5  156.65    9.24
   3   3   5  147.59   10.15
   3   3   5  142.76   10.48
  -3  -3   5  152.89    8.76
   3  -3   5  139.34    7.38
   3  -3   6 1251.49   28.17
   3  -3   6 1226.32   20.48
  -3  -3   6 1274.85   24.42
  -3   3   6 1230.68   27.05
  -3   3   7 1161.06   27.51
   3  -3   7 1062.13   25.95
   3  -3   7 1088.82   18.10
   3  -3   7 1064.04   13.59
   3   3   7 1136.14   29.46
  -3  -3   7 1068.12   22.46
   3   3   7 1056.47   29.07
   3   3   8   24.11    4.80
   3  -3   8   45.59    3.23
   3   3   8   56.55    6.78
  -3   3   8   41.29    5.21
  -3  -3   8   46.02    4.57
   3  -3   8   19.25    2.16
   3  -3   8   45.67    5.50
   3   3   9 1485.74   35.01
  -3  -3   9 1586.07   26.03
   3  -3   9 1657.74   33.13
   3   3   9 1614.06   36.53
  -3   3   9 1583.73   34.37
   3  -3   9 1632.78   21.87
   3  -3   9 1470.90   17.38
   3  -3  10  347.09   15.51
   3   3  10  350.22   17.57
  -3   3  10  349.32   16.57
  -3  -3  10  330.48   11.44
   3  -3  10  342.20   11.04
  -3  -3  11   88.58    5.73
  -3   3  11   81.43    8.14
   3   3  11  100.38    9.65
   3  -3  11  105.94    8.54
   3   3  11  103.36    9.95
   3  -3  11  100.86    6.57
   3  -3  12 1019.02   22.74
   3   3  12 1030.07   31.08
   3  -3  12 1089.91   27.89
  -3  -3  12  987.18   18.35
   3   3  12 1013.40   31.07
  -3   3  12 1075.53   31.15
   3  -3  13  667.73   22.05
   3   3  13  640.82   24.89
   3  -3  13  637.56   18.95
   3   3  13  651.96   25.69
  -3   3  13  717.64   25.99
   3   3  14   40.50    6.56
   3  -3  14   36.33    5.05
   3  -3  14   35.55    4.98
   3   3  14   28.00    5.46
  -3   3  14   30.46    5.68
   3  -3  15  176.08   11.15
   3   3  15  182.28   14.00
  -3   3  15  212.36   14.81
   3   3  15  188.19   14.28
   3  -3  15  185.91   11.96
   3  -3  16   89.86    8.45
  -3   3  16   88.73    9.95
   3   3  16   83.18    9.64
   3   3  16   85.81    9.98
   3  -3  16   67.83    7.54
   3  -3  17  118.89   10.44
   3   3  17  119.08   12.13
  -3   3  17   92.98   10.25
  -3   3  18  133.15   12.70
   3   3  18  149.90   13.46
   3   3  19  142.13   13.76
  -3   3  19  116.26   12.69
   3   3  20   16.67    4.49
  -3   3  20   12.48    4.01
   3   3  21    4.00    3.52
  -3   3  21    5.50    3.57
   3   3  22   19.78    5.36
  -3   3  22   25.82    6.24
  -3   3  23  190.38   16.51
   3   3  23  178.18   15.78
   3   3  24    4.90    3.62
  -3   3  24    0.42    2.27
  -3   3  25  107.72   12.86
   3   3  25   82.84   12.02
   3   3  26   73.77   11.15
  -3   3  26   87.61   11.82
  -3   3  27   87.05   12.05
   3   3  27  122.68   14.48
  -3   3  28   91.36   12.66
   3   3  28   67.03   11.01
   3   3  29  177.11   16.99
   3  -4 -25   52.03    8.59
   3  -4 -24   12.71    5.49
   3  -4 -23    4.52    3.08
  -3  -4 -22   17.34    4.92
   3  -4 -22   18.88    5.67
   3  -4 -21   43.32    7.67
  -3  -4 -21   42.40    7.57
  -3  -4 -21   32.52    6.49
  -3  -4 -20   13.12    4.97
  -3  -4 -20   11.87    4.84
   3  -4 -20    9.80    3.66
   3  -4 -19   83.82   10.50
  -3  -4 -19   89.26   10.38
   3  -4 -18   13.83    4.26
   3  -4 -18   13.78    4.84
   3  -4 -17   -0.01    2.18
   3  -4 -17    5.35    2.39
   3  -4 -16   12.33    3.50
   3  -4 -16    9.93    2.87
   3  -4 -15   47.65    6.52
   3  -4 -15   51.78    7.69
   3   4 -15   51.92    6.89
   3  -4 -14   -0.01    1.12
   3   4 -14    1.20    1.06
   3  -4 -14    0.02    2.00
   3  -4 -13   55.19    7.08
   3   4 -13   48.54    6.48
   3  -4 -13   52.53    7.46
   3   4 -12   12.13    3.67
   3  -4 -12   19.22    5.18
   3  -4 -12   15.20    3.59
   3  -4 -11   79.36    9.53
   3  -4 -11   94.63    9.13
   3   4 -11   95.93    8.71
   3   4 -10  170.50   11.40
   3  -4 -10  179.94   12.35
   3  -4 -10  169.24   12.90
   3  -4  -9   98.83    9.10
   3   4  -9   91.18    8.56
   3  -4  -9   99.32    9.71
   3  -4  -8   52.68    6.49
   3   4  -8   65.28    7.27
   3  -4  -8   53.27    6.68
   3   4  -7   67.66    7.22
   3  -4  -7   65.61    7.40
   3  -4  -7   69.94    7.39
   3   4  -6  105.96    9.31
   3  -4  -6  107.42    9.57
   3  -4  -6  101.77    8.81
   3   4  -6  104.65    8.17
   3  -4  -5  405.28   18.47
   3   4  -5  450.70   18.63
   3  -4  -5  446.26   18.56
   3   4  -5  428.40   16.57
   3  -4  -4  286.17   14.82
   3  -4  -4  279.77   14.90
   3   4  -4  271.37   12.98
   3   4  -3  203.25   11.09
   3  -4  -3  176.73   11.60
   3  -4  -3  212.53   12.66
   3   4  -3  194.23   12.35
   3  -4  -2  420.13   17.77
   3  -4  -2  442.59   18.04
   3   4  -2  403.09   18.01
   3   4  -2  431.01   16.37
   3  -4  -1  544.81   20.16
   3   4  -1  605.39   19.61
   3  -4  -1  601.93   21.25
   3   4  -1  573.38   21.69
   3  -4   0  229.03   13.19
   3   4   0  215.82   11.51
   3   4   0  216.16   13.31
   3  -4   0  224.51   12.47
   3  -4   1  638.28   21.89
   3   4   1  541.12   21.72
   3  -4   1  608.94   20.19
   3   4   1  580.26   19.88
  -3   4   1  558.23   14.39
  -3  -4   1  618.23   20.77
   3  -4   2  422.69   16.45
   3  -4   2  389.15   17.28
  -3  -4   2  407.87   16.67
   3   4   2  396.20   16.48
  -3   4   2  401.90   13.47
   3  -4   3  179.40   11.76
  -3   4   3  206.24   10.16
  -3  -4   3  207.12   11.77
   3  -4   3  191.93   10.87
   3   4   3  166.35   12.28
   3   4   3  205.42   12.04
  -3  -4   4  312.77   14.43
   3  -4   4  299.05   13.03
   3   4   4  294.10   14.70
  -3   4   4  305.85   13.11
   3  -4   4  316.59   15.49
   3   4   4  315.24   16.92
  -3   4   5  401.35   15.61
   3   4   5  392.34   18.90
   3  -4   5  430.26   15.25
  -3  -4   5  416.79   16.61
   3   4   5  412.22   17.95
   3  -4   5  449.64   18.34
   3  -4   6   98.51    7.19
  -3  -4   6   96.42    8.08
   3   4   6  103.09    9.86
   3  -4   6   95.37    8.69
  -3   4   6  105.41    8.39
  -3   4   7   82.73    7.57
  -3  -4   7   70.06    6.77
   3  -4   7   77.00    7.59
   3  -4   7   75.82    6.09
   3   4   7   70.21    8.11
   3   4   7   63.51    7.33
   3  -4   8   65.95    5.42
  -3  -4   8   67.43    6.60
   3   4   8   58.50    6.82
   3  -4   8   48.81    6.06
   3   4   8   71.08    8.46
  -3   4   8   51.89    6.05
   3  -4   9   88.13    8.33
   3  -4   9   96.07    6.23
   3   4   9   94.08    9.16
  -3  -4   9  108.93    8.17
   3   4   9  101.18   10.23
  -3   4   9   75.78    7.82
   3   4  10  176.40   13.50
   3  -4  10  163.27   11.43
  -3   4  10  150.50   11.40
  -3  -4  10  157.43    9.88
   3   4  10  170.05   12.47
   3  -4  10  165.98    7.55
  -3  -4  11   85.64    7.13
   3   4  11   96.41   10.15
   3   4  11   76.78    9.13
   3  -4  11  109.61    9.43
  -3   4  11  125.69   10.62
   3  -4  12   19.25    4.39
  -3  -4  12   14.53    3.32
  -3   4  12   21.17    5.11
   3   4  12   11.88    3.80
   3   4  12   20.20    4.53
   3   4  13   46.05    6.88
  -3   4  13   60.07    7.75
   3   4  13   51.98    7.55
   3  -4  14   -0.72    1.40
   3   4  14    1.00    1.89
  -3   4  14    1.10    1.81
   3   4  14   -0.48    1.78
   3   4  15   39.50    6.84
  -3   4  15   36.02    6.66
   3  -4  15   43.87    6.09
   3   4  15   42.68    7.71
   3   4  16   13.30    3.82
   3   4  16    9.40    3.26
  -3   4  17    3.63    1.88
   3   4  17    6.77    3.92
   3   4  17    0.62    1.98
  -3   4  18   17.18    4.94
   3   4  18   17.76    5.45
   3   4  19   82.38   10.80
  -3   4  19   63.08    9.16
   3   4  20    8.10    3.60
  -3   4  20   14.57    3.48
  -3   4  21   35.89    7.62
   3   4  21   46.44    8.01
   3   4  22   17.51    4.59
  -3   4  22   12.93    4.91
   3   4  23   13.62    5.02
  -3   4  23   10.06    3.22
   3   4  24    9.98    5.57
  -3   4  24    7.28    3.02
   3   4  25   58.73    9.49
  -3   4  25   65.35   10.29
  -3   4  26    6.14    2.20
   3   4  26   12.84    4.94
  -3   4  27   68.66   10.51
   3   4  27   53.55    9.48
  -3   4  28   14.86    5.25
   3   4  28   10.03    4.74
   3  -5 -26   26.17    5.73
   3  -5 -25   92.29   12.69
   3  -5 -24   28.51    7.03
  -3  -5 -23   34.43    8.54
   3  -5 -23   38.50    8.33
  -3  -5 -22   19.57    5.30
   3  -5 -22   32.80    7.02
  -3  -5 -22   31.18    7.27
   3  -5 -21   11.59    5.86
  -3  -5 -21   12.19    5.31
  -3  -5 -21   10.13    4.06
   3  -5 -20   52.13    8.33
  -3  -5 -20   63.04    9.75
   3  -5 -19  139.13   14.27
   3  -5 -19  125.84   13.15
  -3  -5 -19  124.40   13.14
   3  -5 -18   45.10    7.68
  -3  -5 -18   44.39    7.04
   3  -5 -18   42.00    7.24
   3  -5 -17  107.04   10.76
   3  -5 -17  104.04   11.60
  -3  -5 -17   95.09   10.84
   3  -5 -16   98.83   10.86
  -3  -5 -16   88.27   10.64
   3  -5 -16   83.76   10.73
   3  -5 -15  152.48   13.16
  -3  -5 -15  133.42   12.81
   3  -5 -15  128.61   12.75
   3  -5 -14  129.97   12.80
   3  -5 -14  146.92   12.66
  -3  -5 -14   98.39   10.95
   3   5 -14  112.02   10.46
   3  -5 -13  388.67   20.07
   3   5 -13  466.62   20.81
   3  -5 -13  401.98   22.08
  -3  -5 -13  428.38   21.79
   3   5 -12  192.28   13.29
  -3  -5 -12  187.40   14.16
   3  -5 -12  199.20   15.22
   3  -5 -12  209.87   14.93
   3  -5 -11   63.33    8.00
   3   5 -11   72.58    7.99
   3  -5 -11   83.27    9.66
  -3  -5 -11   81.16    9.49
   3   5 -10   70.30    8.17
   3  -5 -10   89.00    9.25
  -3  -5 -10   99.29   10.14
   3  -5 -10  110.04   10.93
   3  -5  -9  387.82   19.50
   3  -5  -9  403.47   20.87
  -3  -5  -9  416.87   20.37
   3   5  -9  376.24   17.17
   3   5  -9  358.23   18.42
   3   5  -8   23.73    4.88
   3  -5  -8   21.97    5.21
   3  -5  -8   30.03    5.36
  -3  -5  -8   16.90    4.84
   3   5  -8   15.42    3.66
  -3  -5  -7  143.24   11.84
   3  -5  -7  158.66   12.95
   3  -5  -7  173.79   12.92
   3   5  -7  151.72   10.66
   3   5  -7  155.43   11.82
   3  -5  -6  149.79   11.65
   3  -5  -6  133.14   11.51
   3   5  -6  137.61   11.39
  -3  -5  -6  125.92   11.02
   3   5  -6  138.56    9.91
   3  -5  -5   12.85    3.88
  -3  -5  -5   15.02    3.76
   3   5  -5    8.81    3.06
   3  -5  -5   11.64    3.52
   3   5  -5    8.78    2.64
   3   5  -4   97.74    8.30
   3  -5  -4  101.45    9.76
   3  -5  -4   97.37    9.21
  -3  -5  -4  103.72    9.90
   3   5  -4  115.59   10.34
   3   5  -3  345.94   15.61
   3  -5  -3  335.59   17.58
  -3  -5  -3  347.81   17.73
   3  -5  -3  333.00   17.42
   3   5  -2    8.37    2.06
   3  -5  -2   16.78    3.72
   3   5  -2    3.03    2.11
   3  -5  -2    6.39    2.26
  -3  -5  -2   12.05    3.53
   3  -5  -1  419.70   19.42
   3   5  -1  449.60   20.71
   3  -5  -1  383.53   18.41
   3   5  -1  368.55   16.39
  -3  -5  -1  415.45   18.92
  -3  -5   0  211.15   13.53
   3  -5   0  194.67   13.26
   3   5   0  198.96   12.24
   3  -5   0  210.68   13.47
   3   5   0  178.68   13.08
   3  -5   1  384.77   18.79
  -3   5   1  404.09   13.33
   3  -5   1  438.92   18.90
   3   5   1  434.81   18.11
  -3  -5   1  416.71   18.85
   3   5   1  461.10   21.32
   3   5   2    8.73    2.53
  -3   5   2    9.99    2.46
   3  -5   2   10.25    2.91
  -3  -5   2   12.31    3.68
   3  -5   2   16.31    3.87
   3   5   2    4.11    2.46
   3   5   3  352.03   16.64
   3  -5   3  359.82   18.13
   3   5   3  318.28   17.94
   3  -5   3  341.95   16.39
  -3   5   3  339.95   13.99
  -3  -5   3  320.24   16.40
   3  -5   4  100.92    9.64
  -3  -5   4   97.78    9.10
   3  -5   4  109.46    9.12
   3   5   4   76.68    9.29
  -3   5   4  115.53    8.30
   3   5   4   89.99    8.70
   3   5   5    8.17    3.04
  -3  -5   5    8.52    2.51
   3  -5   5   14.37    4.05
   3  -5   5    5.72    2.31
   3   5   5    8.01    3.11
  -3   5   5   11.44    2.92
  -3   5   6  123.06    9.69
   3   5   6  126.74   10.63
   3   5   6  119.09   11.29
  -3  -5   6  124.57   10.13
   3  -5   6  123.89   10.51
   3  -5   6  134.94    9.77
   3   5   7  173.96   12.59
  -3   5   7  172.05   11.54
   3  -5   7  172.28   12.57
   3  -5   7  166.01   10.41
   3   5   7  173.51   14.03
  -3  -5   7  171.81   12.10
  -3  -5   8   27.00    4.87
   3   5   8   30.81    5.56
   3  -5   8   26.91    4.23
  -3   5   8   30.96    5.30
   3  -5   8   30.00    5.22
   3   5   8   41.07    7.00
   3   5   9  349.89   18.59
   3  -5   9  391.62   15.36
  -3  -5   9  389.17   17.98
  -3   5   9  441.64   19.88
   3   5   9  390.58   21.34
   3  -5   9  394.21   19.30
   3  -5  10   91.98    9.52
   3   5  10   83.34    9.93
  -3  -5  10   90.09    8.57
   3   5  10   76.24    9.10
  -3   5  10   93.61    9.66
   3  -5  11   67.50    7.85
   3   5  11   72.40    9.32
  -3   5  11   74.06    8.72
  -3  -5  11   76.30    7.92
   3   5  11   79.54    9.50
   3  -5  12  212.55   14.56
  -3  -5  12  196.20   12.48
  -3   5  12  192.08   14.02
   3   5  12  222.02   16.54
   3   5  12  192.85   14.67
  -3   5  13  433.32   21.95
   3   5  13  405.22   21.51
   3   5  13  401.79   22.48
   3  -5  13  408.54   20.73
  -3   5  14  102.44   11.07
   3   5  14  124.35   11.99
   3  -5  14   99.48   10.09
   3   5  14  107.12   11.76
  -3   5  15  109.45   11.77
   3   5  15  113.58   11.85
   3   5  16   86.47   10.93
  -3   5  16   74.02    9.49
   3   5  16   88.68   11.04
   3   5  17  105.69   12.04
  -3   5  17  112.17   11.75
   3   5  17  113.05   12.33
  -3   5  18   53.94    8.36
   3   5  18   57.26    9.37
  -3   5  19  133.09   13.44
   3   5  19  151.69   14.69
  -3   5  20   84.60   10.80
   3   5  20   92.44   12.08
  -3   5  21    9.67    4.74
   3   5  21   14.50    6.13
   3   5  22   23.87    5.50
  -3   5  22   21.66    6.52
  -3   5  23   46.58    9.15
   3   5  23   24.73    6.47
  -3   5  24   16.48    5.63
   3   5  24   28.87    7.21
  -3   5  25   97.26   12.21
   3   5  25   77.12   11.21
  -3   5  26   23.74    6.95
   3   5  26   33.55    7.36
  -3   5  27   28.98    7.15
   3   5  27   27.04    7.51
   3  -6 -26    6.53    5.37
   3  -6 -25   16.19    5.78
   3  -6 -24   17.70    6.74
  -3  -6 -24    9.56    4.75
   3  -6 -23    7.23    4.45
  -3  -6 -23    7.41    5.39
  -3  -6 -22    3.91    1.99
  -3  -6 -22    6.16    3.73
   3  -6 -21   42.13    8.87
  -3  -6 -21   45.77    8.59
  -3  -6 -21   20.19    5.60
   3  -6 -20    8.06    4.69
  -3  -6 -20    2.51    3.35
   3  -6 -19   99.87   11.86
   3  -6 -19  117.88   13.08
  -3  -6 -19  104.43   12.55
   3  -6 -18   46.43    8.57
  -3  -6 -18   35.07    8.99
   3  -6 -18   50.96    8.67
  -3  -6 -17   14.77    5.54
   3  -6 -17   14.13    4.46
   3  -6 -17    9.09    4.22
   3  -6 -16   47.06    8.20
   3  -6 -16   48.26    8.23
  -3  -6 -16   57.77    9.16
   3  -6 -15  133.81   12.64
   3  -6 -15  151.17   14.72
  -3  -6 -15  138.79   13.12
  -3  -6 -14   38.13    7.24
   3  -6 -14   42.69    7.67
   3  -6 -14   53.89    8.69
   3  -6 -13  366.94   21.92
   3  -6 -13  308.87   19.40
   3   6 -13  319.00   19.13
  -3  -6 -13  316.95   19.73
   3   6 -12   20.36    5.39
   3  -6 -12   18.06    4.87
   3  -6 -12   27.71    5.93
  -3  -6 -12   21.27    5.81
  -3  -6 -11  130.49   12.64
   3  -6 -11  122.91   12.62
   3  -6 -11  134.23   13.29
   3   6 -11  137.24   12.22
   3  -6 -10   80.45   10.06
   3  -6 -10   86.35   10.25
  -3  -6 -10   90.92    9.97
   3   6 -10   77.94    8.49
   3   6 -10   65.56    8.73
   3   6  -9   59.56    7.83
   3  -6  -9   58.45    8.00
   3   6  -9   66.60    7.75
   3  -6  -9   64.50    8.69
  -3  -6  -9   65.19    8.70
   3  -6  -8   57.64    8.25
   3  -6  -8   43.01    7.28
  -3  -6  -8   43.17    7.04
   3   6  -8   39.89    5.76
   3   6  -8   43.90    6.75
   3   6  -7  195.37   12.49
  -3  -6  -7  187.63   14.52
   3  -6  -7  210.27   15.06
   3  -6  -7  174.55   14.05
   3   6  -7  230.07   15.86
   3  -6  -6   30.92    5.82
   3  -6  -6   33.89    6.57
   3   6  -6   19.83    5.32
   3   6  -6   24.54    4.58
  -3  -6  -6   34.58    6.22
   3  -6  -5  117.46   11.67
  -3  -6  -5  124.89   11.72
   3  -6  -5  124.78   11.40
   3   6  -5  137.51   10.46
   3   6  -5  143.67   12.34
   3   6  -4   18.85    4.66
   3   6  -4   38.97    5.54
   3  -6  -4   24.38    5.17
  -3  -6  -4   25.35    4.99
   3  -6  -4   25.62    5.12
   3  -6  -3  152.48   12.45
   3   6  -3  175.99   13.77
   3   6  -3  138.52   10.39
   3  -6  -3  177.13   13.51
   3   6  -2  162.14   11.44
   3  -6  -2  172.49   13.45
   3  -6  -2  169.26   13.36
   3   6  -2  181.10   13.79
  -3  -6  -2  159.36   12.96
   3   6  -1  207.87   13.15
   3  -6  -1  179.15   13.79
  -3  -6  -1  193.43   14.34
   3  -6  -1  199.57   14.35
   3   6  -1  178.14   14.00
  -3   6   0    3.17    1.13
   3  -6   0    4.22    3.27
   3  -6   0   -1.85    2.03
   3   6   0   -0.01    1.37
  -3  -6   0    0.49    1.25
   3   6   0    0.02    2.36
   3  -6   1  215.62   15.16
   3   6   1  180.37   14.62
  -3  -6   1  197.79   14.14
  -3   6   1  191.41   10.05
   3   6   1  182.02   12.68
   3   6   2  170.52   12.16
  -3   6   2  157.34    9.70
  -3  -6   2  174.67   13.17
   3  -6   2  180.56   13.87
   3   6   2  166.05   13.91
  -3   6   3  143.33    9.91
  -3  -6   3  152.00   12.36
   3   6   3  152.25   13.23
   3  -6   3  136.09   12.14
   3   6   3  171.52   12.58
  -3  -6   4   27.00    5.46
  -3   6   4   25.64    4.36
   3   6   4   20.78    5.42
   3   6   4   27.64    5.28
   3  -6   4   28.77    5.43
   3  -6   4   26.18    5.00
  -3  -6   5  111.99   10.97
   3  -6   5   96.39    9.38
   3   6   5  127.52   12.28
  -3   6   5  126.44    9.94
   3   6   5  134.42   11.19
   3  -6   5  130.22   11.59
   3  -6   6   27.23    4.96
   3   6   6   26.69    5.53
  -3   6   6   28.50    5.04
  -3  -6   6   19.83    4.48
   3   6   6   33.41    5.97
   3  -6   6   31.54    5.63
  -3  -6   7  203.57   14.39
   3  -6   7  196.60   13.14
  -3   6   7  185.13   12.97
   3   6   7  173.49   13.44
   3   6   7  192.21   15.58
   3  -6   7  197.01   14.35
   3  -6   8   53.49    7.55
  -3  -6   8   49.83    6.94
   3  -6   8   45.94    6.49
   3   6   8   45.24    6.92
   3   6   8   34.89    6.19
  -3   6   8   52.33    7.27
   3   6   9   60.30    8.90
  -3   6   9   61.21    7.47
   3  -6   9   70.95    9.06
  -3  -6   9   76.48    8.71
   3   6   9   76.13    9.40
   3  -6  10   65.68    9.21
  -3  -6  10   73.52    8.46
  -3   6  10   79.25    9.12
   3   6  10   69.70    8.66
   3   6  10   65.84    9.31
   3  -6  11  125.12   11.96
  -3  -6  11  141.51   11.86
  -3   6  11  137.86   12.57
   3   6  11  108.57   11.49
   3   6  11  113.38   12.67
  -3   6  12   23.29    6.14
   3  -6  12   29.18    5.92
   3   6  12   21.15    5.14
   3   6  12   14.93    4.74
   3   6  13  338.73   21.62
   3  -6  13  348.10   19.94
  -3   6  13  298.21   18.75
   3   6  13  314.18   19.64
   3   6  14   64.99    9.41
   3  -6  14   48.27    8.00
   3   6  14   38.09    7.48
  -3   6  14   40.24    7.00
  -3   6  15  154.64   14.30
   3   6  15  150.17   14.20
   3   6  15  114.40   12.71
   3   6  16   67.18    9.86
   3   6  16   64.89   10.24
  -3   6  16   56.76    8.73
   3   6  17    8.44    4.58
   3   6  17    7.46    3.05
  -3   6  18   60.64    8.90
   3   6  18   53.22    9.03
   3   6  19   97.42   11.79
  -3   6  19  112.94   12.79
   3   6  20   10.84    4.66
  -3   6  20    9.69    4.15
  -3   6  21   52.79    8.99
   3   6  21   46.07    8.30
  -3   6  22    4.73    2.93
   3   6  22    6.19    2.83
  -3   6  23   17.34    5.68
   3   6  23    5.51    3.31
   3   6  24   13.33    5.52
  -3   6  24   13.52    5.31
   3   6  25   25.28    6.91
  -3   6  25    8.55    3.24
  -3   6  26    4.44    3.27
   3   6  26    4.39    4.03
  -3  -7 -24   34.30    9.04
   3  -7 -24   32.66    7.86
   3  -7 -23   32.84    7.04
  -3  -7 -23   32.79    7.34
  -3  -7 -22   53.86    9.94
   3  -7 -22   54.77    9.73
  -3  -7 -22   26.76    6.95
  -3  -7 -21   18.60    5.31
  -3  -7 -21   17.20    4.32
   3  -7 -21   22.35    5.72
   3  -7 -20   28.51    6.02
  -3  -7 -20   20.07    5.78
   3  -7 -20   24.40    5.95
   3  -7 -19  104.84   13.07
   3  -7 -19   76.67   11.92
  -3  -7 -19   71.89   10.51
  -3  -7 -18    2.12    2.26
   3  -7 -18   12.17    5.36
   3  -7 -18    7.03    4.28
  -3  -7 -17   72.76   10.38
   3  -7 -17   84.90   11.68
   3  -7 -17   69.34   10.94
   3  -7 -16  122.67   13.18
   3  -7 -16  119.69   13.92
  -3  -7 -15   24.19    6.45
   3  -7 -15   27.42    6.30
   3  -7 -15   31.38    7.36
  -3  -7 -14   29.06    7.57
   3  -7 -14   27.24    6.38
  -3  -7 -13  143.57   14.25
   3  -7 -13  147.03   14.41
   3  -7 -13  131.25   13.40
  -3  -7 -12   34.91    7.52
   3  -7 -12   45.83    7.79
   3  -7 -12   48.56    8.93
   3   7 -12   37.84    7.85
  -3  -7 -11    2.89    2.98
   3   7 -11    6.33    3.03
   3  -7 -11    1.51    1.71
   3  -7 -11   -2.91    3.53
   3  -7 -10   55.00    8.84
   3  -7 -10   58.08    9.04
   3   7 -10   61.69    9.50
  -3  -7 -10   46.67    7.79
   3  -7  -9  225.66   17.42
  -3  -7  -9  251.62   17.96
   3  -7  -9  228.14   16.87
   3   7  -9  242.98   17.20
   3  -7  -8   22.82    5.69
   3  -7  -8   17.88    5.33
  -3  -7  -8   17.01    5.07
   3   7  -8   13.70    4.40
  -3  -7  -7   61.21    8.96
   3   7  -7   53.79    8.15
   3  -7  -7   78.17   10.26
   3  -7  -7   78.46    9.96
   3  -7  -6  134.43   13.20
  -3  -7  -6  128.24   12.52
   3   7  -6  114.12   11.92
   3  -7  -6  121.28   12.39
   3   7  -5   54.34    7.14
   3  -7  -5   61.02    8.60
  -3  -7  -5   51.20    8.08
   3   7  -5   62.70    8.36
   3  -7  -5   53.86    8.72
   3  -7  -4  225.81   16.74
   3   7  -4  220.46   14.19
  -3  -7  -4  246.95   17.22
   3  -7  -4  257.60   17.83
   3   7  -4  254.51   17.93
   3   7  -3  263.73   18.35
   3  -7  -3  244.14   17.26
   3  -7  -3  234.44   16.93
  -3  -7  -3  251.16   17.31
   3   7  -3  188.72   13.26
   3  -7  -2  140.47   13.06
   3   7  -2  116.55   10.33
   3   7  -2  122.01   12.51
   3  -7  -2  115.48   11.82
  -3  -7  -2  116.87   12.05
   3   7  -1  543.92   22.32
   3  -7  -1  533.99   24.99
   3   7  -1  579.78   27.09
  -3  -7  -1  468.17   23.84
   3  -7  -1  499.23   24.40
   3   7   0  346.56   21.09
   3  -7   0  342.51   20.39
  -3  -7   0  319.39   19.71
   3   7   0  284.47   16.54
   3  -7   0  341.71   20.00
   3  -7   1  501.79   24.01
   3  -7   1  507.72   24.67
   3   7   1  451.78   24.30
   3   7   1  509.80   22.55
  -3  -7   1  517.83   24.33
   3   7   2  106.74   10.00
   3  -7   2  130.65   12.89
   3   7   2  125.46   12.74
   3  -7   2  139.90   12.80
  -3  -7   2  137.67   13.25
   3  -7   3  264.22   17.97
  -3  -7   3  210.05   16.13
   3   7   3  233.96   15.44
  -3   7   3  250.47   13.61
   3   7   3  260.67   18.54
   3  -7   3  231.28   16.28
   3  -7   4  230.14   16.85
  -3  -7   4  291.26   18.66
   3   7   4  264.60   18.77
   3   7   4  268.26   16.60
   3  -7   4  252.88   16.93
  -3   7   4  261.34   14.49
   3   7   5   45.63    8.20
   3  -7   5   51.24    7.51
  -3  -7   5   63.84    8.79
  -3   7   5   52.87    6.68
   3   7   5   51.65    8.03
   3  -7   5   70.58    9.26
   3  -7   6  110.50   10.87
   3  -7   6  120.04   12.27
  -3   7   6  120.71   10.44
   3   7   6  112.48   12.70
  -3  -7   6  103.36   11.14
   3   7   6  118.49   11.76
   3  -7   7   72.01    8.91
   3  -7   7   63.90    8.83
  -3   7   7   70.63    8.14
  -3  -7   7   68.12    8.84
   3   7   7   68.81   10.64
   3   7   7   84.09    9.96
   3   7   8   24.20    5.64
   3  -7   8   21.93    5.37
  -3  -7   8   24.33    5.71
  -3   7   8   20.19    5.01
   3   7   8   16.92    5.06
   3   7   9  244.57   17.22
   3  -7   9  210.91   16.28
  -3  -7   9  212.85   16.27
  -3   7   9  205.84   14.80
   3   7   9  204.31   17.08
   3  -7  10   56.24    8.40
  -3  -7  10   74.06    9.63
  -3   7  10   73.45    9.34
   3   7  10   65.82    9.53
   3   7  10   57.06    9.09
   3  -7  11    1.96    1.97
  -3  -7  11    8.57    3.04
  -3   7  11    2.79    2.42
   3   7  11    2.58    2.51
   3   7  11    5.87    2.50
   3  -7  12   46.09    7.76
  -3   7  12   48.46    8.22
   3   7  12   50.11    8.12
   3   7  12   47.34    8.74
   3  -7  13  105.87   12.36
  -3   7  13  140.00   13.59
   3   7  13  116.46   13.09
   3   7  13  109.15   12.36
   3   7  14   45.00    8.31
   3   7  14   31.33    6.77
   3  -7  14   31.71    7.85
  -3   7  14   44.40    7.99
   3   7  15   44.46    8.19
  -3   7  15   31.58    8.07
   3   7  15   45.01    8.77
   3   7  16  110.69   13.54
   3   7  16  116.54   13.06
  -3   7  16  128.29   13.87
  -3   7  17   69.81   10.09
   3   7  17   83.83   11.10
  -3   7  18    7.06    4.75
   3   7  18    8.67    3.55
   3   7  19  102.24   12.36
  -3   7  19  101.99   12.44
  -3   7  20   21.29    6.29
   3   7  20   15.60    5.57
   3   7  21   20.45    5.49
  -3   7  21   17.39    5.83
   3   7  22   68.29   10.57
  -3   7  22   70.54   10.69
  -3   7  23   25.60    7.05
   3   7  23   32.14    7.64
  -3   7  24   30.53    7.24
   3   7  24   35.43    8.20
   3  -8 -22    8.86    4.13
  -3  -8 -22   11.65    5.15
  -3  -8 -22    7.22    4.95
  -3  -8 -21   12.15    5.13
   3  -8 -21    9.54    3.99
  -3  -8 -21    6.14    4.96
  -3  -8 -20   12.52    6.29
   3  -8 -20    8.62    4.70
  -3  -8 -20   10.32    4.68
   3  -8 -20    6.84    3.10
   3  -8 -19   20.83    6.50
  -3  -8 -19   21.41    7.13
   3  -8 -19   15.36    5.32
   3  -8 -18    0.97    2.69
   3  -8 -18   -1.73    2.39
  -3  -8 -18   -2.05    2.80
  -3  -8 -17   16.74    4.33
   3  -8 -17   24.63    6.16
   3  -8 -17   27.84    6.95
  -3  -8 -16   22.34    6.23
   3  -8 -16   20.61    5.99
   3  -8 -16   33.36    7.52
  -3  -8 -15   45.84    8.02
   3  -8 -15   35.61    6.88
   3  -8 -15   57.52    9.88
   3  -8 -14   28.67    5.79
   3  -8 -14   31.94    7.81
  -3  -8 -14   33.48    7.38
   3  -8 -13  127.91   14.03
  -3  -8 -13  138.24   14.25
   3  -8 -13  137.98   14.92
  -3  -8 -12   48.31    8.24
   3  -8 -12   38.25    7.83
   3  -8 -12   47.25    8.52
   3   8 -11    4.49    4.53
   3  -8 -11    4.24    3.44
  -3  -8 -11   12.24    5.52
   3  -8 -11    2.66    1.56
   3  -8 -10   14.85    5.83
   3  -8 -10   21.51    6.38
  -3  -8 -10   29.18    6.68
   3   8 -10   30.45    7.01
   3  -8  -9   76.71   10.33
   3   8  -9   58.81   10.13
   3  -8  -9   74.52   10.65
  -3  -8  -9   80.60   10.86
   3  -8  -8   13.10    4.70
  -3  -8  -8   23.76    6.19
   3  -8  -8   25.30    5.69
   3   8  -8   15.55    5.09
   3  -8  -7   35.23    7.30
  -3  -8  -7   36.07    6.85
   3  -8  -7   41.99    8.05
   3   8  -7   38.37    7.56
   3  -8  -6   11.11    3.49
   3   8  -6    2.61    1.90
   3  -8  -6    5.19    3.49
  -3  -8  -6    6.92    3.34
  -3  -8  -5   31.31    5.98
   3   8  -5   16.25    5.29
   3  -8  -5   27.87    6.41
   3  -8  -5   19.37    5.06
   3  -8  -4   58.44    9.36
   3   8  -4   79.45   10.68
   3  -8  -4   68.13   10.03
  -3  -8  -4   78.55   10.01
   3  -8  -3   50.24    8.26
  -3  -8  -3   53.17    8.72
   3   8  -3   50.76    8.25
   3  -8  -3   53.15    8.60
  -3  -8  -2   15.99    5.09
   3  -8  -2    7.27    4.05
   3  -8  -2   18.42    5.27
   3   8  -2   14.15    4.46
  -3  -8  -1   80.54   10.39
   3  -8  -1   64.16    9.26
   3   8  -1   82.69   11.02
   3  -8  -1   69.45    9.47
   3  -8   0   16.05    4.66
   3  -8   0    4.92    3.34
   3   8   0   12.55    3.84
   3   8   0   14.44    4.07
   3   8   1   60.61    8.17
   3  -8   1   87.57   11.00
  -3  -8   1   83.78   10.60
   3  -8   1   85.40   11.00
   3   8   1   71.42   10.03
   3  -8   2    8.72    2.90
   3   8   2    7.77    3.82
   3  -8   2   12.11    3.92
   3   8   2   13.40    4.33
  -3  -8   2   16.62    5.06
   3  -8   3   57.19    8.93
  -3  -8   3   64.33    9.73
   3   8   3   50.04    8.07
   3  -8   3   67.60    9.28
   3   8   3   52.18    8.78
   3  -8   4   68.67    9.57
  -3  -8   4   69.85    9.49
   3   8   4   64.26   10.66
   3  -8   4   84.71   10.97
   3   8   4   50.07    8.16
   3  -8   5   22.13    5.01
   3   8   5   18.39    4.95
  -3  -8   5   22.49    5.85
   3  -8   5   24.53    5.89
   3   8   5   26.01    7.26
   3   8   6   10.72    5.36
   3  -8   6    7.32    3.02
  -3  -8   6    4.88    3.71
   3   8   6    8.98    4.39
   3  -8   6   10.28    4.84
  -3   8   7   34.57    6.42
  -3  -8   7   20.82    5.12
   3   8   7   45.07    8.39
   3  -8   7   16.63    4.58
   3   8   7   32.78    6.73
  -3  -8   8   19.94    4.77
   3  -8   8   29.01    7.04
  -3   8   8   30.85    6.26
   3   8   8   18.59    5.82
   3   8   8   23.57    5.31
   3  -8   9   76.69    9.86
  -3  -8   9   62.34    9.57
  -3   8   9   95.50   10.72
   3   8   9   75.48   10.30
   3   8   9   65.01   10.55
   3   8  10   22.09    6.37
  -3  -8  10   32.01    6.60
   3   8  10   26.32    7.18
   3  -8  10   25.97    6.72
  -3   8  10   18.74    4.52
   3   8  11    3.46    2.66
   3  -8  11    0.87    2.06
  -3   8  11    7.03    2.61
   3   8  11    7.26    3.32
   3   8  12   44.14    8.93
   3   8  12   42.85    7.85
  -3   8  12   52.07    8.45
   3  -8  12   37.50    8.49
   3  -8  13  124.61   13.37
  -3   8  13  111.07   12.25
   3   8  13  156.60   15.59
   3   8  13  120.89   14.27
   3   8  14   34.37    7.37
   3   8  14   26.38    6.46
  -3   8  14   31.08    6.56
   3   8  15   62.34   10.49
  -3   8  15   47.76    7.94
   3   8  15   57.27    9.89
   3   8  16   27.77    6.73
  -3   8  16   25.01    6.38
  -3   8  17   17.59    5.46
   3   8  17   19.52    5.82
  -3   8  18    0.17    3.10
   3   8  18    9.08    4.27
  -3   8  19   25.21    6.48
   3   8  19   16.58    5.94
   3   8  20    2.73    3.12
  -3   8  20    6.67    3.97
   3   8  21    5.57    4.86
  -3   8  21   12.83    6.61
  -3   8  22    6.45    3.22
   3   8  22   15.88    5.72
   3  -9 -19   71.44   11.60
  -3  -9 -19   59.81   10.99
   3  -9 -19   68.20   10.48
   3  -9 -18   10.47    5.99
  -3  -9 -18   17.24    5.79
   3  -9 -18    7.63    5.15
  -3  -9 -17    5.88    4.66
   3  -9 -17    5.79    5.05
   3  -9 -17    6.30    4.81
  -3  -9 -16    8.63    4.77
   3  -9 -16   11.99    3.79
   3  -9 -15   35.41    8.60
  -3  -9 -15   24.29    6.35
   3  -9 -15   38.14    8.29
  -3  -9 -14   19.49    6.31
   3  -9 -14   29.15    7.03
   3  -9 -14   19.94    5.66
   3  -9 -13   42.04    8.69
  -3  -9 -13   38.35    8.75
   3  -9 -13   34.50    7.76
  -3  -9 -12    5.35    4.28
   3  -9 -12    2.79    3.11
   3  -9 -12    0.63    3.92
   3  -9 -11    9.93    5.14
  -3  -9 -11   17.89    6.38
   3  -9 -11   13.59    4.90
   3  -9 -10   35.45    7.52
  -3  -9 -10   44.55    8.53
   3  -9 -10   39.76    8.00
   3  -9  -9  175.52   16.89
   3  -9  -9  198.64   17.74
  -3  -9  -9  176.38   16.70
   3   9  -9  177.71   16.86
   3  -9  -8   66.62   10.31
   3   9  -8   81.58   11.25
  -3  -9  -8   70.03   10.97
   3  -9  -8   66.16   10.08
   3  -9  -7  169.34   16.17
   3  -9  -7  139.63   14.23
  -3  -9  -7  168.98   16.36
   3   9  -7  153.39   15.64
   3  -9  -6  119.18   13.77
   3  -9  -6  145.01   14.68
   3   9  -6  105.46   13.03
  -3  -9  -6  104.73   12.05
   3  -9  -5  119.87   13.51
   3  -9  -5  157.52   15.29
  -3  -9  -5  128.98   13.68
   3   9  -5  128.39   14.91
   3  -9  -4  194.37   17.09
   3  -9  -4  174.54   16.46
   3   9  -4  133.00   14.71
  -3  -9  -4  173.84   16.16
   3  -9  -3  267.83   19.98
  -3  -9  -3  252.04   19.31
   3   9  -3  219.02   18.47
   3  -9  -3  219.69   18.31
   3  -9  -2   35.06    6.84
   3  -9  -2   45.03    8.22
   3   9  -2   31.68    7.11
  -3  -9  -2   44.28    8.23
  -3  -9  -1  148.52   14.83
   3  -9  -1  131.78   13.89
   3   9  -1  123.74   14.39
   3  -9  -1  156.07   15.14
   3  -9   0   69.28   10.12
  -3  -9   0   86.26   11.34
   3  -9   0  104.60   12.49
   3   9   0   71.88   11.20
   3  -9   1  157.65   15.20
  -3  -9   1  119.93   13.28
   3   9   1  161.83   16.32
   3  -9   1  145.17   14.58
   3  -9   2   48.48    8.52
  -3  -9   2   26.69    6.95
   3  -9   2   34.18    7.39
   3   9   2   22.73    6.51
   3   9   3  217.15   18.81
   3  -9   3  243.75   19.27
  -3  -9   3  231.19   18.56
   3  -9   3  198.45   17.27
   3   9   4  162.64   16.31
   3  -9   4  193.35   17.44
  -3  -9   4  175.22   16.07
   3  -9   4  154.30   15.25
   3  -9   5  127.59   14.05
  -3  -9   5  116.21   13.68
   3  -9   5  113.71   13.41
   3   9   5  107.50   13.58
  -3  -9   6  102.57   12.32
   3   9   6  115.23   12.68
   3  -9   6  115.60   13.24
   3   9   6   91.76   12.35
   3   9   7  161.14   16.71
  -3  -9   7  149.86   15.37
   3  -9   7  141.69   14.80
   3   9   7  136.42   13.99
   3  -9   8   58.58    9.49
   3   9   8   56.77   10.21
   3   9   8   83.05   10.84
  -3  -9   8   44.65    8.49
   3  -9   9  177.52   16.71
  -3  -9   9  128.85   13.92
   3   9   9  156.44   15.90
   3   9   9  166.02   16.89
   3  -9  10   44.79    8.40
   3   9  10   64.12   10.47
   3   9  10   55.81    9.64
   3   9  11   21.00    5.79
   3  -9  11   10.81    4.03
   3   9  11   18.04    5.40
   3   9  12    3.00    2.90
   3  -9  12   -2.48    3.15
   3   9  13   34.01    8.20
   3   9  13   44.15    8.29
  -3   9  14   15.01    6.04
   3   9  14   19.30    6.28
   3   9  14   24.36    6.54
  -3   9  15   12.83    4.65
   3   9  15   38.00    8.00
  -3   9  16   20.44    7.41
   3   9  16   33.52    8.12
  -3   9  17    7.31    4.08
   3   9  17    2.48    2.95
  -3   9  18   22.71    7.45
   3   9  18   10.01    3.92
  -3   9  19   63.15   10.56
   3   9  19   85.35   12.54
   3 -10 -15   -5.57    2.60
  -3 -10 -15   10.58    5.96
   3 -10 -15   15.14    6.03
   3 -10 -14   11.90    5.10
  -3 -10 -14    3.81    3.64
   3 -10 -14   10.40    5.62
   3 -10 -13    4.69    3.14
   3 -10 -13    3.37    2.45
  -3 -10 -13    5.41    4.77
   3 -10 -12   16.04    6.08
  -3 -10 -12   16.48    5.09
   3 -10 -12    9.41    4.68
   3 -10 -11   75.32   11.36
   3 -10 -11   74.61   12.19
  -3 -10 -11   75.40   10.29
   3 -10 -10   21.92    6.55
   3 -10 -10    8.06    4.94
  -3 -10 -10   18.35    6.26
   3 -10  -9   29.03    7.45
  -3 -10  -9   26.72    6.96
   3 -10  -9   32.29    7.65
   3 -10  -8   32.06    7.20
  -3 -10  -8   56.57    9.86
   3  10  -8   47.86    9.46
   3 -10  -8   51.42    9.42
   3 -10  -7    9.44    6.25
  -3 -10  -7    2.02    2.36
   3 -10  -7   10.25    4.35
   3  10  -7    5.93    3.88
   3 -10  -6    7.53    5.94
   3 -10  -6   13.04    6.10
   3  10  -6    1.44    2.42
  -3 -10  -6    8.66    4.33
   3 -10  -5   71.12   10.29
   3 -10  -5   71.72   10.48
  -3 -10  -5   97.40   12.23
   3  10  -5   64.80   10.37
   3 -10  -4   70.37   11.50
  -3 -10  -4   82.77   11.82
   3  10  -4   65.44    9.87
   3 -10  -3  270.04   20.79
  -3 -10  -3  272.72   20.60
   3 -10  -3  269.14   21.08
   3  10  -3  309.58   23.22
   3 -10  -2   29.97    7.02
   3 -10  -2   31.68    7.70
  -3 -10  -2   30.04    7.27
   3  10  -2   43.75    8.34
   3 -10  -1   19.74    5.53
   3 -10  -1   18.38    6.24
  -3 -10  -1   15.42    5.63
   3  10  -1   29.41    7.18
   3 -10   0   31.51    7.18
   3 -10   0   18.49    6.15
   3  10   0   35.48    8.68
  -3 -10   0   18.36    5.11
   3 -10   1   16.11    5.51
   3 -10   1   21.63    6.07
  -3 -10   1   15.53    4.89
   3  10   1   13.80    5.08
   3  10   2   29.42    7.55
   3 -10   2   22.13    6.58
   3 -10   2   29.01    6.74
  -3 -10   2   32.97    7.34
   3 -10   3  254.85   20.44
  -3 -10   3  254.74   20.61
   3  10   3  248.24   21.19
   3 -10   3  270.88   21.06
  -3 -10   4   76.59   11.24
   3 -10   4   82.28   11.76
   3  10   4   85.40   12.38
  -3 -10   5   69.07   11.31
   3  10   5   78.59   11.44
   3 -10   5   78.99   11.73
   3 -10   6   11.00    4.53
  -3 -10   6   17.38    6.57
   3  10   6   10.81    5.42
   3 -10   7    3.97    1.95
  -3 -10   7   15.83    6.37
   3  10   7    8.68    5.81
   3  10   8   42.53    8.60
   3 -10   8   41.32    8.04
  -3 -10   8   40.89    8.39
  -3 -10   9   44.32   10.17
   3 -10   9   36.77    8.29
   3  10   9   30.59    7.03
   3 -10  10   10.61    4.26
   3  10  10   16.67    4.88
   3  10  11   76.97   12.11
   3 -10  11   70.19   10.86
   3 -10  12    0.99    1.85
   3  10  12    8.20    4.65
   3  10  13    5.66    4.82
   3  10  14    8.96    4.75
   3  10  15    2.07    3.37
   3 -11  -9   31.96    8.21
   3 -11  -9   33.60    8.55
  -3 -11  -9   14.76    6.27
   3 -11  -8   80.53   12.14
  -3 -11  -8   73.79   10.68
   3 -11  -8   73.50   11.72
   3 -11  -7   60.52   11.10
   3 -11  -7   82.11   12.31
  -3 -11  -7   78.63   11.80
   3  11  -6   10.09    5.14
   3 -11  -6   20.03    6.90
   3 -11  -6   14.43    4.88
  -3 -11  -6    7.61    4.43
   3 -11  -5   11.30    4.77
   3 -11  -5   23.55    7.02
   3  11  -5   18.22    6.38
  -3 -11  -5   34.36    7.85
   3 -11  -4   36.56    7.44
  -3 -11  -4   32.13    7.78
   3 -11  -4   41.71    8.58
   3  11  -4   38.65    8.98
   3  11  -3    5.45    3.86
  -3 -11  -3    9.31    5.11
   3 -11  -3   17.57    6.22
   3 -11  -3    9.83    4.25
   3  11  -2   10.33    5.21
   3 -11  -2   11.93    4.35
   3 -11  -2   12.88    6.34
  -3 -11  -2   10.94    5.27
   3 -11  -1    9.37    4.44
   3  11  -1    6.88    3.91
  -3 -11  -1   -0.27    4.30
   3 -11   0   -0.06    2.71
  -3 -11   0   -7.07    5.13
   3  11   0    0.69    2.85
   3 -11   1    5.69    4.86
  -3 -11   1    6.61    3.26
   3  11   1    8.09    5.43
   3 -11   1    4.73    3.29
  -3 -11   2   10.17    3.53
   3 -11   2    0.16    3.82
   3  11   2    2.51    3.75
   3 -11   3   12.16    5.46
  -3 -11   3   12.88    4.93
   3  11   3    1.93    3.25
   3 -11   4   26.58    7.21
  -3 -11   4   35.31    8.47
   3  11   4   36.75    8.56
   3 -11   5   23.58    6.58
  -3 -11   5   15.38    4.92
   3  11   5   14.34    5.63
  -3 -11   6   16.56    6.09
   3  11   6   11.13    4.39
   3 -11   7   70.72   11.18
   3  11   7   63.86   10.70
  -3 -11   7   71.94   11.71
   3  11   8   93.73   12.90
   3 -11   8   84.04   12.68
   3 -11   9   20.95    6.37
   3  11   9   26.56    7.47
   4   0 -21  187.33   14.52
   4   0 -20  159.10   13.12
   4   0 -19  191.94   14.13
   4   0 -18  248.42   15.65
   4   0 -17 1072.66   31.40
   4   0 -16  202.83   13.45
  -4   0 -16  183.67    9.23
   4   0 -15  411.49   18.77
   4   0 -14  296.44   15.32
   4   0 -13  205.65   12.56
   4   0 -12  193.32   11.87
   4   0 -11 1601.13   33.24
   4   0 -11 1332.51   15.45
   4   0 -10  124.08    9.03
   4   0 -10  113.66    4.94
   4   0  -9 1442.17   29.96
   4   0  -9 1447.52   18.09
   4   0  -8  415.05   15.59
   4   0  -8  440.04   10.23
   4   0  -7   57.40    5.80
   4   0  -7   65.27    4.08
   4   0  -6  240.42   11.34
   4   0  -6  216.43    7.69
   4   0  -5  397.80   10.64
   4   0  -5  403.14   14.33
   4   0  -4  192.07    9.81
   4   0  -4  210.62    8.04
   4   0  -3 1744.49   23.70
   4   0  -3 1719.14   28.59
   4   0  -2 1310.07   24.01
   4   0  -2 1332.99   21.51
   4   0  -1  630.70   15.17
   4   0  -1  633.33   16.60
   4   0   0  917.12   19.46
   4   0   0  878.03   18.84
   4   0   1  660.41   16.10
   4   0   1  651.08   16.74
   4   0   2 1285.80   22.33
   4   0   2 1305.41   23.91
   4   0   2 1264.17   23.12
   4   0   3 1818.22   25.72
   4   0   3 1843.87   28.73
   4   0   3 1759.87   27.99
   4   0   4  178.61    8.07
   4   0   4  164.75    8.87
   4   0   4  177.83    9.15
   4   0   5  370.17   13.64
   4   0   5  388.96   13.81
   4   0   6  210.14    8.85
   4   0   6  201.40   10.23
   4   0   6  210.06   10.40
   4   0   7   49.20    4.29
   4   0   7   55.89    5.65
   4   0   7   50.14    5.30
   4   0   8  414.91   15.91
   4   0   8  458.92   13.73
   4   0   9 1465.75   30.34
   4   0   9 1519.34   24.45
   4   0  10  129.35    9.36
   4   0  10  136.82    7.22
   4   0  11 1563.07   33.81
   4   0  11 1609.85   26.18
   4   0  12  180.56   11.83
   4   0  13  199.34    9.40
   4   0  13  217.32   13.37
   4   0  14  300.97   16.16
   4   0  14  303.75   11.64
   4   0  15  408.87   19.14
   4   0  16  236.39   15.40
   4   0  17 1103.15   34.07
   4   0  18  251.60   16.62
   4   0  19  203.72   15.33
   4   0  20  179.51   14.55
   4   0  21  132.08   12.87
   4   0  22  190.13   15.61
   4   0  23  127.70   13.94
   4   0  24   36.66    7.21
   4   0  25   36.39    6.87
   4   0  26  218.87   18.82
   4   0  27   96.26   12.31
   4   0  28   15.38    6.07
   4   0  29    5.21    5.28
   4   0  30   22.14    7.15
   4  -1 -22   18.23    4.52
   4  -1 -21   14.48    5.17
   4   1 -20    8.64    3.45
   4  -1 -20    4.68    3.67
   4   1 -19   72.80    8.45
   4  -1 -19   71.43    8.94
  -4  -1 -18   95.73    8.46
   4   1 -18  109.49   10.14
   4  -1 -18  109.35   10.61
   4  -1 -17   21.98    4.53
   4   1 -17   27.21    5.30
   4  -1 -16  426.33   19.80
   4   1 -16  385.95   18.26
   4  -1 -15   20.30    4.26
   4  -1 -15   17.34    2.49
   4   1 -15   10.87    3.02
   4  -1 -14   38.63    5.89
   4   1 -14   39.64    5.57
   4  -1 -14   46.23    4.02
   4  -1 -13   75.64    5.06
   4   1 -13   71.01    7.38
   4  -1 -12  113.73    9.38
   4   1 -12  105.79    8.66
   4  -1 -12  111.49    6.37
   4  -1 -11  139.70   10.04
   4   1 -11  142.52    9.71
   4  -1 -11  147.03    7.23
   4   1 -10  912.69   24.26
   4  -1 -10  912.42   25.38
   4  -1 -10  938.13   18.41
   4  -1  -9    5.09    1.81
   4  -1  -9    6.30    1.71
   4   1  -9    5.50    2.10
   4  -1  -8  264.50    9.79
   4   1  -8  261.51   12.22
   4  -1  -8  283.37   13.60
   4  -1  -7   83.00    5.64
   4   1  -7   88.62    7.07
   4  -1  -7   88.56    7.12
   4  -1  -6  134.30    8.82
   4  -1  -6  135.68    7.06
   4   1  -6  140.22    8.72
   4  -1  -5  151.02    7.51
   4  -1  -5  134.03    8.66
   4   1  -5  142.27    8.68
   4  -1  -4  510.37   14.08
   4   1  -4  518.17   16.37
   4  -1  -4  539.18   16.75
   4  -1  -3   59.94    4.89
   4  -1  -3   56.02    5.22
   4   1  -3   50.16    5.10
   4  -1  -2   98.20    6.21
   4  -1  -2  108.82    7.12
   4   1  -2  106.51    7.21
   4  -1  -1   28.67    3.50
   4   1  -1   26.86    3.75
   4  -1  -1   26.25    3.29
   4  -1   0  279.79   11.09
   4  -1   0  299.07   11.23
   4   1   0  305.15   11.98
   4   1   0  310.79   12.37
   4  -1   1   22.88    3.21
   4   1   1   24.22    3.53
   4  -1   1   25.08    3.25
   4   1   1   24.66    3.44
   4  -1   2   95.52    5.98
   4   1   2  104.87    7.04
   4  -1   2   97.82    6.68
   4   1   2   99.39    7.20
   4  -1   2  102.91    6.18
   4   1   3   57.64    5.30
   4  -1   3   54.57    4.49
   4   1   3   49.25    5.30
   4  -1   3   65.07    5.65
   4  -1   3   65.26    4.76
   4  -1   4  519.49   14.24
   4   1   4  524.42   17.14
   4  -1   4  542.39   13.00
   4   1   4  494.16   15.74
   4  -1   4  551.58   16.49
   4  -1   5  137.45    7.41
   4  -1   5  149.14    6.56
   4   1   5  150.21    9.46
   4   1   5  150.04    8.68
   4  -1   5  142.46    8.57
   4   1   6  143.15    8.69
   4  -1   6  131.73    7.71
   4  -1   6  135.49    6.07
   4   1   6  132.09    9.03
   4  -1   6  142.72    8.82
   4  -1   7   88.42    4.80
   4   1   7   96.99    7.86
   4  -1   7   68.32    6.20
   4  -1   7   78.08    6.23
   4   1   7   84.18    6.63
   4   1   8  270.53   13.61
   4   1   8  252.71   11.92
   4  -1   8  263.00   12.36
   4  -1   8  256.37    7.98
   4  -1   9    5.87    1.21
   4   1   9    4.44    2.30
   4  -1   9    7.11    2.04
   4  -1   9    4.48    1.75
   4   1   9    6.69    2.12
   4  -1  10  864.44   22.76
   4   1  10  931.07   23.42
   4   1  10  886.92   25.79
   4  -1  10  859.44   13.99
   4  -1  10  902.59   23.99
   4  -1  11  137.04    9.52
   4  -1  11  146.04    9.72
   4   1  11  145.57    9.59
   4   1  11  130.49   10.13
   4  -1  12  111.27    8.76
   4   1  12  112.14    8.49
   4  -1  12   79.16    4.02
   4   1  12   93.80    8.94
   4  -1  12  122.78    9.30
   4  -1  13   92.27    8.30
   4   1  13   78.05    8.46
   4   1  13   90.83    7.70
   4  -1  13   84.89    7.94
   4   1  14   47.58    5.84
   4   1  14   47.98    6.75
   4  -1  14   39.46    5.92
   4  -1  15    6.13    2.33
   4   1  15   12.77    4.08
   4   1  15   19.03    3.85
   4  -1  16  438.10   20.28
   4   1  16  421.71   20.81
   4   1  16  409.10   17.43
   4   1  17   34.07    6.02
   4  -1  17   33.52    5.77
   4  -1  18  109.45   10.95
   4  -1  19   84.72    9.72
   4   1  19   74.61    9.75
   4   1  20   14.67    5.12
   4  -1  20    7.17    2.94
   4  -1  21   13.91    4.06
   4   1  21   12.00    4.21
   4   1  22   14.74    5.15
   4  -1  22   15.89    5.05
   4  -1  23    9.38    4.45
   4   1  23   14.13    4.33
   4  -1  24   73.68   10.39
   4   1  24   81.28   11.05
   4   1  25   13.63    4.30
   4  -1  25   13.68    4.71
   4  -1  26    1.97    1.93
   4   1  26    8.58    3.15
   4  -1  27   -5.04    1.43
   4   1  27   -2.02    2.14
   4   1  28   19.31    7.18
   4   1  29    9.20    4.72
   4   1  30    9.34    3.62
   4  -2 -23   13.55    4.61
   4  -2 -22   64.83    9.40
   4  -2 -21  119.01   12.30
   4  -2 -20    6.30    2.92
   4  -2 -19  203.57   15.59
   4  -2 -18   23.72    5.15
   4   2 -18   23.71    4.91
   4  -2 -17   33.81    6.39
   4   2 -17   23.82    4.58
   4  -2 -16  328.22   13.90
   4   2 -16  347.78   17.34
   4  -2 -16  324.87   18.65
   4  -2 -15  201.14   10.84
   4  -2 -15  194.26   13.67
   4   2 -15  189.61   12.39
   4  -2 -14   59.82    6.02
   4   2 -14   53.06    6.70
   4  -2 -14   50.34    6.75
   4   2 -13  177.26   11.85
   4  -2 -13  176.08   12.36
   4  -2 -13  176.51   10.00
   4  -2 -12  327.36   13.47
   4   2 -12  335.80   15.83
   4  -2 -12  314.68   16.50
   4  -2 -11   80.59    8.02
   4  -2 -11   73.84    6.31
   4   2 -11   76.55    7.26
   4   2 -10  313.45   14.56
   4  -2 -10  316.98   13.18
   4  -2 -10  311.20   15.70
   4   2  -9  111.84    8.57
   4  -2  -9  125.53    8.06
   4  -2  -9  117.07    9.30
   4  -2  -8   26.99    4.77
   4   2  -8   28.35    4.27
   4  -2  -8   23.08    3.59
   4   2  -7    9.17    2.31
   4  -2  -7    6.32    1.91
   4  -2  -7    4.67    1.49
   4  -2  -6    5.61    1.51
   4   2  -6   10.41    2.47
   4  -2  -6    7.22    2.40
   4  -2  -5   51.11    5.32
   4   2  -5   46.51    5.29
   4  -2  -5   46.63    5.29
   4  -2  -4 1017.93   24.81
   4  -2  -4 1016.21   22.78
   4   2  -4 1030.52   24.56
   4   2  -3  340.91   13.88
   4  -2  -3  331.45   13.60
   4  -2  -3  355.83   13.49
   4  -2  -2  130.53    8.27
   4   2  -2  139.04    9.04
   4   2  -2  135.32    8.78
   4  -2  -2  122.77    8.21
   4  -2  -1   80.31    6.48
   4  -2  -1   76.15    6.20
   4   2  -1   78.30    6.81
   4   2  -1   67.03    6.24
   4  -2   0  124.78    8.11
   4   2   0  101.88    7.79
   4   2   0  116.94    8.12
   4  -2   0  130.85    7.91
   4   2   1   87.12    7.08
   4  -2   1   90.94    6.84
   4   2   1   79.50    6.73
   4  -2   1   83.91    6.14
   4   2   2  138.34    9.24
   4  -2   2  147.78    7.84
   4  -2   2  141.02    8.66
   4   2   2  140.11    9.19
   4   2   3  347.33   14.72
   4  -2   3  326.06   13.34
   4  -2   3  340.15   11.53
   4   2   3  348.33   14.61
   4  -2   3  371.01   10.41
   4  -2   4 1038.83   24.16
   4  -2   4 1023.66   19.06
   4   2   4 1024.32   25.83
   4  -2   4  993.00   17.30
   4   2   4 1029.88   25.54
   4  -2   5   60.78    6.03
   4   2   5   56.01    6.11
   4  -2   5   62.84    4.35
   4   2   5   43.68    5.40
   4  -2   5   49.98    3.92
   4   2   6    8.71    2.59
   4  -2   6    8.80    1.51
   4  -2   6   12.61    2.02
   4  -2   6    7.82    2.03
   4   2   6   13.05    3.21
   4   2   7    8.36    2.51
   4  -2   7    5.63    2.21
   4  -2   7    6.56    1.16
   4  -2   7    7.69    1.91
   4   2   7    4.68    2.63
   4  -2   8   35.51    4.63
   4  -2   8   30.61    3.74
   4  -2   8   29.67    2.52
   4   2   8   32.44    4.75
   4   2   8   33.73    5.32
   4  -2   9  121.13    9.02
   4  -2   9  112.26    4.13
  -4  -2   9  126.14    5.90
   4  -2   9  125.62    7.62
   4   2   9  131.32   10.51
  -4   2   9  102.21    8.71
   4   2   9  129.39    9.63
   4   2  10  335.27   16.48
   4  -2  10  349.98   13.11
   4   2  10  319.42   15.69
  -4  -2  10  316.23    8.61
  -4   2  10  311.66   15.69
   4  -2  10  339.60   15.15
  -4   2  11   73.40    8.05
   4  -2  11   70.63    6.88
  -4  -2  11   58.01    3.45
   4  -2  11   72.38    6.34
   4   2  11   66.19    7.71
   4   2  11   67.04    7.54
   4  -2  12  336.33   14.56
  -4   2  12  361.23   17.82
   4   2  12  341.70   17.78
   4   2  12  316.60   16.09
   4  -2  12  333.33   15.63
   4  -2  13  190.17   11.39
   4   2  13  175.59   13.12
  -4   2  13  172.94   12.91
   4  -2  13  165.34   11.02
   4   2  13  175.55   12.21
  -4   2  14   51.43    7.57
   4  -2  14   61.96    7.11
   4   2  14   57.95    7.62
   4   2  14   44.16    6.51
  -4   2  15  200.28   14.58
   4  -2  15  187.96   12.08
   4   2  15  196.36   14.04
   4   2  15  199.13   13.34
   4  -2  15  197.20   12.42
   4  -2  16  346.29   17.13
   4   2  16  351.38   19.63
  -4   2  16  367.59   20.24
   4   2  16  322.41   17.48
   4  -2  16  345.34   17.35
   4  -2  17   22.83    5.47
  -4   2  17   30.12    6.14
   4   2  17   25.90    5.23
   4   2  17   23.45    5.59
   4  -2  17   22.86    4.81
   4  -2  18   24.50    5.62
   4   2  18   24.35    5.03
  -4   2  18   22.15    5.31
  -4   2  19  207.76   16.17
   4   2  19  209.07   16.75
  -4   2  20    8.82    4.72
   4   2  20   10.79    4.16
   4  -2  20    2.96    1.48
   4  -2  21  119.28   11.76
   4   2  21  111.61   12.52
  -4   2  21   94.23   11.19
   4  -2  22   93.05   11.99
   4   2  22  105.00   12.01
   4   2  23   14.05    5.39
   4   2  24   22.55    6.17
   4   2  25  103.75   12.75
   4   2  26   87.94   11.78
   4   2  27  102.65   13.43
   4   2  28    5.68    3.02
   4   2  29    7.25    4.26
   4   2  30   16.98    6.66
   4  -3 -25   -2.25    3.75
   4  -3 -24    3.31    3.63
   4  -3 -23    8.37    4.29
   4  -3 -22   -0.65    2.87
   4  -3 -21    0.30    2.32
  -4  -3 -21    1.69    3.16
   4  -3 -20    0.53    2.96
   4  -3 -19    5.91    2.66
   4  -3 -18   24.97    5.53
   4  -3 -17   46.18    6.11
   4   3 -17   35.26    5.74
   4  -3 -16   26.04    5.15
   4   3 -16   30.30    5.36
   4  -3 -16   19.01    3.64
   4   3 -15   75.49    8.04
   4  -3 -15   72.30    8.86
   4  -3 -15   75.50    7.54
   4  -3 -14    6.35    2.36
   4   3 -14    1.18    1.53
   4  -3 -14    5.21    2.98
   4   3 -13   47.05    6.15
   4  -3 -13   41.09    6.28
   4  -3 -13   49.08    5.97
   4  -3 -12   68.78    8.04
   4  -3 -12   53.39    6.12
   4   3 -12   59.14    6.99
   4  -3 -11   14.51    3.91
   4  -3 -11   14.48    3.31
   4   3 -11   14.35    3.44
   4   3 -10   24.90    4.56
   4  -3 -10   22.77    3.88
   4  -3  -9   58.55    6.39
   4  -3  -9   68.01    7.74
   4   3  -9   43.14    6.01
   4  -3  -8    3.29    1.59
   4   3  -8    6.29    2.50
   4  -3  -8    8.17    2.56
   4  -3  -7   68.94    6.71
   4   3  -7   73.86    7.41
   4  -3  -7   55.88    6.68
   4  -3  -6  524.81   18.66
   4  -3  -6  503.43   19.65
   4   3  -6  505.40   19.02
   4   3  -5   73.02    7.22
   4  -3  -5   94.01    8.35
   4  -3  -5   83.82    7.55
   4  -3  -4   26.71    4.35
   4  -3  -4   19.05    4.02
   4   3  -4   31.82    4.92
   4   3  -4   25.67    3.95
   4   3  -3   85.62    7.67
   4  -3  -3   65.75    6.63
   4  -3  -3   87.70    7.56
   4   3  -3   86.46    7.37
   4  -3  -2   94.52    7.78
   4   3  -2   89.14    7.78
   4   3  -2   76.14    7.03
   4  -3  -2   84.42    7.37
   4   3  -1  185.03   10.84
   4  -3  -1  200.88   11.03
   4   3  -1  204.70   12.08
   4   3   0  544.08   19.92
   4  -3   0  496.14   17.98
   4  -3   0  480.49   16.79
   4   3   0  519.00   18.32
   4   3   1  202.16   12.30
   4  -3   1  206.16   11.71
   4   3   1  200.70   11.55
   4  -3   1  173.48    9.86
   4   3   2   86.90    8.14
   4  -3   2   86.47    6.80
   4  -3   2   79.70    7.37
   4   3   2   77.18    7.24
   4  -3   3   85.23    4.35
   4   3   3   86.60    7.75
   4   3   3   88.15    8.18
   4  -3   3   76.89    7.27
   4  -3   3   80.56    6.34
   4   3   4   22.48    4.10
   4  -3   4   21.40    3.83
   4  -3   4   21.59    2.10
   4   3   4   23.16    4.61
   4  -3   4   19.88    3.04
   4  -3   5   84.38    3.84
   4   3   5   95.32    8.59
   4   3   5   99.02    8.89
   4  -3   5   87.33    6.14
   4  -3   5   95.07    7.82
  -4   3   6  561.25   19.19
   4  -3   6  509.10   18.87
   4   3   6  527.92   20.22
   4  -3   6  527.94   14.22
   4  -3   6  512.27    9.96
   4   3   6  543.06   21.26
   4   3   7   73.12    7.78
  -4   3   7   70.77    7.05
   4  -3   7   61.75    3.73
   4  -3   7   65.73    6.94
  -4  -3   7   64.26    5.49
   4   3   7   59.92    6.94
   4  -3   7   76.25    5.20
  -4  -3   8    6.15    1.66
   4  -3   8    6.27    1.98
   4   3   8    8.60    2.90
  -4   3   8    5.62    2.47
   4  -3   8    3.96    0.98
   4  -3   8    5.54    1.32
   4   3   8    5.51    2.31
   4  -3   9   56.40    3.77
  -4   3   9   55.35    6.81
  -4  -3   9   51.15    4.83
   4  -3   9   60.34    4.57
   4   3   9   45.80    6.32
   4   3   9   53.73    7.18
   4  -3   9   57.78    6.46
  -4   3  10   32.74    5.26
  -4  -3  10   28.95    3.71
   4  -3  10   26.10    3.25
   4   3  10   30.19    5.37
   4   3  10   27.65    5.09
   4  -3  10   30.34    4.63
  -4   3  11   16.43    3.92
  -4  -3  11   15.28    2.74
   4  -3  11   18.21    3.05
   4   3  11   14.75    4.14
   4  -3  11   22.26    4.20
   4   3  11   16.08    4.17
   4   3  12   56.50    7.38
  -4  -3  12   51.82    4.44
   4  -3  12   66.29    7.57
   4   3  12   54.68    7.30
  -4   3  12   51.37    6.95
   4  -3  12   57.04    5.41
   4  -3  13   45.65    6.22
   4   3  13   60.35    7.81
  -4   3  13   41.65    6.25
   4  -3  13   41.30    5.00
   4   3  13   42.53    6.23
   4  -3  14    2.66    1.49
   4   3  14    8.58    3.68
  -4   3  14    5.22    1.44
   4  -3  14    3.25    1.49
   4   3  14    3.20    2.76
   4   3  15   70.00    8.62
  -4   3  15   86.53    9.86
   4  -3  15   77.28    7.58
   4   3  15   91.46    9.53
   4  -3  15   63.86    7.63
   4  -3  16   30.72    4.69
   4  -3  16   40.06    6.57
  -4   3  16   25.28    4.77
   4   3  16   18.93    5.32
   4   3  16   26.09    5.08
  -4   3  17   58.54    8.36
   4   3  17   48.94    7.77
   4   3  17   37.99    7.05
   4   3  18   17.68    4.92
   4   3  18    9.60    3.40
   4   3  19    9.04    2.97
  -4   3  19    3.93    2.77
   4   3  20    0.41    1.68
  -4   3  20    0.77    2.12
  -4   3  21    4.20    3.75
   4   3  21    3.23    2.93
   4   3  22    4.01    2.78
  -4   3  22   13.07    4.54
   4   3  23    6.05    3.67
  -4   3  23    3.98    4.63
  -4   3  24   10.20    5.33
   4   3  24    0.89    2.64
   4   3  25    2.07    3.88
   4   3  26    9.11    4.55
   4   3  27    4.08    3.26
   4   3  28   13.14    5.10
   4   3  29   22.13    5.81
   4  -4 -25   27.99    7.37
   4  -4 -24   25.20    5.59
   4  -4 -23   63.27   10.41
  -4  -4 -22   27.62    6.85
   4  -4 -22   32.74    7.35
  -4  -4 -22   36.30    6.94
   4  -4 -21  102.28   12.27
   4  -4 -20   76.92   10.26
   4  -4 -19   10.50    4.02
   4  -4 -18   13.51    4.31
   4  -4 -18   16.25    4.84
   4  -4 -17   10.01    3.97
   4  -4 -17   14.69    4.44
   4   4 -16  277.00   16.11
   4  -4 -16  245.45   15.61
   4  -4 -16  239.12   17.11
   4   4 -15  924.04   29.47
   4  -4 -15  925.97   32.82
   4  -4 -15  953.12   30.18
   4   4 -14  138.37   11.33
   4  -4 -14  131.44   11.15
   4  -4 -14  156.66   13.58
   4  -4 -13   82.37    9.40
   4  -4 -13   88.22    8.93
   4   4 -13   84.68    8.94
   4   4 -12  273.74   15.76
   4  -4 -12  251.14   14.85
   4  -4 -12  263.15   16.78
   4   4 -11  234.81   14.37
   4  -4 -11  234.24   14.29
   4  -4 -11  235.11   15.46
   4   4 -10  259.41   15.04
   4  -4 -10  236.20   15.34
   4  -4 -10  238.62   14.27
   4   4  -9  141.45   11.14
   4  -4  -9  163.02   11.78
   4  -4  -9  178.32   13.13
   4   4  -8   19.74    4.05
   4  -4  -8   26.47    4.62
   4  -4  -8   29.71    5.50
   4   4  -7  210.34   13.33
   4  -4  -7  227.42   13.56
   4   4  -6   28.11    4.76
   4  -4  -6   24.36    4.32
   4  -4  -6   31.02    5.50
   4   4  -6   27.07    4.62
   4   4  -5  133.59   10.80
   4  -4  -5  116.37    9.63
   4   4  -5  133.99    9.96
   4  -4  -5  110.38    9.85
   4  -4  -4  488.27   20.16
   4   4  -4  488.57   18.95
   4  -4  -4  503.16   20.06
   4   4  -3  183.95   12.77
   4  -4  -3  174.72   11.72
   4   4  -3  172.40   11.13
   4  -4  -3  180.46   12.24
   4   4  -2    8.71    2.54
   4  -4  -2    9.66    3.11
   4  -4  -2   12.41    3.55
   4   4  -2   14.48    3.27
   4   4  -1   12.11    3.73
   4  -4  -1   11.54    3.10
   4   4  -1    7.17    2.33
   4  -4  -1    9.35    3.25
   4   4   0   17.02    3.89
   4  -4   0   18.51    3.92
   4  -4   0   15.48    3.58
   4   4   0   14.04    3.87
   4  -4   1    9.13    2.40
   4  -4   1    7.48    1.98
   4   4   1   11.94    3.37
   4   4   1   13.23    3.32
   4   4   2   11.85    3.64
   4  -4   2   18.30    3.60
   4   4   2   15.21    3.36
   4  -4   2   13.90    3.41
   4  -4   3  190.60   12.39
   4  -4   3  189.57   10.91
   4   4   3  164.92   11.53
   4   4   3  166.71   12.29
   4   4   4  454.09   19.23
  -4   4   4  467.59   16.98
   4  -4   4  452.95   16.89
   4  -4   4  488.44   19.68
   4   4   4  485.85   21.21
  -4   4   5  141.98    9.73
   4  -4   5  152.65    9.26
  -4  -4   5  155.83   10.28
   4   4   5  146.84   11.12
   4  -4   5  142.19   10.81
   4   4   5  151.04   11.95
   4  -4   6   36.59    5.82
   4  -4   6   32.16    4.07
  -4  -4   6   22.42    4.10
  -4   4   6   20.92    4.06
   4   4   6   42.09    6.38
   4   4   6   17.87    3.70
   4  -4   7  244.44   14.11
   4  -4   7  252.17   11.29
  -4   4   7  233.63   13.21
  -4  -4   7  224.64   12.25
   4   4   7  275.54   15.85
   4   4   7  268.96   16.20
   4  -4   8   32.00    3.94
  -4  -4   8   25.24    4.18
   4  -4   8   23.08    4.73
   4   4   8   24.68    4.77
   4   4   8   20.44    4.30
  -4   4   8   25.98    4.87
   4  -4   9  167.37   11.98
  -4  -4   9  159.44   10.20
   4   4   9  155.49   12.13
  -4   4   9  156.29   11.67
   4  -4   9  152.01    7.81
   4   4   9  149.42   12.46
  -4   4  10  257.83   15.20
   4   4  10  250.37   16.42
  -4  -4  10  235.61   12.30
   4  -4  10  227.37   13.85
   4   4  10  212.02   14.45
   4   4  11  245.00   15.90
   4   4  11  221.44   15.43
  -4  -4  11  224.37   11.89
   4  -4  11  221.76   14.06
  -4   4  11  201.67   14.06
   4   4  12  232.20   16.15
   4   4  12  237.52   16.53
  -4   4  12  266.33   16.40
  -4   4  13   83.70    9.20
   4   4  13   92.44   10.61
   4   4  13   88.02    9.73
   4  -4  13  102.36    9.67
   4  -4  14  139.70   11.63
  -4   4  14  160.39   13.28
   4   4  14  139.47   13.19
   4   4  14  145.09   13.26
   4   4  15  843.47   32.02
   4   4  15  938.27   33.20
  -4   4  15  933.09   32.72
   4  -4  15  940.08   30.23
  -4   4  16  253.90   17.32
   4   4  16  215.08   16.71
   4  -4  16  254.62   16.03
   4   4  16  243.25   17.15
   4   4  17   15.85    4.66
   4   4  17   21.24    5.33
  -4   4  17   19.44    4.76
   4   4  18   15.04    4.80
  -4   4  18   15.41    4.86
  -4   4  19    8.39    3.97
   4   4  19   18.09    6.47
   4   4  20   89.50   11.52
  -4   4  20   88.46   10.95
  -4   4  21  131.30   13.90
   4   4  21  128.61   13.87
  -4   4  22   47.08    8.42
   4   4  22   52.91    8.98
  -4   4  23   48.75    9.26
   4   4  23   44.81    8.42
  -4   4  24   22.87    6.13
   4   4  24   11.72    4.07
  -4   4  25   38.30    7.93
   4   4  25   24.97    6.66
   4   4  26  104.79   13.34
   4   4  27   59.70   10.40
   4   4  28    0.22    3.06
   4  -5 -26    5.83    4.37
   4  -5 -25    6.78    3.37
   4  -5 -24   41.02    8.88
  -4  -5 -23    2.35    3.78
   4  -5 -23    2.16    2.35
  -4  -5 -22    1.70    3.25
  -4  -5 -22   11.74    5.10
  -4  -5 -21   12.89    4.64
   4  -5 -21    5.43    1.90
   4  -5 -20   16.79    4.75
  -4  -5 -20   23.91    5.75
   4  -5 -19   11.96    4.71
  -4  -5 -19    4.44    2.50
   4  -5 -18   52.23    8.34
   4  -5 -18   44.02    7.88
  -4  -5 -18   43.03    7.78
   4  -5 -17  101.62   10.82
   4  -5 -17  110.36   12.15
  -4  -5 -17  111.58   11.53
   4  -5 -16  173.59   14.09
   4  -5 -16  162.76   14.68
   4   5 -15  305.70   18.21
   4  -5 -15  308.80   18.59
   4  -5 -15  334.77   20.57
   4   5 -14   15.68    4.69
   4  -5 -14   31.49    6.20
   4  -5 -14   24.86    5.32
   4   5 -13  163.39   13.38
   4  -5 -13  178.49   13.81
   4  -5 -13  157.97   14.01
   4  -5 -12  220.78   15.19
   4  -5 -12  235.16   16.88
   4   5 -12  226.01   15.93
   4  -5 -11    3.31    2.84
   4  -5 -11    7.34    3.74
   4   5 -11    6.63    2.56
   4   5 -10  107.39   10.76
   4  -5 -10  130.16   11.59
   4  -5 -10   97.37   11.13
   4  -5  -9   35.10    6.31
   4  -5  -9   40.44    6.54
   4   5  -9   46.98    7.12
   4   5  -9   32.09    5.41
   4   5  -8   30.04    5.59
   4  -5  -8   14.13    3.14
   4  -5  -8   31.24    6.13
   4   5  -8   26.64    4.81
   4  -5  -7   43.89    6.52
   4   5  -7   40.83    6.08
   4   5  -7   45.05    7.10
   4   5  -6   18.41    4.27
   4   5  -6   16.42    3.75
   4  -5  -6   21.42    5.02
   4  -5  -6   21.94    5.11
   4   5  -5   24.30    4.90
   4  -5  -5   34.94    6.01
   4  -5  -5   38.68    6.06
   4   5  -5   27.84    5.06
   4  -5  -4  171.35   12.68
   4   5  -4  172.64   13.21
   4   5  -4  169.48   11.72
   4  -5  -4  138.20   11.56
   4  -5  -3   48.29    6.76
   4  -5  -3   40.81    6.37
   4   5  -3   49.16    6.37
   4   5  -2    2.91    2.41
   4   5  -2    5.06    2.31
   4  -5  -2    7.01    3.48
   4  -5  -2    5.11    2.86
   4  -5  -1  105.23    9.91
   4   5  -1  108.05    9.38
   4  -5  -1  109.82    9.99
   4   5  -1  106.67   10.38
   4  -5   0   48.85    6.60
   4  -5   0   46.35    6.42
   4   5   0   36.56    6.20
  -4  -5   0   34.32    5.03
   4   5   0   40.71    5.62
   4  -5   1   96.68    9.70
   4   5   1  113.23    9.87
  -4  -5   1   96.68    9.14
   4   5   1  114.34   10.84
   4  -5   1  121.68   10.28
   4  -5   2    8.03    3.12
  -4  -5   2    6.41    2.91
   4  -5   2    4.57    2.01
   4   5   2    2.50    2.06
   4   5   2    2.42    2.88
   4   5   3   35.25    5.71
   4  -5   3   38.24    5.79
   4  -5   3   45.56    6.01
  -4  -5   3   33.08    5.14
   4   5   3   46.29    6.93
   4  -5   4  155.07   11.96
  -4   5   4  162.90   10.38
  -4  -5   4  166.75   11.99
   4   5   4  167.82   12.11
   4   5   4  168.07   13.47
   4  -5   4  162.34   11.41
   4   5   5   35.29    6.22
   4  -5   5   37.04    5.23
   4  -5   5   27.07    4.87
   4   5   5   33.88    5.72
  -4  -5   5   37.61    5.92
  -4   5   5   38.00    5.04
   4  -5   6   21.21    4.03
   4  -5   6   18.36    4.49
  -4   5   6   18.90    4.05
   4   5   6   17.30    3.98
  -4  -5   6   22.72    4.72
   4   5   6   19.22    4.99
  -4   5   7   49.53    6.45
   4  -5   7   44.03    6.60
   4   5   7   48.27    6.77
   4  -5   7   47.68    5.84
  -4  -5   7   28.17    4.94
   4   5   7   49.24    7.34
  -4   5   8   26.56    4.97
   4  -5   8   32.66    5.59
   4  -5   8   19.96    3.58
  -4  -5   8   33.10    5.09
   4   5   8   20.44    4.34
   4   5   8   20.22    5.25
  -4   5   9   49.12    6.84
   4  -5   9   39.44    5.38
   4   5   9   41.81    6.74
   4   5   9   55.60    8.25
  -4  -5   9   47.62    6.43
   4  -5   9   43.49    6.47
   4   5  10   90.58   10.12
   4  -5  10  127.87   11.20
   4   5  10   88.60   10.46
  -4  -5  10  101.82    9.58
  -4   5  10  107.35   10.11
   4   5  11    8.64    4.64
   4  -5  11    5.96    2.67
  -4   5  11    8.15    3.38
  -4  -5  11    6.15    2.91
   4   5  11    6.13    3.47
   4  -5  12  250.02   16.00
   4   5  12  241.82   17.64
   4   5  12  204.03   15.26
  -4   5  12  232.89   15.96
   4   5  13  182.70   15.45
   4  -5  13  177.53   13.70
   4   5  13  195.94   15.08
  -4   5  13  140.11   12.82
   4  -5  14   27.51    5.81
  -4   5  14   40.23    7.39
   4   5  14   28.32    6.83
   4   5  14   26.36    5.80
   4  -5  15  298.98   18.39
  -4   5  15  311.29   19.31
   4   5  15  297.90   19.40
   4   5  15  283.41   19.68
   4   5  16  135.54   13.46
  -4   5  16  140.17   13.27
   4   5  16  160.41   15.18
   4   5  17  117.09   12.70
  -4   5  17  101.34   11.70
   4   5  17  104.31   12.24
   4   5  18   47.23    7.88
  -4   5  18   37.78    7.73
   4   5  18   43.95    8.54
  -4   5  19    9.03    3.34
   4   5  19   10.13    4.49
  -4   5  20   34.17    7.17
   4   5  20   22.24    6.97
  -4   5  21    9.29    3.62
   4   5  21    5.39    3.68
  -4   5  22   20.76    6.14
   4   5  22   23.74    6.62
   4   5  23    6.39    4.49
  -4   5  23    2.57    3.16
   4   5  24   45.90    8.85
  -4   5  24   40.22    7.22
  -4   5  25    6.46    5.15
   4   5  25   11.55    5.11
   4   5  26   12.32    3.78
  -4   5  26    2.47    2.41
   4   5  27   21.53    6.58
   4  -6 -26   40.12    8.67
   4  -6 -25   19.11    6.12
  -4  -6 -24   33.79    8.55
   4  -6 -24   29.72    8.19
   4  -6 -23   91.10   12.08
  -4  -6 -23   61.19   10.36
  -4  -6 -23   68.53   10.73
  -4  -6 -22   31.92    7.14
  -4  -6 -22   34.26    7.03
   4  -6 -22   23.29    6.43
  -4  -6 -21   93.56   12.23
   4  -6 -21  117.36   14.01
   4  -6 -20  259.58   20.09
  -4  -6 -20  265.98   19.84
   4  -6 -19   16.75    5.93
   4  -6 -19   36.91    7.70
  -4  -6 -19   24.26    5.63
   4  -6 -18   22.20    6.21
   4  -6 -18   10.85    4.31
  -4  -6 -18   24.74    6.61
   4  -6 -17  143.26   13.52
   4  -6 -17  113.01   12.87
  -4  -6 -17  116.03   12.72
   4  -6 -16   52.79    8.71
  -4  -6 -16   54.89    9.09
   4  -6 -16   26.99    6.01
   4  -6 -15  698.85   29.94
   4  -6 -15  695.46   30.86
   4  -6 -14  189.53   15.49
   4   6 -14  171.71   14.18
  -4  -6 -14  180.75   15.94
   4  -6 -14  169.06   15.29
   4   6 -13   34.15    6.30
   4  -6 -13   40.86    7.37
  -4  -6 -13   48.35    8.62
   4  -6 -13   43.76    7.50
   4   6 -12   41.42    6.80
   4  -6 -12   52.47    8.36
  -4  -6 -12   52.30    8.49
   4  -6 -12   30.05    6.40
   4   6 -12   52.56    7.86
  -4  -6 -11  557.60   26.13
   4  -6 -11  574.67   26.04
   4   6 -11  527.05   23.71
   4  -6 -10  147.34   13.19
   4   6 -10  152.90   12.19
   4   6 -10  163.79   13.80
   4  -6 -10  163.48   14.67
  -4  -6 -10  171.53   14.29
   4  -6  -9  240.05   17.05
   4  -6  -9  218.77   16.14
   4   6  -9  214.07   15.87
   4   6  -9  218.95   14.68
  -4  -6  -9  223.68   15.98
   4   6  -8   59.78    7.57
   4  -6  -8   50.13    7.48
  -4  -6  -8   46.70    7.55
   4  -6  -8   67.37    8.81
   4   6  -7   19.64    5.17
   4   6  -7   38.99    6.34
   4  -6  -7   31.48    5.87
  -4  -6  -7   28.07    5.83
   4  -6  -7   34.90    6.39
   4  -6  -6  293.87   18.21
   4   6  -6  306.23   16.94
   4  -6  -6  268.94   17.72
  -4  -6  -6  286.96   17.97
   4   6  -6  302.03   18.70
   4  -6  -5  412.36   21.66
   4  -6  -5  313.31   18.97
  -4  -6  -5  389.92   20.72
   4   6  -5  280.04   18.17
   4   6  -5  362.89   18.15
   4  -6  -4   13.60    3.88
   4   6  -4   12.37    4.27
   4  -6  -4   10.69    4.28
   4   6  -4    7.00    2.65
  -4  -6  -4   12.56    4.08
   4  -6  -3  118.21   11.28
   4  -6  -3  160.95   13.24
  -4  -6  -3  141.14   12.29
   4   6  -3  126.29   10.71
   4   6  -3  123.95   12.44
   4  -6  -2   28.44    5.94
  -4  -6  -2   27.27    4.90
   4  -6  -2   31.00    5.36
   4   6  -2   29.20    5.09
   4   6  -2   36.09    6.97
   4  -6  -1  212.07   14.73
   4  -6  -1  206.65   14.76
  -4  -6  -1  174.77   13.62
   4   6  -1  180.08   12.92
   4   6  -1  195.36   14.91
   4   6   0  271.57   15.91
   4  -6   0  256.68   16.16
   4  -6   0  251.31   16.67
  -4  -6   0  286.12   17.40
   4   6   0  261.22   17.42
   4  -6   1  184.72   13.72
   4  -6   1  197.33   14.57
   4   6   1  190.33   13.41
  -4  -6   1  192.41   14.13
   4   6   1  201.75   15.14
   4   6   2   26.43    5.55
   4  -6   2   39.45    6.34
   4  -6   2   25.65    4.96
  -4  -6   2   23.00    5.52
   4   6   2   26.19    5.74
   4  -6   3  138.38   12.33
  -4  -6   3  135.11   11.99
   4  -6   3  138.96   11.64
   4   6   3  125.71   12.50
   4   6   3  134.59   11.63
  -4   6   4   15.04    3.52
   4   6   4    7.64    3.35
  -4  -6   4   10.99    3.46
   4  -6   4    9.00    3.40
   4   6   4    9.42    3.85
   4  -6   4    9.31    3.24
   4  -6   5  365.80   19.80
  -4   6   5  400.47   18.24
   4   6   5  396.26   20.27
  -4  -6   5  356.19   19.04
   4   6   5  392.95   22.01
   4  -6   5  350.17   18.14
   4   6   6  224.94   15.56
  -4   6   6  248.81   14.82
  -4  -6   6  299.93   17.69
   4   6   6  272.45   18.59
   4  -6   6  288.16   16.18
   4  -6   6  290.09   17.79
   4  -6   7   43.71    7.41
   4  -6   7   32.70    5.30
  -4   6   7   32.86    5.62
  -4  -6   7   37.09    6.92
   4   6   7   33.15    6.31
   4   6   7   33.86    6.67
   4  -6   8   68.09    7.84
   4  -6   8   73.14    8.83
  -4  -6   8   71.00    8.63
  -4   6   8   73.87    8.56
   4   6   8   62.62    8.37
   4   6   8   81.15   10.23
   4  -6   9  206.94   15.35
  -4  -6   9  250.51   15.91
   4   6   9  213.92   17.02
  -4   6   9  190.52   14.02
   4   6   9  232.89   16.30
   4  -6  10  160.19   13.66
  -4  -6  10  155.43   12.57
  -4   6  10  148.76   12.90
   4   6  10  174.00   14.29
   4   6  10  136.46   13.50
   4   6  11  550.19   27.63
   4  -6  11  543.16   25.00
  -4  -6  11  501.84   22.79
   4   6  11  536.41   25.81
  -4   6  11  587.54   25.56
   4  -6  12   41.25    7.06
  -4   6  12   54.19    8.25
   4   6  12   58.72    9.14
   4   6  12   30.24    6.64
   4  -6  13   43.37    7.51
   4   6  13   39.26    7.38
  -4   6  13   45.04    7.41
   4   6  13   40.57    8.50
  -4   6  14  160.82   14.44
   4   6  14  163.58   15.77
   4  -6  14  188.42   15.31
   4   6  14  170.02   15.28
   4  -6  15  676.97   29.34
  -4   6  15  711.51   30.49
   4   6  15  688.46   30.75
   4   6  15  637.27   30.80
  -4   6  16   38.23    8.03
   4   6  16   37.23    6.83
   4   6  16   47.13    8.70
  -4   6  17  130.74   13.67
   4   6  17  111.67   13.31
   4   6  17  103.16   12.26
  -4   6  18   19.64    5.80
   4   6  18   15.39    5.08
   4   6  18   17.92    5.48
   4   6  19   24.96    6.68
  -4   6  19   27.02    6.17
  -4   6  20  205.45   17.66
   4   6  20  228.17   19.16
   4   6  21  124.87   14.40
  -4   6  21  116.80   13.39
  -4   6  22   48.32    9.17
   4   6  22   57.77    9.81
   4   6  23   67.61   10.92
  -4   6  23   70.64   11.20
  -4   6  24   45.94    9.07
   4   6  24   30.46    7.60
  -4   6  25    9.94    4.23
   4   6  25   11.30    4.02
   4   6  26   47.70   10.02
  -4   6  26   43.63    9.24
   4  -7 -24    2.36    5.09
  -4  -7 -24   -5.59    6.32
   4  -7 -23    3.08    2.43
  -4  -7 -23    3.52    3.02
  -4  -7 -22   14.86    6.00
   4  -7 -22   18.05    6.81
  -4  -7 -22    9.95    6.37
   4  -7 -21    0.86    4.20
  -4  -7 -21    6.28    5.53
   4  -7 -20   38.91    8.50
  -4  -7 -20   43.14    9.76
   4  -7 -19   65.33   10.85
  -4  -7 -19   47.22    9.23
   4  -7 -19   55.30    9.38
   4  -7 -18   77.35   11.18
   4  -7 -18   86.77   11.86
  -4  -7 -17   23.48    5.72
   4  -7 -17   18.70    5.25
   4  -7 -17   22.45    5.11
   4  -7 -16   20.81    5.69
  -4  -7 -16   24.19    6.22
   4  -7 -16   24.64    6.93
   4  -7 -15   26.76    5.77
  -4  -7 -15   41.78    7.56
   4  -7 -15   36.90    7.94
   4  -7 -14   19.54    5.01
  -4  -7 -14   27.13    6.37
   4  -7 -14   36.15    7.23
   4  -7 -13   91.54   11.49
   4  -7 -13   88.48   11.01
  -4  -7 -13  107.20   12.08
  -4  -7 -12   21.71    6.05
   4  -7 -12   25.86    6.29
   4  -7 -12   25.98    6.62
   4   7 -12   20.21    6.40
   4   7 -11   65.53    9.82
   4  -7 -11   68.75    9.61
  -4  -7 -11   85.68   10.82
   4  -7 -11   76.86   10.97
   4  -7 -10  107.65   11.92
   4   7 -10  118.78   12.43
   4  -7 -10  123.95   12.84
   4   7  -9   15.74    4.85
   4  -7  -9    9.35    3.95
  -4  -7  -9   20.50    5.55
   4  -7  -9    9.58    3.95
   4  -7  -8  119.42   12.39
  -4  -7  -8  156.97   14.07
   4   7  -8  135.63   13.93
   4  -7  -8  137.55   13.47
   4   7  -7    4.79    2.59
   4  -7  -7    7.06    3.30
   4  -7  -7   10.14    3.92
  -4  -7  -7   10.58    4.14
   4   7  -6   34.68    6.57
   4   7  -6   45.24    6.70
   4  -7  -6   42.67    7.36
   4  -7  -6   40.72    7.30
  -4  -7  -6   26.69    6.09
   4   7  -5   52.47    7.96
   4  -7  -5   44.32    7.79
  -4  -7  -5   26.41    6.59
   4   7  -5   35.88    6.11
   4  -7  -5   55.52    8.54
   4  -7  -4   21.76    5.36
   4  -7  -4   16.95    4.12
   4   7  -4   20.05    5.06
  -4  -7  -4    6.75    3.05
   4   7  -4   19.64    4.96
   4  -7  -3   24.45    5.65
   4  -7  -3   21.09    5.04
  -4  -7  -3   28.07    5.81
   4   7  -3   18.94    4.60
   4   7  -3   26.36    5.84
   4   7  -2   17.17    4.67
   4  -7  -2    4.86    2.94
   4  -7  -2   16.47    4.71
   4   7  -2    9.00    3.29
  -4  -7  -2   11.92    5.37
   4  -7  -1    9.58    3.44
   4  -7  -1    5.83    3.34
  -4  -7  -1   17.07    4.71
   4   7  -1   13.18    4.30
   4   7  -1   17.22    4.80
   4  -7   0   84.55    9.74
   4  -7   0   70.65    9.30
  -4  -7   0   69.07    9.04
   4   7   0   78.89   10.35
   4   7   0   78.25    8.85
   4  -7   1   15.20    4.91
  -4  -7   1   20.87    4.99
   4  -7   1   15.88    4.76
   4   7   1   12.72    4.04
   4   7   1    9.22    4.74
   4   7   2   13.81    4.26
   4  -7   2   11.77    4.45
  -4  -7   2   20.11    4.74
   4  -7   2   15.77    4.64
   4   7   2   10.28    3.38
   4  -7   3   31.15    6.29
   4  -7   3   24.40    5.64
  -4  -7   3   14.13    4.64
   4   7   3   16.49    3.59
   4   7   3   29.66    6.60
   4  -7   4   23.99    6.01
  -4   7   4   10.27    3.79
   4   7   4   15.46    4.98
  -4  -7   4    9.15    3.94
   4   7   4    5.06    4.14
   4  -7   4   10.54    3.87
   4  -7   5   46.04    7.25
   4   7   5   47.45    7.40
  -4  -7   5   38.30    6.76
   4  -7   5   48.32    7.80
  -4   7   5   33.94    5.58
   4   7   5   52.72    8.57
   4  -7   6   35.61    6.31
   4   7   6   34.94    6.39
   4  -7   6   37.25    7.39
  -4   7   6   40.76    5.91
  -4  -7   6   33.75    6.84
   4   7   6   26.86    5.78
   4  -7   7   12.13    5.28
   4   7   7    7.27    3.95
  -4  -7   7    2.53    2.27
  -4   7   7    6.98    3.53
   4  -7   7    4.11    2.85
   4   7   7   10.57    4.60
   4   7   8  115.43   12.06
   4   7   8  121.18   13.17
   4  -7   8  138.25   13.43
  -4  -7   8  155.81   13.62
  -4   7   8  136.40   12.14
   4   7   9   11.40    5.25
   4   7   9   22.50    5.80
   4  -7   9   19.09    4.71
  -4   7   9   13.96    4.17
  -4  -7   9    7.30    3.27
   4  -7  10  141.39   13.57
  -4  -7  10  121.72   12.34
  -4   7  10  122.08   11.76
   4   7  10  161.21   14.78
   4   7  10  113.38   13.74
  -4   7  11   75.91   10.06
   4   7  11   59.96    9.90
   4  -7  11   61.01    8.99
   4   7  11   55.43    8.04
  -4   7  12   23.38    5.88
   4  -7  12   20.26    5.30
   4   7  12   24.52    6.79
   4   7  12   27.78    6.55
   4  -7  13  125.21   13.48
   4   7  13   80.78   10.16
  -4   7  13  104.77   11.95
   4   7  13  105.94   13.08
   4  -7  14   28.68    7.02
  -4   7  14   25.83    6.27
   4   7  14   21.46    5.57
   4   7  14   25.31    6.21
  -4   7  15   26.88    5.73
   4   7  15   30.05    6.41
   4   7  15   33.46    6.94
  -4   7  16   30.42    7.22
   4   7  16   33.26    7.66
   4   7  16   23.88    6.81
  -4   7  17   43.73    8.85
   4   7  17   29.56    6.84
   4   7  17   25.06    5.91
  -4   7  18   76.48   11.43
   4   7  18   96.37   12.82
   4   7  18   74.90   11.29
  -4   7  19   51.79    9.45
   4   7  19   61.69   10.25
  -4   7  20   31.02    7.37
   4   7  20   38.30    8.61
  -4   7  21    1.50    2.34
   4   7  21    4.78    3.87
  -4   7  22   14.12    4.85
   4   7  22    5.14    2.44
   4   7  23   12.03    5.81
  -4   7  23   16.64    6.71
  -4   7  24   -1.06    4.47
   4   7  24   -1.48    3.68
   4  -8 -21   68.79   11.36
  -4  -8 -21   68.59   11.52
   4  -8 -20   64.06   10.81
  -4  -8 -20   43.60    8.06
   4  -8 -19   80.31   11.70
   4  -8 -19   68.83   11.60
  -4  -8 -19   61.96   10.44
   4  -8 -18  107.46   13.24
   4  -8 -18   75.24   11.04
  -4  -8 -18   96.07   12.81
  -4  -8 -17   -4.51    3.48
   4  -8 -17    0.54    4.24
   4  -8 -17    3.26    3.33
   4  -8 -16   42.96    9.06
  -4  -8 -16   27.87    6.82
   4  -8 -16   52.51    9.27
   4  -8 -15    6.11    3.27
   4  -8 -15    0.48    3.77
  -4  -8 -15    3.29    4.54
  -4  -8 -14   -0.07    2.36
   4  -8 -14    2.40    3.07
   4  -8 -14    5.40    3.87
  -4  -8 -13   33.98    7.18
   4  -8 -13   26.47    6.38
   4  -8 -13   33.51    7.69
  -4  -8 -12    8.47    3.86
   4  -8 -12    1.02    3.20
   4  -8 -12    6.61    3.75
   4  -8 -11   11.80    4.62
   4  -8 -11   10.33    4.31
  -4  -8 -11    9.95    4.18
   4   8 -11    5.19    3.19
  -4  -8 -10  179.48   16.28
   4  -8 -10  225.61   18.07
   4   8 -10  225.62   18.65
   4  -8 -10  218.35   18.09
  -4  -8  -9   39.65    7.79
   4   8  -9   47.36    8.62
   4  -8  -9   56.19    9.03
   4  -8  -9   43.74    8.27
   4  -8  -8    9.98    2.28
   4  -8  -8   10.52    3.61
  -4  -8  -8   17.45    6.53
   4   8  -8    6.74    4.57
   4  -8  -7  145.83   14.31
  -4  -8  -7  146.21   13.70
   4   8  -7  147.81   14.79
   4  -8  -7  137.93   14.21
   4  -8  -6  239.91   18.54
   4  -8  -6  250.05   18.49
  -4  -8  -6  244.67   18.65
   4   8  -6  214.23   17.98
   4  -8  -5   62.24    9.95
  -4  -8  -5   57.90    9.75
   4   8  -5   65.60    9.76
   4  -8  -5   67.28    9.86
   4  -8  -4   32.36    7.00
  -4  -8  -4   17.47    5.04
   4   8  -4   11.77    4.81
   4  -8  -4   27.39    6.44
   4  -8  -3   18.73    5.19
  -4  -8  -3   13.66    4.40
   4  -8  -3   16.74    4.61
   4   8  -3   11.86    4.00
   4  -8  -2   10.16    4.02
   4  -8  -2   12.77    4.74
   4   8  -2   12.67    4.33
  -4  -8  -2   16.01    5.03
   4  -8  -1  180.93   15.91
   4  -8  -1  190.60   16.07
  -4  -8  -1  189.30   16.43
   4   8  -1  214.24   15.75
   4   8  -1  151.32   15.14
   4   8   0  298.48   20.98
   4  -8   0  265.78   19.08
   4  -8   0  273.73   19.39
  -4  -8   0  255.80   18.90
   4   8   0  241.71   16.94
  -4  -8   1  177.29   15.86
   4  -8   1  175.01   15.14
   4   8   1  227.15   16.33
   4  -8   1  212.20   17.15
   4   8   1  191.16   16.55
   4   8   2   10.80    4.59
   4  -8   2   10.41    4.81
   4  -8   2   18.32    4.76
  -4  -8   2    9.93    4.98
   4   8   2    9.64    4.37
   4  -8   3   23.61    5.59
   4   8   3   15.65    4.19
   4  -8   3   15.16    5.12
   4   8   3   25.09    7.10
  -4  -8   3   12.12    4.14
   4  -8   4   28.38    5.99
   4   8   4   34.04    6.55
  -4  -8   4   21.02    5.85
   4   8   4   30.83    6.71
   4  -8   4   39.93    7.24
   4  -8   5   59.91    9.65
   4   8   5   57.88    8.51
  -4  -8   5   54.43    8.50
   4   8   5   59.15    9.64
   4  -8   5   51.58    8.93
   4  -8   6  241.90   18.29
  -4  -8   6  262.29   19.03
   4   8   6  267.76   18.76
   4   8   6  249.42   19.67
   4  -8   7  133.20   13.56
  -4  -8   7  118.62   13.29
   4   8   7  134.84   14.86
   4   8   7  141.76   14.09
  -4   8   8    9.44    4.27
  -4  -8   8   17.68    5.19
   4   8   8   12.32    4.97
   4  -8   8   19.44    6.11
   4   8   8   15.69    5.89
  -4   8   9   32.65    6.55
   4   8   9   35.71    6.46
   4  -8   9   51.36    9.22
  -4  -8   9   57.67    9.32
   4   8   9   53.39    8.60
  -4  -8  10  222.90   18.28
  -4   8  10  207.60   17.24
   4   8  10  223.32   17.38
   4   8  10  208.43   18.12
   4  -8  10  230.08   18.31
   4  -8  11   14.25    4.86
   4   8  11   10.82    4.64
  -4   8  11    9.97    3.72
   4   8  11   11.74    4.72
  -4   8  12    3.54    3.32
   4   8  12    9.95    4.61
   4  -8  12    4.09    3.36
   4   8  12    9.36    4.48
   4   8  13   34.58    7.57
   4  -8  13   45.54    8.23
  -4   8  13   27.20    5.95
   4   8  13   30.03    6.95
   4   8  14    1.24    3.10
  -4   8  14   -0.80    2.86
   4   8  14   -1.18    3.00
   4   8  15    2.84    3.99
   4   8  15   -1.41    1.71
   4   8  16   31.34    7.84
  -4   8  16   24.87    6.58
   4   8  16   37.24    7.54
  -4   8  17   -2.78    4.39
   4   8  17   -0.02    1.99
   4   8  17    7.75    2.59
  -4   8  18   83.99   12.15
   4   8  18  112.88   13.56
   4   8  19   57.11    9.92
  -4   8  19   44.96    9.38
  -4   8  20   52.57    9.96
   4   8  20   47.58    9.21
  -4   8  21   44.23    9.44
   4   8  21   57.99   10.54
   4  -9 -18    4.46    3.87
   4  -9 -18   -4.56    3.31
  -4  -9 -18    4.58    6.86
   4  -9 -17   11.75    4.62
  -4  -9 -17    8.67    4.37
   4  -9 -17   19.97    5.78
   4  -9 -16   11.05    4.52
  -4  -9 -16    2.97    4.26
   4  -9 -16   -4.65    4.91
   4  -9 -15   10.26    5.86
   4  -9 -15   14.20    6.15
  -4  -9 -15   11.10    5.08
   4  -9 -14   11.11    4.97
  -4  -9 -14   11.32    4.60
   4  -9 -14   12.38    3.52
   4  -9 -13   19.99    5.34
   4  -9 -13   29.71    7.31
  -4  -9 -13   26.05    7.31
  -4  -9 -12   48.39    9.67
   4  -9 -12   58.60   10.15
   4  -9 -12   67.69   10.69
   4  -9 -11    4.83    2.64
   4  -9 -11    8.62    4.80
  -4  -9 -11    7.24    4.40
   4  -9 -10    4.17    2.55
   4  -9 -10    0.22    2.29
  -4  -9 -10    2.81    2.40
   4   9 -10   -0.42    2.81
   4  -9  -9   34.01    7.65
   4  -9  -9   27.00    7.33
   4   9  -9   35.05    7.31
  -4  -9  -9   23.48    7.02
  -4  -9  -8   63.37    9.51
   4   9  -8   49.48    8.94
   4  -9  -8   60.28   10.07
   4  -9  -7   39.14    7.60
  -4  -9  -7   39.64    7.83
   4   9  -7   48.30    8.63
   4  -9  -7   34.29    7.32
   4  -9  -6    8.49    3.40
   4  -9  -6    6.55    3.65
  -4  -9  -6   -2.01    3.32
   4   9  -6   11.23    5.36
   4  -9  -5    6.24    4.71
   4  -9  -5   -3.50    2.13
   4   9  -5    6.02    3.44
  -4  -9  -5    5.90    3.88
   4  -9  -4   34.76    6.65
  -4  -9  -4    9.65    4.47
   4  -9  -4   29.89    7.24
   4   9  -4   31.98    7.29
   4  -9  -3   40.54    7.87
  -4  -9  -3   31.02    7.70
   4  -9  -3   27.53    6.81
   4   9  -3   48.85    9.53
   4  -9  -2    4.34    3.47
  -4  -9  -2    6.93    4.37
   4   9  -2   -0.90    3.98
   4  -9  -2    9.19    4.62
   4  -9  -1   25.55    6.31
  -4  -9  -1   36.32    7.93
   4   9  -1   22.71    6.29
   4  -9  -1   22.07    5.95
   4  -9   0  143.64   14.63
   4  -9   0  134.70   14.55
   4   9   0  123.45   14.27
  -4  -9   0  140.64   14.71
   4   9   1   29.26    7.24
   4  -9   1   35.04    7.88
  -4  -9   1   33.34    7.02
   4  -9   1   26.25    6.23
   4  -9   2    5.24    4.06
  -4  -9   2    3.58    2.60
   4  -9   2    2.40    4.13
   4   9   2    2.65    4.38
   4  -9   3   30.38    6.97
  -4  -9   3   23.82    6.75
   4  -9   3   26.46    7.19
   4   9   3   36.08    7.31
   4  -9   4   23.88    5.53
  -4  -9   4   27.33    7.53
   4  -9   4   30.09    7.12
   4   9   4   11.31    4.73
   4  -9   5   10.90    4.44
   4   9   5    4.95    3.73
   4   9   5    2.29    2.60
  -4  -9   5    5.39    2.11
  -4  -9   6   10.08    3.79
   4   9   6   11.76    4.57
   4  -9   6    1.53    4.40
   4   9   6    5.30    3.92
   4   9   7   30.66    6.18
   4  -9   7   35.25    7.34
  -4  -9   7   21.94    5.95
   4   9   7   38.04    8.50
  -4  -9   8   42.15    9.31
   4  -9   8   32.41    8.27
   4   9   8   46.40    9.00
   4   9   8   57.69    8.85
   4  -9   9   22.36    6.35
   4   9   9   17.79    4.95
  -4  -9   9   19.85    6.03
   4   9   9   25.72    6.82
   4   9  10    2.10    2.16
   4  -9  10   -2.00    2.04
   4   9  10   -0.55    3.00
   4  -9  11   14.77    5.50
   4   9  11   13.69    5.74
   4   9  11   14.06    5.58
   4  -9  12   55.89    9.64
   4   9  12   54.65    8.83
   4   9  12   41.59    8.92
   4  -9  13   43.89    7.93
   4   9  13   32.94    7.61
   4   9  13   30.03    7.27
   4   9  14    5.72    2.52
   4   9  14    7.59    3.96
  -4   9  15    4.36    3.06
   4   9  15    3.68    3.10
   4   9  15    5.92    2.75
  -4   9  16    6.76    4.83
   4   9  16    2.70    3.97
   4   9  16    7.38    3.96
  -4   9  17    9.77    5.16
   4   9  17   18.96    6.67
   4   9  18    1.50    2.77
  -4   9  18   -1.28    4.02
   4 -10 -14    8.46    4.36
   4 -10 -14   15.56    5.62
  -4 -10 -14   15.68    5.32
   4 -10 -13   10.46    5.26
   4 -10 -13   13.72    5.70
  -4 -10 -13   17.00    6.15
  -4 -10 -12   10.93    4.31
   4 -10 -12   11.58    3.07
   4 -10 -12    5.71    2.24
  -4 -10 -11   46.06    8.63
   4 -10 -11   36.08    7.51
   4 -10 -11   33.83    7.55
  -4 -10 -10   43.72    8.41
   4 -10 -10   66.52   10.32
   4 -10 -10   65.35   10.69
   4 -10  -9  117.77   14.49
   4 -10  -9  144.05   15.56
  -4 -10  -9  132.82   14.90
   4  10  -8   23.28    6.40
   4 -10  -8   24.29    6.03
   4 -10  -8   17.36    6.17
  -4 -10  -8   28.45    6.18
  -4 -10  -7   20.43    5.42
   4  10  -7   30.83    8.20
   4 -10  -7   32.78    6.88
   4 -10  -6   64.23   10.12
  -4 -10  -6   53.45    9.54
   4 -10  -6   55.25    9.89
   4  10  -6   28.60    8.40
   4 -10  -5   72.15   10.81
   4 -10  -5   94.40   12.88
   4  10  -5   86.86   12.49
  -4 -10  -5   78.42   11.27
   4 -10  -4   39.61    8.49
  -4 -10  -4   42.58    8.78
   4  10  -4   45.66    9.83
   4 -10  -4   25.11    6.55
   4  10  -3    9.65    3.51
   4 -10  -3   25.79    7.46
   4 -10  -3   16.02    6.15
  -4 -10  -3   13.40    4.79
   4 -10  -2    9.15    5.06
   4 -10  -2   10.99    4.24
   4  10  -2   -0.40    3.35
   4 -10  -1   25.35    5.98
   4 -10  -1   18.00    6.57
  -4 -10  -1   12.27    4.38
   4  10  -1   20.47    5.43
   4 -10   0  115.23   13.89
  -4 -10   0  125.47   14.31
   4  10   0  147.19   15.71
   4 -10   0  117.75   13.86
  -4 -10   1   29.62    7.85
   4  10   1   25.23    6.75
   4 -10   1   25.03    6.35
   4 -10   1   32.71    8.04
   4 -10   2    5.78    4.13
   4 -10   2    8.60    4.58
   4  10   2    8.04    4.92
  -4 -10   2   10.50    4.75
   4 -10   3   10.73    5.19
  -4 -10   3   13.39    5.17
   4  10   3    5.92    3.52
  -4 -10   4   26.71    7.54
   4 -10   4   43.08    8.17
   4  10   4   47.15    9.29
   4 -10   5   74.23   11.12
  -4 -10   5   60.12    9.90
   4  10   5   97.54   13.37
   4 -10   6   64.32    9.61
  -4 -10   6   53.88    9.88
   4  10   6   42.87    8.80
  -4 -10   7   25.80    7.72
   4  10   7   22.46    6.53
   4 -10   7   28.92    6.90
   4 -10   8   25.22    7.41
  -4 -10   8   21.94    6.07
   4  10   8   27.30    7.92
   4 -10   9  123.60   14.75
   4  10   9  141.19   16.67
   4 -10  10   47.07    8.97
   4  10  10   43.14    9.01
   4 -10  11   36.62    6.81
   4  10  11   40.48    8.02
   4 -10  12   21.82    6.11
   4  10  12    4.73    3.17
   4  10  12   18.06    7.02
   4  10  13   -0.79    3.14
   4  10  13   14.20    5.23
   4  10  14   10.35    4.15
   4  10  14   10.27    5.26
   4 -11  -8    9.72    4.73
   4 -11  -8    9.09    4.09
  -4 -11  -8    7.80    3.16
   4 -11  -7   45.55    9.30
   4 -11  -7   54.84   10.32
  -4 -11  -7   46.44    8.36
   4 -11  -6   20.21    6.81
   4 -11  -6   24.48    7.45
   4  11  -6    8.29    6.24
  -4 -11  -6   29.90    8.07
   4 -11  -5    6.22    5.02
   4 -11  -5    2.90    3.49
  -4 -11  -5    4.82    4.43
   4  11  -5    3.05    4.06
   4  11  -4   -0.30    2.88
   4 -11  -4   -4.45    5.28
   4 -11  -4    6.77    5.00
  -4 -11  -4    4.27    2.55
   4 -11  -3    7.81    3.39
   4 -11  -3    7.20    4.69
   4  11  -3    0.89    3.61
  -4 -11  -3   14.41    5.55
   4 -11  -2   18.28    5.77
   4 -11  -2   -2.33    3.99
  -4 -11  -2    7.60    4.75
   4  11  -2    8.75    5.58
  -4 -11  -1   38.41    7.80
   4 -11  -1   45.70    9.33
   4 -11  -1   50.00    9.79
   4  11  -1   19.26    7.32
   4 -11   0   28.40    6.11
   4 -11   0   36.42    8.98
  -4 -11   0   22.32    6.43
   4  11   0   11.45    5.25
   4 -11   1   69.18   11.45
   4 -11   1   55.00   10.69
  -4 -11   1   29.13    7.08
   4  11   1   39.44    9.29
   4  11   2   -3.52    3.48
  -4 -11   2    2.50    2.42
   4  11   3   10.75    5.18
   4 -11   3    8.35    3.77
  -4 -11   4    7.14    3.71
   4  11   4   -2.38    5.88
   4 -11   4   -2.28    4.60
   4 -11   5    1.22    2.78
  -4 -11   5   -0.72    3.01
   4  11   5   -1.06    3.95
   4 -11   6   19.45    7.11
  -4 -11   6   21.01    7.80
   4  11   6    8.16    3.70
   4 -11   7   55.45   10.62
  -4 -11   7   24.01    6.29
   4  11   7   45.78   10.05
   4 -11   8   15.90    6.28
   4  11   8   27.18    7.26
   5   0 -22    1.83    2.69
   5   0 -21    0.24    2.41
   5   0 -20   -0.41    1.87
   5   0 -19   -0.02    2.18
   5   0 -18   -1.35    2.69
   5   0 -17   -0.37    1.43
   5   0 -16   -0.14    1.92
   5   0 -15    0.54    1.70
   5   0 -14   -0.69    1.27
   5   0 -13    0.27    1.50
   5   0 -13    0.62    0.32
   5   0 -12    2.64    2.71
   5   0 -12    0.13    0.83
   5   0 -11    0.71    0.66
   5   0 -11   -1.00    1.07
   5   0 -10    0.04    0.49
   5   0 -10    0.03    1.90
   5   0  -9    0.19    0.56
   5   0  -9    1.70    1.56
   5   0  -8    0.28    0.54
   5   0  -8   -0.24    1.01
   5   0  -7   -0.21    1.02
   5   0  -7   -0.33    0.72
   5   0  -6    0.22    0.54
   5   0  -6    1.37    1.19
   5   0  -5   -0.04    1.20
   5   0  -5    0.24    1.07
   5   0  -4   -0.20    0.59
   5   0  -4   -0.47    1.00
   5   0  -3   -0.59    1.21
   5   0  -3   -0.79    0.79
   5   0  -2   -0.84    1.03
   5   0  -2   -0.19    1.01
   5   0  -1    0.40    0.58
   5   0  -1    0.96    1.50
   5   0   0   -0.85    1.01
   5   0   0   -0.11    0.56
   5   0   1   -0.40    1.22
   5   0   1    1.07    1.86
   5   0   1    0.04    0.94
   5   0   2    0.90    1.46
   5   0   2   -0.83    0.57
   5   0   2   -0.10    1.20
   5   0   3   -0.34    0.63
   5   0   3   -0.40    0.82
   5   0   3    0.48    1.00
   5   0   4    2.19    1.19
   5   0   4   -0.07    0.81
   5   0   4    0.49    1.17
   5   0   5   -1.02    1.41
   5   0   5    0.33    0.78
   5   0   5    1.15    1.53
   5   0   6    0.46    1.46
   5   0   6    0.24    0.94
   5   0   6    1.65    1.37
   5   0   7    0.82    0.61
   5   0   7   -0.53    0.78
   5   0   7    0.08    1.24
   5   0   8    0.05    0.70
   5   0   8   -0.30    1.17
   5   0   8    0.65    1.14
   5   0   9    1.56    1.60
   5   0   9    0.81    1.46
   5   0  10    0.44    2.19
   5   0  10   -0.10    0.93
   5   0  11   -0.49    0.83
   5   0  11   -0.16    1.36
   5   0  12    0.20    1.63
   5   0  12   -0.07    1.17
   5   0  13   -0.47    1.04
   5   0  13    1.03    1.42
   5   0  14   -0.38    1.61
   5   0  14    1.00    0.84
   5   0  15    0.80    2.31
   5   0  16    2.87    3.30
   5   0  17    1.67    1.97
   5   0  18    1.01    2.67
   5   0  19    2.57    3.15
   5   0  20    7.68    4.05
   5   0  21   -1.44    2.87
   5   0  22    0.26    2.43
   5   0  23    2.47    4.22
   5   0  24    0.09    2.94
   5   0  25   -1.68    2.10
   5   0  26   -2.86    4.59
   5   0  27    3.96    3.20
   5   0  28    1.74    2.25
   5   0  29   -3.51    3.83
   5   0  30   -1.46    2.03
   5  -1 -23   10.86    4.98
   5  -1 -22   53.67    8.17
   5  -1 -21   67.61    9.05
   5   1 -20    1.56    2.90
   5  -1 -20    8.15    2.18
   5  -1 -19   57.93    8.48
   5   1 -19   49.91    7.47
   5  -1 -18   78.03    9.66
   5   1 -18   66.05    8.51
   5  -1 -17   85.88    9.53
   5   1 -17   74.39    8.93
   5  -1 -16  849.23   29.51
   5   1 -16  938.30   29.75
   5  -1 -15  352.18   11.64
   5   1 -15  404.75   19.05
   5  -1 -15  414.96   19.96
   5   1 -14  225.51   13.98
   5  -1 -14  256.13   10.02
   5  -1 -13  119.29    6.96
   5  -1 -13  125.98   10.55
   5   1 -13  122.73   10.20
   5  -1 -12  216.00    9.41
   5  -1 -12  213.28   13.30
   5   1 -12  222.20   13.21
   5  -1 -11  293.93   11.03
   5  -1 -11  269.39   14.79
   5   1 -11  282.46   14.76
   5   1 -10  718.22   22.81
   5  -1 -10  765.63   17.99
   5  -1  -9   29.10    3.67
   5  -1  -9   32.33    4.68
   5   1  -9   26.80    4.37
   5  -1  -8   36.99    4.06
   5  -1  -8   37.94    5.20
   5   1  -8   40.32    5.24
   5  -1  -7    7.45    1.97
   5   1  -7   11.83    2.82
   5  -1  -7   11.50    2.82
   5  -1  -6 1499.06   26.28
   5  -1  -6 1429.44   30.12
   5   1  -6 1467.50   30.65
   5  -1  -5  438.01   14.38
   5  -1  -5  426.75   16.42
   5   1  -5  456.72   16.84
   5  -1  -4 2499.16   38.72
   5   1  -4 2411.75   38.76
   5  -1  -3  284.85   11.53
   5  -1  -3  305.45   13.21
   5   1  -3  278.26   13.12
   5  -1  -2   30.37    3.72
   5  -1  -2   36.71    4.49
   5   1  -2   29.41    4.02
   5  -1  -1   56.53    5.43
   5  -1  -1   56.38    5.45
   5  -1   0   40.52    4.64
   5   1   0   44.58    5.18
   5   1   0   44.92    5.30
   5  -1   1   59.05    5.54
   5  -1   1   53.41    5.10
   5   1   1   47.25    5.05
   5   1   1   62.42    6.14
   5  -1   2   30.05    3.75
   5  -1   2   30.95    4.23
   5  -1   2   32.85    3.98
   5   1   2   37.63    4.80
   5   1   2   30.81    4.33
   5   1   3  264.92   12.36
   5   1   3  294.81   13.80
   5  -1   3  318.79   12.36
   5  -1   3  280.90   11.12
   5  -1   3  326.39   13.40
   5   1   4 2309.14   38.81
   5  -1   4 2416.21   37.73
   5   1   4 2374.71   37.05
   5  -1   4 2399.71   34.38
   5  -1   4 2350.06   31.68
   5   1   5  414.11   16.47
   5   1   5  387.05   15.24
   5  -1   5  383.50   12.68
   5  -1   5  374.15   14.93
   5  -1   5  409.06   14.44
   5   1   6 1503.41   32.46
   5   1   6 1408.30   29.15
   5  -1   6 1490.63   24.13
   5  -1   6 1430.27   29.83
   5  -1   6 1458.53   27.71
   5  -1   7   11.08    2.62
   5  -1   7   14.17    2.42
   5  -1   7   12.79    2.95
   5   1   7   14.42    3.06
   5   1   7   13.81    3.19
   5  -1   8   42.63    5.13
   5   1   8   35.54    5.21
   5  -1   8   41.06    3.89
   5  -1   8   41.30    5.41
   5   1   8   36.19    4.85
   5  -1   9   25.94    3.15
   5   1   9   26.29    3.88
   5  -1   9   33.02    4.53
   5   1   9   28.50    4.91
   5  -1   9   31.95    4.63
   5  -1  10  722.48   22.77
   5   1  10  704.05   24.23
   5  -1  10  709.61   21.40
   5  -1  10  715.15   15.56
   5   1  10  706.67   21.67
   5  -1  11  288.41   14.72
   5  -1  11  293.71   14.33
   5   1  11  261.08   15.11
   5   1  11  283.01   13.71
   5  -1  11  264.83    9.15
   5   1  12  203.70   13.49
   5   1  12  229.37   12.59
   5  -1  12  219.45   12.91
   5  -1  12  201.96    7.74
   5  -1  12  202.42   12.49
   5  -1  13  118.04    9.60
   5   1  13  125.88   10.94
   5  -1  13  134.17   10.47
   5   1  13  128.32    9.36
   5   1  14  299.80   17.19
   5   1  14  279.36   14.20
   5  -1  15  378.61   18.53
   5   1  15  407.61   20.60
   5   1  15  379.60   17.13
   5  -1  16  919.28   29.81
   5   1  16  925.27   31.37
   5   1  17   74.19    9.28
   5  -1  18   66.60    8.59
   5   1  18   63.29    8.70
   5  -1  19   39.78    7.19
   5   1  19   53.43    8.04
   5   1  20    4.00    3.17
   5  -1  20    3.69    1.81
   5  -1  21   75.84    9.55
   5   1  21   75.27   10.11
   5  -1  22   43.04    7.73
   5   1  22   40.81    7.71
   5  -1  23   13.54    5.54
   5   1  23   18.16    5.40
   5  -1  24   23.77    4.78
   5   1  24   13.08    4.37
   5  -1  25  114.77   13.35
   5   1  25   99.71   12.57
   5  -1  26   39.86    8.86
   5   1  26  176.41   16.51
   5   1  27   99.72   12.46
   5   1  28   16.66    5.75
   5   1  29   38.50    8.08
   5   1  30    4.19    4.14
   5  -2 -24   14.84    5.96
   5  -2 -23   86.51   10.95
   5  -2 -22   42.91    7.90
   5  -2 -21    2.06    2.95
   5  -2 -20   32.25    6.41
   5  -2 -19  251.19   17.39
   5   2 -19  228.23   16.14
   5  -2 -18   52.53    7.85
   5   2 -18   36.72    6.18
   5  -2 -17   66.83    8.84
   5   2 -17   60.93    7.81
   5  -2 -16  122.00    8.75
   5  -2 -16  108.98   10.94
   5   2 -16   94.60    9.78
   5   2 -15 1111.17   32.78
   5  -2 -15 1113.87   26.02
   5   2 -14  190.73   13.17
   5  -2 -14  197.68   10.79
   5  -2 -14  187.74   13.67
   5   2 -13  579.45   22.43
   5  -2 -13  578.82   23.58
   5  -2 -13  546.89   18.18
   5  -2 -12   15.03    3.24
   5  -2 -12   17.92    4.27
   5   2 -12    8.51    2.89
   5  -2 -11  121.68    8.38
   5  -2 -11  105.44    9.62
   5   2 -11   90.38    8.54
   5   2 -10    4.72    1.84
   5  -2 -10    1.08    1.54
   5  -2 -10    5.71    2.33
   5  -2  -9   18.14    3.48
   5  -2  -9   16.44    3.76
   5   2  -9   22.11    4.13
   5   2  -8  120.24    9.40
   5  -2  -8  126.96    8.46
   5  -2  -8  132.45   10.02
   5   2  -7  749.88   23.10
   5  -2  -7  799.84   21.19
   5  -2  -7  790.36   24.46
   5  -2  -6  407.65   15.22
   5   2  -6  438.31   17.36
   5  -2  -6  404.12   16.96
   5  -2  -5  131.44    8.67
   5   2  -5  139.80    9.57
   5  -2  -5  134.35    9.57
   5   2  -4   65.34    6.62
   5  -2  -4   58.69    5.93
   5  -2  -4   60.40    6.40
   5   2  -3  356.79   15.40
   5  -2  -3  337.32   14.66
   5  -2  -2  197.08   10.67
   5   2  -2  197.82   11.37
   5   2  -2  189.81   11.18
   5  -2  -2  198.95   11.00
   5  -2  -1   61.15    5.99
   5   2  -1   63.10    6.59
   5   2  -1   69.20    6.76
   5  -2  -1   72.29    6.48
   5   2   0  543.71   19.08
   5   2   0  492.12   18.16
   5  -2   0  531.96   17.18
   5  -2   1   61.02    5.79
   5   2   1   71.49    6.92
   5   2   1   63.64    6.75
   5  -2   1   71.94    6.05
   5  -2   2  177.98   10.66
   5   2   2  185.24   11.17
   5  -2   2  198.37    9.77
   5   2   2  179.57   11.15
   5  -2   3  379.36   15.36
   5   2   3  400.88   16.76
   5  -2   3  379.00   13.26
   5   2   3  405.14   17.19
   5  -2   3  378.20   12.65
   5  -2   4   56.04    5.94
   5   2   4   63.64    6.69
   5  -2   4   61.47    5.36
   5   2   4   67.93    6.92
   5  -2   4   62.50    5.01
   5  -2   5  142.83    7.65
   5  -2   5  143.61    9.66
   5   2   5  143.19   10.41
   5  -2   5  144.25    7.70
   5   2   5  135.84   10.12
   5   2   6  425.71   17.78
   5  -2   6  437.38   17.27
   5   2   6  406.67   17.94
   5  -2   6  408.20   13.28
   5  -2   6  434.16   13.19
   5  -2   7  807.87   23.77
   5  -2   7  787.19   16.63
   5  -2   7  743.71   18.33
   5   2   7  768.54   25.11
   5   2   7  731.39   23.52
   5  -2   8  119.69    6.30
   5   2   8  118.45    9.83
   5  -2   8  127.49    7.84
   5   2   8  146.93   11.03
   5  -2   8  134.54    9.94
   5   2   9   12.03    3.40
   5   2   9    7.67    2.54
   5  -2   9   16.95    2.31
   5  -2   9   12.69    2.68
   5  -2   9   11.72    2.76
   5   2  10    2.30    1.54
   5  -2  10    5.75    2.13
   5  -2  10    2.89    1.72
   5  -2  10    3.85    1.15
   5   2  10    1.84    2.23
   5   2  11  115.54   10.60
  -5  -2  11  102.06    5.15
   5  -2  11  121.07    8.67
   5   2  11   98.25    9.12
   5  -2  11  126.08   10.09
   5  -2  12    9.13    2.74
   5  -2  12    7.07    2.08
   5   2  12    9.93    3.03
   5  -2  13  551.43   19.84
   5   2  13  540.00   22.19
   5  -2  13  549.12   21.43
   5   2  13  582.19   24.02
   5   2  14  169.80   13.49
   5   2  14  178.69   13.21
   5  -2  14  158.12   11.27
   5  -2  14  162.88   11.68
   5   2  15 1152.31   33.11
   5  -2  15 1168.68   31.29
   5   2  15 1093.89   35.08
   5  -2  15 1196.61   32.63
   5  -2  16  116.72   10.50
   5  -2  16  124.64   10.86
   5   2  16  118.64   11.47
   5   2  16  121.50   10.93
   5   2  17   50.17    7.56
   5  -2  17   57.14    7.15
   5   2  17   74.66    9.60
   5  -2  17   70.63    7.79
   5   2  18   51.22    8.22
   5  -2  18   43.69    7.18
   5  -2  19  220.61   15.61
   5   2  19  267.50   18.42
   5   2  20   37.88    7.46
   5  -2  20   28.56    6.49
   5   2  21    7.79    4.02
   5   2  22   33.54    7.12
   5   2  23   79.33   10.87
   5   2  24   13.54    4.75
   5   2  25   47.47    8.95
   5   2  26   57.53   10.03
   5   2  27   -0.84    2.72
   5   2  28   20.89    5.95
   5   2  29    6.50    4.78
   5  -3 -25  192.90   17.62
   5  -3 -24    9.79    5.23
   5  -3 -23    1.18    4.24
   5  -3 -22  251.92   19.18
   5  -3 -21  207.88   17.62
   5  -3 -20  154.86   14.63
   5  -3 -19  187.44   15.42
   5   3 -18   44.90    7.50
   5  -3 -18   32.99    7.00
   5   3 -17   32.82    6.35
   5  -3 -17   34.64    6.28
   5   3 -16  236.96   15.36
   5  -3 -16  204.75   12.91
   5  -3 -16  245.97   16.64
   5  -3 -15  760.68   24.87
   5   3 -15  737.61   26.58
   5  -3 -15  744.11   28.92
   5  -3 -14  148.46   10.96
   5  -3 -14  123.38   11.59
   5   3 -14  121.22   10.53
   5  -3 -13   23.84    4.45
   5   3 -13   39.60    6.01
   5  -3 -13   36.60    6.27
   5  -3 -12   77.22    7.61
   5   3 -12   81.68    8.56
   5  -3 -12   74.37    8.90
   5  -3 -11  171.76   11.24
   5   3 -11  142.65   11.20
   5  -3 -11  155.46   12.24
   5  -3 -10  342.33   18.00
   5  -3 -10  337.22   15.78
   5   3 -10  304.69   16.10
   5  -3  -9   77.55    8.42
   5   3  -9   75.67    7.81
   5  -3  -9   75.61    7.44
   5  -3  -8   23.69    4.81
   5  -3  -8   30.54    4.95
   5   3  -8   26.17    4.65
   5  -3  -7  178.12   12.23
   5  -3  -7  177.00   11.14
   5   3  -7  182.97   12.05
   5  -3  -6  814.18   24.05
   5   3  -6  824.63   25.66
   5  -3  -6  758.03   24.60
   5  -3  -5  592.86   21.37
   5   3  -5  600.36   22.17
   5  -3  -4  321.28   15.40
   5  -3  -4  322.12   15.11
   5   3  -4  285.02   15.08
   5   3  -4  321.36   15.45
   5  -3  -3  200.17   12.20
   5  -3  -3  208.72   12.37
   5   3  -3  244.02   13.90
   5   3  -3  199.78   12.16
   5  -3  -2  496.08   18.72
   5   3  -2  505.58   20.09
   5   3  -2  532.68   19.80
   5  -3  -2  530.67   19.53
   5  -3  -1 1691.63   33.91
   5   3  -1 1676.65   36.49
   5   3  -1 1712.74   35.69
   5  -3  -1 1743.65   35.13
   5   3   0 1368.74   31.92
   5   3   0 1367.04   33.32
   5  -3   0 1292.22   30.67
   5  -3   0 1246.80   28.45
   5   3   1 1679.53   36.53
   5  -3   1 1696.57   35.25
   5   3   1 1764.56   36.66
   5  -3   1 1664.45   32.07
   5  -3   2  496.47   19.18
   5  -3   2  487.03   16.82
   5   3   2  463.21   20.25
   5   3   2  503.13   19.76
   5  -3   3  217.66   12.64
   5   3   3  195.81   12.33
   5  -3   3  206.11   10.74
   5  -3   3  221.33    8.65
   5   3   3  228.39   13.83
   5  -3   4  329.50   15.65
   5   3   4  313.38   15.97
   5  -3   4  322.30   10.01
   5  -3   4  313.89   12.89
   5   3   4  294.91   15.84
   5  -3   5  603.92   21.47
   5  -3   5  642.79   18.06
   5   3   5  608.42   22.52
   5  -3   5  664.96   14.27
   5   3   5  611.38   22.88
   5   3   6  835.46   26.70
   5  -3   6  807.97   25.07
   5  -3   6  767.33   18.94
   5   3   6  777.48   26.33
   5  -3   6  767.47   15.46
   5  -3   7  149.11   10.97
   5  -3   7  155.08    8.16
   5  -3   7  156.73    7.21
   5   3   7  173.71   12.66
   5   3   7  170.14   12.19
   5   3   8   23.40    5.14
   5  -3   8   26.87    3.08
   5   3   8   25.35    4.88
   5  -3   8   17.05    3.84
   5  -3   8   27.99    3.17
   5   3   9   87.50    9.04
   5   3   9   70.29    8.27
   5  -3   9   84.52    5.37
   5  -3   9   69.50    7.61
   5  -3   9   71.92    5.47
  -5  -3  10  351.77   12.71
   5  -3  10  301.30   16.05
   5  -3  10  314.74    9.28
   5   3  10  331.44   17.75
   5  -3  10  310.63   11.76
   5   3  10  313.53   17.30
   5  -3  11  158.16   11.68
   5   3  11  157.82   12.65
  -5  -3  11  155.74    8.16
   5   3  11  130.11   11.54
   5  -3  11  145.46    8.59
   5  -3  12   73.84    8.14
   5   3  12   67.49    8.38
   5  -3  12   76.27    6.75
   5   3  12   66.69    8.51
   5  -3  13   31.73    5.60
   5  -3  13   37.92    5.01
   5   3  13   32.27    6.17
   5   3  13   42.02    6.56
   5  -3  14  120.75    9.29
   5   3  14  131.37   11.76
   5   3  14  152.58   13.03
   5  -3  14  135.68   11.16
   5   3  15  828.83   31.05
   5  -3  15  773.62   27.53
   5   3  15  764.63   29.24
   5  -3  16  223.87   14.97
   5   3  16  238.06   16.92
   5   3  17   17.26    4.58
   5   3  17   29.31    5.81
   5  -3  17   22.21    4.95
   5   3  18   48.69    7.94
   5   3  18   38.45    7.52
   5   3  19  217.90   17.07
   5   3  19  201.29   16.60
   5   3  20  138.85   14.21
   5   3  22  252.28   18.88
   5   3  23    2.58    2.48
   5   3  24    5.70    2.26
   5   3  25  192.72   17.27
   5   3  26   48.85    8.81
   5   3  27  164.19   16.89
   5   3  28   86.05   11.99
   5   3  29   19.73    6.55
   5  -4 -26    0.02    2.81
   5  -4 -25   20.15    5.51
   5  -4 -24   91.59   12.14
   5  -4 -23   40.81    8.29
   5  -4 -22   10.69    4.19
   5  -4 -21   31.52    7.34
   5  -4 -20  118.36   12.90
   5  -4 -19    0.95    3.14
   5  -4 -18   24.43    5.57
   5   4 -17  385.73   21.01
   5  -4 -17  414.77   21.13
   5  -4 -17  447.70   24.01
   5   4 -16  150.24   12.88
   5  -4 -16  136.41   12.10
   5  -4 -16  143.83   13.27
   5  -4 -15   80.19    9.58
   5   4 -15   75.33    9.32
   5  -4 -15   94.12    9.53
   5   4 -14   33.41    6.12
   5  -4 -14   27.24    5.72
   5  -4 -14   28.92    5.43
   5  -4 -13  187.99   14.33
   5   4 -13  171.34   13.14
   5  -4 -13  178.31   13.13
   5  -4 -12  277.70   17.51
   5   4 -12  277.61   16.47
   5  -4 -12  268.44   15.79
   5  -4 -11   54.37    7.53
   5   4 -11   61.64    7.75
   5  -4 -11   58.17    7.18
   5  -4 -10   30.95    5.42
   5   4 -10   23.07    4.34
   5  -4 -10   21.14    4.69
   5  -4  -9  146.40   12.02
   5   4  -9  165.67   12.58
   5  -4  -9  150.12   11.68
   5  -4  -8   35.39    5.71
   5  -4  -8   34.54    5.80
   5   4  -8   28.09    5.44
   5  -4  -7   89.20    8.91
   5  -4  -7   86.99    8.96
   5   4  -7  101.75    9.87
   5   4  -6  302.95   16.79
   5   4  -6  276.92   15.30
   5  -4  -6  282.77   15.64
   5  -4  -6  301.71   16.83
   5   4  -5   74.16    8.43
   5  -4  -5   83.56    8.64
   5  -4  -5   77.03    8.16
   5   4  -5   83.77    8.36
   5  -4  -4  172.45   12.41
   5  -4  -4  165.66   11.90
   5   4  -4  163.12   11.83
   5   4  -4  174.56   12.71
   5   4  -3    9.47    3.25
   5  -4  -3    8.83    3.01
   5  -4  -3    7.50    2.74
   5   4  -3    4.83    2.37
   5   4  -2   42.91    6.07
   5   4  -2   52.86    7.15
   5  -4  -2   51.35    6.71
   5  -4  -2   38.27    5.88
   5   4  -1    1.06    1.12
   5  -4  -1    1.66    2.12
   5  -4  -1    2.85    2.62
   5   4  -1    3.21    1.99
   5   4   0  120.59   10.60
   5   4   0  142.08   10.87
   5  -4   0  114.54    9.49
   5  -4   0  112.20    9.69
   5   4   1    2.84    2.23
   5  -4   1    3.67    1.82
   5  -4   1    2.67    1.44
   5   4   1    2.45    1.50
   5  -4   2   40.51    5.74
   5  -4   2   32.91    4.74
   5   4   2   45.08    6.89
   5   4   2   40.88    5.84
   5   4   3    9.18    3.17
   5  -4   3    4.83    2.21
   5  -4   3    8.38    3.05
   5   4   3    6.90    1.90
   5  -4   3    7.50    1.62
   5  -4   4  133.10    5.39
   5  -4   4  182.12   12.50
   5   4   4  163.77   12.28
   5  -4   4  183.03   11.00
   5   4   4  149.95   12.34
   5   4   5   90.09    9.51
   5  -4   5   80.42    8.32
   5   4   5   83.33    8.63
   5  -4   5   88.05    7.43
   5   4   6  282.43   16.85
   5   4   6  294.42   16.50
   5  -4   6  270.06   15.62
   5  -4   6  298.69   13.16
   5  -4   7   88.51    6.92
   5  -4   7   94.83    9.20
  -5  -4   7   98.84    8.31
   5   4   7   92.61    9.45
   5   4   7   93.86    9.88
   5   4   8   33.66    6.04
   5  -4   8   32.09    5.42
  -5  -4   8   27.35    4.22
   5  -4   8   30.59    4.15
   5   4   8   34.03    5.88
   5  -4   9  180.92   12.93
   5  -4   9  163.07    8.63
   5   4   9  145.05   12.35
   5   4   9  171.40   13.54
  -5  -4   9  167.51   10.62
  -5   4  10   31.77    5.38
  -5  -4  10   29.48    4.43
   5   4  10   18.49    5.12
   5  -4  10   36.88    6.32
   5   4  10   27.47    5.80
   5  -4  11   48.02    7.22
  -5   4  11   57.39    8.01
  -5  -4  11   47.86    5.47
   5   4  11   60.52    8.35
   5   4  11   62.55    8.45
  -5   4  12  243.15   16.11
   5  -4  12  259.66   16.06
   5   4  12  283.55   18.10
   5   4  13  169.39   14.24
   5  -4  13  162.84   13.11
  -5   4  13  190.22   14.45
   5   4  13  174.93   14.51
   5   4  14   29.25    6.17
   5  -4  14   29.22    5.72
  -5   4  14   31.83    6.19
   5   4  14   24.19    6.10
   5   4  15   70.56    9.06
   5   4  15   73.44    9.94
   5  -4  15   67.88    8.66
  -5   4  16  159.01   13.91
   5   4  16  162.06   14.65
   5   4  16  163.43   14.32
   5  -4  16  152.39   13.21
   5   4  17  418.50   23.55
   5   4  17  465.79   24.19
  -5   4  18    9.92    4.71
   5   4  18   20.04    5.03
   5   4  18   20.87    5.87
  -5   4  19   11.19    4.10
   5   4  19   14.56    4.84
   5   4  19   15.61    5.09
  -5   4  20  114.47   12.56
   5   4  20  122.01   13.27
   5   4  20  102.08   12.34
   5   4  21   21.11    5.99
   5   4  22   10.56    4.64
   5   4  23   46.74    8.30
   5   4  24  135.88   14.87
   5   4  25   27.50    6.84
   5   4  26    3.68    2.70
   5   4  27   -0.31    3.00
   5   4  28   10.40    4.45
   5  -5 -27   12.06    5.21
   5  -5 -26   24.31    6.95
   5  -5 -25   15.48    5.34
   5  -5 -24  121.63   14.94
  -5  -5 -23   25.82    7.02
   5  -5 -23   17.92    6.26
   5  -5 -22   29.08    7.25
  -5  -5 -22   17.68    6.02
   5  -5 -21   96.34   12.36
  -5  -5 -21   73.24   10.39
   5  -5 -20  207.87   17.52
   5  -5 -19   13.99    4.79
   5  -5 -18   19.96    6.17
   5  -5 -18   18.50    5.22
   5  -5 -17   75.69   10.38
   5  -5 -17   88.84   10.31
   5  -5 -16    1.53    1.74
   5  -5 -16    1.17    2.03
   5   5 -15  194.90   15.21
   5  -5 -15  194.45   15.66
   5  -5 -15  215.96   15.73
   5   5 -14  104.53   11.25
   5  -5 -14  101.75   10.80
   5  -5 -14  100.82   11.62
   5   5 -13    3.34    2.72
   5  -5 -13    5.27    3.59
   5  -5 -13    4.83    2.97
   5  -5 -12   37.51    7.09
   5  -5 -12   21.97    4.76
   5   5 -12   25.71    5.09
   5   5 -11  225.75   15.73
   5  -5 -11  215.09   15.19
   5  -5 -11  241.43   16.79
   5   5 -10   63.38    8.08
   5  -5 -10   61.64    8.03
   5  -5 -10   85.45    9.74
   5   5  -9  136.15   11.42
   5  -5  -9  144.51   12.14
   5   5  -9  130.35   11.78
   5  -5  -9  152.36   12.88
   5  -5  -8   26.97    5.48
   5   5  -8   26.88    4.83
   5   5  -8   25.27    5.34
   5  -5  -8   26.68    5.14
   5   5  -7   46.06    7.20
   5   5  -7   42.89    6.30
   5  -5  -7   44.63    7.45
   5  -5  -7   25.97    4.99
   5   5  -6  517.14   23.52
   5  -5  -6  529.57   23.07
   5  -5  -6  514.77   23.10
   5   5  -6  518.05   22.25
   5   5  -5  256.03   16.85
   5   5  -5  227.21   14.57
   5  -5  -5  196.71   13.88
   5  -5  -5  232.83   15.38
   5  -5  -4   22.54    4.82
   5   5  -4   20.42    4.57
   5  -5  -4   16.29    4.20
   5   5  -4   30.84    5.17
   5  -5  -3   39.36    5.42
   5   5  -3   43.08    6.12
   5   5  -3   51.47    7.41
   5  -5  -3   48.60    6.85
   5  -5  -2   31.90    5.66
   5   5  -2   40.13    6.21
   5  -5  -2   36.62    6.04
   5   5  -2   32.80    6.25
   5  -5  -1   89.58    9.20
   5  -5  -1   79.82    8.45
   5   5  -1   77.36    8.64
   5   5  -1   80.58    9.32
   5   5   0  270.84   15.88
   5  -5   0  244.45   15.60
   5  -5   0  275.27   15.66
   5   5   0  255.49   16.47
   5  -5   1   58.69    7.59
   5  -5   1   67.63    7.59
   5   5   1   72.66    8.33
   5   5   1   62.28    8.55
   5  -5   2   41.18    6.15
   5  -5   2   45.52    6.11
   5   5   2   39.67    6.37
   5   5   2   42.72    6.71
  -5  -5   3   54.38    6.85
   5   5   3   45.14    6.93
   5  -5   3   45.70    6.13
   5  -5   3   50.89    6.95
   5   5   3   46.70    7.62
   5   5   4   20.91    5.06
  -5  -5   4   18.89    4.55
   5  -5   4   18.09    3.93
   5   5   4   21.97    4.81
   5  -5   4   16.39    4.07
   5  -5   5  221.71   14.74
   5  -5   5  233.68   13.64
   5   5   5  272.15   16.29
   5   5   5  236.65   16.40
  -5  -5   5  236.24   14.38
   5   5   6  507.48   22.87
   5  -5   6  483.52   18.97
  -5  -5   6  478.65   20.47
   5   5   6  470.49   23.30
   5  -5   7   31.35    4.82
   5  -5   7   19.86    4.41
   5   5   7   30.53    5.96
   5   5   7   35.38    6.64
  -5  -5   7   28.89    4.66
   5  -5   8   35.71    5.92
   5  -5   8   31.14    4.58
  -5  -5   8   36.25    5.44
   5   5   8   31.60    5.74
   5   5   8   35.26    6.84
   5   5   9  148.83   13.91
   5  -5   9  137.01   12.14
  -5   5   9  120.77   10.66
  -5  -5   9  154.04   11.71
   5   5   9  146.92   12.69
   5  -5  10   98.44   10.15
  -5  -5  10   68.68    7.92
  -5   5  10   95.80   10.42
   5   5  10   68.19    9.12
   5   5  10   74.70    9.77
   5   5  11  246.23   16.57
   5  -5  11  216.72   15.23
  -5  -5  11  212.53   13.73
  -5   5  11  237.77   15.81
   5   5  11  212.99   16.42
   5  -5  12   25.47    5.07
   5   5  12   22.93    6.04
  -5   5  12   25.08    5.87
   5   5  12   30.81    6.51
   5  -5  13   11.62    4.45
  -5   5  13    5.75    2.33
   5   5  13    3.10    2.09
   5   5  13    6.50    4.67
   5  -5  14   85.86    9.96
   5   5  14  111.77   12.80
   5   5  14   76.84    9.85
  -5   5  14   97.22   10.55
   5   5  15  188.38   16.40
  -5   5  15  201.42   16.22
   5  -5  15  200.80   15.67
   5   5  15  235.17   17.32
  -5   5  16   -0.01    1.77
   5   5  16    4.01    2.44
   5   5  16    2.96    2.76
   5  -5  16    4.42    2.75
  -5   5  17  100.46   11.67
   5   5  17  103.24   12.02
   5   5  17   85.81   11.31
   5   5  18   28.42    7.04
  -5   5  18   14.83    4.60
   5   5  18   25.19    5.90
   5   5  19   18.64    5.45
   5   5  19   21.80    6.63
  -5   5  19   14.12    5.80
   5   5  20  200.53   17.02
  -5   5  20  189.11   16.84
   5   5  20  194.38   17.78
  -5   5  21   96.68   12.15
   5   5  21   65.42   10.75
   5   5  22   33.51    7.32
   5   5  23    8.48    2.74
   5   5  24  121.04   13.53
   5   5  25   23.84    5.79
   5   5  26   32.50    7.06
   5   5  27   14.09    3.92
   5  -6 -25   10.25    5.39
   5  -6 -24   26.95    7.98
   5  -6 -23   -1.19    2.47
  -5  -6 -23    7.35    4.55
  -5  -6 -22   14.73    6.08
   5  -6 -22   17.53    6.50
  -5  -6 -21    2.13    3.23
   5  -6 -21   -0.64    2.67
  -5  -6 -20    1.57    2.21
   5  -6 -20    2.21    3.24
   5  -6 -19   -0.10    2.46
  -5  -6 -19   -6.43    3.35
   5  -6 -18   10.37    4.14
   5  -6 -18   11.17    3.95
  -5  -6 -18   21.12    6.79
   5  -6 -17   20.67    5.73
   5  -6 -17   24.69    6.10
  -5  -6 -17   40.94    7.54
   5  -6 -16   86.64   11.31
   5  -6 -16   54.84    8.47
  -5  -6 -16   77.66   10.19
   5  -6 -15   73.21   10.01
  -5  -6 -15   56.68    8.88
   5  -6 -15   64.35    9.51
   5   6 -14    8.59    3.86
   5  -6 -14   16.84    4.93
   5  -6 -14   11.09    3.53
  -5  -6 -14   11.40    3.28
   5   6 -13   16.75    5.10
   5  -6 -13   15.02    4.43
   5  -6 -13   25.05    6.19
   5   6 -13   30.86    6.62
   5  -6 -12  143.10   13.34
   5  -6 -12  158.21   14.35
   5   6 -12  136.81   13.62
   5   6 -12  112.11   11.49
   5   6 -11   26.60    5.65
   5  -6 -11   22.80    5.08
   5  -6 -11   16.86    5.09
   5   6 -11   13.80    2.66
   5   6 -10   10.17    3.58
   5  -6 -10   14.36    4.88
   5   6 -10    7.91    3.53
   5  -6 -10   10.01    4.09
   5  -6  -9   56.18    8.46
   5  -6  -9   49.66    7.81
   5   6  -9   40.83    6.94
   5   6  -9   63.08    8.78
   5  -6  -8   47.48    7.95
   5  -6  -8   48.86    8.10
   5   6  -8   45.57    7.22
   5   6  -8   50.25    8.23
   5  -6  -7  160.90   13.55
   5  -6  -7  151.03   13.64
   5   6  -7  160.30   12.76
   5   6  -7  158.81   13.74
   5   6  -6    3.62    2.80
   5  -6  -6    7.54    2.96
   5  -6  -6    3.52    2.20
   5   6  -5   14.41    5.36
   5  -6  -5   24.58    5.49
   5  -6  -5   16.82    4.75
   5   6  -5   24.22    5.14
   5  -6  -4  203.39   14.91
   5   6  -4  209.69   14.66
   5  -6  -4  194.13   14.99
   5   6  -4  205.09   16.27
   5  -6  -3   41.01    6.90
   5  -6  -3   45.16    6.79
   5   6  -3   44.07    7.26
   5   6  -3   42.85    6.30
  -5  -6  -3   40.90    6.77
  -5  -6  -2   87.71    9.85
   5  -6  -2   82.94    9.79
   5   6  -2   80.84    9.17
   5  -6  -2   97.57   10.68
   5   6  -2  108.39   11.38
  -5  -6  -1  109.92   11.17
   5  -6  -1  142.72   12.66
   5   6  -1  113.22   11.66
   5   6  -1  113.77   10.63
   5  -6  -1  126.63   11.52
  -5  -6   0  106.36   11.05
   5   6   0  126.97   11.30
   5  -6   0  133.44   12.07
   5  -6   0  127.75   12.00
   5   6   0  108.33   11.80
   5  -6   1  123.69   11.73
  -5  -6   1  124.69   11.65
   5  -6   1  117.70   11.28
   5   6   1  125.95   11.43
   5   6   1   95.74   11.26
   5  -6   2   87.91   10.35
   5   6   2   89.87    9.78
  -5  -6   2   89.43    9.74
   5  -6   2  106.80   10.51
   5   6   2   72.04    9.51
   5   6   3   32.32    6.10
   5  -6   3   38.52    5.89
   5  -6   3   45.29    7.16
  -5  -6   3   42.96    7.13
   5   6   3   44.90    8.23
   5   6   4  198.09   14.83
   5  -6   4  210.09   15.30
  -5  -6   4  186.13   14.10
   5  -6   4  197.74   13.89
   5   6   4  214.77   16.56
   5   6   5   23.18    5.09
   5   6   5   25.84    5.43
   5  -6   5   20.42    5.09
   5  -6   5   17.62    4.00
  -5  -6   5   20.94    4.73
   5   6   6   12.52    4.16
   5  -6   6    6.88    3.25
  -5  -6   6    3.98    2.34
   5   6   6    7.77    3.06
   5  -6   6    6.34    2.18
   5  -6   7  148.13   13.36
   5  -6   7  155.56   11.93
  -5  -6   7  151.64   12.37
   5   6   7  135.71   13.32
   5   6   7  158.92   13.66
  -5   6   8   59.57    7.70
   5  -6   8   56.01    8.52
   5   6   8   66.50    9.80
  -5  -6   8   68.73    9.08
   5   6   8   48.34    7.78
   5  -6   9   44.30    6.83
  -5   6   9   55.89    8.16
  -5  -6   9   49.23    7.24
   5   6   9   37.67    7.79
   5  -6  10    4.43    2.96
  -5  -6  10   16.17    4.62
  -5   6  10   10.50    4.56
   5   6  10   13.79    4.29
   5   6  10    7.32    3.68
   5   6  11   14.09    4.18
   5  -6  11   22.54    5.21
  -5   6  11   22.82    5.62
   5   6  11   20.85    5.84
  -5   6  12  151.02   13.32
   5   6  12  135.08   13.43
   5   6  12  133.98   14.13
   5  -6  13   27.37    6.16
  -5   6  13   21.81    5.78
   5   6  13   17.39    4.94
   5   6  13   26.12    6.80
   5  -6  14   22.79    5.73
  -5   6  14   16.66    5.16
   5   6  14   20.54    5.41
   5   6  14   20.26    5.64
   5  -6  15   58.66    9.11
  -5   6  15   72.63    9.91
   5   6  15   73.09   10.92
   5   6  15   70.35    9.50
  -5   6  16   90.07   10.85
   5   6  16   87.46   11.31
   5   6  16   74.95   10.59
   5   6  17   20.22    5.83
  -5   6  17   30.66    7.43
   5   6  17   24.60    6.41
  -5   6  18   16.06    4.62
   5   6  18   15.59    4.73
   5   6  18   15.07    5.80
  -5   6  19    1.81    2.35
   5   6  19    5.37    3.71
   5   6  19   -0.78    2.59
   5   6  20   -1.97    3.91
  -5   6  20    3.37    3.75
   5   6  20    1.71    2.76
   5   6  21    3.93    2.71
  -5   6  21    2.40    4.35
   5   6  22   21.57    7.53
  -5   6  22   32.43    7.83
   5   6  23    3.56    3.92
   5   6  24   12.80    5.36
   5   6  25   13.63    4.93
  -5  -7 -23    0.31    3.65
   5  -7 -23    3.98    5.19
  -5  -7 -22   35.17    7.11
   5  -7 -22   13.29    4.00
   5  -7 -21   95.54   13.15
  -5  -7 -21   76.81   11.35
  -5  -7 -20   36.02    8.89
   5  -7 -20   48.82    8.97
   5  -7 -19   68.71   10.74
   5  -7 -19   77.59   11.58
  -5  -7 -19   76.91   11.52
  -5  -7 -18   61.59   11.31
   5  -7 -18   79.70   11.04
   5  -7 -18   89.32   12.72
   5  -7 -17   93.71   12.17
   5  -7 -17   89.50   11.66
  -5  -7 -17   86.74   11.25
   5  -7 -16  106.89   12.13
   5  -7 -16  121.62   13.45
  -5  -7 -16  112.89   13.38
   5  -7 -15    1.37    3.24
  -5  -7 -15    6.73    3.74
   5  -7 -15    3.97    2.91
   5  -7 -14   40.05    7.31
   5  -7 -14   50.11    8.87
  -5  -7 -14   41.38    7.79
   5   7 -13   52.75    9.11
   5  -7 -13   65.18    9.75
  -5  -7 -13   45.51    7.92
   5  -7 -13   48.27    8.60
   5   7 -12   45.94    8.97
   5  -7 -12   49.88    8.53
  -5  -7 -12   48.29    7.90
   5  -7 -12   58.82    9.01
   5  -7 -11  172.19   15.04
   5  -7 -11  151.62   14.73
   5   7 -11  167.49   14.89
  -5  -7 -11  146.32   13.82
   5  -7 -10  259.92   18.64
   5  -7 -10  268.02   19.42
  -5  -7 -10  258.66   18.70
   5   7 -10  268.81   19.39
   5  -7  -9  151.99   13.72
  -5  -7  -9  109.99   12.52
   5   7  -9  144.62   14.13
   5  -7  -9  148.70   14.35
   5  -7  -8  122.25   12.59
   5  -7  -8  145.07   14.16
  -5  -7  -8  160.27   14.55
   5   7  -8  120.29   13.73
   5  -7  -7  188.00   15.52
   5   7  -7  166.77   15.10
  -5  -7  -7  192.75   15.30
   5  -7  -7  194.05   16.25
   5   7  -7  181.13   14.58
  -5  -7  -6   87.13   10.72
   5  -7  -6   71.70    9.95
   5   7  -6   86.79   10.04
   5   7  -6   95.65   11.60
   5  -7  -6   84.85   10.71
   5  -7  -5  190.97   15.54
  -5  -7  -5  175.41   15.04
   5  -7  -5  198.17   15.88
   5   7  -5  172.57   14.07
   5   7  -5  186.53   15.85
   5  -7  -4   57.89    8.81
   5   7  -4   58.11    7.90
   5  -7  -4   60.38    9.14
  -5  -7  -4   57.21    8.46
   5   7  -4   62.76    9.82
  -5  -7  -3    2.01    1.50
   5   7  -3    3.37    3.26
   5  -7  -3    4.79    3.68
   5  -7  -3    0.93    1.28
   5   7  -3    2.27    1.34
   5   7  -2   44.52    7.66
   5  -7  -2   43.16    7.18
  -5  -7  -2   43.71    7.46
   5  -7  -2   44.15    6.97
   5   7  -2   33.53    6.50
   5  -7  -1  116.18   12.15
  -5  -7  -1  148.01   13.19
   5   7  -1  147.52   12.79
   5  -7  -1  166.90   14.38
   5   7  -1  144.29   13.79
   5  -7   0   27.29    5.86
   5  -7   0   18.17    5.92
   5   7   0   29.31    6.85
  -5  -7   0   25.73    6.21
   5   7   0   13.94    3.86
   5  -7   1  147.33   13.66
  -5  -7   1  147.91   13.28
   5   7   1   93.55   10.75
   5  -7   1  118.74   11.84
   5   7   1  116.92   12.19
   5  -7   2   60.12    8.69
  -5  -7   2   46.26    7.91
   5  -7   2   52.85    7.94
   5   7   2   56.78    8.17
   5   7   2   41.65    7.50
   5   7   3    3.49    3.00
   5   7   3   -1.07    2.07
   5  -7   3    1.50    1.33
   5  -7   3    7.89    3.36
  -5  -7   3    1.09    1.94
   5   7   4   62.88    8.54
   5  -7   4   63.63    8.56
  -5  -7   4   53.22    8.04
   5  -7   4   64.60    8.85
   5   7   4   75.62   10.14
   5  -7   5  163.11   14.45
  -5  -7   5  173.95   14.42
   5   7   5  157.47   13.77
   5  -7   5  176.74   14.18
   5   7   5  163.61   15.00
   5  -7   6   72.37    9.62
  -5  -7   6  103.92   10.99
   5   7   6   95.49   11.85
   5  -7   6   71.20    9.62
   5   7   6   83.44   10.35
   5  -7   7  190.01   15.40
  -5  -7   7  172.17   14.76
   5   7   7  178.42   15.86
   5   7   7  194.93   15.59
   5  -7   8  137.76   13.51
  -5  -7   8  164.83   14.18
   5   7   8  132.00   12.76
   5   7   8  163.07   15.48
   5   7   9  130.62   13.08
   5  -7   9  127.92   13.12
  -5  -7   9  122.82   12.56
  -5   7   9  133.04   12.32
   5   7   9  129.27   13.77
   5  -7  10  231.20   17.65
  -5  -7  10  233.24   16.92
  -5   7  10  235.06   17.18
   5   7  10  252.23   18.41
   5   7  10  253.60   19.71
   5  -7  11  135.15   13.72
  -5   7  11  160.36   13.87
   5   7  11  172.97   15.77
   5   7  11  160.25   15.57
   5  -7  12   61.83    9.76
  -5   7  12   56.02    8.71
   5   7  12   71.86   10.41
   5   7  12   53.12    9.54
   5   7  13   56.33    9.46
   5  -7  13   53.30    8.89
  -5   7  13   50.03    8.05
   5   7  13   44.75    8.17
   5  -7  14   37.30    7.70
   5   7  14   45.46    8.06
  -5   7  14   45.88    8.19
   5   7  14   33.24    7.65
  -5   7  15   10.16    4.32
   5   7  15    6.50    3.32
   5  -7  15    9.04    3.39
   5   7  15    3.20    3.58
   5   7  16   97.10   12.77
  -5   7  16  111.08   12.95
   5   7  16  122.90   13.71
  -5   7  17  119.74   13.92
   5   7  17   83.54   12.00
   5   7  17   91.04   12.55
   5   7  18   86.41   11.95
  -5   7  18   93.45   12.14
   5   7  18   81.26   11.41
  -5   7  19   86.82   12.48
   5   7  19   74.30   11.19
   5   7  19   57.98   11.22
  -5   7  20   52.00    9.07
   5   7  20   27.57    6.03
  -5   7  21   91.57   12.62
   5   7  21   94.46   12.82
   5   7  22   39.68    8.39
   5   7  23    2.77    3.27
   5  -8 -21   -0.05    3.27
  -5  -8 -21   -0.85    3.64
  -5  -8 -20    0.22    3.24
   5  -8 -20    0.39    3.08
   5  -8 -19    2.60    3.16
   5  -8 -19   -1.05    2.93
  -5  -8 -19    4.83    4.83
   5  -8 -18    4.80    3.79
   5  -8 -18    1.78    2.69
  -5  -8 -18    5.81    4.97
   5  -8 -17   17.10    5.03
   5  -8 -17    8.79    4.23
  -5  -8 -17   11.18    5.01
   5  -8 -16   11.84    5.14
   5  -8 -16   11.23    3.94
  -5  -8 -16   19.39    6.05
   5  -8 -15   52.70    9.14
   5  -8 -15   48.71    9.56
  -5  -8 -15   49.38    9.12
  -5  -8 -14   12.48    5.57
   5  -8 -14    5.84    3.84
   5  -8 -14   10.03    4.75
   5  -8 -13    4.62    2.53
  -5  -8 -13    7.75    3.84
   5  -8 -13    3.26    3.04
   5  -8 -12   31.66    7.27
  -5  -8 -12   19.51    7.13
   5  -8 -12   40.01    7.27
   5  -8 -11   -0.84    1.77
   5   8 -11   -1.91    4.71
   5  -8 -11    4.91    2.64
  -5  -8 -11    2.98    3.56
   5  -8 -10   18.36    6.20
   5  -8 -10   17.32    6.43
  -5  -8 -10   14.49    4.87
   5   8 -10   18.81    4.63
   5  -8  -9    1.39    2.56
   5  -8  -9    2.94    1.90
  -5  -8  -9   -2.48    2.80
   5   8  -9    2.62    4.27
   5  -8  -8   33.21    7.51
   5  -8  -8   52.66    8.88
   5   8  -8   45.14    8.60
   5  -8  -7   40.64    7.63
   5  -8  -7   48.91    8.16
  -5  -8  -7   43.61    8.16
   5   8  -7   48.54    8.78
   5  -8  -6   74.75   10.22
  -5  -8  -6   73.52   10.04
   5  -8  -6   75.48   10.94
   5   8  -6   72.14   10.38
   5  -8  -5   -0.33    2.46
   5  -8  -5    1.39    3.68
  -5  -8  -5    4.04    3.18
   5   8  -5    1.13    3.13
   5   8  -4   54.27    9.14
   5  -8  -4   31.38    5.84
  -5  -8  -4   39.02    7.31
   5  -8  -4   42.70    8.24
   5  -8  -3    7.49    3.19
   5  -8  -3   18.24    5.60
  -5  -8  -3    5.01    1.81
   5   8  -3   12.36    5.41
  -5  -8  -2   22.99    5.95
   5  -8  -2   27.20    6.65
   5  -8  -2   37.56    7.60
   5   8  -2   36.37    7.87
   5   8  -2   40.81    8.61
   5  -8  -1    6.06    4.01
   5  -8  -1    5.57    2.08
  -5  -8  -1    7.69    3.77
   5   8  -1    3.58    2.82
   5   8  -1   11.58    4.28
   5   8   0  172.44   15.56
   5  -8   0  215.31   17.34
  -5  -8   0  186.80   15.97
   5   8   0  170.74   14.90
   5  -8   0  167.70   15.24
  -5  -8   1    3.11    2.54
   5   8   1    4.72    2.59
   5  -8   1    7.90    3.83
   5  -8   1    9.24    2.86
   5   8   1    8.62    4.96
   5  -8   2   30.20    7.12
   5  -8   2   36.86    7.18
  -5  -8   2   32.98    6.34
   5   8   2   21.96    5.11
   5   8   2   27.79    6.62
  -5  -8   3   13.40    3.42
   5  -8   3    7.63    4.10
   5  -8   3   19.62    5.43
   5   8   3   15.00    5.06
   5   8   3   24.17    6.15
   5   8   4   24.39    6.01
   5  -8   4   31.93    6.58
   5  -8   4   40.62    7.09
   5   8   4   40.26    7.54
  -5  -8   4   32.15    7.00
   5  -8   5   -4.17    3.57
  -5  -8   5    1.32    3.52
   5   8   5    5.69    4.27
   5  -8   5   -0.20    2.06
   5   8   5   -1.69    3.25
   5  -8   6   75.25   10.39
  -5  -8   6   75.14   10.04
   5   8   6   68.60    9.30
   5   8   6   60.59    9.88
   5  -8   7   47.27    8.24
  -5  -8   7   36.15    7.30
   5   8   7   38.94    7.47
   5   8   7   31.13    7.29
   5  -8   8   23.45    5.60
  -5  -8   8   42.07    7.76
   5   8   8   32.18    7.59
   5   8   8   40.47    8.31
   5   8   9   -0.67    2.52
   5  -8   9   -1.41    1.88
  -5  -8   9    3.30    2.31
   5   8   9    1.32    3.42
   5  -8  10   19.63    5.00
   5   8  10   18.08    5.64
   5   8  10   11.25    4.60
   5  -8  11   -0.24    2.44
  -5   8  11   -3.94    3.41
   5   8  11    5.68    3.99
   5   8  11    2.88    3.35
   5  -8  12   19.32    5.94
  -5   8  12   35.03    7.51
   5   8  12   44.21    8.98
   5   8  12   29.76    6.48
   5  -8  13    1.54    2.40
  -5   8  13    4.46    3.49
   5   8  13    2.51    1.81
   5   8  13    4.65    2.89
   5  -8  14    6.87    3.07
   5   8  14   10.61    3.67
   5   8  14    5.76    3.14
  -5   8  14    3.18    3.45
  -5   8  15   80.79   11.97
   5   8  15   72.19   11.43
   5   8  15   68.63   11.64
   5   8  16   21.63    5.32
  -5   8  16   10.43    3.96
   5   8  16   22.80    6.57
  -5   8  17   21.22    6.40
   5   8  17   29.07    6.61
   5   8  17   19.05    7.33
  -5   8  18    4.70    2.81
   5   8  18    3.46    3.46
   5   8  18    4.49    3.53
  -5   8  19   -5.68    5.53
   5   8  19   -7.30    4.31
   5   8  20    5.58    5.27
   5   8  21   -0.12    3.04
  -5  -9 -18   46.83    9.41
   5  -9 -18   33.75    8.28
   5  -9 -18   37.17    8.50
   5  -9 -17   55.30   10.64
   5  -9 -17   40.23    8.39
  -5  -9 -17   48.12    8.93
   5  -9 -16  119.91   14.50
  -5  -9 -16  122.79   14.23
   5  -9 -15    7.06    4.19
   5  -9 -15   20.97    6.44
  -5  -9 -15   15.46    6.63
   5  -9 -14   26.81    7.87
   5  -9 -14   26.92    7.68
  -5  -9 -14   12.52    5.74
   5  -9 -13   25.90    7.10
  -5  -9 -13   30.60    7.62
   5  -9 -13   38.97    7.94
   5  -9 -12   66.41   10.21
  -5  -9 -12   62.31   11.04
   5  -9 -12   68.05   11.09
   5  -9 -11   93.37   12.54
  -5  -9 -11   96.05   12.79
   5  -9 -11   89.52   12.22
   5  -9 -10   92.04   12.26
  -5  -9 -10   94.46   11.67
   5  -9 -10   95.54   12.32
   5   9 -10   87.65   12.24
   5  -9  -9   92.82   12.40
  -5  -9  -9   64.58   10.40
   5  -9  -9   80.36   11.78
   5   9  -9   71.07   11.20
   5  -9  -8   52.51    9.33
  -5  -9  -8   59.85    9.69
   5  -9  -8   47.07    9.13
   5   9  -8   61.86   10.35
   5  -9  -7  133.95   14.60
  -5  -9  -7  126.04   13.78
   5  -9  -7  146.04   15.36
   5   9  -7  142.09   15.92
   5  -9  -6   45.30    8.62
   5  -9  -6   53.51    9.14
  -5  -9  -6   36.07    7.43
   5   9  -6   35.29    8.13
   5   9  -5  168.03   16.84
   5  -9  -5  176.92   16.60
  -5  -9  -5  194.28   17.05
   5  -9  -5  182.06   17.21
   5  -9  -4  101.83   12.90
  -5  -9  -4   70.64   10.27
   5   9  -4   90.33   12.43
   5  -9  -4   90.91   12.25
   5   9  -3    3.05    3.62
   5  -9  -3    3.61    4.36
  -5  -9  -3    4.76    4.13
   5  -9  -3    2.63    2.37
   5  -9  -2   25.40    6.51
  -5  -9  -2   41.38    8.95
   5  -9  -2   38.37    7.90
   5   9  -2   33.17    7.74
   5  -9  -1  209.82   17.76
  -5  -9  -1  188.90   16.94
   5   9  -1  197.47   18.14
   5  -9  -1  200.89   17.89
   5  -9   0   72.69   10.26
  -5  -9   0   87.46   11.56
   5   9   0   77.63   12.04
   5  -9   0   84.77   11.78
   5  -9   1  201.80   17.66
  -5  -9   1  195.97   16.99
   5   9   1  187.40   17.89
   5  -9   1  225.99   18.66
   5  -9   2   45.29    8.55
  -5  -9   2   36.48    6.78
   5  -9   2   39.08    7.90
   5   9   2   29.18    6.89
   5  -9   3   -0.04    1.76
   5  -9   3    0.07    2.55
  -5  -9   3    8.78    4.12
   5   9   3   -0.43    3.49
   5   9   4   64.38   10.26
   5  -9   4   89.63   11.20
  -5  -9   4   73.02   11.01
   5  -9   5  175.08   16.32
  -5  -9   5  151.71   15.24
   5   9   5  166.06   16.04
   5   9   5  142.64   15.70
   5   9   6   48.80    9.04
   5   9   6   30.08    7.12
   5  -9   6   39.43    7.87
  -5  -9   6   32.27    7.53
   5  -9   7  172.51   16.42
  -5  -9   7  159.72   15.92
   5   9   7  156.38   15.42
   5  -9   8   69.40   10.14
   5   9   8   65.03   10.17
  -5  -9   8   39.18    8.35
   5   9   8   30.79    6.89
   5   9   9   60.06    9.84
   5  -9   9   65.62    9.83
   5  -9  10   93.77   12.27
   5   9  10   89.81   12.58
   5   9  10   81.39   11.77
   5  -9  11  111.47   13.93
   5   9  11   88.49   12.48
   5   9  11   86.56   11.42
   5  -9  12   56.45    9.56
   5   9  12   75.92   11.88
   5  -9  13   31.18    8.54
   5   9  13   30.40    7.74
   5   9  13   23.40    6.53
   5   9  14   16.56    4.96
   5   9  14   19.23    4.15
   5   9  15   14.64    6.98
   5   9  15   23.84    6.90
   5   9  16  113.11   14.03
   5   9  16   99.99   14.14
   5   9  17   53.85   10.34
   5   9  17   47.15    8.85
   5   9  18   33.50    8.05
   5   9  18   49.95    9.97
   5 -10 -14   -2.69    3.19
  -5 -10 -14    4.87    4.77
   5 -10 -14    2.57    2.71
   5 -10 -13    0.78    3.92
   5 -10 -13   -4.03    4.42
   5 -10 -12   19.89    6.09
  -5 -10 -12   15.83    6.61
   5 -10 -12    8.20    5.30
   5 -10 -11   -3.14    4.16
  -5 -10 -11    3.23    3.98
   5 -10 -11    6.88    4.26
  -5 -10 -10   37.93    8.21
   5 -10 -10   41.01    8.53
   5 -10 -10   53.82   10.06
   5 -10  -9    3.03    3.79
   5 -10  -9   -5.78    3.37
  -5 -10  -9   -2.61    3.88
  -5 -10  -8    5.82    3.19
   5 -10  -8    0.02    3.01
   5 -10  -8    9.37    4.90
   5  10  -8    8.19    3.92
  -5 -10  -7    9.71    4.87
   5 -10  -7    0.24    3.90
   5 -10  -7    9.65    5.08
   5  10  -7    5.68    4.90
   5  10  -6    8.09    4.69
   5 -10  -6    7.29    5.59
  -5 -10  -6    7.17    4.19
   5 -10  -6    2.10    3.84
  -5 -10  -5   11.53    6.12
   5  10  -5   27.20    6.94
   5 -10  -5   17.96    5.77
   5 -10  -5   26.98    7.50
   5 -10  -4    0.59    3.72
   5 -10  -4   -3.03    4.97
  -5 -10  -4   -1.10    2.77
   5  10  -4    3.61    2.33
   5 -10  -3    9.96    4.02
   5 -10  -3    6.14    3.01
  -5 -10  -3    5.68    2.72
   5  10  -3   11.12    5.41
   5 -10  -2   15.88    5.25
   5 -10  -2   18.43    5.69
  -5 -10  -2   26.43    7.46
   5  10  -2   14.40    5.62
   5 -10  -1   45.61    8.55
   5 -10  -1   38.77    8.16
  -5 -10  -1   31.40    8.30
   5  10  -1   37.68    9.53
   5 -10   0    4.69    2.71
   5 -10   0    4.16    4.34
   5  10   0   -2.09    2.34
  -5 -10   0    7.24    4.76
   5 -10   1   23.14    7.21
   5 -10   1   27.75    6.94
  -5 -10   1   24.47    6.46
   5  10   1   19.69    6.30
   5 -10   2   33.97    8.20
   5 -10   2   25.27    6.73
  -5 -10   2   16.56    5.96
   5  10   2   31.65    8.93
   5 -10   3   11.76    5.08
  -5 -10   3    4.95    3.76
   5  10   3    7.80    4.46
   5 -10   4    2.27    1.97
  -5 -10   4    0.23    3.30
   5  10   4    2.24    3.37
   5 -10   5   14.02    5.10
  -5 -10   5   19.95    6.99
   5  10   5   12.39    4.34
   5 -10   6   -3.23    1.96
  -5 -10   6    1.04    2.52
   5  10   6   -0.18    3.30
  -5 -10   7    5.23    4.00
   5  10   7    4.10    3.31
   5 -10   7    8.02    3.45
   5 -10   8   11.57    4.65
  -5 -10   8   -1.57    3.98
   5  10   8    6.92    5.30
   5  10   9   -5.25    5.77
   5 -10   9   -2.11    4.64
   5  10  10   62.14   11.63
   5 -10  10   51.01   10.34
   5 -10  11   -1.60    3.15
   5  10  11   -2.45    4.29
   5 -10  12    5.92    4.85
   5  10  12    4.54    3.98
   5  10  12    8.82    5.39
   5  10  13   -1.88    3.34
   5  10  13    2.01    5.24
   5  10  14    2.79    2.94
   5  10  14   -3.50    4.18
   5 -11  -7    3.54    5.55
   5 -11  -7    0.13    3.25
  -5 -11  -7   -0.78    2.00
   5  11  -7    0.26    3.43
   5 -11  -6   24.37    6.36
   5 -11  -6   21.50    6.21
  -5 -11  -6   24.79    7.07
   5  11  -6   15.47    5.62
   5 -11  -5   28.59    8.12
   5 -11  -5   51.23    8.70
  -5 -11  -5   30.42    7.89
   5  11  -5   29.51    7.07
   5 -11  -4    9.92    5.63
  -5 -11  -4   12.51    5.37
   5 -11  -4    8.47    4.25
   5  11  -4    2.74    3.71
   5 -11  -3    4.61    3.23
  -5 -11  -3    4.04    2.55
   5  11  -3    1.13    3.27
   5 -11  -3    2.77    3.14
   5 -11  -2    7.30    5.41
   5 -11  -2   10.22    4.05
  -5 -11  -2    8.54    4.73
   5  11  -2    9.33    4.99
   5 -11  -1    1.71    3.36
   5  11  -1    3.29    3.65
  -5 -11  -1    2.92    3.80
   5 -11  -1    4.59    3.95
   5 -11   0   59.51    9.71
  -5 -11   0   43.24    8.93
   5  11   0   39.99    7.87
   5 -11   0   41.97    8.99
   5 -11   1    3.65    3.75
  -5 -11   1    0.32    2.94
   5  11   1    2.64    3.44
  -5 -11   2    3.71    2.56
   5  11   2    6.87    3.59
  -5 -11   3    7.38    4.79
   5 -11   3    8.25    4.75
   5  11   3   -0.29    3.36
   5 -11   4    2.76    3.13
   5  11   4    4.40    3.63
  -5 -11   4    6.13    3.00
   5 -11   5   33.23    9.22
  -5 -11   5   28.78    7.00
   5  11   5   28.35    7.63
   5 -11   6   18.89    6.91
  -5 -11   6   13.39    4.93
   5  11   6    9.94    3.60
   5 -11   7    3.05    2.95
   5  11   7   -1.80    3.38
   6   0 -22  238.45   18.57
   6   0 -21   70.73    9.93
   6   0 -20    6.64    3.03
   6   0 -19   70.88    9.95
   6   0 -18   10.35    4.26
   6   0 -17  262.92   17.08
   6   0 -16 2108.14   48.81
   6   0 -15  625.85   25.23
   6   0 -14 1421.60   37.53
   6   0 -13  296.09   17.03
   6   0 -13  303.27    9.57
   6   0 -12  253.65   15.23
   6   0 -12  228.58    8.84
   6   0 -11  175.58    8.11
   6   0 -11  168.11   11.92
   6   0 -10  812.23   26.04
   6   0 -10  862.10   18.60
   6   0  -9  603.58   23.04
   6   0  -9  628.83   16.17
   6   0  -8  191.20   12.45
   6   0  -8  210.10    9.53
   6   0  -7  145.24    8.13
   6   0  -7  133.05   10.06
   6   0  -6  850.48   19.98
   6   0  -6  838.11   24.84
   6   0  -5 2417.88   34.45
   6   0  -5 2505.56   42.38
   6   0  -4 1550.96   32.50
   6   0  -4 1425.22   27.03
   6   0  -3 1176.87   27.57
   6   0  -3 1116.56   24.20
   6   0  -2 6243.02   62.74
   6   0  -2 6095.62   57.57
   6   0  -1 2191.22   37.02
   6   0  -1 2262.93   35.37
   6   0   0  746.19   21.42
   6   0   0  739.99   20.55
   6   0   1 2316.15   38.76
   6   0   1 2231.03   36.49
   6   0   1 2310.22   36.83
   6   0   2 6179.05   60.98
   6   0   2 6087.94   62.78
   6   0   2 6273.13   62.34
   6   0   3 1134.06   25.87
   6   0   3 1095.00   26.79
   6   0   3 1187.89   27.36
   6   0   4 1441.83   30.61
   6   0   4 1464.68   28.64
   6   0   4 1457.76   31.08
   6   0   5 2302.78   35.99
   6   0   5 2351.50   40.55
   6   0   5 2412.63   40.31
   6   0   6  814.53   21.61
   6   0   6  804.92   23.96
   6   0   6  852.03   24.60
   6   0   7  154.40    9.34
   6   0   7  136.31   10.06
   6   0   7  141.75   10.29
   6   0   8  205.46   10.85
   6   0   8  192.08   12.15
   6   0   8  175.83   11.51
   6   0   9  650.09   19.20
   6   0   9  602.72   21.78
   6   0  10  816.35   22.15
   6   0  10  852.48   26.53
   6   0  11  165.20   11.83
   6   0  11  159.70    9.65
   6   0  12  254.89   14.81
   6   0  12  247.26   12.57
   6   0  13  305.37   16.68
   6   0  13  327.50   14.30
   6   0  14 1370.41   36.61
   6   0  14 1191.65   27.09
   6   0  15  651.37   25.89
   6   0  16 2295.51   49.65
   6   0  17  239.99   16.01
   6   0  18   15.60    5.22
   6   0  19   60.60    8.50
   6   0  20   11.12    4.51
   6   0  21   67.85    9.50
   6   0  22  260.16   19.34
   6   0  23   22.41    5.47
   6   0  24  304.33   21.28
   6   0  25   59.34    9.84
   6   0  26   10.39    4.13
   6   0  27  123.99   14.42
   6   0  28  384.61   26.18
   6   0  29   13.00    7.14
   6  -1 -23   89.07   11.37
   6  -1 -22   26.42    6.68
   6  -1 -21   48.18    8.37
   6   1 -21   45.98    8.24
   6  -1 -20  198.02   16.16
   6   1 -20  183.33   15.35
   6  -1 -19   77.53    9.75
   6   1 -19   74.36    9.29
   6   1 -18   31.64    6.29
   6  -1 -18   21.89    5.08
   6   1 -17   28.05    5.58
   6  -1 -17   52.09    7.82
   6  -1 -16   32.37    5.82
   6   1 -16   20.09    4.66
   6   1 -15  166.77   13.16
   6  -1 -15  170.28   13.25
   6  -1 -14  492.98   15.04
   6  -1 -14  502.48   22.66
   6   1 -14  483.93   21.47
   6  -1 -13   37.42    4.19
   6   1 -13   28.10    5.39
   6  -1 -13   30.25    5.97
   6  -1 -12  115.09    7.44
   6  -1 -12  120.62   10.65
   6   1 -12  128.45   10.80
   6  -1 -11  146.04   11.49
   6   1 -11  125.69   10.37
   6   1 -10    5.35    1.86
   6  -1 -10    8.13    1.97
   6  -1 -10    6.16    2.43
   6  -1  -9   85.05    6.47
   6  -1  -9   70.58    7.66
   6   1  -9   72.49    7.58
   6  -1  -8   65.00    5.79
   6  -1  -8   53.08    6.64
   6   1  -8   62.46    7.07
   6  -1  -7  414.67   14.91
   6  -1  -7  425.91   18.13
   6   1  -7  385.34   17.14
   6  -1  -6  746.01   19.71
   6   1  -6  683.98   22.42
   6  -1  -5  812.17   21.08
   6  -1  -5  886.16   25.43
   6   1  -5  839.01   24.74
   6  -1  -4  187.37   11.50
   6   1  -4  195.91   11.89
   6  -1  -4  205.16   10.76
   6   1  -3  150.98   10.44
   6  -1  -3  123.22    8.31
   6  -1  -3  140.62    9.81
   6  -1  -2    5.17    2.07
   6   1  -2    4.58    2.00
   6  -1  -2    3.26    2.38
   6  -1  -1   23.59    3.95
   6   1  -1   20.59    3.71
   6  -1  -1   21.43    3.65
   6  -1   0    0.75    1.50
   6   1   0    0.16    0.75
   6  -1   0    0.04    0.84
   6   1   0    2.13    1.45
   6   1   1   16.37    3.70
   6  -1   1   18.36    3.19
   6   1   1   16.03    3.30
   6  -1   1   23.76    3.96
   6   1   2    9.61    2.14
   6  -1   2    4.11    1.49
   6   1   2    4.93    1.63
   6  -1   2    4.77    1.88
   6  -1   2    4.92    1.84
   6   1   3  134.53    9.51
   6  -1   3  142.21    8.72
   6  -1   3  135.97    9.59
   6   1   3  126.87    9.59
   6  -1   3  134.50    8.99
   6   1   4  211.57   11.92
   6  -1   4  188.33    9.99
   6   1   4  172.57   11.46
   6  -1   4  197.69   10.98
   6  -1   4  188.29   11.21
   6   1   5  754.32   22.71
   6  -1   5  813.24   23.60
   6   1   5  823.81   25.23
   6  -1   5  846.21   22.86
   6  -1   5  799.39   20.45
   6   1   6  640.75   20.99
   6  -1   6  706.10   18.80
   6   1   6  644.27   22.43
   6  -1   6  689.01   20.62
   6  -1   6  660.08   21.70
   6   1   7  430.89   17.21
   6  -1   7  428.42   14.51
   6  -1   7  414.90   16.42
   6   1   7  411.62   18.20
   6  -1   7  401.43   17.23
   6   1   8   61.26    6.47
   6  -1   8   53.51    5.03
   6   1   8   48.41    6.47
   6  -1   8   58.28    6.94
   6  -1   8   65.94    6.78
   6   1   9   63.08    7.05
   6  -1   9   77.32    6.12
   6   1   9   64.94    7.47
   6  -1   9   78.07    7.38
   6  -1   9   76.40    7.56
   6   1  10    6.49    1.77
   6  -1  10    8.84    1.99
   6  -1  10    8.39    2.40
   6   1  10    3.14    1.46
   6  -1  10   10.27    3.61
   6  -1  11  160.00   11.27
   6  -1  11  141.76    8.05
   6   1  11  153.96   11.95
   6  -1  11  153.35   11.33
   6   1  11  138.01   10.19
   6  -1  12  126.37   10.23
   6   1  12  121.36    9.82
   6  -1  12  110.25    9.55
   6   1  12   99.58    9.96
   6  -1  13   39.69    6.28
   6  -1  13   36.83    5.64
   6   1  13   33.55    5.47
   6   1  13   45.76    6.00
   6  -1  14  496.26   21.41
   6   1  14  458.35   21.95
   6   1  14  481.90   19.71
   6  -1  15  170.20   12.81
   6   1  15  173.60   13.77
   6   1  15  167.25   11.80
   6  -1  16   29.25    5.83
   6   1  16   39.35    6.29
   6  -1  17   34.09    6.17
   6   1  17   37.67    6.55
   6  -1  18   43.04    7.38
   6   1  18   28.90    6.26
   6  -1  19   87.72   10.19
   6   1  19   83.28   10.37
   6  -1  20  191.79   15.68
   6   1  20  184.03   15.84
   6  -1  21   70.76    9.83
   6   1  21   50.26    7.93
   6  -1  22   29.05    5.95
   6   1  22   36.20    7.89
   6  -1  23   58.21    9.10
   6   1  23   65.70    9.94
   6  -1  24   19.16    6.52
   6   1  24   20.03    6.30
   6  -1  25    2.42    4.60
   6   1  25   27.97    6.95
   6   1  26   46.56    8.12
   6   1  27    2.87    2.90
   6   1  28   19.67    5.56
   6   1  29   -0.53    3.89
   6  -2 -24  110.14   13.50
   6  -2 -23   10.10    4.98
   6  -2 -22    7.20    3.89
   6  -2 -21   11.24    3.79
   6   2 -20   44.94    6.99
   6  -2 -20   63.18    9.06
   6  -2 -19    7.82    3.78
   6   2 -19    8.50    3.86
   6  -2 -18   34.92    6.77
   6   2 -18   34.14    6.52
   6  -2 -17    3.10    2.35
   6   2 -17    3.29    2.09
   6  -2 -16  258.48   16.97
   6   2 -16  258.84   16.83
   6   2 -15  193.90   14.50
   6  -2 -15  215.61   15.65
   6  -2 -15  236.74   12.59
   6  -2 -14  755.74   22.16
   6   2 -14  744.38   27.57
   6  -2 -14  780.06   28.64
   6  -2 -13   81.13    7.03
   6   2 -13   85.62    9.22
   6  -2 -12   92.97    7.61
   6  -2 -12   84.30    9.16
   6   2 -12   79.44    8.64
   6  -2 -11  105.29    8.15
   6  -2 -11  106.48   10.04
   6   2 -11  106.79   10.15
   6  -2 -10   79.18    7.03
   6  -2 -10   56.16    7.06
   6   2 -10   61.70    7.47
   6  -2  -9    6.31    2.51
   6  -2  -9    5.64    1.78
   6   2  -9    6.69    2.48
   6  -2  -8   31.55    4.55
   6  -2  -8   26.32    5.04
   6   2  -8   17.75    4.09
   6  -2  -7   17.24    3.72
   6  -2  -7   17.96    3.81
   6   2  -7   19.05    3.79
   6  -2  -6  266.48   13.10
   6   2  -6  272.00   14.65
   6  -2  -6  273.35   14.69
   6  -2  -5   87.68    7.66
   6   2  -5   93.88    8.48
   6  -2  -4    9.07    2.17
   6  -2  -4   12.34    2.92
   6   2  -4   11.82    3.23
   6  -2  -3   52.21    5.98
   6   2  -3   57.62    6.70
   6  -2  -3   60.80    6.46
   6  -2  -2  444.77   17.11
   6   2  -2  464.78   18.72
   6  -2  -2  457.40   17.67
   6   2  -2  434.43   18.33
   6   2  -1   86.15    8.08
   6  -2  -1   96.93    8.13
   6   2  -1   82.07    7.97
   6  -2  -1  101.98    8.09
   6  -2   0    5.43    2.25
   6   2   0    3.06    0.80
   6  -2   0    1.82    1.35
   6   2   0    3.36    2.12
   6  -2   1   86.36    7.77
   6   2   1   83.11    7.84
   6  -2   1   84.41    7.34
   6  -2   2  467.66   15.74
   6   2   2  499.51   19.70
   6  -2   2  468.97   16.64
   6   2   2  458.33   19.06
   6  -2   3   63.43    5.93
   6   2   3   66.94    7.30
   6   2   3   62.20    7.19
   6  -2   3   53.71    5.37
   6  -2   3   56.54    6.35
   6   2   4    8.52    3.09
   6  -2   4    9.10    2.85
   6  -2   4   11.62    2.64
   6   2   4   11.89    2.94
   6  -2   4   14.04    2.67
   6  -2   5  106.36    9.09
   6   2   5   96.65    8.99
   6   2   5   94.26    8.80
   6  -2   5   98.27    7.18
   6  -2   5  101.76    7.24
   6  -2   6  293.49   14.97
   6   2   6  265.60   14.83
   6  -2   6  264.59   11.88
   6   2   6  260.09   15.01
   6  -2   6  279.91   11.70
   6  -2   7   21.68    3.51
   6  -2   7   19.57    3.94
   6   2   7   22.87    4.42
   6  -2   7   23.10    3.44
   6   2   7   23.18    4.66
   6  -2   8   28.80    3.56
   6  -2   8   21.48    3.78
   6   2   8   16.65    3.86
   6  -2   8   23.74    4.73
   6   2   8   24.68    4.71
   6  -2   9    6.27    2.07
   6   2   9    9.34    3.17
   6   2   9    9.10    3.33
   6  -2   9   10.26    2.95
   6  -2   9    8.55    2.18
   6  -2  10   66.92    6.53
   6  -2  10   74.77    5.27
   6   2  10   79.74    8.56
   6   2  10   75.72    8.61
   6  -2  10   64.82    7.19
   6  -2  11   96.90    5.77
   6  -2  11  113.14    8.78
   6   2  11  108.85    9.82
   6  -2  11  119.52   10.29
   6  -2  12   80.55    7.67
   6   2  12   84.13    9.54
   6   2  12   66.60    7.77
   6  -2  12   95.24    9.14
   6  -2  13   71.90    8.34
   6  -2  13   86.19    8.08
   6   2  13   92.54    9.80
   6   2  13   80.58    8.72
   6  -2  14  700.70   24.43
   6   2  14  732.71   26.84
   6   2  14  724.23   28.12
   6  -2  14  783.52   27.91
   6  -2  15  208.49   13.96
   6   2  15  240.07   16.44
   6   2  15  223.66   15.31
   6  -2  15  251.76   15.82
   6  -2  16  276.81   16.37
   6  -2  16  261.96   16.37
   6   2  16  265.38   17.70
   6   2  16  245.58   17.36
   6  -2  17    2.82    1.97
   6   2  17    2.60    2.19
   6   2  17   -0.76    1.72
   6  -2  17    4.77    3.06
   6   2  18   43.95    7.54
   6  -2  18   29.59    6.16
   6  -2  19   11.65    3.40
   6   2  19   10.79    4.22
   6   2  20   49.59    8.11
   6  -2  20   16.51    4.89
   6   2  21   11.59    4.05
   6   2  22   11.53    5.03
   6   2  23    5.16    3.21
   6   2  24  120.73   13.71
   6   2  25    6.47    3.54
   6   2  26    8.01    2.59
   6   2  27    9.29    5.75
   6   2  28   94.51   13.17
   6   2  29   12.70    5.45
   6  -3 -25  102.48   13.85
   6  -3 -24   12.82    5.42
   6  -3 -23   20.30    5.36
   6  -3 -22    6.61    3.81
   6  -3 -21   17.96    4.16
   6  -3 -20   72.48   10.38
   6  -3 -19  171.34   15.20
   6   3 -18  102.08   10.74
   6  -3 -18  114.85   11.93
   6  -3 -17  242.49   17.43
   6   3 -17  216.46   15.45
   6  -3 -16   87.75    8.85
   6   3 -16   86.65    9.70
   6  -3 -16   97.30   11.03
   6  -3 -15   83.83    8.36
   6   3 -15   76.10    8.92
   6  -3 -15   61.31    8.84
   6  -3 -14  265.84   14.84
   6  -3 -14  303.72   18.79
   6   3 -14  311.97   18.03
   6  -3 -13   77.45    8.04
   6   3 -13   76.59    8.71
   6  -3 -13   89.61   10.21
   6  -3 -12   99.11    8.88
   6   3 -12  100.08    9.88
   6  -3 -12  108.67   10.65
   6  -3 -11  225.13   13.45
   6   3 -11  231.10   14.96
   6  -3 -11  233.40   15.33
   6   3 -10   27.44    4.94
   6  -3 -10   26.85    4.65
   6  -3 -10   34.50    5.31
   6  -3  -9   91.23    8.48
   6   3  -9   87.82    8.80
   6  -3  -9   91.68    9.51
   6  -3  -8   98.25    8.60
   6   3  -8  105.15    9.75
   6  -3  -8  105.65    9.83
   6  -3  -7  428.24   18.11
   6  -3  -7  447.65   20.29
   6   3  -7  458.30   20.07
   6  -3  -6  446.69   18.73
   6   3  -6  432.91   19.64
   6  -3  -6  442.08   19.85
   6  -3  -5  488.02   19.55
   6   3  -5  534.40   21.71
   6  -3  -5  559.59   21.57
   6  -3  -4  391.79   17.34
   6   3  -4  381.95   18.34
   6   3  -4  409.87   18.69
   6  -3  -4  379.99   17.69
   6  -3  -3  916.63   26.60
   6   3  -3  877.58   27.55
   6  -3  -3  924.98   27.16
   6   3  -2  114.36    9.90
   6  -3  -2  104.12    8.86
   6  -3  -2  104.79    8.99
   6   3  -2  116.80   10.10
   6  -3  -1   90.85    8.31
   6   3  -1   90.45    8.93
   6  -3  -1   92.63    8.32
   6   3  -1   94.07    8.83
   6  -3   0   57.41    6.66
   6   3   0   79.71    8.55
   6  -3   0   73.96    7.34
   6   3   0   78.32    7.94
   6  -3   1   94.17    8.82
   6   3   1   87.21    8.83
   6   3   1  101.80    9.37
   6  -3   1   97.86    8.27
   6  -3   2  118.81    8.88
   6  -3   2  124.75    9.93
   6   3   2  115.40   10.20
   6   3   2  125.04   10.35
   6   3   3  853.74   28.07
   6  -3   3  937.61   27.42
   6   3   3  955.47   29.15
   6  -3   3  999.90   25.26
   6  -3   3  853.56   20.57
   6   3   4  419.68   19.67
   6  -3   4  392.21   17.96
   6  -3   4  420.19   13.92
   6  -3   4  451.73   16.30
   6   3   4  359.27   17.67
   6   3   5  596.72   23.25
   6  -3   5  580.86   18.24
   6  -3   5  534.51   21.18
   6   3   5  565.95   22.66
   6  -3   5  566.36   15.74
   6  -3   6  460.96   15.91
   6   3   6  426.33   20.07
   6  -3   6  445.78   14.01
   6   3   6  479.87   21.49
   6  -3   7  416.33   18.79
   6  -3   7  458.56   15.24
   6  -3   7  460.89   14.21
   6   3   7  461.63   21.05
   6   3   7  424.84   20.31
   6  -3   8  105.12    9.65
   6  -3   8  105.39    6.88
   6   3   8  120.34   10.70
   6   3   8  109.29   10.32
   6  -3   8  113.17    7.52
   6  -3   9   97.35    9.52
   6   3   9   88.76    9.72
   6  -3   9   91.64    6.43
   6   3   9  100.15   10.12
   6  -3  10   29.01    5.28
   6  -3  10   26.37    3.59
   6   3  10   25.94    5.78
   6  -3  10   38.31    4.05
   6   3  10   26.95    5.15
  -6  -3  11  222.04   10.64
   6  -3  11  223.09   11.22
   6   3  11  226.67   15.93
   6   3  11  214.60   14.95
   6  -3  11  224.44   14.69
   6   3  12  102.02   10.70
   6  -3  12   98.04    7.99
   6   3  12  126.16   11.73
   6  -3  12  119.00   10.77
   6  -3  13   85.23    7.60
   6   3  13   78.63    9.28
   6   3  13   86.87    9.84
   6  -3  13   72.53    8.35
   6   3  14  279.22   18.13
   6   3  14  310.73   19.02
   6  -3  14  342.29   18.59
   6   3  15   68.67    9.09
   6   3  15   55.09    8.04
   6  -3  15   69.92    8.50
   6   3  16  104.18   11.28
   6   3  16   94.41   11.04
   6  -3  16   88.58    9.94
   6   3  17  233.82   17.39
   6   3  17  227.85   16.94
   6  -3  17  240.42   16.29
   6   3  18  120.64   12.30
   6   3  18  118.40   12.65
   6  -3  18  108.11   11.99
   6   3  19  177.43   15.37
   6   3  20   66.13    9.98
   6   3  21   12.81    4.84
   6   3  22    3.34    3.29
   6   3  23   24.48    6.18
   6   3  24   12.37    5.11
   6   3  25   99.69   12.68
   6   3  26   50.53    8.77
   6   3  27   22.49    6.21
   6   3  28   -1.37    2.83
   6  -4 -26   26.04    7.62
   6  -4 -25   11.46    6.51
   6  -4 -24  120.76   14.32
   6  -4 -23   54.32    9.22
   6  -4 -22   39.41    7.94
   6  -4 -21   59.51    9.97
   6  -4 -20   71.08   10.51
   6  -4 -19    5.56    4.32
   6  -4 -18  377.39   22.68
   6  -4 -17  105.91   10.57
   6   4 -17  109.79   12.03
   6   4 -16   80.66   10.11
   6  -4 -16   89.61    9.71
   6  -4 -16   90.05   11.28
   6  -4 -15   88.92    9.44
   6  -4 -15   88.08   10.79
   6  -4 -14    5.68    1.74
   6   4 -14    7.03    2.68
   6  -4 -14    9.25    4.22
   6  -4 -13  111.71   10.35
   6   4 -13  111.51   11.16
   6  -4 -13  113.40   11.16
   6  -4 -12  583.84   23.99
   6  -4 -12  591.12   26.00
   6  -4 -11  226.21   15.80
   6  -4 -11  207.43   14.16
   6   4 -11  214.42   15.24
   6  -4 -10   55.87    8.15
   6  -4 -10   42.89    6.16
   6   4 -10   40.36    6.63
   6  -4  -9  183.66   13.14
   6   4  -9  203.98   14.44
   6  -4  -9  175.54   13.51
   6  -4  -8  680.30   26.34
   6   4  -8  663.71   26.09
   6  -4  -8  693.59   25.14
   6   4  -7   55.27    7.31
   6  -4  -7   63.01    7.62
   6  -4  -7   58.94    7.73
   6  -4  -6  120.88   10.92
   6   4  -6   85.67    9.37
   6  -4  -6  118.46   10.04
   6   4  -6  116.06   10.45
   6  -4  -5  613.14   24.05
   6   4  -5  649.99   25.40
   6  -4  -5  658.83   24.23
   6   4  -5  614.78   24.31
   6  -4  -4    1.78    1.11
   6  -4  -4    2.54    1.82
   6   4  -4    4.56    1.60
   6   4  -4    5.22    2.46
   6   4  -3  269.41   16.53
   6  -4  -3  277.79   15.71
   6  -4  -3  252.02   14.97
   6   4  -3  267.46   15.69
   6  -4  -2  135.56   10.79
   6   4  -2  127.06   11.46
   6  -4  -2  123.38   10.43
   6   4  -2  133.83   11.08
   6  -4  -1  102.56    9.22
   6   4  -1   86.95    9.42
   6  -4  -1   93.93    9.20
   6   4  -1   86.20    9.12
   6   4   0  199.28   14.42
   6  -4   0  186.70   12.97
   6   4   0  224.10   14.54
   6  -4   0  196.64   12.50
   6   4   1   98.17    9.90
   6  -4   1   86.38    8.68
   6   4   1   98.20    9.59
   6  -4   1   99.76    8.75
   6   4   2  141.81   11.96
   6  -4   2  122.38   10.38
   6   4   2  117.42   10.75
   6  -4   2  126.95    9.78
   6  -4   3  276.12   15.79
   6   4   3  306.01   17.15
   6  -4   3  268.75   10.48
   6  -4   3  275.50   14.36
   6   4   3  272.30   17.04
   6   4   4    1.07    2.43
   6   4   4    2.00    2.26
   6  -4   4    4.15    2.25
   6  -4   4    2.02    1.03
   6  -4   4    0.75    0.83
   6  -4   5  590.75   23.54
   6   4   5  624.51   25.87
   6  -4   5  614.34   13.85
   6  -4   5  632.49   21.30
   6  -4   6  107.07    8.33
   6  -4   6  111.88   10.27
   6   4   6   99.03   10.04
   6   4   6   92.83   10.71
   6   4   7   54.25    7.48
   6  -4   7   52.58    7.12
   6  -4   7   54.58    5.79
   6   4   7   55.44    8.05
   6  -4   8  612.81   24.56
   6  -4   8  633.02   19.39
   6   4   8  618.07   25.59
   6   4   8  637.45   26.90
   6  -4   9  166.94   12.90
   6   4   9  186.26   14.19
   6  -4   9  152.14    9.25
  -6  -4   9  156.19   10.70
   6   4   9  192.23   14.64
  -6  -4  10   54.84    6.24
   6   4  10   58.91    8.42
   6   4  10   41.31    6.98
   6  -4  11  222.03   15.23
   6   4  11  212.13   15.47
   6   4  11  199.57   15.39
   6  -4  12  501.43   23.40
   6   4  12  516.57   24.66
   6  -4  13  122.38   11.49
   6   4  13  133.60   12.67
   6   4  13  111.22   11.69
   6  -4  14    5.05    2.82
   6   4  14    5.23    3.37
   6   4  15   72.94    9.94
   6   4  15   76.19   10.14
   6  -4  15   54.85    7.97
   6   4  16   75.69    9.64
   6   4  16   81.41   11.05
   6  -4  16  110.06   11.21
   6   4  17  126.91   13.21
   6   4  17  140.29   14.35
   6  -4  17  141.67   13.30
   6   4  18  359.16   22.41
   6   4  18  339.27   21.69
   6   4  19    0.99    1.77
   6   4  19    2.09    2.16
   6   4  20   50.79    8.14
   6   4  21   63.93   10.19
   6   4  22   34.67    7.84
   6   4  23   51.31    9.01
   6   4  24  114.06   13.61
   6   4  25   -0.35    4.03
   6   4  26   19.34    5.62
   6   4  27    5.94    2.18
   6  -5 -26   29.05    7.74
   6  -5 -25   20.73    6.28
   6  -5 -24    6.47    3.94
   6  -5 -23    1.25    2.89
  -6  -5 -23   -0.97    4.43
   6  -5 -22   32.54    7.71
   6  -5 -21   15.21    5.02
   6  -5 -20    0.37    2.75
   6  -5 -19    4.83    3.64
   6  -5 -18   18.42    5.16
   6  -5 -17   52.73    7.62
   6  -5 -17   59.62    9.43
   6  -5 -16   30.94    5.91
   6   5 -16   26.96    7.14
   6  -5 -16   19.29    5.95
   6  -5 -15   30.52    5.66
   6   5 -15   25.11    6.79
   6  -5 -15   26.01    6.09
   6   5 -14   39.41    7.79
   6  -5 -14   24.65    5.60
   6  -5 -14   32.03    6.44
   6  -5 -13  104.73   11.69
   6   5 -13   88.41   10.82
   6  -5 -13  108.77   10.85
   6  -5 -12   14.07    4.29
   6   5 -12   14.35    5.37
   6  -5 -12   12.40    4.89
   6  -5 -11    1.68    1.67
   6   5 -11    6.21    3.72
   6  -5 -11    0.92    3.20
   6  -5 -10   25.76    5.86
   6   5 -10   20.52    3.92
   6  -5 -10   24.77    4.79
   6  -5  -9   44.75    6.78
   6  -5  -9   55.46    7.74
   6   5  -9   39.44    6.44
   6   5  -9   50.30    7.21
   6   5  -8   35.66    6.23
   6  -5  -8   34.25    6.23
   6   5  -8   28.17    5.67
   6  -5  -8   38.02    6.98
   6  -5  -7   44.27    6.79
   6  -5  -7   36.20    6.55
   6   5  -7   43.66    7.02
   6   5  -7   23.06    4.47
   6   5  -6   11.04    3.23
   6  -5  -6   15.43    3.60
   6  -5  -6   10.29    3.89
   6   5  -6   21.75    5.03
   6  -5  -5   50.29    7.33
   6   5  -5   45.68    7.07
   6  -5  -5   61.71    8.40
   6   5  -5   53.58    7.72
   6   5  -4  170.06   14.04
   6  -5  -4  154.40   12.50
   6  -5  -4  147.29   12.32
   6   5  -4  153.52   12.44
   6   5  -3  113.40   11.42
   6  -5  -3  125.14   11.18
   6  -5  -3  103.11   10.26
   6   5  -3  114.71   10.91
   6   5  -2  114.63   11.42
   6  -5  -2  121.52   11.08
   6  -5  -2  111.19   10.49
   6   5  -2  109.54   10.67
   6  -5  -1   42.92    6.57
   6  -5  -1   33.87    5.73
   6   5  -1   37.07    6.24
   6   5  -1   47.63    7.75
   6   5   0   30.85    5.95
   6  -5   0   23.18    5.16
   6  -5   0   30.61    5.83
   6   5   0   25.99    5.58
   6  -5   1   32.09    5.94
   6  -5   1   45.38    6.12
   6   5   1   36.70    6.36
   6   5   1   36.17    6.82
   6  -5   2   97.30    9.34
   6  -5   2  111.46   10.45
   6   5   2   91.80    9.86
   6   5   2   91.25   10.46
   6  -5   3  124.82   10.49
   6  -5   3  132.37   11.80
   6   5   3  111.13   11.54
   6   5   3  111.99   10.90
   6  -5   4  144.87   11.24
   6  -5   4  135.81   11.86
   6   5   4  132.30   11.83
   6   5   4  149.38   13.33
   6  -5   5   36.09    6.18
   6   5   5   57.54    8.01
   6   5   5   39.17    6.98
   6  -5   5   45.13    6.23
   6   5   6   10.66    2.69
   6   5   6   17.34    4.52
   6  -5   6   13.77    4.25
   6  -5   6   11.11    3.13
   6   5   7   24.10    6.01
   6  -5   7   40.62    6.41
   6  -5   7   24.72    4.56
  -6  -5   7   41.70    6.27
   6   5   7   39.08    6.56
   6  -5   8   30.85    6.02
  -6  -5   8   42.56    6.37
   6  -5   8   31.81    5.14
   6   5   8   31.19    6.48
   6   5   8   26.34    6.42
   6  -5   9   54.31    7.78
  -6  -5   9   52.76    7.12
   6   5   9   57.22    8.01
   6   5   9   49.48    8.00
   6  -5  10   18.28    4.87
  -6  -5  10   31.27    5.47
   6   5  10   21.76    5.13
   6   5  10   18.33    5.71
   6  -5  11    5.80    3.14
   6   5  11    1.14    2.11
   6   5  11    0.93    2.62
   6  -5  12   12.23    4.64
   6   5  12   17.25    5.37
   6   5  12   17.12    4.97
   6   5  13   91.16   11.66
   6   5  13   91.08   10.89
   6  -5  13  103.07   11.17
   6  -5  14   36.14    6.95
   6   5  14   28.29    6.59
   6   5  14   22.95    5.15
   6  -5  15   14.73    5.19
   6   5  15   15.01    3.93
   6  -5  16   29.16    7.28
   6   5  16   26.72    5.70
   6   5  16   16.61    4.53
   6   5  17   50.45    8.47
   6   5  17   48.68    9.03
   6   5  18   13.80    3.94
   6   5  18   14.68    4.65
   6   5  19   -0.50    4.11
   6   5  19    1.23    2.17
   6   5  20    4.44    2.93
   6   5  20    0.55    3.16
   6   5  21   15.61    4.74
   6   5  21  -10.81    4.30
   6   5  22   46.24    8.91
   6   5  23    6.67    4.59
   6   5  24    7.86    4.80
   6   5  25   47.42    8.88
   6   5  26   34.28    7.91
   6  -6 -25   54.22   10.10
   6  -6 -24  106.83   13.96
   6  -6 -23    7.77    3.20
  -6  -6 -23    9.76    4.49
  -6  -6 -22  155.26   16.01
   6  -6 -22  181.84   17.66
   6  -6 -21   89.56   11.43
  -6  -6 -21   82.35   12.57
  -6  -6 -20   -4.22    4.86
   6  -6 -20    1.77    3.46
  -6  -6 -19   32.50    7.22
   6  -6 -19   41.52    7.60
   6  -6 -18  356.39   23.09
   6  -6 -18  310.18   21.80
   6  -6 -17   61.93   10.28
   6  -6 -17   49.21    8.72
   6  -6 -16    5.45    4.75
   6  -6 -16    9.10    4.13
   6  -6 -15   14.73    4.87
   6  -6 -15   27.76    6.64
   6   6 -15   22.49    7.22
   6   6 -14   14.45    5.20
   6  -6 -14    6.97    3.31
   6  -6 -14   19.10    6.04
   6   6 -13   16.10    5.91
   6  -6 -13   17.82    5.62
   6   6 -13   25.64    4.84
   6   6 -12  185.90   16.00
   6  -6 -12  170.11   15.12
   6   6 -12  202.66   16.45
   6   6 -11   80.86   10.20
   6  -6 -11   66.78    9.55
   6  -6 -11   54.23    8.01
   6   6 -11   58.10    8.20
   6   6 -10    3.79    3.26
   6  -6 -10    7.50    3.60
   6  -6 -10    6.62    3.26
   6   6 -10    5.94    2.68
   6   6  -9   56.46    8.13
   6  -6  -9   50.80    8.02
   6  -6  -9   59.60    8.93
   6   6  -9   59.96    9.09
   6  -6  -8  588.50   26.45
   6  -6  -8  552.42   26.30
   6   6  -8  509.85   24.99
   6   6  -8  614.56   28.24
   6  -6  -7  129.87   12.49
   6  -6  -7  100.38   10.95
   6   6  -7  131.88   12.49
   6   6  -7  127.77   12.99
   6   6  -6   -1.25    2.37
   6  -6  -6   -1.03    1.73
   6   6  -6    0.30    1.98
   6  -6  -6    0.10    1.47
   6  -6  -5   76.73    9.45
   6  -6  -5   96.05   10.34
   6   6  -5   96.79   10.44
   6   6  -5   78.08   10.24
   6  -6  -4  260.76   17.36
   6  -6  -4  247.51   16.99
   6   6  -4  236.49   16.60
   6   6  -4  269.94   18.75
   6   6  -3    3.01    2.70
   6  -6  -3    7.30    2.97
   6  -6  -3    1.10    1.76
   6   6  -3    3.55    3.01
   6  -6  -2  431.07   22.22
   6   6  -2  441.05   22.23
   6   6  -2  478.22   24.98
   6   6  -1  112.08   11.36
   6  -6  -1  110.01   11.46
   6  -6  -1  108.60   10.97
   6   6  -1   83.95   10.62
   6   6   0    5.61    2.61
   6  -6   0    0.29    2.83
   6   6   0    5.10    3.20
   6  -6   0    4.83    1.44
   6  -6   1  124.40   11.78
  -6  -6   1  106.26   10.80
   6  -6   1  106.77   10.83
   6   6   1  110.41   10.54
   6   6   1  118.60   12.55
   6  -6   2  476.21   23.41
   6  -6   2  407.14   20.68
  -6  -6   2  434.26   21.98
   6   6   2  442.67   22.86
   6   6   2  447.70   24.21
   6   6   3    4.52    2.65
   6  -6   3    6.62    3.54
   6  -6   3    3.62    3.05
  -6  -6   3    1.97    2.74
   6   6   3    4.44    3.14
   6  -6   4  246.60   16.86
   6  -6   4  257.72   16.11
   6   6   4  242.88   17.03
  -6  -6   4  231.06   16.01
   6   6   4  240.30   17.56
   6  -6   5   85.48    9.96
   6  -6   5   90.40    9.47
  -6  -6   5   79.63    9.41
   6   6   5   85.50   10.19
   6   6   5   67.98    9.89
   6   6   6    2.51    3.61
   6  -6   6    2.76    2.30
   6  -6   6   -1.13    1.39
   6   6   6   -1.56    2.92
  -6  -6   6    2.17    3.33
   6  -6   7  111.28   11.35
  -6  -6   7  127.42   12.00
   6   6   7  127.25   12.48
   6  -6   7   96.93    9.74
   6  -6   8  547.19   25.79
  -6  -6   8  498.90   23.63
   6   6   8  527.95   25.70
   6   6   8  546.08   27.52
   6  -6   9   64.47    9.33
  -6  -6   9   57.68    8.03
   6   6   9   61.33    9.02
   6   6   9   65.80    9.97
   6  -6  10    7.62    3.51
   6   6  10    7.21    3.64
  -6  -6  10    2.31    2.68
   6   6  10    7.30    4.48
   6  -6  11   68.02    9.56
   6   6  11   50.42    8.54
   6   6  11   77.19   10.65
   6  -6  12  227.99   17.10
   6   6  12  207.68   16.78
   6   6  12  227.79   18.35
   6  -6  13   21.84    5.39
   6   6  13   27.67    6.79
   6   6  13   13.83    5.50
   6  -6  14    5.28    3.53
   6   6  14    9.01    5.10
   6   6  14   11.97    5.34
   6  -6  15    8.52    2.72
   6   6  15   17.42    5.76
   6   6  15    6.94    3.49
   6  -6  16    7.30    3.78
   6   6  16    5.88    4.03
   6   6  16    5.73    4.16
   6   6  17   60.90   10.17
   6   6  17   41.79    7.86
   6   6  18  333.13   23.84
   6   6  18  314.53   21.93
   6   6  19   38.42    8.08
   6   6  19   39.51    9.12
   6   6  20    2.04    2.78
   6   6  20    6.92    3.81
   6   6  21   65.33   10.25
   6   6  21   78.54   12.50
   6   6  22  207.61   18.74
   6   6  23    2.70    2.54
   6   6  24   96.36   12.54
   6   6  25   36.07    7.84
   6  -7 -23   18.28    6.29
  -6  -7 -23    6.40    4.04
  -6  -7 -22   17.85    6.96
   6  -7 -22   10.78    5.72
  -6  -7 -21   54.77   10.35
   6  -7 -21   69.26   11.08
   6  -7 -20   40.66    7.71
  -6  -7 -20   42.87    8.87
  -6  -7 -19   30.88    7.15
   6  -7 -19   32.29    7.43
   6  -7 -18   96.28   12.32
   6  -7 -18   96.94   12.28
  -6  -7 -18   95.16   12.20
   6  -7 -17   17.89    5.50
  -6  -7 -17    9.73    4.09
   6  -7 -17   19.43    6.97
   6  -7 -16   28.22    7.04
   6  -7 -16   34.92    7.38
  -6  -7 -16   52.99    9.17
   6  -7 -15   30.72    7.26
   6  -7 -15   31.78    7.09
  -6  -7 -15   39.02    8.15
   6  -7 -14   16.46    5.96
   6  -7 -14   23.75    6.44
  -6  -7 -14   24.51    6.21
   6  -7 -13   80.35   10.98
   6  -7 -13   54.23    8.74
  -6  -7 -13   64.31    9.38
   6   7 -13   75.55   10.43
   6   7 -12   31.55    6.56
   6  -7 -12   40.82    8.20
   6  -7 -12   29.32    6.53
  -6  -7 -12   23.25    5.86
   6   7 -11   19.60    5.51
   6  -7 -11   27.07    6.36
   6  -7 -11   33.21    7.11
  -6  -7 -11   19.97    5.30
   6  -7 -10   83.22   10.64
   6  -7 -10   91.04   11.02
  -6  -7 -10   84.51   10.77
   6   7 -10   92.17   11.50
  -6  -7  -9   11.47    4.96
   6   7  -9    9.33    3.19
   6  -7  -9    9.93    4.31
   6  -7  -9    9.76    4.35
   6   7  -9   10.60    2.64
   6  -7  -8  131.74   13.44
   6   7  -8  121.69   13.55
   6  -7  -8  140.05   13.82
  -6  -7  -8  141.74   13.40
   6   7  -8  106.85   11.45
   6   7  -7   44.93    8.08
   6  -7  -7   47.62    7.71
   6   7  -7   40.22    7.73
   6  -7  -7   39.36    6.72
  -6  -7  -7   35.98    7.74
   6   7  -6    5.02    2.44
  -6  -7  -6    5.75    2.28
   6   7  -6    9.90    3.25
   6  -7  -6    9.11    3.82
   6   7  -5   37.83    7.88
   6  -7  -5   43.33    7.11
  -6  -7  -5   35.74    6.66
   6   7  -5   30.37    5.89
   6  -7  -5   35.03    6.69
   6  -7  -4  137.32   13.25
   6  -7  -4  150.04   13.68
   6   7  -4  128.58   12.16
  -6  -7  -4  153.02   13.96
   6   7  -4  183.18   15.93
   6   7  -3   45.54    8.20
   6  -7  -3   49.84    7.34
   6  -7  -3   59.09    8.70
  -6  -7  -3   40.10    7.13
   6   7  -3   56.80    9.23
   6  -7  -2  211.92   16.15
   6  -7  -2  184.07   15.35
  -6  -7  -2  181.19   15.05
   6   7  -2  212.59   17.65
   6   7  -2  192.65   15.55
   6   7  -1   42.05    7.64
   6  -7  -1   44.65    7.55
  -6  -7  -1   33.57    6.81
   6   7  -1   25.77    7.00
   6  -7  -1   31.73    6.28
   6   7   0    4.29    3.24
   6  -7   0    6.45    3.70
  -6  -7   0    3.39    3.23
   6   7   0    3.72    1.98
   6  -7   0    2.99    3.19
   6   7   1   36.74    7.08
   6  -7   1   37.07    6.53
   6   7   1   35.52    7.09
   6  -7   1   29.49    5.99
  -6  -7   1   39.03    6.90
   6  -7   2  209.88   16.54
   6  -7   2  188.49   14.74
  -6  -7   2  188.00   15.47
   6   7   2  174.64   15.11
   6   7   2  202.94   17.08
   6  -7   3   55.61    8.35
   6   7   3   60.27    8.61
   6  -7   3   46.47    7.46
  -6  -7   3   60.06    8.52
   6   7   3   55.07    8.80
   6  -7   4  157.88   13.58
  -6  -7   4  134.87   13.34
   6   7   4  157.03   13.85
   6   7   4  150.18   14.88
   6  -7   4  128.77   12.79
   6  -7   5   40.37    7.52
   6  -7   5   34.46    6.44
   6   7   5   31.20    6.45
  -6  -7   5   52.16    8.21
   6   7   5   37.13    7.82
   6  -7   6   11.40    4.18
   6  -7   6    9.66    4.93
  -6  -7   6   18.34    5.38
   6   7   6   10.95    3.80
   6   7   6    7.30    4.12
   6  -7   7   46.35    7.67
  -6  -7   7   30.03    6.77
   6   7   7   38.82    7.41
   6   7   7   38.40    7.92
   6  -7   8  108.86   12.54
  -6  -7   8  143.04   13.67
   6   7   8  104.59   11.83
   6   7   8  125.59   14.52
   6  -7   9    7.90    3.43
   6   7   9   22.09    5.90
   6   7   9   10.38    4.84
  -6  -7   9   17.37    5.51
   6   7  10   79.72   10.51
   6  -7  10   94.51   11.87
   6   7  10   76.46   11.18
   6  -7  11   25.78    5.63
   6   7  11   35.41    8.33
   6   7  11   29.23    7.02
   6   7  12   21.46    6.19
   6   7  12   39.64    8.29
   6  -7  12   23.63    5.19
   6  -7  13   60.47    8.97
   6   7  13   88.79   11.64
   6   7  13   62.02   10.44
   6  -7  14   32.71    7.01
   6   7  14   19.95    5.77
   6   7  14   18.30    5.59
   6  -7  15   30.33    8.44
   6   7  15   33.88    6.94
   6   7  15   46.38    8.23
   6   7  16   24.61    7.46
   6   7  16   31.47    7.32
   6   7  17   17.16    5.57
   6   7  17   14.91    5.80
   6   7  18   75.76   11.07
   6   7  18  104.32   13.50
   6   7  19   30.88    6.84
   6   7  19   20.69    7.25
   6   7  20   36.25    8.11
   6   7  20   39.46    8.13
   6   7  21   48.40   10.74
   6   7  21   83.32   13.79
   6   7  22   16.50    5.81
   6   7  23    8.95    3.97
   6  -8 -20   33.64    7.35
  -6  -8 -20   32.08    8.38
  -6  -8 -19   34.64    6.86
   6  -8 -19   55.00    9.88
   6  -8 -18   84.03   12.43
   6  -8 -18   66.52   11.06
  -6  -8 -18   57.65   10.60
   6  -8 -17   36.00    7.32
   6  -8 -17   23.27    5.96
  -6  -8 -16   38.68    8.47
   6  -8 -16   44.90    8.29
   6  -8 -16   38.91    8.27
  -6  -8 -15   41.27    8.27
   6  -8 -15   33.39    7.95
   6  -8 -15   39.05    8.21
   6  -8 -14   66.07   10.72
   6  -8 -14   78.68   11.65
  -6  -8 -14   57.68   10.20
   6  -8 -13   83.70   11.78
   6  -8 -13   91.46   11.89
  -6  -8 -13   88.86   11.73
  -6  -8 -12   48.38    8.91
   6  -8 -12   85.34   12.39
   6  -8 -12   81.68   11.15
   6   8 -12   64.18   10.89
   6   8 -11   43.02    8.28
   6  -8 -11   64.63   10.01
   6  -8 -11   50.88    9.18
  -6  -8 -11   58.98    9.44
   6   8 -10   46.81    8.81
   6  -8 -10   27.01    6.54
  -6  -8 -10   45.03    8.00
   6  -8 -10   36.41    7.26
   6   8  -9   20.14    7.00
   6  -8  -9   30.31    7.10
   6  -8  -9   24.32    5.49
  -6  -8  -9   31.18    7.56
   6  -8  -8  173.30   16.23
   6  -8  -8  168.45   15.53
  -6  -8  -8  156.81   15.11
   6   8  -8  158.99   15.93
   6  -8  -7  100.00   11.84
   6  -8  -7   85.86   11.27
  -6  -8  -7   86.82   11.66
   6   8  -7   67.39   10.47
   6   8  -6   22.33    6.55
  -6  -8  -6    8.22    3.28
   6  -8  -6   33.28    7.30
   6  -8  -6   20.82    6.23
   6  -8  -5   92.21   11.53
   6  -8  -5   51.12    8.30
  -6  -8  -5   77.98   10.63
   6   8  -5   65.00    9.62
   6  -8  -4  104.12   12.17
  -6  -8  -4   98.21   12.11
   6  -8  -4  104.25   12.31
   6   8  -4  109.30   12.67
   6  -8  -3   -1.45    2.48
  -6  -8  -3    0.48    2.56
   6   8  -3    5.87    2.60
   6  -8  -3    5.83    4.46
   6   8  -3    3.64    2.59
   6  -8  -2   86.54   10.81
  -6  -8  -2  104.83   12.11
   6  -8  -2  110.36   12.53
   6   8  -2  120.59   12.86
   6   8  -2  112.89   13.43
   6  -8  -1   39.13    7.51
  -6  -8  -1   35.61    7.89
   6   8  -1   62.86    9.75
   6  -8  -1   31.86    6.90
   6   8  -1   39.09    7.83
   6  -8   0    2.52    1.82
  -6  -8   0    5.80    3.98
   6   8   0    4.91    2.77
   6  -8   0   -0.68    1.54
   6   8   0    4.37    2.35
   6  -8   1   40.40    7.28
   6   8   1   41.93    7.39
  -6  -8   1   47.48    7.92
   6  -8   1   40.95    7.11
   6   8   1   40.77    8.01
   6  -8   2  138.35   14.00
   6  -8   2  121.71   12.65
  -6  -8   2  123.12   13.40
   6   8   2  110.10   12.00
   6   8   2  120.39   13.45
   6   8   3    1.70    3.09
   6  -8   3   -0.15    2.20
  -6  -8   3    2.42    3.10
   6  -8   3    0.80    2.57
   6   8   3    5.33    4.43
   6   8   4  109.58   13.04
   6  -8   4   95.67   11.24
  -6  -8   4   83.37   11.06
   6  -8   4  102.63   12.62
   6   8   4  110.91   12.37
   6  -8   5   76.77   10.21
  -6  -8   5   68.50   10.37
   6   8   5   61.48    9.51
   6   8   5   61.84    9.77
  -6  -8   6   21.39    5.56
   6   8   6   22.74    5.20
   6  -8   6   22.15    5.96
   6   8   6   26.94    7.24
   6  -8   7   85.89   11.49
  -6  -8   7   74.45   10.57
   6   8   7   69.57   10.36
   6   8   7   78.84   11.40
   6  -8   8  174.33   15.83
   6   8   8  163.07   15.55
  -6  -8   8  173.95   16.17
   6   8   8  183.77   17.14
   6  -8   9   24.91    6.71
  -6  -8   9   44.81    9.70
   6   8   9   35.04    7.95
   6   8   9   21.90    5.90
   6   8  10   39.42    8.62
   6  -8  10   60.18    9.53
   6   8  10   46.94    9.13
   6   8  11   38.10    8.28
   6  -8  11   36.46    7.87
   6   8  11   47.18    8.44
   6  -8  12   71.31   10.29
   6   8  12   94.75   12.62
   6   8  12   85.23   12.34
   6  -8  13  108.96   13.51
   6   8  13  112.02   13.10
   6   8  13   90.89   12.51
   6  -8  14   55.16   10.05
   6   8  14   59.67   10.27
   6   8  14   47.45    9.55
   6   8  15   54.45    8.90
   6   8  15   44.94    8.96
   6   8  16   45.38    8.84
   6   8  16   41.92    9.53
   6   8  17   43.39    8.74
   6   8  17   38.40    8.59
   6   8  18   78.72   11.78
   6   8  18   86.31   12.66
   6   8  19   48.67    9.58
   6   8  19   33.14    8.32
   6   8  20   25.27    6.56
   6   8  20   31.51    8.19
   6  -9 -17   -4.32    3.03
   6  -9 -17   -4.49    6.00
  -6  -9 -17   -0.83    2.54
   6  -9 -16   -3.33    2.97
   6  -9 -16   -0.67    3.59
  -6  -9 -16    7.73    4.93
   6  -9 -15   -1.56    2.70
   6  -9 -15   -1.00    2.24
  -6  -9 -15   -3.90    3.40
   6  -9 -14   30.10    7.13
   6  -9 -14   44.96    8.95
  -6  -9 -14   22.28    6.01
  -6  -9 -13    5.29    4.42
   6  -9 -13    1.66    3.80
   6  -9 -13    4.81    3.70
   6  -9 -12   58.13    9.34
  -6  -9 -12   44.46    8.31
   6  -9 -12   30.11    7.30
   6  -9 -11   -4.65    2.84
  -6  -9 -11   -3.35    3.79
   6  -9 -11    0.71    2.54
   6  -9 -10    4.31    4.51
  -6  -9 -10    0.85    2.38
   6  -9 -10    6.63    3.74
   6   9 -10    5.80    4.04
   6   9  -9    8.30    5.15
  -6  -9  -9    4.70    3.91
   6  -9  -9   11.29    5.30
   6  -9  -9   14.48    5.91
   6  -9  -8   27.91    6.71
  -6  -9  -8   28.58    6.63
   6  -9  -8   24.42    7.45
   6   9  -8   29.96    7.65
   6  -9  -7   14.59    4.83
  -6  -9  -7   16.03    5.76
   6   9  -7   11.22    5.44
   6  -9  -7    7.97    4.98
   6  -9  -6   27.58    6.75
  -6  -9  -6   42.68    8.04
   6  -9  -6   25.99    6.91
   6   9  -6   32.95    7.37
   6  -9  -5   21.10    6.46
   6  -9  -5   23.40    6.48
  -6  -9  -5   22.11    6.13
   6   9  -5   25.92    6.90
   6  -9  -4    7.35    2.96
  -6  -9  -4    0.43    3.71
   6  -9  -4    6.23    3.50
   6   9  -4   -0.08    3.13
   6  -9  -3   31.21    7.09
  -6  -9  -3   22.03    5.89
   6   9  -3   20.24    5.54
   6  -9  -3   10.23    4.32
   6  -9  -2   -0.21    3.15
  -6  -9  -2    0.74    3.88
   6   9  -2    4.17    4.16
   6  -9  -2    4.11    2.63
   6  -9  -1   37.96    7.71
   6   9  -1   38.69    8.67
  -6  -9  -1   29.70    6.98
   6  -9  -1   28.99    7.23
  -6  -9   0   36.31    7.83
   6  -9   0   27.71    6.52
   6  -9   0   34.51    7.50
   6   9   0   33.09    8.23
   6  -9   1   43.00    8.13
  -6  -9   1   29.30    7.35
   6  -9   1   27.50    6.32
   6   9   1   36.47    8.52
  -6  -9   2   -2.45    2.45
   6  -9   2   -1.18    3.13
   6   9   2    2.42    2.48
   6  -9   2    5.62    2.69
   6  -9   3   15.05    5.12
   6   9   3   21.49    5.78
  -6  -9   3   22.54    5.93
   6  -9   3   21.39    6.68
   6   9   3   31.44    7.16
  -6  -9   4    2.02    2.61
   6  -9   4    0.40    2.35
   6   9   4    3.89    3.25
   6  -9   5   19.00    5.07
  -6  -9   5   17.36    5.71
   6   9   5   20.08    6.11
   6   9   5    8.24    2.68
   6  -9   6   31.51    6.74
   6   9   6   35.31    8.31
  -6  -9   6   36.05    7.85
   6   9   6   40.79    8.20
   6  -9   7    8.12    4.71
  -6  -9   7    9.44    3.48
   6   9   7    4.66    3.51
   6   9   7   13.54    5.76
   6  -9   8   27.20    6.99
  -6  -9   8   26.90    7.05
   6   9   8   26.07    7.19
   6   9   8   37.74    8.48
   6  -9   9    8.60    4.22
   6   9   9   23.88    7.19
   6   9   9   19.06    6.26
   6  -9  10    7.46    4.31
   6   9  10   18.09    6.17
   6   9  10    8.03    4.89
   6  -9  11   -0.48    2.52
   6   9  11   -0.05    2.55
   6   9  11    5.95    5.48
   6   9  12   40.35    8.83
   6  -9  12   47.24    8.75
   6   9  12   35.78    7.94
   6  -9  13    0.66    2.38
   6   9  13   -1.63    3.43
   6   9  13    1.19    3.02
   6  -9  14   29.08    9.25
   6   9  14   18.94    5.53
   6   9  14   30.63    7.31
   6   9  15   -2.28    4.31
   6   9  15    2.05    2.97
   6   9  16   10.60    4.72
   6   9  16    4.74    3.06
   6   9  17    3.23    2.82
   6   9  17    3.49    3.21
   6 -10 -13    9.54    4.58
  -6 -10 -13    9.48    5.37
   6 -10 -13    4.40    4.00
   6 -10 -12   29.82    6.80
   6 -10 -12   38.66    8.32
  -6 -10 -12   25.85    6.97
   6 -10 -11   14.92    5.35
  -6 -10 -11   16.96    6.79
   6 -10 -11   18.86    6.82
   6 -10 -10    5.94    4.74
  -6 -10 -10    6.36    4.47
   6 -10 -10   11.80    5.88
   6 -10  -9   15.60    5.40
  -6 -10  -9   15.59    5.18
   6 -10  -9   17.46    5.79
   6  10  -9    5.00    3.42
   6 -10  -8   85.83   11.85
   6 -10  -8   96.74   13.08
  -6 -10  -8   78.65   11.47
   6  10  -8   70.25   12.05
  -6 -10  -7    8.96    4.92
   6 -10  -7   10.67    6.24
   6 -10  -7   17.48    5.91
   6  10  -7    4.29    3.98
   6 -10  -6   27.61    7.58
  -6 -10  -6   18.37    5.63
   6 -10  -6   20.50    5.98
   6  10  -6   18.28    5.40
   6 -10  -5   36.37    7.43
  -6 -10  -5   34.71    6.91
   6 -10  -5   48.86    9.36
   6  10  -5   25.34    6.33
   6 -10  -4   71.90   10.89
  -6 -10  -4   57.07   10.27
   6 -10  -4   62.86   10.03
   6  10  -4   56.41   10.49
   6 -10  -3   23.34    6.38
  -6 -10  -3   14.15    4.82
   6 -10  -3   26.13    6.63
   6  10  -3   27.21    7.67
   6 -10  -2   73.21   11.32
  -6 -10  -2   51.01    9.62
   6 -10  -2   80.49   11.89
   6  10  -2   66.12   11.74
   6 -10  -1   27.34    6.62
  -6 -10  -1   36.61    8.47
   6 -10  -1   33.68    7.92
   6  10  -1   23.13    8.15
   6 -10   0    3.79    4.01
  -6 -10   0    5.98    2.31
   6 -10   0    5.94    3.48
   6  10   0    5.38    2.42
   6 -10   1   19.91    5.56
  -6 -10   1   31.05    7.66
   6 -10   1   18.34    6.10
   6  10   1   20.87    6.73
   6 -10   2   77.29   11.15
  -6 -10   2   80.73   11.60
   6  10   2   58.10   11.07
   6 -10   3   24.32    6.60
  -6 -10   3   14.89    6.00
   6  10   3   16.41    7.17
   6 -10   4   76.74   11.44
  -6 -10   4   61.47   10.03
   6 -10   5   52.54    9.26
  -6 -10   5   27.76    6.98
   6  10   5   32.70    8.18
   6 -10   6   14.96    4.31
  -6 -10   6   18.56    5.67
   6  10   6   25.32    6.84
   6 -10   7   17.85    5.97
  -6 -10   7   18.28    5.82
   6  10   7    5.69    5.47
   6  10   8   92.37   13.01
   6 -10   8   76.45   11.71
   6 -10   9   14.25    4.26
   6  10   9   20.73    6.87
   6 -10  10    9.76    5.00
   6  10  10    8.19    5.89
   6  10  10    2.41    2.22
   6 -10  11   10.05    3.33
   6  10  11    5.79    3.39
   6 -10  12   28.79    8.35
   6  10  12   33.10    8.77
   6  10  12   28.33    8.49
   6  10  13   -1.82    3.65
   6  10  13   11.26    5.75
   6 -11  -5   10.39    4.39
  -6 -11  -5    9.18    3.54
   6 -11  -5    2.08    2.21
   6  11  -5   10.56    6.10
   6 -11  -4   -0.22    4.87
  -6 -11  -4   -0.35    2.54
   6 -11  -4    2.17    4.87
   6  11  -4    3.53    3.95
   6 -11  -3   18.52    6.18
  -6 -11  -3    2.68    3.70
   6 -11  -3   14.53    5.96
   6  11  -3    9.98    5.75
   6 -11  -2    1.78    3.82
  -6 -11  -2    6.84    3.89
   6 -11  -2    8.49    2.84
   6  11  -2   -1.02    3.61
   6 -11  -1   20.69    6.46
  -6 -11  -1   13.86    5.48
   6 -11  -1   27.74    7.15
   6  11  -1   17.25    7.11
   6 -11   0   12.90    5.40
  -6 -11   0   20.28    6.55
   6  11   0    9.22    5.70
  -6 -11   1   18.24    5.54
   6 -11   1   32.22    8.71
   6  11   1   18.71    7.39
   6 -11   2   -2.21    3.69
   6  11   2    4.32    3.80
   6 -11   3    9.28    2.79
  -6 -11   3    9.04    5.65
   6  11   3   14.76    5.26
   6 -11   4    4.32    3.11
  -6 -11   4    4.58    4.12
   6  11   4    3.95    3.53
   6 -11   5   13.64    3.99
  -6 -11   5   14.79    6.14
   6  11   5    5.44    4.61
   7   0 -23    2.77    2.92
   7   0 -22   -3.05    4.08
   7   0 -21    0.02    2.33
   7   0 -20    0.08    1.98
   7   0 -19    1.99    3.22
   7   0 -18   -0.22    1.79
   7   0 -17    1.78    2.37
   7   0 -16    0.24    1.89
   7   0 -15    3.47    4.15
   7   0 -14   -0.05    2.36
   7   0 -13    2.01    2.32
   7   0 -13   -0.30    1.02
   7   0 -12    0.50    1.20
   7   0 -12   -0.43    1.02
   7   0 -11   -0.11    1.80
   7   0 -11   -0.10    0.98
   7   0 -10    0.59    1.89
   7   0 -10    1.00    0.80
   7   0  -9    1.41    1.73
   7   0  -9    0.07    0.93
   7   0  -8    0.84    1.70
   7   0  -8   -0.81    1.43
   7   0  -7   -0.32    1.40
   7   0  -7    1.15    1.15
   7   0  -6   -0.25    1.39
   7   0  -6    0.45    0.84
   7   0  -5    0.28    0.96
   7   0  -5    0.17    1.21
   7   0  -4    0.55    1.13
   7   0  -4   -0.60    1.63
   7   0  -3   -0.23    1.46
   7   0  -3    0.30    0.69
   7   0  -2   -0.12    1.72
   7   0  -2   -0.63    0.91
   7   0  -1    0.30    1.20
   7   0  -1    0.15    1.00
   7   0   0    1.65    1.27
   7   0   0    1.06    1.35
   7   0   1    0.69    1.07
   7   0   1    0.85    2.04
   7   0   1    0.61    1.00
   7   0   2   -0.41    0.93
   7   0   2    0.13    1.35
   7   0   2    1.66    1.97
   7   0   3    1.25    1.35
   7   0   3    0.39    1.91
   7   0   3    0.33    1.68
   7   0   4   -0.57    1.43
   7   0   4    0.38    1.65
   7   0   4    1.28    1.56
   7   0   5   -0.26    1.55
   7   0   5    2.22    1.64
   7   0   5    1.89    1.88
   7   0   6   -0.10    1.28
   7   0   6    0.20    1.20
   7   0   6    0.21    1.95
   7   0   7    0.12    0.93
   7   0   7    0.69    1.59
   7   0   7    0.84    1.15
   7   0   8    0.74    2.28
   7   0   8   -0.03    1.74
   7   0   8    0.20    1.26
   7   0   9   -0.62    1.30
   7   0   9   -1.00    0.95
   7   0  10   -0.22    1.59
   7   0  10    1.28    1.34
   7   0  11   -0.59    1.62
   7   0  11    1.30    2.05
   7   0  12    0.83    1.32
   7   0  12    2.96    2.09
   7   0  13   -0.49    1.15
   7   0  13    0.37    2.53
   7   0  14   -4.20    1.72
   7   0  14   -2.79    1.68
   7   0  15    0.90    2.67
   7   0  16    1.44    1.81
   7   0  17    1.64    2.65
   7   0  18    0.03    2.47
   7   0  19    1.37    2.63
   7   0  20   -0.39    2.97
   7   0  21    3.35    3.48
   7   0  22    3.43    3.83
   7   0  23   -3.73    3.28
   7   0  24   -1.72    3.04
   7   0  25    1.31    2.80
   7   0  26   10.39    6.50
   7   0  27    6.25    4.00
   7   0  28    4.11    4.09
   7  -1 -24  299.92   22.38
   7  -1 -23   38.04    7.22
   7  -1 -22  117.52   13.24
   7  -1 -21   56.28    9.40
   7   1 -21   52.15    8.69
   7  -1 -20  154.90   14.29
   7   1 -20  146.53   14.29
   7  -1 -19  113.10   12.37
   7   1 -19   93.31   10.90
   7  -1 -18   91.53   10.94
   7   1 -18  120.99   12.44
   7  -1 -17   81.75   10.33
   7   1 -17   93.33   10.57
   7  -1 -16  761.47   29.88
   7   1 -16  727.36   28.96
   7  -1 -15  148.88   13.11
   7   1 -15  156.28   13.28
   7  -1 -14 1347.69   38.60
   7   1 -14 1312.07   37.31
   7  -1 -14 1358.06   27.53
   7  -1 -13   47.59    7.73
   7   1 -13   67.00    8.79
   7  -1 -13   62.13    5.93
   7  -1 -12  186.66   13.70
   7   1 -12  192.00   13.85
   7  -1 -12  178.38   10.28
   7  -1 -11  236.90   15.20
   7   1 -11  232.61   14.99
   7  -1 -11  228.86   11.57
   7  -1 -10  132.09    8.99
   7  -1 -10  105.49   10.02
   7   1 -10  115.84   10.31
   7  -1  -9   10.52    2.19
   7   1  -9   12.94    3.55
   7  -1  -9    7.50    2.79
   7  -1  -8  176.90   10.38
   7  -1  -8  170.66   12.37
   7   1  -8  166.67   12.14
   7  -1  -7  257.53   14.69
   7  -1  -7  246.15   12.33
   7   1  -7  219.05   13.64
   7  -1  -6  433.57   16.70
   7  -1  -6  396.91   18.31
   7   1  -6  435.08   19.30
   7  -1  -5  564.94   18.94
   7  -1  -5  542.07   21.18
   7   1  -5  589.18   22.02
   7   1  -4  412.32   18.53
   7  -1  -4  389.17   15.98
   7  -1  -3  665.45   22.40
   7   1  -3  624.33   22.69
   7  -1  -2 1277.33   30.78
   7  -1  -2 1295.04   29.58
   7   1  -2 1375.18   33.66
   7   1  -1   30.03    4.89
   7   1  -1   38.24    5.53
   7  -1  -1   29.03    4.55
   7  -1  -1   26.64    4.58
   7  -1   0    1.37    1.12
   7   1   0    1.97    1.48
   7  -1   0    1.42    1.33
   7   1   0    2.58    1.97
   7  -1   1   24.25    4.23
   7   1   1   28.98    4.82
   7   1   1   35.67    5.54
   7  -1   1   30.95    4.57
   7   1   2 1318.27   31.35
   7  -1   2 1342.87   30.73
   7  -1   2 1352.07   29.99
   7  -1   2 1331.87   31.26
   7   1   2 1328.65   33.08
   7  -1   3  656.63   20.87
   7   1   3  691.07   22.83
   7   1   3  649.37   23.12
   7  -1   3  633.58   21.22
   7  -1   3  635.98   21.61
   7   1   4  388.62   17.23
   7  -1   4  392.12   15.63
   7   1   4  404.96   18.57
   7  -1   4  380.05   16.36
   7  -1   4  404.53   17.56
   7   1   5  542.13   20.48
   7  -1   5  505.36   17.99
   7   1   5  535.14   21.45
   7  -1   5  526.53   19.45
   7  -1   5  500.33   19.76
   7   1   6  426.69   18.25
   7  -1   6  419.54   16.09
   7   1   6  377.36   17.92
   7  -1   6  434.66   17.85
   7  -1   6  389.53   17.65
   7   1   7  219.96   14.03
   7   1   7  246.52   13.85
   7  -1   7  233.26   11.81
   7  -1   7  231.02   13.19
   7  -1   7  250.27   14.36
   7   1   8  185.95   12.25
   7  -1   8  184.70   10.37
   7   1   8  170.75   12.50
   7  -1   8  171.09   11.73
   7  -1   8  203.60   13.00
   7   1   9   11.03    2.84
   7  -1   9   13.09    2.65
   7   1   9   16.75    4.00
   7  -1   9    9.83    2.85
   7  -1   9    9.39    3.53
   7   1  10  130.91   10.61
   7  -1  10  108.15    9.40
   7  -1  10  112.14    8.15
   7   1  10  110.82   10.18
   7  -1  10  113.44   10.10
   7  -1  11  244.54   11.61
   7  -1  11  258.58   15.07
   7   1  11  249.15   15.84
   7  -1  11  261.38   15.41
   7   1  11  228.88   13.96
   7   1  12  156.68   12.75
   7  -1  12  164.62   12.00
   7  -1  12  170.10    9.76
   7  -1  12  159.21   12.14
   7   1  12  141.68   11.47
   7  -1  13   72.87    8.35
   7   1  13   57.14    8.13
   7   1  13   60.73    7.27
   7  -1  13   63.36    7.89
   7  -1  14 1375.99   36.50
   7   1  14 1341.38   38.29
   7  -1  14 1407.91   38.12
   7   1  14 1279.58   34.15
   7   1  15  142.42   11.77
   7  -1  15  147.19   12.66
   7   1  15  140.84   12.46
   7  -1  16  722.98   27.81
   7   1  16  762.72   30.19
   7  -1  17   81.78    9.28
   7   1  17   84.20    9.92
   7  -1  18  127.18   12.28
   7   1  18  118.67   12.52
   7  -1  19   91.32   11.36
   7   1  19   98.59   11.67
   7  -1  20  169.68   14.72
   7   1  20  161.55   14.71
   7  -1  21   60.41   10.18
   7   1  21   66.35   10.07
   7  -1  22  102.36   11.85
   7   1  22   97.92   12.02
   7  -1  23   44.81    8.63
   7   1  23   43.15    8.27
   7  -1  24   22.25    8.35
   7   1  24  336.58   23.24
   7   1  25   60.78    9.71
   7   1  26   18.63    5.75
   7   1  27   12.60    5.55
   7   1  28  233.59   20.23
   7   1  29    2.00    2.61
   7  -2 -25   38.11    8.51
   7  -2 -24   17.69    5.49
   7  -2 -23   51.42    9.42
   7  -2 -22   12.44    4.88
   7  -2 -21   55.24    9.28
   7  -2 -20   38.67    7.48
   7   2 -20   37.39    7.22
   7   2 -19   -2.01    3.46
   7  -2 -19    1.36    2.10
   7  -2 -18  134.61   12.66
   7   2 -18  116.05   12.26
   7  -2 -17   53.17    8.14
   7   2 -17   67.04    9.62
   7  -2 -16  752.92   30.20
   7   2 -16  775.86   30.07
   7  -2 -15  150.98   10.38
   7   2 -15  180.43   14.21
   7  -2 -15  168.89   13.88
   7  -2 -14  190.28   11.66
   7  -2 -14  174.11   14.01
   7  -2 -13  120.73    9.43
   7  -2 -13  132.85   12.02
   7   2 -13  133.45   11.98
   7  -2 -12  330.20   15.22
   7  -2 -12  328.07   18.34
   7   2 -12  310.30   18.16
   7  -2 -11   17.85    3.75
   7   2 -11   18.74    4.15
   7  -2 -11   21.60    5.20
   7  -2 -10   92.74    8.15
   7  -2 -10   69.88    8.11
   7   2 -10   93.42    9.66
   7  -2  -9  255.32   13.45
   7  -2  -9  233.98   14.86
   7   2  -9  269.24   15.91
   7  -2  -8  610.99   21.20
   7  -2  -8  678.57   24.95
   7   2  -8  624.02   24.01
   7  -2  -7   20.46    4.04
   7  -2  -7   24.84    4.98
   7   2  -7   17.70    3.99
   7  -2  -6   47.99    5.95
   7   2  -6   54.34    7.24
   7  -2  -5  283.81   14.27
   7  -2  -5  318.04   16.24
   7   2  -5  330.88   16.94
   7  -2  -4   54.19    6.72
   7   2  -4   51.85    6.62
   7  -2  -4   57.92    6.68
   7  -2  -3  383.42   16.63
   7  -2  -3  327.99   16.29
   7   2  -3  346.98   17.16
   7  -2  -2  115.16    9.09
   7  -2  -2  122.82    9.95
   7   2  -2  130.65   10.54
   7   2  -2  140.60   10.96
   7   2  -1   -0.32    1.31
   7  -2  -1    1.50    1.30
   7  -2  -1    1.88    2.30
   7   2  -1    4.59    1.62
   7  -2   0    4.41    2.59
   7   2   0    0.03    1.22
   7  -2   0    0.42    0.82
   7   2   0    1.15    1.54
   7  -2   1    3.53    1.55
   7   2   1    6.72    3.14
   7  -2   1    4.89    2.29
   7   2   1    4.45    2.13
   7  -2   2  144.88   10.46
   7  -2   2  128.89    9.38
   7   2   2  142.23   11.05
   7   2   2  139.24   10.99
   7  -2   2  142.43    9.60
   7  -2   3  330.91   16.38
   7  -2   3  363.15   15.43
   7   2   3  364.30   17.96
   7   2   3  367.95   18.11
   7  -2   3  374.08   15.41
   7  -2   4   42.70    5.72
   7   2   4   44.83    6.59
   7   2   4   47.09    6.71
   7  -2   4   60.01    6.11
   7  -2   4   45.07    5.44
   7   2   5  308.22   16.35
   7   2   5  294.88   16.54
   7  -2   5  303.29   13.79
   7  -2   5  312.80   13.92
   7  -2   5  290.22   15.68
   7   2   6   56.98    7.24
   7  -2   6   65.85    6.59
   7  -2   6   59.07    5.89
   7   2   6   68.53    7.94
   7  -2   6   63.14    7.25
   7  -2   7   23.13    4.40
   7   2   7   24.37    4.85
   7   2   7   23.07    5.32
   7  -2   7   33.07    4.54
   7  -2   7   21.92    3.90
   7   2   8  715.73   26.05
   7  -2   8  591.11   18.69
   7   2   8  633.22   25.11
   7  -2   8  639.48   20.85
   7  -2   8  668.33   24.16
   7  -2   9  252.05   13.25
   7  -2   9  271.42   11.99
   7   2   9  247.55   15.84
   7  -2   9  226.77   14.23
   7   2   9  241.60   15.02
   7   2  10   80.91    9.12
   7  -2  10   80.82    8.45
   7  -2  10   73.12    5.93
   7  -2  10   65.49    7.16
   7   2  10   72.44    8.40
   7   2  11   17.09    3.78
   7   2  11   17.46    4.41
   7  -2  11   17.79    3.55
   7  -2  11   19.07    3.80
   7  -2  11   31.52    5.64
   7  -2  12  310.47   15.96
   7   2  12  351.03   19.33
   7   2  12  303.33   17.63
   7  -2  12  330.30   18.13
   7  -2  13  124.33   10.42
   7   2  13  121.11   12.01
   7   2  13  134.88   11.71
   7  -2  13  130.95   11.62
   7  -2  14  193.08   13.41
   7   2  14  178.61   14.30
   7   2  14  211.21   14.72
   7  -2  14  198.21   14.50
   7  -2  15  174.85   12.83
   7   2  15  176.58   14.31
   7   2  15  153.42   12.94
   7  -2  15  129.01   11.78
   7  -2  16  788.09   27.69
   7   2  16  753.37   30.38
   7  -2  16  730.45   28.69
   7   2  16  685.61   27.87
   7  -2  17   69.18    8.63
   7   2  17   75.85   10.06
   7  -2  17   55.87    8.23
   7  -2  18  112.43   12.10
   7   2  18  131.59   13.10
   7  -2  19   -4.95    2.48
   7   2  19    3.26    2.29
   7   2  20   45.32    7.70
   7   2  21   50.16    8.50
   7   2  22    7.20    3.10
   7   2  23   32.90    7.61
   7   2  24   18.43    6.37
   7   2  25   36.32    7.85
   7   2  26    4.65    3.66
   7   2  27   -2.46    2.66
   7   2  28   22.76    7.41
   7  -3 -26   73.95   11.49
   7  -3 -25    3.36    2.54
   7  -3 -24  249.36   19.98
   7  -3 -23   20.56    5.30
   7  -3 -22    0.11    2.71
   7  -3 -21    5.41    2.74
   7  -3 -20  392.14   24.10
   7  -3 -19   17.74    4.63
   7   3 -19   19.57    5.34
   7   3 -18  875.00   33.21
   7  -3 -18  857.82   34.08
   7  -3 -17   16.32    4.35
   7   3 -17   22.91    5.45
   7  -3 -16    8.92    4.00
   7  -3 -16    9.27    3.42
   7   3 -16   14.80    5.35
   7  -3 -15   32.65    5.46
   7  -3 -15   46.10    7.51
   7   3 -15   28.00    5.40
   7  -3 -14 1639.50   44.23
   7  -3 -14 1574.68   37.43
   7  -3 -13    5.22    3.36
   7  -3 -13    5.78    3.01
   7   3 -13    5.24    2.23
   7  -3 -12 1687.13   38.34
   7   3 -12 1666.29   42.16
   7  -3 -12 1605.28   42.68
   7  -3 -11  135.42   10.69
   7   3 -11  123.99   11.38
   7  -3 -11  128.42   11.80
   7  -3 -10   74.02    7.79
   7   3 -10   55.15    7.70
   7  -3 -10   74.20    8.95
   7  -3  -9   31.53    5.35
   7   3  -9   27.74    5.30
   7  -3  -9   36.94    6.74
   7  -3  -8 1411.68   34.30
   7   3  -8 1416.87   37.42
   7  -3  -8 1405.80   37.48
   7  -3  -7   29.63    4.81
   7  -3  -7   26.95    5.25
   7   3  -7   18.07    4.51
   7  -3  -6  823.72   26.04
   7   3  -6  807.49   28.17
   7  -3  -6  876.69   28.54
   7  -3  -5   75.50    7.92
   7   3  -5   85.02    9.17
   7  -3  -5   78.77    8.48
   7  -3  -4    6.11    2.08
   7  -3  -4    7.44    3.41
   7   3  -4    5.64    2.62
   7   3  -4    5.05    2.51
   7  -3  -3   28.46    4.93
   7   3  -3   30.93    5.42
   7  -3  -3   33.47    5.67
   7   3  -3   30.41    5.45
   7  -3  -2 1225.35   32.44
   7   3  -2 1273.06   35.19
   7  -3  -2 1357.77   33.86
   7   3  -2 1403.49   36.29
   7  -3  -1   25.14    4.74
   7  -3  -1   18.58    3.93
   7   3  -1   23.71    4.62
   7   3  -1   28.41    5.38
   7  -3   0    0.40    1.92
   7  -3   0   -0.25    1.69
   7   3   0   -0.03    1.65
   7   3   0   -0.44    1.09
   7  -3   1   25.19    4.87
   7   3   1   22.32    4.57
   7  -3   1   27.01    4.62
   7   3   1   23.95    5.13
   7  -3   2 1300.85   34.06
   7   3   2 1300.17   35.04
   7  -3   2 1321.29   31.78
   7   3   2 1324.39   36.03
   7  -3   3   31.07    5.32
   7   3   3   30.55    5.81
   7   3   3   36.70    5.92
   7  -3   3   39.89    4.80
   7  -3   4    6.35    3.08
   7   3   4   10.17    3.45
   7  -3   4    6.46    2.09
   7   3   4    4.12    2.53
   7  -3   4    5.81    1.84
   7  -3   5   59.49    7.24
   7   3   5   86.20    9.21
   7  -3   5   76.60    7.10
   7  -3   5   74.37    6.71
   7   3   5   76.80    8.90
   7  -3   6  926.60   22.86
   7   3   6  878.41   30.07
   7  -3   6  855.04   27.80
   7  -3   6  871.98   23.52
   7   3   6  814.74   28.88
   7  -3   7   24.91    4.54
   7  -3   7   29.22    3.97
   7   3   7   31.80    5.64
   7  -3   7   25.57    3.98
   7   3   7   36.42    6.10
   7  -3   8 1400.76   36.58
   7   3   8 1465.13   39.00
   7  -3   8 1446.25   29.30
   7  -3   8 1403.56   28.95
   7   3   8 1366.79   38.69
   7   3   9   24.29    5.07
   7  -3   9   25.83    3.93
   7   3   9   31.13    5.58
   7  -3   9   29.66    4.45
   7  -3  10   65.05    6.40
   7   3  10   50.91    7.64
   7   3  10   64.32    8.39
   7  -3  10   59.96    7.70
   7  -3  11  136.53   11.70
   7  -3  11  108.87    8.54
   7   3  11  106.53   11.28
   7   3  11  108.50   11.05
   7  -3  12 1484.26   32.85
   7   3  12 1622.80   43.87
   7   3  12 1596.15   42.49
   7  -3  12 1461.68   38.97
   7  -3  13    8.05    3.62
   7   3  13    5.67    1.85
   7   3  13    6.56    3.62
   7   3  14 1830.03   47.36
   7  -3  14 1723.29   43.47
   7   3  15   19.62    5.55
   7   3  15   39.54    7.11
   7  -3  15   35.12    6.85
   7   3  16    6.05    3.53
   7   3  16    8.98    3.27
   7  -3  16    8.11    3.85
   7   3  17   18.81    5.25
   7   3  17   19.62    5.33
   7  -3  17   18.03    5.05
   7   3  18  840.04   34.04
   7   3  18  818.65   33.80
   7  -3  18  773.22   31.41
   7   3  19   31.60    7.10
   7   3  20  403.39   23.92
   7   3  21    4.71    3.04
   7   3  22    1.39    2.40
   7   3  23   16.26    5.65
   7   3  24  251.72   20.12
   7   3  25    7.87    3.61
   7   3  26   65.37   10.67
   7   3  27    2.20    3.37
   7   3  28   69.36   11.15
   7  -4 -26    8.11    6.90
   7  -4 -25    9.96    4.27
   7  -4 -24   12.54    6.08
   7  -4 -23   -0.73    3.34
   7  -4 -22   60.83    9.99
   7  -4 -21   36.08    7.60
   7  -4 -20    7.12    3.71
   7  -4 -19  296.45   20.93
   7   4 -18  104.02   12.26
   7  -4 -18  114.61   13.25
   7  -4 -17   30.02    6.03
   7   4 -17   18.73    5.74
   7  -4 -16   33.09    6.26
   7  -4 -16   22.93    6.41
   7   4 -16   18.85    5.76
   7  -4 -15   65.23    8.34
   7   4 -15   59.70    8.88
   7  -4 -15   71.98    9.58
   7  -4 -14  186.37   13.88
   7   4 -14  196.92   15.65
   7  -4 -14  180.31   15.01
   7  -4 -13  130.77   11.60
   7   4 -13  156.89   13.92
   7  -4 -13  159.03   13.89
   7   4 -12   41.17    7.27
   7  -4 -12   24.17    4.96
   7  -4 -12   41.85    7.44
   7  -4 -11  257.50   16.12
   7   4 -11  275.18   17.64
   7  -4 -11  299.62   18.36
   7  -4 -10   30.29    5.28
   7   4 -10   20.19    4.87
   7  -4 -10   27.41    5.94
   7  -4  -9    7.80    3.78
   7  -4  -9    5.96    3.50
   7   4  -9    1.61    1.69
   7  -4  -8   88.85    9.01
   7   4  -8   82.16    9.83
   7  -4  -8   91.17    9.78
   7  -4  -7  704.39   26.07
   7   4  -7  747.59   28.90
   7  -4  -7  746.00   27.77
   7  -4  -6   90.55    9.45
   7   4  -6   95.22    9.94
   7   4  -6   96.68   10.34
   7  -4  -6   93.40    9.83
   7  -4  -5    5.97    3.12
   7   4  -5   16.39    4.54
   7  -4  -5    7.79    2.18
   7   4  -5   10.44    3.61
   7  -4  -4    8.01    3.07
   7   4  -4    6.46    2.35
   7  -4  -4   10.64    3.15
   7   4  -4   12.83    3.80
   7  -4  -3  112.01   10.34
   7   4  -3  130.43   11.80
   7   4  -3  130.10   11.52
   7  -4  -3  122.77   10.62
   7   4  -2   28.18    5.10
   7  -4  -2   22.33    4.69
   7   4  -2   16.66    4.39
   7  -4  -2   17.17    3.53
   7  -4  -1    9.19    3.06
   7   4  -1   12.14    3.81
   7  -4  -1    4.55    2.15
   7   4  -1    8.87    3.42
   7  -4   0    0.42    1.60
   7   4   0    0.86    2.17
   7  -4   0   -0.82    1.66
   7   4   0    0.74    1.82
   7  -4   1    8.47    3.09
   7   4   1   12.56    5.02
   7  -4   1    8.73    3.11
   7   4   1   11.03    3.81
   7  -4   2   24.90    4.98
   7   4   2   17.01    3.83
   7  -4   2   24.73    4.66
   7   4   2   18.97    4.58
   7  -4   3  125.42    9.97
   7   4   3  127.13   11.61
   7  -4   3  131.54    8.39
   7   4   3  122.65   11.70
   7  -4   4   10.04    2.63
   7  -4   4   11.88    3.82
   7   4   4   15.72    3.83
   7   4   4   13.96    4.38
   7  -4   4   14.55    2.81
   7  -4   5   17.34    3.85
   7   4   5    8.49    3.73
   7  -4   5   17.73    4.38
   7   4   5    9.45    2.23
   7  -4   5   12.75    2.76
   7  -4   6  102.25    9.98
   7  -4   6   87.73    7.91
   7   4   6   84.43    9.83
   7   4   6   75.41    9.54
   7  -4   7  714.89   22.65
   7  -4   7  766.45   28.34
   7   4   7  713.71   28.31
   7   4   7  709.58   29.70
   7  -4   8   91.06    8.17
   7   4   8   75.87    9.29
   7   4   8   82.78   10.25
   7   4   9    1.58    2.28
   7  -4   9    2.10    1.74
   7  -4   9   -5.05    1.78
   7   4   9    4.37    3.54
   7  -4  10   32.80    6.26
   7   4  10   33.79    6.55
   7   4  10   38.29    7.60
   7   4  11  292.15   19.07
   7  -4  11  327.27   19.01
   7   4  12   32.50    6.10
   7   4  12   37.18    7.19
   7  -4  12   36.16    6.65
   7   4  13  143.90   13.28
   7   4  13  137.11   13.67
   7  -4  13  171.03   14.12
   7   4  14  183.66   15.64
   7   4  14  173.38   15.29
   7  -4  14  187.90   14.82
   7   4  15   73.88    9.82
   7  -4  15   66.22    8.65
   7  -4  16   23.33    5.26
   7   4  16   37.72    6.57
   7   4  16   33.23    7.19
   7  -4  17   30.22    6.27
   7   4  17   43.60    7.70
   7   4  17   29.49    7.03
   7   4  18  131.93   13.71
   7   4  18  110.43   12.60
   7   4  19  307.79   20.89
   7   4  19  304.44   22.05
   7   4  20   -3.97    3.97
   7   4  21   38.97    7.80
   7   4  22   35.34    7.44
   7   4  23    5.24    2.87
   7   4  24   16.00    5.83
   7   4  25    6.50    3.62
   7   4  26    1.83    3.11
   7   4  27   32.55    8.05
   7  -5 -26   11.57    4.43
   7  -5 -25   17.90    6.10
   7  -5 -24  176.51   17.95
   7  -5 -23    3.00    2.46
   7  -5 -22   96.43   12.43
   7  -5 -21   20.37    6.64
   7  -5 -20   16.32    5.41
   7  -5 -19   77.09   11.01
   7  -5 -18  408.59   24.38
   7  -5 -17  173.72   14.58
   7  -5 -17  145.76   14.97
   7  -5 -16    2.82    2.70
   7   5 -16    2.15    2.60
   7  -5 -16    1.07    2.00
   7  -5 -15   21.39    5.23
   7   5 -15   17.79    5.68
   7  -5 -15   13.62    2.76
   7  -5 -14   17.16    4.39
   7   5 -14   25.74    6.21
   7  -5 -14   26.31    6.30
   7  -5 -13   -0.29    1.85
   7   5 -13    1.01    2.40
   7  -5 -13    2.08    2.30
   7   5 -12  344.21   21.20
   7  -5 -12  374.18   20.91
   7  -5 -12  336.11   20.61
   7   5 -11   58.84    8.96
   7  -5 -11   63.14    8.65
   7  -5 -11   64.27    9.00
   7  -5 -10    8.53    4.31
   7   5 -10   10.55    3.19
   7  -5 -10    7.67    2.78
   7  -5  -9   11.14    3.74
   7   5  -9   23.29    6.39
   7  -5  -9   17.79    4.31
   7   5  -9   18.61    6.26
   7  -5  -8  427.26   22.64
   7   5  -8  444.71   23.24
   7  -5  -8  397.35   20.72
   7   5  -8  391.30   21.67
   7  -5  -7  101.63   10.99
   7   5  -7   88.85   10.49
   7  -5  -7   90.94   10.18
   7   5  -7   74.41    9.55
   7  -5  -6   22.87    5.18
   7   5  -6   25.61    6.14
   7   5  -6   20.24    5.07
   7  -5  -6   24.48    5.65
   7  -5  -5   44.77    6.98
   7   5  -5   59.95    8.19
   7   5  -5   53.34    7.54
   7  -5  -5   60.60    7.83
   7  -5  -4   63.79    8.32
   7   5  -4   69.52    9.31
   7  -5  -4   76.49    9.24
   7   5  -4   84.53    9.87
   7  -5  -3   84.06    9.57
   7   5  -3   98.58   11.23
   7  -5  -3  113.27   10.97
   7   5  -3   88.99    9.87
   7  -5  -2  398.61   20.13
   7   5  -2  390.16   21.68
   7  -5  -2  398.41   20.28
   7   5  -2  388.81   21.07
   7   5  -1    8.06    3.52
   7  -5  -1   14.86    4.29
   7   5  -1    8.63    3.57
   7  -5  -1   16.34    4.07
   7   5   0    3.10    1.84
   7  -5   0    3.48    2.87
   7   5   0    3.45    3.44
   7  -5   0    2.02    1.26
   7   5   1    9.66    4.97
   7  -5   1   13.07    4.07
   7  -5   1    8.58    3.12
   7   5   1   11.28    3.28
   7  -5   2  347.45   19.20
   7   5   2  413.84   21.46
   7  -5   2  358.72   18.41
   7   5   2  343.06   20.57
   7  -5   3   74.17    9.02
   7   5   3  113.48   11.05
   7  -5   3   95.74    9.54
   7   5   3   95.23   11.06
   7  -5   4   80.05    9.57
   7   5   4   77.24    9.81
   7  -5   4   70.64    7.95
   7   5   4   74.49   10.00
   7  -5   5   40.60    6.97
   7   5   5   49.42    7.76
   7  -5   5   50.42    6.74
   7   5   5   67.70    9.20
   7   5   6   25.47    5.78
   7  -5   6   17.96    4.35
   7  -5   6   17.45    3.99
   7   5   6   21.21    5.16
   7  -5   7   87.95   10.23
   7  -5   7   95.10    8.99
   7   5   7   85.83   10.00
   7   5   7   91.99   10.88
   7  -5   8  385.23   21.05
  -7  -5   8  387.53   19.27
   7   5   8  459.70   23.71
   7   5   8  427.00   23.54
   7   5   9   23.71    6.04
  -7  -5   9   17.64    3.94
   7  -5   9   19.79    5.55
   7   5   9   18.77    5.19
   7  -5  10   12.41    3.81
  -7  -5  10    9.22    3.81
   7   5  10   19.71    5.70
   7   5  10   10.15    4.32
   7  -5  11   47.16    8.32
   7   5  11   52.71    8.15
   7   5  11   59.77    9.26
   7  -5  12  324.97   19.91
   7   5  12  358.93   21.50
   7   5  12  352.95   22.15
   7  -5  13    0.47    1.98
   7   5  13   -1.73    2.25
   7   5  13   -1.02    2.61
   7  -5  14   12.87    4.18
   7   5  14   20.02    5.90
   7   5  14   21.46    6.14
   7  -5  15   23.95    5.41
   7   5  15   22.11    5.71
   7   5  15   18.81    5.35
   7  -5  16    1.56    3.04
   7   5  16   -0.88    2.07
   7   5  16    0.30    3.18
   7   5  17  118.62   12.77
   7   5  17  120.06   14.83
   7  -5  17  148.58   14.50
   7   5  18  411.75   24.63
   7   5  18  366.67   24.78
   7   5  19   59.89   10.38
   7   5  19   51.49    8.80
   7   5  20   14.99    4.73
   7   5  20    6.83    3.48
   7   5  21   22.55    6.20
   7   5  22   89.84   12.03
   7   5  23    3.49    3.61
   7   5  24  184.07   17.79
   7   5  25   11.84    4.92
   7   5  26   11.03    4.17
   7  -6 -24   -1.58    2.50
  -7  -6 -24    4.27    4.26
   7  -6 -23    7.97    4.61
  -7  -6 -23   16.55    6.04
   7  -6 -22    4.54    3.81
  -7  -6 -22    4.74    4.35
   7  -6 -21   30.78    7.62
   7  -6 -20   -0.13    3.44
   7  -6 -19    7.15    3.61
   7  -6 -18    2.57    2.42
   7  -6 -17   11.83    4.84
   7  -6 -17    0.94    2.98
   7  -6 -16   12.36    5.35
   7  -6 -16    1.69    2.40
   7   6 -15   24.05    6.58
   7  -6 -15   13.39    5.01
   7  -6 -15   19.50    5.16
   7   6 -14   30.88    6.47
   7  -6 -14   31.31    6.87
   7  -6 -14   18.64    5.32
   7   6 -14   30.85    7.34
   7  -6 -13   59.00    8.88
   7   6 -13   74.38   10.53
   7  -6 -13   67.09    9.71
   7   6 -13   65.50    9.73
   7   6 -12   27.12    7.42
   7  -6 -12   17.29    5.61
   7   6 -12   16.14    6.15
   7  -6 -12   20.56    5.22
   7  -6 -11   27.32    6.45
   7   6 -11   35.90    7.83
   7  -6 -11   20.13    6.03
   7   6 -11   18.79    6.05
   7   6 -10   18.00    5.16
   7  -6 -10   14.53    3.65
   7  -6 -10   15.08    4.13
   7   6 -10   20.42    4.49
   7  -6  -9   18.18    4.61
   7   6  -9    8.66    4.35
   7  -6  -9   10.79    4.41
   7   6  -9    9.46    4.30
   7  -6  -8    0.03    2.70
   7   6  -8    4.16    4.03
   7  -6  -8    3.21    3.28
   7   6  -8   -0.42    3.16
   7  -6  -7   11.18    3.86
   7   6  -7   14.54    5.03
   7  -6  -7    7.55    2.39
   7   6  -7    8.63    3.81
   7   6  -6    1.44    2.63
   7  -6  -6    7.26    2.83
   7  -6  -6    4.87    2.88
   7   6  -6   11.56    4.78
   7  -6  -5   55.69    8.23
   7  -6  -5   57.95    8.79
   7   6  -5   66.93    9.58
   7   6  -5   60.44    9.28
   7   6  -4   14.33    4.43
   7  -6  -4   23.91    5.03
   7  -6  -4   25.64    5.12
   7   6  -3    1.00    2.17
   7  -6  -3    8.45    3.77
   7  -6  -3   13.66    4.24
   7   6  -3   10.88    3.94
   7  -6  -2   39.20    6.88
   7   6  -2   35.46    7.19
   7  -6  -2   40.97    7.19
   7   6  -2   31.46    6.70
   7   6  -1   13.67    4.28
   7  -6  -1   21.40    4.90
   7  -6  -1   21.88    5.24
   7   6  -1   14.96    4.86
   7  -6   0    3.61    3.62
   7   6   0    3.68    3.05
   7  -6   0    1.50    2.17
   7   6   0    5.83    3.38
   7  -6   1   20.26    4.67
   7   6   1   17.67    5.75
   7  -6   1   11.92    4.27
   7   6   1   28.05    5.37
   7   6   2   29.95    6.79
   7  -6   2   32.30    6.60
   7   6   2   43.81    6.93
   7  -6   2   31.82    5.87
   7   6   3    9.12    3.94
   7  -6   3    7.28    2.60
   7   6   3    6.58    3.87
   7  -6   3    7.32    2.68
   7   6   4   26.96    6.25
   7  -6   4   24.93    5.33
  -7  -6   4   18.25    5.10
   7  -6   4   22.97    5.05
   7   6   4   29.30    6.76
   7  -6   5   68.88    9.40
  -7  -6   5   48.85    7.40
   7   6   5   56.00    8.75
   7  -6   5   76.42    8.69
   7   6   5   57.84    8.98
   7   6   6    4.00    3.55
  -7  -6   6    2.15    2.91
   7  -6   6   -0.79    1.92
   7  -6   6    6.03    2.91
   7   6   6    3.65    3.09
   7   6   7    8.51    3.71
  -7  -6   7    4.48    3.00
   7  -6   7    7.61    3.58
   7   6   7    7.01    3.49
   7  -6   8    4.21    2.88
  -7  -6   8    2.21    1.97
   7   6   8    0.49    2.51
   7   6   8   -1.40    2.46
   7  -6   9   10.74    3.10
  -7  -6   9    5.75    1.72
   7   6   9   14.92    4.43
   7   6   9   16.76    5.20
   7  -6  10   24.02    5.71
   7   6  10   13.82    4.12
   7   6  10   18.77    5.44
   7  -6  11   18.41    4.80
   7   6  11   17.86    5.36
   7   6  11   22.26    6.17
   7  -6  12   20.33    5.80
   7   6  12   19.22    6.15
   7   6  12   17.19    5.07
   7  -6  13   73.39    9.40
   7   6  13   59.95    9.43
   7   6  13   65.76   10.05
   7  -6  14   35.35    7.43
   7   6  14   32.24    7.01
   7   6  14   23.18    6.13
   7  -6  15   20.55    6.25
   7   6  15   13.34    4.50
   7   6  15   19.41    6.58
   7  -6  16    1.75    2.44
   7   6  16    1.59    2.53
   7   6  16    0.73    3.94
   7   6  17    7.38    3.00
   7   6  17    1.29    2.74
   7   6  18    3.45    3.33
   7   6  18    0.26    3.15
   7   6  19    5.93    3.39
   7   6  19    6.38    4.22
   7   6  20    0.62    3.33
   7   6  20    0.84    3.02
   7   6  21   26.28    7.10
   7   6  21   17.83    6.12
   7   6  22   -3.25    3.39
   7   6  23   -4.50    4.69
   7   6  24   -3.71    4.44
  -7  -7 -22   45.56    9.00
   7  -7 -22   47.98   10.62
  -7  -7 -21   15.35    6.08
   7  -7 -21    8.04    5.37
  -7  -7 -20   51.34    9.52
   7  -7 -20   69.25   11.00
  -7  -7 -19    3.10    2.20
   7  -7 -19    5.50    4.16
   7  -7 -18  260.52   20.76
  -7  -7 -18  243.71   20.41
   7  -7 -18  225.25   19.09
   7  -7 -17   25.24    7.10
  -7  -7 -17   33.10    7.21
   7  -7 -17   33.66    7.57
   7  -7 -16    6.32    2.23
   7  -7 -16    4.78    3.40
   7  -7 -15    8.48    4.99
  -7  -7 -15    2.10    1.92
   7  -7 -15    4.62    2.98
   7  -7 -14   62.10    9.74
   7   7 -14   56.68    9.43
   7  -7 -14   56.89    9.35
  -7  -7 -14   50.99    8.78
   7  -7 -13   19.63    5.47
   7   7 -13   12.52    4.56
   7  -7 -13   12.10    4.46
   7  -7 -12  214.45   17.66
   7   7 -12  203.60   18.57
   7   7 -11   19.70    6.03
   7  -7 -11    7.66    4.24
   7  -7 -11    9.85    4.47
   7   7 -10    4.58    4.43
   7   7 -10    4.31    3.49
   7  -7 -10    1.25    2.06
   7  -7 -10    5.12    2.69
   7   7  -9    4.57    2.85
   7  -7  -9    6.34    2.87
   7  -7  -9   13.05    5.44
   7   7  -9    4.50    2.54
   7  -7  -8  478.36   25.91
   7  -7  -8  463.41   24.94
   7   7  -8  437.25   25.02
   7   7  -8  485.35   27.61
   7   7  -7    8.70    4.02
   7  -7  -7   15.38    4.77
   7  -7  -7   10.24    3.65
   7   7  -7   10.86    3.56
   7   7  -6   39.33    8.54
   7  -7  -6   40.54    7.60
   7  -7  -6   44.66    7.51
   7   7  -6   30.69    7.26
   7   7  -5   19.18    5.45
   7  -7  -5   30.41    6.86
   7  -7  -5   26.06    6.30
   7   7  -5   17.30    5.02
   7  -7  -4  192.89   15.86
   7  -7  -4  217.46   16.73
   7   7  -4  156.59   14.68
   7   7  -4  183.58   16.60
   7   7  -3    8.05    4.59
  -7  -7  -3    2.36    3.07
   7  -7  -3    2.23    2.05
   7  -7  -3   -0.21    2.89
   7   7  -3    5.03    3.55
   7   7  -2  227.64   16.97
   7  -7  -2  208.04   16.41
   7  -7  -2  206.92   16.64
  -7  -7  -2  212.46   16.67
   7   7  -2  205.95   17.28
   7   7  -1   26.73    6.14
   7  -7  -1   27.15    6.51
   7  -7  -1   26.58    6.12
   7   7  -1   19.49    4.63
  -7  -7  -1   21.84    5.73
   7   7   0    2.48    2.57
   7  -7   0   -0.30    2.26
   7  -7   0   -0.61    2.09
   7   7   0    5.11    3.43
  -7  -7   0    4.16    3.60
   7   7   1   23.06    5.19
  -7  -7   1   11.16    4.56
   7  -7   1   27.32    5.86
   7  -7   1   25.45    5.95
   7   7   1   22.55    5.46
   7  -7   2  196.07   15.66
   7  -7   2  210.34   16.60
   7   7   2  234.58   17.38
  -7  -7   2  235.58   17.41
   7   7   2  208.72   17.60
   7   7   3    4.97    4.80
   7  -7   3    1.81    1.51
   7  -7   3    1.77    3.04
  -7  -7   3    5.49    3.06
   7   7   3   -0.82    3.41
   7  -7   4  192.80   15.63
   7   7   4  180.01   15.44
   7  -7   4  169.25   14.94
  -7  -7   4  155.08   14.12
   7   7   4  179.04   15.91
   7   7   5   32.98    6.79
   7  -7   5   24.65    5.78
  -7  -7   5   17.66    5.15
   7  -7   5   22.87    5.14
   7   7   5   26.50    6.69
   7  -7   6   52.22    8.52
  -7  -7   6   50.54    8.72
   7   7   6   37.86    6.91
   7   7   6   62.99    9.66
   7  -7   7   25.44    5.87
  -7  -7   7   23.11    5.68
   7   7   7    5.84    3.36
   7   7   7   25.24    6.92
   7  -7   8  453.29   25.74
  -7  -7   8  493.02   25.36
   7   7   8  511.89   26.78
   7   7   8  467.46   26.95
   7  -7   9    7.43    3.43
   7   7   9    6.73    3.74
  -7  -7   9    6.41    3.85
   7   7   9    6.85    3.21
   7  -7  10    4.71    3.35
   7   7  10    4.51    3.87
   7   7  10    2.80    2.84
   7  -7  11   16.43    4.61
   7   7  11   12.42    4.67
   7   7  11   11.80    5.27
   7   7  12  274.84   19.80
   7   7  12  285.38   21.53
   7  -7  12  267.68   19.72
   7  -7  13   20.35    5.57
   7   7  13   19.09    5.98
   7   7  13   15.55    4.83
   7  -7  14   57.73    9.41
   7   7  14   42.84    7.71
   7   7  14   55.07   10.37
   7  -7  15    0.79    3.19
   7   7  15    7.19    3.02
   7   7  15    7.48    3.43
   7  -7  16   22.52    8.13
   7   7  16   13.59    5.77
   7   7  16    7.97    3.83
   7   7  17   21.79    5.62
   7   7  17   40.92    8.05
   7   7  18  269.55   22.39
   7   7  18  238.01   19.42
   7   7  19   -0.75    2.76
   7   7  19    1.89    2.83
   7   7  20   70.65   10.19
   7   7  20   71.72   11.82
   7   7  21   21.36    6.93
   7   7  21    0.74    4.40
   7   7  22   42.94    8.80
  -7  -8 -20    1.75    2.57
   7  -8 -20    4.34    4.75
  -7  -8 -19    4.31    2.87
   7  -8 -19    2.84    4.57
   7  -8 -18   -1.48    3.67
  -7  -8 -18    1.75    4.25
   7  -8 -18   -2.28    3.46
   7  -8 -17    7.93    2.73
  -7  -8 -17    5.80    2.65
   7  -8 -16    2.47    2.85
  -7  -8 -16    0.21    2.24
   7  -8 -16    3.19    5.19
   7  -8 -15   11.83    4.79
   7  -8 -15   11.31    5.35
  -7  -8 -15    4.57    3.99
   7  -8 -14   55.20   10.35
  -7  -8 -14   36.98    8.09
   7  -8 -14   44.79    8.52
   7  -8 -13   21.17    6.67
   7  -8 -13   23.98    7.14
  -7  -8 -13   18.85    6.11
   7   8 -12   -2.20    4.56
   7  -8 -12    1.75    2.23
   7  -8 -12    2.15    3.25
  -7  -8 -12   -4.52    3.82
   7   8 -11   14.35    5.50
   7  -8 -11   12.86    5.65
   7  -8 -11    6.41    3.46
  -7  -8 -11   11.68    4.32
   7   8 -10    5.20    3.48
  -7  -8 -10    6.63    3.94
   7  -8 -10    2.42    1.95
   7  -8 -10    0.80    1.96
   7   8  -9   22.61    6.66
  -7  -8  -9   23.81    6.17
   7  -8  -9   18.00    4.91
   7  -8  -9   22.45    6.37
   7   8  -8    0.03    4.02
   7  -8  -8    1.87    3.20
   7  -8  -8    1.45    2.07
  -7  -8  -8    3.76    2.75
   7   8  -7    6.49    2.69
   7  -8  -7   11.26    4.66
   7  -8  -7   12.33    5.73
  -7  -8  -7    9.37    3.68
   7   8  -6   21.86    5.39
   7  -8  -6   20.94    5.79
   7  -8  -6   23.17    7.03
  -7  -8  -6   24.98    6.27
   7   8  -5    4.14    3.50
   7  -8  -5    3.93    2.73
  -7  -8  -5    5.84    4.09
   7   8  -4    6.66    3.92
   7  -8  -4    3.48    3.36
   7  -8  -4    0.89    2.40
  -7  -8  -4    2.54    2.89
   7   8  -4    1.12    2.81
   7   8  -3    5.83    3.45
   7  -8  -3    4.78    4.18
   7  -8  -3    3.71    2.39
   7   8  -3    5.25    3.61
  -7  -8  -3    7.41    2.97
   7   8  -2    2.60    2.55
   7  -8  -2    9.06    3.07
   7  -8  -2    1.78    1.60
  -7  -8  -2   10.39    3.45
   7   8  -2   10.39    5.09
   7   8  -1    9.30    4.80
   7  -8  -1    2.04    2.36
   7  -8  -1   12.54    4.71
  -7  -8  -1    6.18    3.21
   7   8  -1    7.34    4.36
   7  -8   0    1.32    2.81
   7  -8   0    2.69    2.28
  -7  -8   0    0.96    3.17
   7   8   0   -0.40    2.41
   7   8   0    0.32    2.87
   7  -8   1    6.25    2.95
   7  -8   1    3.21    2.92
   7   8   1    2.23    2.70
  -7  -8   1    9.32    3.90
   7   8   1    3.73    4.55
   7   8   2    4.08    2.36
   7  -8   2    7.05    2.99
   7  -8   2   10.09    4.24
  -7  -8   2   14.80    4.69
   7   8   2   11.99    4.28
   7  -8   3    3.81    3.22
   7  -8   3    4.23    3.61
  -7  -8   3    8.05    2.19
   7   8   3   13.20    5.52
   7   8   3    8.44    3.36
   7   8   4    0.75    2.96
   7  -8   4    6.30    4.46
   7  -8   4    9.06    2.68
  -7  -8   4    9.03    4.74
   7   8   4   11.30    3.40
   7  -8   5    6.45    4.34
  -7  -8   5   17.64    5.12
   7   8   5   10.92    3.95
   7   8   5    3.65    2.55
   7  -8   6   23.75    5.62
  -7  -8   6   13.94    4.34
   7   8   6   16.41    5.40
   7   8   6   24.46    6.88
   7  -8   7   14.01    5.15
  -7  -8   7   13.00    4.98
   7   8   7    0.63    3.08
   7   8   7    3.92    1.59
   7  -8   8    6.44    3.82
  -7  -8   8    9.18    3.21
   7   8   8    3.47    3.53
   7   8   8    3.41    4.52
   7   8   9   10.55    3.60
   7  -8   9   22.87    6.00
   7   8   9   16.96    5.67
   7  -8  10   -3.28    3.35
   7   8  10    2.12    3.23
   7   8  10    2.53    2.67
   7  -8  11    8.88    3.44
   7   8  11    6.99    2.25
   7   8  11    4.59    2.73
   7  -8  12    2.13    1.90
   7   8  12    1.12    4.29
   7   8  12    0.97    3.37
   7  -8  13   17.72    5.39
   7   8  13   20.98    6.66
   7   8  13   23.21    6.98
   7  -8  14   32.22    7.32
   7   8  14   50.67    9.84
   7   8  14   34.09    6.93
   7  -8  15    4.54    2.92
   7   8  15    5.77    4.17
   7   8  15   14.86    6.72
   7   8  16    2.00    2.56
   7   8  16   -2.60    2.85
   7   8  17   15.37    5.22
   7   8  17   11.16    3.08
   7   8  18    7.29    4.62
   7   8  18    9.38    5.49
   7   8  19    2.02    4.06
   7   8  19    7.08    2.68
   7   8  20    4.85    4.50
   7   8  20    3.34    3.71
  -7  -9 -16   10.84    5.88
   7  -9 -16    7.27    3.10
   7  -9 -15   15.80    5.13
   7  -9 -15   23.29    6.78
  -7  -9 -15   15.28    4.73
   7  -9 -14  141.71   14.95
   7  -9 -14  144.63   15.04
  -7  -9 -14  158.42   16.23
   7  -9 -13    6.41    2.18
   7  -9 -13    3.79    3.23
  -7  -9 -13   10.26    3.13
   7  -9 -12  211.60   18.75
   7  -9 -12  253.02   20.31
   7  -9 -11   19.57    5.07
   7  -9 -11   10.08    4.90
  -7  -9 -11    4.03    3.53
   7   9 -11    8.97    5.20
   7  -9 -10   15.23    5.51
   7  -9 -10   12.51    4.75
  -7  -9 -10    3.54    4.44
   7   9 -10   21.34    7.72
   7  -9  -9   13.84    5.66
   7  -9  -9   19.98    6.47
  -7  -9  -9   20.30    6.77
   7   9  -9   21.52    6.88
   7  -9  -8  367.68   23.82
   7  -9  -8  348.59   23.95
   7   9  -8  381.26   26.54
   7  -9  -7    3.89    2.65
   7  -9  -7    3.73    4.19
  -7  -9  -7   13.67    4.34
   7   9  -7   15.14    6.55
   7  -9  -6   97.76   12.23
   7  -9  -6   72.08   11.04
  -7  -9  -6   77.88   11.22
   7   9  -6  113.69   13.98
   7   9  -5   10.72    4.00
   7  -9  -5   11.66    4.81
   7  -9  -5   11.55    4.75
  -7  -9  -5   12.13    6.21
   7  -9  -4  133.45   14.11
   7  -9  -4  132.09   14.09
   7   9  -4  103.51   14.00
   7  -9  -3    3.06    3.09
   7  -9  -3    4.05    4.31
  -7  -9  -3    0.86    3.32
   7   9  -3    3.87    4.12
   7  -9  -2  212.37   17.58
   7  -9  -2  159.99   15.75
  -7  -9  -2  184.09   16.95
   7   9  -2  193.41   18.04
   7  -9  -1    9.53    3.92
   7  -9  -1   11.46    5.07
   7   9  -1    1.68    3.53
  -7  -9  -1   12.25    4.78
   7  -9   0    3.04    2.28
   7  -9   0    5.96    4.56
  -7  -9   0   -1.57    3.92
   7   9   0   -4.51    4.33
   7  -9   1    4.64    2.11
   7  -9   1    1.13    4.56
  -7  -9   1    6.61    3.70
   7   9   1    3.74    3.78
   7  -9   2  181.02   16.97
   7  -9   2  185.72   17.40
  -7  -9   2  204.61   18.00
   7   9   2  159.98   15.90
   7   9   2  184.43   17.91
   7  -9   3    5.60    4.62
  -7  -9   3    1.41    3.60
   7   9   3   -5.37    4.26
   7   9   3    3.75    4.61
   7  -9   4  129.25   13.93
  -7  -9   4  106.39   13.30
   7   9   4  116.44   13.58
   7   9   4  111.80   13.37
   7  -9   5   16.56    4.05
  -7  -9   5   14.66    4.90
   7   9   5    9.19    3.04
   7   9   5    6.09    2.80
   7  -9   6   81.40   11.47
  -7  -9   6   88.70   11.95
   7   9   6   91.85   12.06
   7   9   6   94.82   13.40
   7  -9   7    2.47    3.66
   7   9   7    5.36    4.93
   7   9   7    1.33    3.53
   7  -9   8  328.17   22.80
   7   9   8  372.32   24.98
   7   9   8  374.90   26.31
   7  -9   9   15.89    5.86
   7   9   9   11.08    5.01
   7   9   9   14.53    5.18
   7  -9  10   16.60    5.41
   7   9  10   21.34    6.00
   7   9  10   13.30    5.48
   7  -9  11    4.63    2.93
   7   9  11   13.96    6.03
   7   9  11   14.11    6.95
   7  -9  12  196.93   18.15
   7   9  12  189.78   18.53
   7   9  12  246.41   20.12
   7  -9  13   11.83    6.07
   7   9  13   15.83    5.81
   7   9  13   20.59    6.53
   7  -9  14  128.90   15.55
   7   9  14  162.97   17.84
   7   9  14  138.13   15.24
   7   9  15   34.63    7.83
   7   9  15   16.49    6.88
   7   9  16   19.02    6.67
   7   9  16    3.30    3.34
   7 -10 -12    8.82    3.51
   7 -10 -12    9.23    4.92
  -7 -10 -12    0.36    3.53
   7 -10 -11   30.86    7.24
   7 -10 -11   36.99    9.02
  -7 -10 -11   21.21    6.77
   7 -10 -10   11.17    5.12
   7 -10 -10   14.72    5.40
  -7 -10 -10   -1.06    3.45
   7 -10  -9   -0.48    3.01
   7 -10  -9    4.50    3.27
  -7 -10  -9   -3.52    4.88
   7  10  -9    5.15    4.16
   7 -10  -8    9.76    4.28
   7 -10  -8   10.06    5.92
  -7 -10  -8    2.56    2.70
   7  10  -8   11.01    4.68
   7 -10  -7   28.64    7.25
   7 -10  -7   44.53    9.17
  -7 -10  -7   35.60    8.84
   7  10  -7   33.92    9.22
   7 -10  -6    1.91    3.20
   7 -10  -6   -0.20    2.89
  -7 -10  -6    0.98    2.14
   7  10  -6    3.14    5.05
   7 -10  -5   60.99   10.59
  -7 -10  -5   48.19    9.30
   7  10  -5   59.17   10.03
   7 -10  -4    5.95    4.54
   7 -10  -4    5.95    3.86
  -7 -10  -4   14.14    5.91
   7  10  -4    4.58    2.50
   7 -10  -3   -0.61    5.01
   7 -10  -3    1.48    2.77
  -7 -10  -3    5.23    2.08
   7  10  -3    6.15    5.45
   7 -10  -2   -0.94    2.81
   7 -10  -2   -2.17    2.33
  -7 -10  -2   -1.25    2.62
   7  10  -2    0.33    3.11
   7 -10  -1   10.05    3.92
   7 -10  -1   13.74    6.20
  -7 -10  -1   -2.59    3.35
   7  10  -1    0.77    2.61
   7 -10   0    2.15    3.33
   7 -10   0    3.84    2.36
  -7 -10   0   -7.50    4.90
   7  10   0    0.68    3.82
   7 -10   1    5.13    3.29
   7 -10   1    9.27    3.88
  -7 -10   1   19.32    6.14
   7  10   1    9.23    5.94
   7 -10   2   -1.94    2.11
  -7 -10   2   -1.54    4.03
   7  10   2   -0.45    3.02
   7 -10   3    2.56    2.14
  -7 -10   3    8.45    5.00
   7  10   3    1.41    2.75
   7 -10   4    6.82    4.27
  -7 -10   4    0.02    3.21
   7  10   4    8.94    6.11
   7 -10   5   63.81   10.54
  -7 -10   5   74.05   11.25
   7  10   5   53.59    9.72
   7 -10   6    2.58    3.69
  -7 -10   6   -3.50    5.39
   7  10   6    4.22    4.96
   7 -10   7   37.59    8.06
   7  10   7   35.52    9.35
   7 -10   8   13.15    6.63
   7  10   8    1.09    3.75
   7 -10   9    5.12    2.41
   7  10   9    2.60    3.29
   7  10   9   -0.13    3.54
   7 -10  10    8.76    3.99
   7  10  10    4.15    2.81
   7  10  10    6.42    4.66
   7 -10  11   44.06    9.19
   7  10  11   34.38    7.68
   7  10  11   26.60    7.19
   7 -10  12    5.55    4.80
   7  10  12    7.94    3.71
   7  10  12    3.85    2.72
   8   0 -23   12.58    6.46
   8   0 -22   35.76    7.10
   8   0 -21  109.71   12.94
   8   0 -20   11.75    4.07
   8   0 -19   85.02   10.83
   8   0 -18  279.38   19.60
   8   0 -17  397.59   22.97
   8   0 -16   34.34    6.85
   8   0 -15  344.15   20.22
   8   0 -14  204.59   15.35
   8   0 -13   95.69    7.44
   8   0 -13  111.77   11.22
   8   0 -12  906.06   22.56
   8   0 -12  825.81   30.08
   8   0 -11  795.60   21.74
   8   0 -11  802.76   29.43
   8   0 -10   78.62    7.08
   8   0 -10   87.09    9.62
   8   0  -9 1479.82   30.75
   8   0  -9 1471.22   38.10
   8   0  -8 1085.14   32.51
   8   0  -8 1073.20   26.75
   8   0  -7   27.65    4.81
   8   0  -7   15.87    3.17
   8   0  -6  550.27   22.18
   8   0  -6  535.61   19.40
   8   0  -5   68.07    8.30
   8   0  -5   78.44    7.27
   8   0  -4  867.32   27.36
   8   0  -4  862.90   24.60
   8   0  -3 1989.39   41.05
   8   0  -3 1762.49   36.16
   8   0  -2  929.41   27.70
   8   0  -2  861.35   25.11
   8   0  -1  123.87   10.14
   8   0  -1  128.73    9.74
   8   0   0 1324.19   32.85
   8   0   0 1289.71   33.50
   8   0   0 1377.77   32.29
   8   0   1  122.54   10.31
   8   0   1  112.64    9.60
   8   0   1  125.10    9.83
   8   0   2  909.66   26.94
   8   0   2  862.03   27.22
   8   0   3 1955.95   41.70
   8   0   3 2024.90   39.62
   8   0   3 1918.14   39.66
   8   0   4  872.16   26.11
   8   0   4  898.16   27.90
   8   0   4  921.89   27.70
   8   0   5   81.81    8.13
   8   0   5   82.28    8.82
   8   0   5   81.66    8.58
   8   0   6  513.59   20.13
   8   0   6  530.15   22.02
   8   0   6  494.41   20.90
   8   0   7   20.97    4.00
   8   0   7   27.72    5.41
   8   0   7   20.50    4.40
   8   0   8 1124.47   29.75
   8   0   8 1035.76   31.41
   8   0   8 1098.97   31.98
   8   0   9 1565.77   35.30
   8   0   9 1555.12   38.64
   8   0  10  104.80    9.08
   8   0  10   66.59    8.01
   8   0  11  830.97   25.81
   8   0  11  765.91   27.86
   8   0  12  845.91   26.68
   8   0  12  835.57   30.21
   8   0  13  117.56   11.30
   8   0  13  113.11    9.83
   8   0  14  215.32   15.18
   8   0  15  326.29   19.36
   8   0  16   44.37    7.37
   8   0  17  403.78   22.66
   8   0  18  289.69   19.34
   8   0  19   65.80   10.02
   8   0  20   29.23    6.68
   8   0  21   86.57   11.42
   8   0  22   14.97    4.88
   8   0  23    5.08    5.17
   8   0  24   56.65    9.73
   8   0  25   52.28    9.58
   8   0  26  120.96   14.65
   8   0  27   63.78   11.69
   8  -1 -24   23.18    6.63
   8  -1 -23    4.14    3.08
   8   1 -22   22.78    5.85
   8  -1 -22   14.87    5.26
   8   1 -21    5.52    2.51
   8  -1 -21    1.93    2.25
   8   1 -20    3.69    4.00
   8  -1 -20   14.03    4.63
   8   1 -19   38.68    7.67
   8  -1 -19   28.24    6.41
   8  -1 -18   77.57   10.20
   8   1 -18   68.49   10.08
   8  -1 -17   74.84    9.99
   8   1 -17   71.36    9.71
   8  -1 -16   61.81    9.04
   8   1 -16   56.07    8.89
   8   1 -15   17.45    5.20
   8  -1 -15   15.72    4.35
   8  -1 -14    8.17    2.62
   8   1 -14    1.64    2.66
   8  -1 -14    3.12    2.35
   8  -1 -13    3.65    1.36
   8   1 -13    3.26    2.64
   8  -1 -12    3.47    1.22
   8   1 -12    6.52    1.92
   8  -1 -12    3.76    2.95
   8  -1 -11   41.40    6.93
   8   1 -11   56.73    7.78
   8  -1 -11   54.67    6.01
   8  -1 -10   35.69    5.57
   8   1 -10   36.91    6.71
   8  -1 -10   44.04    5.73
   8  -1  -9   24.69    4.03
   8  -1  -9   15.81    5.00
   8   1  -9   24.05    5.34
   8  -1  -8   56.94    7.45
   8   1  -8   54.07    7.21
   8  -1  -8   54.26    6.30
   8  -1  -7   69.23    8.19
   8   1  -7   64.86    8.06
   8  -1  -7   62.62    6.76
   8  -1  -6   10.89    2.86
   8  -1  -6   12.77    3.78
   8   1  -6   15.59    4.21
   8  -1  -5    9.69    2.61
   8  -1  -5   19.97    4.13
   8   1  -5   16.26    3.98
   8  -1  -4   28.28    4.88
   8  -1  -4   19.42    3.79
   8   1  -4   16.60    4.09
   8  -1  -3   67.40    7.73
   8   1  -3   69.23    7.83
   8  -1  -3   62.54    6.86
   8   1  -2  126.11   10.74
   8  -1  -2  127.20   10.35
   8  -1  -2  123.87    9.66
   8   1  -1  112.05    9.93
   8   1  -1  112.29    9.99
   8  -1  -1  102.95    9.20
   8  -1  -1   83.22    8.01
   8  -1   0   -0.28    1.75
   8  -1   0    1.86    1.42
   8   1   0    4.89    2.73
   8   1   0    2.93    2.10
   8   1   1  117.40    9.74
   8   1   1  102.92    9.73
   8  -1   1  109.65    9.51
   8  -1   1  104.23    9.21
   8  -1   1  118.12    9.61
   8   1   2  110.46   10.19
   8   1   2  117.44    9.84
   8  -1   2  122.37    9.78
   8  -1   2  111.37    9.60
   8  -1   2  131.68   10.39
   8   1   3   63.29    7.60
   8   1   3   80.63    8.29
   8  -1   3   61.00    6.75
   8  -1   3   62.42    7.09
   8  -1   3   76.88    7.95
   8  -1   4   22.46    3.99
   8  -1   4   15.71    3.75
   8   1   4   25.44    4.75
   8   1   4   21.02    4.83
   8  -1   4   15.18    3.59
   8  -1   5   13.03    3.41
   8   1   5   17.43    3.98
   8   1   5   16.35    3.74
   8  -1   5   11.82    3.37
   8  -1   5   10.42    2.51
   8  -1   6    9.45    2.73
   8   1   6   16.03    4.14
   8   1   6   15.03    4.24
   8  -1   6   21.35    4.66
   8  -1   6   17.45    3.52
   8   1   7   63.22    7.54
   8  -1   7   60.97    7.23
   8  -1   7   58.49    6.33
   8   1   7   66.57    8.25
   8  -1   7   66.96    8.03
   8   1   8   51.32    6.61
   8  -1   8   56.74    6.29
   8   1   8   50.20    7.02
   8  -1   8   62.36    7.11
   8  -1   8   46.39    7.24
   8   1   9   28.88    5.14
   8  -1   9   19.53    3.66
   8   1   9   30.71    5.83
   8  -1   9   17.63    4.56
   8  -1   9   19.23    4.51
   8   1  10   30.58    5.74
   8   1  10   33.07    6.32
   8  -1  10   49.08    5.86
   8  -1  10   27.21    4.90
   8  -1  10   30.94    6.01
   8   1  11   60.61    7.96
   8  -1  11   64.06    6.83
   8   1  11   48.09    6.89
   8  -1  11   73.45    8.38
   8  -1  11   68.04    8.58
   8  -1  12   13.49    4.79
   8   1  12    7.11    3.04
   8  -1  12    4.32    1.31
   8   1  12   13.79    3.74
   8  -1  12    2.64    1.72
   8   1  13   -0.57    1.79
   8  -1  13    5.60    2.68
   8   1  13    3.49    2.92
   8  -1  13    5.46    2.91
   8   1  14    8.64    3.13
   8  -1  14    7.30    3.37
   8   1  14    3.40    2.46
   8  -1  14    6.19    3.22
   8  -1  15   15.89    4.39
   8   1  15   15.27    4.52
   8  -1  16   52.66    7.47
   8   1  16   47.36    7.54
   8  -1  17   88.34   10.24
   8   1  17   77.56   10.13
   8   1  18   61.19    8.89
   8  -1  18   60.41    8.91
   8   1  19   22.97    5.99
   8  -1  19   29.43    6.83
   8   1  20    6.85    3.20
   8  -1  20   17.97    6.17
   8  -1  21    3.59    2.17
   8   1  21    1.21    2.36
   8  -1  22   18.35    6.29
   8   1  22   23.28    6.41
   8  -1  23  -11.96    4.27
   8   1  23   11.21    5.73
   8   1  24   29.00    6.96
   8   1  25    2.01    3.23
   8   1  26   27.74    6.68
   8   1  27   21.46    5.97
   8   1  28   12.11    2.92
   8  -2 -25   37.19    7.70
   8  -2 -24  122.30   14.83
   8  -2 -23   39.54    7.71
   8  -2 -22   48.93    8.97
   8  -2 -21  150.92   14.99
   8   2 -21  140.91   14.55
   8  -2 -20   18.96    4.87
   8   2 -20   16.77    5.89
   8  -2 -19   20.87    5.10
   8   2 -19   12.22    5.94
   8  -2 -18  154.64   14.75
   8   2 -18  139.87   14.08
   8  -2 -17  100.53   11.65
   8   2 -17  129.75   13.22
   8  -2 -16   79.91   10.04
   8   2 -16   88.74   10.89
   8  -2 -15  228.66   17.06
   8   2 -15  244.45   17.59
   8  -2 -14  113.61    9.61
   8  -2 -14  110.22   11.45
   8   2 -14  133.99   12.86
   8  -2 -13   34.53    5.02
   8  -2 -13   31.97    6.09
   8   2 -13   26.56    5.74
   8  -2 -12  208.98   12.71
   8  -2 -12  216.70   15.52
   8   2 -12  213.69   15.55
   8  -2 -11  363.52   17.26
   8  -2 -11  378.55   20.40
   8   2 -11  319.62   18.77
   8  -2 -10   67.04    7.08
   8  -2 -10   58.13    7.88
   8   2 -10   53.86    7.63
   8  -2  -9  148.49   10.75
   8  -2  -9  141.24   12.11
   8   2  -9  131.38   11.69
   8  -2  -8  258.35   14.27
   8  -2  -8  268.70   16.08
   8   2  -8  223.76   15.12
   8  -2  -7  158.02   11.45
   8  -2  -7  196.49   13.85
   8   2  -7  174.86   13.07
   8  -2  -6    9.17    3.28
   8   2  -6   11.72    2.99
   8  -2  -6   14.99    3.99
   8  -2  -5  301.43   16.85
   8   2  -5  299.54   16.80
   8  -2  -4  298.86   15.50
   8  -2  -4  341.99   17.65
   8   2  -4  345.84   18.01
   8  -2  -3  316.16   15.97
   8  -2  -3  302.23   16.44
   8   2  -3  306.13   16.95
   8  -2  -2  666.73   23.27
   8  -2  -2  648.23   23.78
   8   2  -2  642.85   24.27
   8   2  -2  685.03   25.77
   8  -2  -1  605.15   22.15
   8  -2  -1  584.61   22.56
   8   2  -1  558.07   22.98
   8   2  -1  576.78   23.52
   8  -2   0  216.46   13.33
   8  -2   0  201.10   12.75
   8   2   0  169.64   12.72
   8   2   0  186.42   13.58
   8  -2   1  595.54   22.43
   8  -2   1  589.77   21.68
   8   2   1  593.46   23.65
   8   2   1  570.84   23.65
   8  -2   2  629.73   23.39
   8  -2   2  697.88   23.76
   8   2   2  658.35   24.98
   8   2   2  628.35   24.81
   8  -2   2  685.98   23.14
   8   2   3  336.84   18.12
   8   2   3  331.19   18.13
   8  -2   3  340.93   16.34
   8  -2   3  319.04   15.74
   8  -2   3  315.00   16.84
   8  -2   4  377.79   16.98
   8   2   4  331.71   17.97
   8   2   4  353.25   19.07
   8  -2   4  355.22   16.24
   8  -2   4  351.38   17.85
   8   2   5  297.51   17.18
   8   2   5  282.66   16.88
   8  -2   5  291.67   14.90
   8  -2   5  300.25   14.96
   8  -2   5  264.07   15.67
   8  -2   6    9.87    2.94
   8   2   6   11.36    3.39
   8   2   6   17.73    4.45
   8  -2   6   15.05    3.51
   8  -2   6   10.11    3.55
   8   2   7  185.72   13.46
   8   2   7  160.25   13.01
   8  -2   7  192.24   11.68
   8  -2   7  175.30   11.82
   8  -2   7  166.38   12.49
   8   2   8  250.33   16.15
   8  -2   8  256.29   13.50
   8  -2   8  259.97   14.45
   8   2   8  258.48   16.61
   8  -2   8  241.23   15.39
   8   2   9  148.18   12.44
   8  -2   9  151.24   10.05
   8  -2   9  143.55   10.87
   8  -2   9  149.71   12.04
   8   2   9  162.41   13.45
   8   2  10   49.77    7.41
   8  -2  10   50.34    5.53
   8  -2  10   56.38    6.86
   8  -2  10   51.49    7.46
   8   2  10   55.89    7.73
   8  -2  11  388.32   18.67
   8   2  11  391.99   21.14
   8  -2  11  371.88   19.63
   8   2  11  339.99   19.17
   8  -2  12  205.12   13.60
   8   2  12  164.73   14.69
   8  -2  12  196.51   14.50
   8   2  12  202.34   14.74
   8   2  13   33.10    7.32
   8   2  13   40.76    6.75
   8  -2  13   37.46    6.62
   8  -2  13   30.89    5.54
   8  -2  14  110.38   10.62
   8   2  14  125.38   12.67
   8   2  14  111.95   11.42
   8  -2  14  126.47   11.74
   8  -2  15  241.13   15.97
   8   2  15  248.57   17.94
   8   2  15  257.62   17.28
   8  -2  15  259.31   17.49
   8  -2  16  102.27   10.47
   8   2  16   80.65   10.53
   8  -2  16   94.40   10.84
   8  -2  17   90.42   10.11
   8   2  17  108.13   11.84
   8  -2  17  102.07   11.58
   8   2  18  159.83   15.20
   8   2  19   16.56    5.08
   8   2  20   32.86    7.50
   8   2  21  111.66   12.75
   8   2  22   34.80    7.95
   8   2  23   40.54    7.73
   8   2  24  100.83   12.71
   8   2  25   52.33   10.03
   8   2  26   27.83    7.70
   8   2  27   86.31   12.47
   8   2  28   55.00   10.04
   8  -3 -26    2.30    4.53
   8  -3 -25    2.65    4.35
   8  -3 -24   17.91    5.57
   8  -3 -23    1.08    2.18
   8  -3 -22   12.18    5.30
   8  -3 -21    3.65    3.23
   8  -3 -20    3.98    3.14
   8   3 -19   28.03    5.98
   8  -3 -19   15.23    4.66
   8   3 -18   33.92    7.37
   8  -3 -18   29.29    5.52
   8  -3 -17  210.99   16.96
   8   3 -17  198.04   16.70
   8   3 -16  169.95   14.82
   8  -3 -16  180.82   15.69
   8  -3 -15   93.30    9.79
   8   3 -15   96.35   11.57
   8  -3 -15   95.19   11.13
   8  -3 -14   66.65    8.27
   8   3 -14   94.94   11.05
   8  -3 -14   73.63    9.24
   8  -3 -13   70.55    8.28
   8   3 -13   62.19    9.24
   8  -3 -13   64.10    9.25
   8  -3 -12    4.42    3.58
   8  -3 -12    2.67    2.20
   8   3 -12    4.63    2.51
   8  -3 -11   64.91    7.82
   8   3 -11   58.66    7.92
   8  -3 -11   52.26    8.02
   8  -3 -10   81.12    8.52
   8   3 -10   80.38    9.69
   8  -3 -10   92.69   10.30
   8  -3  -9   65.77    7.36
   8   3  -9   65.04    8.19
   8  -3  -9   70.60    8.72
   8  -3  -8   80.69    8.51
   8   3  -8   87.58    9.56
   8  -3  -8   93.96    9.95
   8  -3  -7  103.50    9.83
   8   3  -7  109.80   10.83
   8  -3  -7  126.62   11.39
   8  -3  -6   37.04    6.03
   8   3  -6   37.42    6.19
   8  -3  -6   37.32    6.24
   8  -3  -5   19.95    4.61
   8  -3  -5   24.73    4.64
   8   3  -5   20.66    5.02
   8  -3  -4    0.22    1.17
   8  -3  -4    0.34    1.12
   8   3  -4   -0.57    1.62
   8   3  -4    2.10    2.37
   8  -3  -3   54.46    7.47
   8   3  -3   47.42    7.10
   8  -3  -3   63.84    7.76
   8   3  -3   50.59    7.34
   8  -3  -2   54.57    7.33
   8   3  -2   60.14    7.76
   8  -3  -2   62.10    7.67
   8   3  -2   43.22    6.61
   8  -3  -1   18.39    4.31
   8  -3  -1   30.34    5.04
   8   3  -1   21.39    5.16
   8   3  -1   29.84    5.72
   8  -3   0    7.77    3.24
   8   3   0    3.62    2.60
   8   3   0    3.31    2.49
   8  -3   0    3.00    1.61
   8   3   1   22.33    5.18
   8   3   1   31.92    5.88
   8  -3   1   20.58    3.96
   8   3   2   57.33    7.65
   8  -3   2   52.53    6.55
   8   3   2   63.23    7.99
   8  -3   2   65.61    6.85
   8  -3   3   51.46    6.85
   8   3   3   53.80    7.32
   8  -3   3   55.58    6.75
   8   3   3   51.71    7.46
   8  -3   3   51.15    5.90
   8  -3   4    1.06    1.31
   8   3   4    1.38    2.07
   8  -3   4   -0.11    1.05
   8   3   4   -0.85    2.62
   8  -3   4    3.26    2.10
   8  -3   5   16.17    4.21
   8  -3   5   14.53    2.75
   8   3   5    9.25    3.29
   8  -3   5   18.10    3.88
   8   3   5   13.56    4.10
   8  -3   6   41.89    6.64
   8   3   6   34.23    6.64
   8   3   6   49.65    7.44
   8  -3   6   32.93    4.68
   8  -3   6   41.79    5.55
   8  -3   7  112.12   10.68
   8   3   7  114.93   11.32
   8   3   7  113.31   11.32
   8  -3   7  117.56    9.02
   8  -3   7  109.90    9.18
   8   3   8  105.33   11.00
   8  -3   8   73.43    7.31
   8  -3   8   95.43    8.25
   8   3   8   95.94   10.36
   8  -3   8  100.27   10.07
   8  -3   9   64.50    6.68
   8  -3   9   61.18    6.96
   8   3   9   84.12    9.82
   8   3   9   66.21    8.76
   8  -3   9   80.65    9.17
   8  -3  10   71.17    7.57
   8   3  10   79.46    9.63
   8   3  10   75.67    9.48
   8  -3  10   74.41    8.78
   8   3  11   48.26    7.69
   8  -3  11   55.13    6.97
   8   3  11   63.09    9.36
   8  -3  11   56.26    7.84
   8  -3  12    2.63    2.28
   8   3  12   -0.72    1.49
   8   3  12    5.92    3.55
   8   3  13   67.33    8.89
   8   3  13   58.47    8.70
   8  -3  13   79.18    9.87
   8   3  14   78.66   10.06
   8   3  14   86.58   10.40
   8  -3  14   82.01    9.75
   8   3  15   76.36   10.45
   8   3  15   99.55   11.44
   8  -3  15   78.10   10.08
   8   3  16  180.99   15.65
   8   3  16  182.45   16.07
   8  -3  16  164.46   14.44
   8   3  17  223.04   17.38
   8   3  17  208.52   16.83
   8  -3  17  190.47   16.00
   8   3  18   29.54    7.08
   8  -3  18   36.35    7.70
   8   3  19   19.47    5.58
   8  -3  19   50.10    9.41
   8   3  20   -1.12    2.91
   8   3  21   -1.14    3.42
   8   3  22    9.39    2.97
   8   3  23    2.89    3.20
   8   3  24   12.31    5.41
   8   3  25    1.31    3.00
   8   3  26    7.30    4.99
   8   3  27    3.17    3.83
   8  -4 -26    6.56    5.85
   8  -4 -25   50.59    9.19
   8  -4 -24  126.13   14.81
   8  -4 -23    8.38    4.60
   8  -4 -22   56.30    8.93
   8  -4 -21   87.59   11.55
   8  -4 -20    4.46    2.39
   8  -4 -19   16.11    4.66
   8  -4 -18   56.28    9.31
   8   4 -18   49.63    9.06
   8  -4 -17   19.63    6.42
   8   4 -17   21.46    6.04
   8  -4 -16  192.33   15.17
   8   4 -16  211.62   17.14
   8  -4 -16  216.06   17.50
   8  -4 -15  278.10   18.20
   8   4 -15  277.40   19.40
   8  -4 -15  252.01   18.64
   8  -4 -14  108.62   10.96
   8   4 -14  101.16   11.89
   8  -4 -14  123.03   12.43
   8  -4 -13   71.20    8.94
   8   4 -13   98.54   11.70
   8  -4 -13   98.79   11.50
   8  -4 -12   56.31    8.07
   8   4 -12   46.40    7.85
   8  -4 -12   57.95    8.35
   8  -4 -11  175.35   13.68
   8   4 -11  155.56   13.86
   8  -4 -11  140.20   13.00
   8  -4 -10   72.93    9.05
   8   4 -10   51.03    8.04
   8  -4 -10   57.30    8.41
   8  -4  -9   37.88    6.64
   8   4  -9   47.74    7.58
   8  -4  -9   45.16    7.30
   8  -4  -8   31.03    5.94
   8  -4  -8   16.15    4.04
   8   4  -8   24.72    5.95
   8  -4  -7  160.30   13.18
   8   4  -7  169.34   14.38
   8  -4  -7  157.52   12.88
   8   4  -7  158.91   14.06
   8  -4  -6   15.70    4.55
   8   4  -6   36.56    7.14
   8  -4  -6   30.70    5.84
   8   4  -6   26.93    4.83
   8  -4  -5  498.03   22.54
   8   4  -5  447.40   22.89
   8  -4  -5  507.33   23.49
   8   4  -5  496.46   24.07
   8  -4  -4  318.85   17.96
   8   4  -4  327.80   19.56
   8  -4  -4  317.84   18.07
   8   4  -4  305.00   18.63
   8  -4  -3   63.06    8.24
   8   4  -3   69.67    8.83
   8  -4  -3   60.83    7.87
   8   4  -3   67.79    8.73
   8  -4  -2  533.65   23.86
   8   4  -2  556.56   25.33
   8   4  -2  501.41   23.78
   8  -4  -2  506.04   22.61
   8  -4  -1  701.49   26.88
   8   4  -1  765.42   29.65
   8  -4  -1  742.97   27.10
   8   4  -1  766.95   29.35
   8  -4   0   63.31    8.38
   8   4   0   59.66    8.85
   8  -4   0   65.70    7.79
   8   4   0   70.10    8.70
   8  -4   1  772.53   28.14
   8   4   1  782.50   30.18
   8  -4   1  774.78   26.98
   8   4   1  792.52   30.08
   8   4   2  517.71   24.63
   8  -4   2  500.82   22.70
   8  -4   2  508.74   21.48
   8   4   2  545.28   24.89
   8   4   3   52.76    8.66
   8  -4   3   59.01    7.97
   8  -4   3   63.67    7.62
   8   4   3   77.12    9.28
   8  -4   3   66.53    6.87
   8   4   4  333.10   20.02
   8  -4   4  303.27   17.90
   8  -4   4  319.33   16.48
   8   4   4  303.68   18.83
   8  -4   4  295.45   13.87
   8   4   5  496.85   24.97
   8  -4   5  515.13   23.47
   8  -4   5  491.63   20.41
   8   4   5  457.10   23.09
   8  -4   5  497.12   17.58
   8  -4   6   27.23    4.80
   8  -4   6   20.07    5.38
   8   4   6   29.60    6.48
   8   4   6   27.81    5.48
   8  -4   7  149.25   12.52
   8  -4   7  132.37   10.46
   8   4   7  147.24   13.65
   8  -4   8   28.67    5.70
   8   4   8   24.12    5.83
   8  -4   8   22.63    3.93
   8   4   8   20.41    5.46
   8  -4   9   45.63    7.14
   8   4   9   46.23    7.35
   8   4   9   47.20    7.87
   8  -4  10   71.56    8.95
   8   4  10   48.52    7.62
   8   4  10   74.39    9.82
   8   4  11  151.36   13.94
   8   4  11  194.39   16.38
   8  -4  11  187.45   14.76
   8  -4  12   34.97    6.34
   8   4  12   44.24    7.87
   8   4  12   48.42    8.36
   8   4  13   88.27   11.01
   8   4  13   92.46   11.23
   8  -4  13   79.22    9.96
   8   4  14   95.95   11.67
   8   4  14   89.66   11.25
   8  -4  14  113.12   11.67
   8   4  15  267.71   19.80
   8   4  15  249.43   18.42
   8  -4  15  252.94   18.44
   8   4  16  168.88   15.51
   8   4  16  181.82   16.13
   8  -4  16  180.34   15.59
   8  -4  17   19.25    6.00
   8   4  17   13.06    5.33
   8   4  17   13.60    5.17
   8   4  18   48.99    9.68
   8   4  18   40.46    7.37
   8  -4  18   46.17    8.03
   8   4  19   25.48    7.03
   8   4  20    1.18    1.64
   8   4  21   88.41   11.75
   8   4  22   62.98   10.75
   8   4  23   20.53    5.71
   8   4  24  125.84   14.69
   8   4  25   53.37    9.16
   8   4  26    6.50    4.92
   8  -5 -25    2.13    3.93
   8  -5 -24    2.36    4.12
   8  -5 -23    1.82    3.76
   8  -5 -22    1.47    4.13
   8  -5 -21   14.80    5.17
   8  -5 -20    0.52    3.21
   8  -5 -19   20.11    5.20
   8  -5 -18   22.05    6.25
   8  -5 -17   38.43    7.87
   8   5 -17   28.40    6.83
   8  -5 -16   74.23   10.13
   8   5 -16   78.36   10.84
   8  -5 -16   77.56   11.56
   8  -5 -15   96.19   11.15
   8   5 -15   78.73   10.66
   8  -5 -14   54.58    8.34
   8   5 -14   51.91    9.33
   8  -5 -14   59.78    8.89
   8  -5 -13   31.29    5.85
   8   5 -13   38.91    7.47
   8  -5 -13   33.43    7.25
   8  -5 -12   40.77    7.49
   8   5 -12   37.14    7.64
   8  -5 -12   20.52    5.37
   8  -5 -11   27.60    5.69
   8   5 -11   20.94    5.70
   8  -5 -11   23.57    5.88
   8  -5 -10   -2.54    1.76
   8   5 -10   -2.55    3.45
   8  -5 -10    1.59    2.01
   8   5 -10   -1.76    2.28
   8  -5  -9   13.37    3.98
   8   5  -9    9.58    3.64
   8  -5  -9   17.40    4.37
   8   5  -9   13.65    3.59
   8  -5  -8   27.61    5.47
   8   5  -8   36.88    6.86
   8  -5  -8   33.11    6.40
   8   5  -8   26.63    6.61
   8   5  -7   77.37   10.49
   8  -5  -7  105.20   10.90
   8   5  -7   93.11   10.90
   8  -5  -7  108.16   11.30
   8  -5  -6   40.86    7.39
   8   5  -6   34.85    7.16
   8  -5  -6   36.10    6.41
   8   5  -6   33.14    6.41
   8   5  -5   35.88    7.88
   8  -5  -5   31.59    6.48
   8  -5  -5   36.02    6.71
   8   5  -5   27.69    6.44
   8   5  -4  101.48   11.76
   8  -5  -4  108.20   11.07
   8   5  -4  119.28   12.14
   8  -5  -4  122.70   11.87
   8   5  -3  108.18   11.89
   8  -5  -3   96.48   10.57
   8  -5  -3   89.09    9.81
   8   5  -3   85.54   10.16
   8   5  -2   50.67    8.29
   8  -5  -2   41.87    6.60
   8   5  -2   42.73    7.74
   8  -5  -2   41.50    7.12
   8  -5  -1   16.76    4.13
   8   5  -1   22.70    5.26
   8  -5  -1   28.44    5.61
   8   5  -1   31.56    6.27
   8   5   0   50.01    8.26
   8  -5   0   37.22    6.03
   8   5   0   49.67    7.96
   8  -5   0   44.06    6.45
   8  -5   1   23.40    4.77
   8   5   1   29.65    5.91
   8  -5   1   31.16    5.90
   8   5   1   25.64    5.40
   8   5   2   35.78    6.74
   8  -5   2   35.47    5.77
   8   5   2   46.86    7.45
   8  -5   3   89.98    9.86
   8   5   3   89.74   10.68
   8  -5   3   98.66   10.20
   8   5   3  113.99   12.16
   8  -5   4  126.50   12.07
   8  -5   4  111.06   10.50
   8   5   4   89.55   10.49
   8   5   4   96.23   11.34
   8   5   5   39.55    7.10
   8  -5   5   22.87    5.50
   8   5   5   30.77    6.10
   8  -5   5   39.14    6.14
   8  -5   6   41.03    7.26
   8   5   6   30.40    6.91
   8  -5   6   36.78    6.22
   8   5   6   42.39    7.53
   8  -5   7  115.99   11.82
   8  -5   7   91.46    9.06
   8   5   7  122.19   12.67
   8   5   7  102.16   12.10
   8  -5   8   24.45    5.62
   8   5   8   39.93    7.39
   8   5   9    9.13    3.55
   8  -5   9   16.04    5.04
   8   5   9   11.82    4.93
   8   5  10    1.25    1.69
   8  -5  10    2.34    1.33
   8   5  10   -1.72    2.63
   8  -5  11   21.88    5.36
   8   5  11   24.68    5.99
   8   5  11   31.39    7.01
   8  -5  12   32.60    6.36
   8   5  12   29.99    6.06
   8   5  12   30.58    6.56
   8  -5  13   31.11    6.84
   8   5  13   33.20    7.35
   8   5  13   23.75    6.37
   8   5  14   41.95    7.58
   8   5  14   60.55   10.21
   8   5  15   95.91   11.74
   8   5  15   64.99   10.38
   8  -5  15   70.17    9.73
   8   5  16   88.30   11.22
   8   5  16   77.84   11.41
   8  -5  16   78.47   10.61
   8  -5  17   28.49    7.12
   8   5  17   29.88    6.64
   8   5  17   31.02    6.99
   8   5  18   10.03    4.69
   8   5  18   28.41    7.41
   8   5  19   11.13    3.44
   8   5  19    7.66    3.52
   8   5  20   -1.68    2.09
   8   5  21    7.07    3.05
   8   5  22    4.09    3.75
   8   5  23    4.38    2.52
   8   5  24    2.65    3.33
   8   5  25   -0.66    2.09
   8  -6 -23    3.33    3.66
   8  -6 -22    2.16    2.86
   8  -6 -21   56.96   10.60
   8  -6 -20   22.47    6.59
   8  -6 -19   41.85    8.57
   8  -6 -18   84.37   11.69
   8  -6 -17   68.09   10.03
   8  -6 -17   47.42    8.51
   8  -6 -16   32.74    6.39
   8   6 -16   29.15    7.46
   8  -6 -16   23.60    6.84
   8   6 -15  164.92   16.65
   8  -6 -15  180.00   16.16
   8  -6 -15  175.46   15.93
   8   6 -14   83.55   11.91
   8   6 -14  119.21   13.97
   8  -6 -14   98.16   11.50
   8  -6 -14  103.64   12.55
   8  -6 -13    1.54    2.48
   8   6 -13   -1.24    2.87
   8  -6 -13    5.32    3.27
   8   6 -12  122.43   13.94
   8  -6 -12   99.22   12.02
   8   6 -12  115.14   13.77
   8  -6 -12  122.76   13.37
   8   6 -11  208.87   17.79
   8  -6 -11  223.98   17.14
   8   6 -11  208.22   17.37
   8  -6 -11  221.20   17.61
   8   6 -10   32.83    7.51
   8  -6 -10   31.05    6.55
   8  -6 -10   31.92    6.43
   8   6 -10   34.12    7.35
   8   6  -9  137.06   14.28
   8  -6  -9  120.56   12.47
   8   6  -9  134.22   13.82
   8  -6  -9  149.81   14.15
   8   6  -8  110.78   12.63
   8  -6  -8   91.75   10.90
   8   6  -8   76.19   10.76
   8  -6  -8   94.58   11.28
   8   6  -7   46.70    8.40
   8  -6  -7   38.98    7.42
   8   6  -7   43.66    8.09
   8  -6  -7   44.69    7.45
   8   6  -6  279.35   20.08
   8  -6  -6  221.01   16.70
   8  -6  -6  261.98   18.30
   8   6  -6  270.29   19.05
   8   6  -5  343.38   22.24
   8   6  -5  361.38   22.23
   8  -6  -5  337.24   20.60
   8  -6  -5  356.95   21.18
   8   6  -4   46.25    8.48
   8  -6  -4   48.82    7.90
   8   6  -4   37.16    7.22
   8  -6  -4   58.11    8.57
   8  -6  -3   75.58    9.55
   8   6  -3   75.87   10.70
   8  -6  -3   82.30   10.09
   8   6  -3   68.88    9.82
   8  -6  -2  131.83   12.55
   8   6  -2  110.63   12.01
   8   6  -2  122.28   12.90
   8  -6  -2  118.72   12.16
   8  -6  -1  126.32   12.43
   8   6  -1  110.81   11.85
   8  -6  -1  146.71   13.26
   8   6  -1  131.76   13.64
   8  -6   0  100.05   11.34
   8   6   0  107.63   12.36
   8  -6   0  129.47   12.15
   8   6   0  126.45   13.25
   8  -6   1  132.94   12.76
   8   6   1  112.15   11.95
   8  -6   1  136.06   12.56
   8   6   1  116.90   12.72
   8   6   2   99.77   10.90
   8  -6   2  123.67   12.01
   8  -6   2  112.22   11.25
   8  -6   3   65.12    9.08
   8   6   3   81.99   10.57
   8  -6   3   84.65    9.88
   8   6   3   77.80   10.80
   8  -6   4   51.24    7.79
   8  -6   4   39.31    6.42
   8   6   4   42.84    7.84
   8   6   4   39.38    8.20
   8  -6   5  323.55   20.32
   8   6   5  365.19   22.13
   8  -6   5  328.76   19.16
   8   6   5  346.22   22.55
   8  -6   6  266.26   18.46
   8  -6   6  250.24   16.91
  -8  -6   6  288.75   18.34
   8   6   6  271.28   19.11
   8   6   6  278.28   20.20
   8   6   7   31.10    7.23
   8  -6   7   36.70    7.42
  -8  -6   7   35.42    6.29
   8   6   7   24.96    5.82
   8  -6   8  106.18   11.60
   8   6   8   86.34   11.49
  -8  -6   8   80.26    9.38
   8   6   8   88.15   11.05
   8  -6   9  153.59   14.56
  -8  -6   9  135.06   12.65
   8   6   9  130.05   13.54
   8   6   9  140.99   14.32
   8  -6  10   19.73    5.75
   8   6  10   26.23    6.40
   8   6  10   26.48    7.09
   8  -6  11  171.81   15.46
   8   6  11  209.70   17.24
   8   6  11  179.18   17.08
   8  -6  12   92.31   11.54
   8   6  12  114.04   12.25
   8   6  12  113.34   13.23
   8  -6  13   11.97    4.89
   8   6  13    4.87    3.19
   8   6  13    7.58    3.78
   8  -6  14  127.83   13.89
   8   6  14  106.19   12.71
   8   6  14   96.03   12.80
   8   6  15  186.22   16.70
   8   6  15  157.25   16.50
   8  -6  15  176.98   16.15
   8  -6  16   34.82    7.37
   8   6  16   21.21    4.79
   8   6  16   26.66    7.18
   8   6  17   65.11   10.63
   8   6  17   70.78   11.11
   8  -6  17   74.80   11.74
   8   6  18   80.32   11.98
   8   6  18   66.64   10.94
   8   6  19   37.74    8.02
   8   6  19   33.99    8.68
   8   6  20   26.88    6.46
   8   6  20    9.06    5.97
   8   6  21   49.06    9.84
   8   6  22   12.66    4.52
   8   6  23    6.73    4.13
   8  -7 -21   17.23    7.00
  -8  -7 -21   14.39    6.75
   8  -7 -20    8.44    6.04
  -8  -7 -20    1.59    2.96
   8  -7 -19    2.66    2.35
  -8  -7 -19   -0.66    4.28
   8  -7 -18   19.09    6.35
  -8  -7 -18   10.61    3.12
   8  -7 -17    4.13    2.87
   8  -7 -17   11.25    5.07
   8  -7 -16    7.54    4.85
   8  -7 -16    6.28    4.35
   8  -7 -15   -0.65    4.74
   8  -7 -15    0.28    2.37
   8   7 -14    5.80    3.82
   8  -7 -14    2.32    2.65
   8  -7 -14    2.90    3.22
   8   7 -13   19.04    6.38
   8  -7 -13   24.41    6.79
   8  -7 -13   24.65    6.08
   8  -7 -12   52.05    9.10
   8   7 -12   62.79   10.41
   8  -7 -12   56.70    9.23
   8  -7 -11  103.79   12.55
   8   7 -11   78.54   11.59
   8   7 -11   84.59   11.42
   8  -7 -11   92.42   11.52
   8  -7 -10   52.69    8.91
   8   7 -10   32.03    6.59
   8  -7 -10   46.25    8.27
   8   7 -10   45.36    8.67
   8   7  -9    1.43    2.82
   8  -7  -9    0.32    2.22
   8   7  -9    3.45    2.56
   8  -7  -9    2.20    1.86
   8  -7  -8   79.58   10.70
   8  -7  -8   76.76   11.05
   8   7  -8   71.43   11.16
   8   7  -8   70.24   10.88
   8  -7  -7   83.13   11.10
   8  -7  -7   62.70    9.50
   8   7  -7   62.30    9.50
   8   7  -6   21.07    5.72
   8  -7  -6   12.90    3.89
   8   7  -6   11.38    3.92
   8  -7  -6   21.54    5.40
   8  -7  -5  103.91   12.05
   8  -7  -5   95.95   11.39
   8   7  -5  113.91   13.00
   8   7  -5  133.84   14.48
   8  -7  -4   57.67    8.80
   8  -7  -4   73.59    9.59
   8   7  -4   52.34    8.99
   8   7  -4   55.19   10.12
   8  -7  -3   93.30   11.57
   8  -7  -3  103.60   11.70
   8   7  -3   97.52   11.36
   8   7  -3   92.20   12.45
   8  -7  -2   79.01   10.24
   8  -7  -2   64.54    9.59
   8   7  -2   62.71    9.29
   8   7  -2   80.39   11.12
   8  -7  -1  111.02   12.11
   8   7  -1  110.68   12.70
   8   7  -1  105.35   12.48
   8  -7  -1   97.57   11.47
   8  -7   0  159.63   14.78
   8   7   0  175.29   15.98
   8   7   0  119.27   13.76
   8  -7   0  146.89   13.79
   8  -7   1  120.25   12.60
  -8  -7   1  117.85   12.52
   8   7   1  100.96   12.00
   8   7   1  109.17   14.07
   8  -7   1  108.97   12.11
   8  -7   2   83.69   10.21
  -8  -7   2   63.25    9.24
   8   7   2   92.43   11.70
   8   7   2   66.73    9.76
   8  -7   2   60.59    8.95
   8  -7   3   91.05   10.64
  -8  -7   3   99.31   11.70
   8   7   3   85.29   11.26
   8   7   3   97.10   13.03
   8  -7   3   90.29   10.79
   8  -7   4   62.26    9.37
  -8  -7   4   66.34    9.37
   8   7   4   74.54   10.70
   8  -7   4   49.50    8.01
   8   7   4   61.81   10.16
   8  -7   5  148.67   14.64
  -8  -7   5  112.92   12.50
   8   7   5  126.77   13.49
   8  -7   5  125.54   13.18
   8   7   5  108.15   12.88
   8  -7   6   32.88    6.78
  -8  -7   6   26.25    5.93
   8   7   6   16.42    4.80
   8   7   6   18.27    5.35
   8  -7   7   78.07   10.80
  -8  -7   7   63.29    9.44
   8   7   7   72.88   10.76
   8   7   7   58.13    9.21
   8  -7   8   76.11   10.91
  -8  -7   8   60.40    9.18
   8   7   8   82.82   11.34
   8   7   8   72.76   10.68
   8  -7   9    1.98    2.46
   8   7   9    6.23    3.97
   8   7   9    8.65    3.52
   8  -7  10   38.07    8.25
   8   7  10   51.78    9.12
   8   7  10   44.58    8.14
   8  -7  11   83.21   11.40
   8   7  11  110.68   13.29
   8   7  11   95.03   12.82
   8  -7  12   64.84   10.15
   8   7  12   65.04    9.97
   8   7  12   65.05   10.56
   8  -7  13   26.00    6.53
   8   7  13   16.11    5.02
   8   7  13    5.85    3.21
   8  -7  14    8.93    4.43
   8   7  14    9.10    4.34
   8   7  14    5.69    4.39
   8  -7  15    8.51    5.44
   8   7  15    2.86    4.65
   8   7  15    0.56    2.27
   8  -7  16    4.96    3.82
   8   7  16    5.90    3.49
   8   7  16    8.47    5.00
   8   7  17    4.69    2.98
   8   7  17    7.25    4.30
   8   7  18   15.49    4.52
   8   7  18   10.15    4.72
   8   7  19    0.53    4.66
   8   7  19    4.05    3.63
   8   7  20    7.04    4.40
   8   7  20   11.20    5.44
   8   7  21    6.63    4.21
   8   7  21    2.20    2.64
   8  -8 -19    8.19    4.98
  -8  -8 -19   20.74    6.73
  -8  -8 -18   44.68    8.36
   8  -8 -18   54.66    9.31
   8  -8 -17  101.02   13.08
  -8  -8 -17  114.73   14.09
  -8  -8 -16    1.61    3.18
   8  -8 -16    8.71    5.36
  -8  -8 -15   26.75    7.17
   8  -8 -15   45.42    8.97
   8  -8 -15   35.09    8.10
   8  -8 -14   24.31    6.21
  -8  -8 -14   35.62    7.86
   8  -8 -14   42.19    8.89
   8   8 -13   -1.42    4.75
   8  -8 -13    1.77    3.66
  -8  -8 -13   11.55    5.06
   8  -8 -13    5.59    4.44
   8  -8 -12   92.25   12.19
   8  -8 -12   81.34   11.46
  -8  -8 -12  116.45   13.63
   8   8 -12  100.77   13.32
   8  -8 -11  157.81   15.54
   8  -8 -11  176.17   16.61
  -8  -8 -11  161.36   15.73
   8   8 -11  138.87   15.92
   8   8 -10   11.01    5.15
   8  -8 -10   17.81    4.79
  -8  -8 -10   16.46    6.01
   8  -8 -10   15.44    5.08
   8  -8  -9   85.55   12.02
   8  -8  -9   99.57   12.38
  -8  -8  -9  109.84   12.49
   8   8  -9  107.95   14.05
   8  -8  -8  137.18   14.42
   8  -8  -8  132.47   14.16
  -8  -8  -8  118.50   13.07
   8   8  -8   89.51   12.76
   8  -8  -7   26.20    6.64
   8   8  -7   32.45    7.95
   8  -8  -7   32.09    6.82
  -8  -8  -7   40.19    7.42
   8  -8  -6   35.52    7.90
   8   8  -6   36.02    7.88
   8  -8  -6   40.71    7.98
  -8  -8  -6   41.33    8.47
   8  -8  -5  132.04   14.29
   8  -8  -5  123.93   13.36
  -8  -8  -5  144.57   14.61
   8   8  -5  121.90   13.96
   8   8  -5  123.59   14.80
   8  -8  -4   32.28    7.01
   8   8  -4   42.56    8.18
   8  -8  -4   48.99    8.93
  -8  -8  -4   31.64    6.68
   8   8  -4   40.73    9.05
   8  -8  -3    8.88    3.50
   8   8  -3   16.02    3.97
   8  -8  -3   13.61    4.60
  -8  -8  -3    6.77    2.32
   8   8  -3    3.92    2.64
   8  -8  -2   71.50   10.08
   8  -8  -2   72.65   10.50
  -8  -8  -2   72.68   10.44
   8   8  -2   66.36   10.09
   8   8  -2   62.26   10.04
   8  -8  -1   55.54    8.71
   8  -8  -1   53.39    9.00
  -8  -8  -1   64.64    9.42
   8   8  -1   53.19    9.28
   8   8  -1   56.09   10.20
   8   8   0   -0.81    4.10
   8  -8   0   10.91    5.21
  -8  -8   0    2.33    1.57
   8   8   0   12.67    4.83
   8  -8   0    9.47    3.17
   8   8   1   41.99    8.67
   8  -8   1   56.70    8.91
   8  -8   1   49.53    8.99
  -8  -8   1   55.67    9.23
   8   8   1   65.10   10.57
   8  -8   2   79.16   10.99
  -8  -8   2   66.71   10.38
   8   8   2   85.35   11.73
   8   8   2   60.01   10.02
   8  -8   2   70.83    9.85
   8  -8   3    2.32    2.16
  -8  -8   3   16.42    4.82
   8   8   3   11.08    4.31
   8  -8   3   11.50    4.62
   8   8   3   12.40    6.21
   8  -8   4   32.35    6.86
  -8  -8   4   27.26    6.51
   8   8   4   24.70    6.12
   8   8   4   35.01    7.80
   8  -8   5  133.86   14.18
   8   8   5  107.15   13.08
  -8  -8   5  169.18   15.90
   8   8   5  146.70   15.99
   8  -8   6   27.24    6.57
  -8  -8   6   30.97    7.36
   8   8   6   33.18    7.68
   8   8   6   53.81    9.37
   8  -8   7   31.42    7.38
  -8  -8   7   37.00    7.62
   8   8   7   24.42    6.82
   8   8   7   32.50    7.54
   8  -8   8  144.44   14.63
   8   8   8   99.87   12.89
   8   8   8  113.88   13.80
   8  -8   9   88.61   11.87
   8   8   9   84.91   11.63
   8   8   9   97.38   12.62
   8  -8  10   10.36    5.09
   8   8  10    4.97    3.01
   8   8  10   15.12    5.18
   8  -8  11  142.75   15.46
   8   8  11  119.92   13.59
   8   8  11  148.25   16.62
   8  -8  12   96.48   13.17
   8   8  12  108.47   13.81
   8   8  12  119.92   14.34
   8   8  13    8.16    5.30
   8  -8  13    6.55    4.85
   8   8  13   22.32    7.84
   8   8  14   31.10    7.39
   8   8  14   36.80    8.00
   8  -8  15   25.83    7.71
   8   8  15   34.71    8.18
   8   8  15   37.08    8.80
   8   8  16    2.40    2.90
   8   8  16   12.36    6.48
   8   8  17  129.60   14.83
   8   8  17  114.46   15.04
   8   8  18   56.74   10.51
   8   8  18   58.74   10.74
   8   8  19   16.03    6.51
   8   8  19    5.30    2.71
   8  -9 -15   23.96    6.75
  -8  -9 -15   19.35    6.18
   8  -9 -15   26.00    6.68
   8  -9 -14   17.17    6.28
  -8  -9 -14   24.79    7.44
   8  -9 -14   27.17    7.43
   8  -9 -13   27.51    6.45
  -8  -9 -13   32.85    7.74
   8  -9 -13   28.23    6.58
   8  -9 -12   12.69    6.37
  -8  -9 -12   22.55    7.16
   8  -9 -12   25.95    6.34
   8   9 -11   13.79    6.20
   8  -9 -11   14.74    5.56
  -8  -9 -11   17.06    5.66
   8  -9 -11   14.63    4.49
   8  -9 -10   21.78    6.26
   8   9 -10   40.80    9.45
   8  -9 -10   27.62    6.66
  -8  -9 -10   25.91    6.83
   8   9  -9    3.43    4.57
   8  -9  -9    3.46    3.77
   8  -9  -9    7.81    4.42
  -8  -9  -9    5.35    1.83
   8   9  -8   30.17    7.66
   8  -9  -8    6.99    2.95
  -8  -9  -8   20.75    5.78
   8  -9  -8   20.47    5.48
   8  -9  -7    0.13    2.00
   8  -9  -7    4.78    3.60
  -8  -9  -7   -0.01    1.83
   8   9  -6    0.88    3.04
  -8  -9  -6    4.94    3.78
   8  -9  -6   -0.20    2.71
   8  -9  -6    2.83    3.23
   8   9  -5   21.88    7.87
   8  -9  -5   35.54    7.93
  -8  -9  -5   26.20    6.21
   8  -9  -4    2.31    3.13
   8  -9  -4   10.17    4.63
  -8  -9  -4   -0.06    2.46
   8   9  -4    7.18    3.92
   8  -9  -3    5.40    2.78
   8  -9  -3   10.23    5.18
  -8  -9  -3    6.26    3.74
   8   9  -3    0.53    2.84
   8  -9  -2   13.69    5.37
   8  -9  -2   14.85    3.95
  -8  -9  -2    9.21    4.52
   8   9  -2   16.90    5.95
   8  -9  -1    7.05    2.66
   8  -9  -1   12.14    5.28
  -8  -9  -1   12.93    5.31
   8   9  -1   19.60    6.04
   8  -9   0   -1.41    3.08
  -8  -9   0    7.06    4.43
   8  -9   0    5.94    3.73
   8   9   0    3.19    3.06
   8  -9   1   21.59    6.41
  -8  -9   1    7.05    4.37
   8   9   1    6.45    3.58
   8  -9   1   17.29    6.27
   8   9   1   22.27    6.66
   8  -9   2   17.80    4.91
  -8  -9   2   18.93    5.54
   8   9   2   23.11    6.82
   8   9   2   15.11    4.64
   8  -9   2    8.83    4.22
   8  -9   3    9.55    3.78
  -8  -9   3    4.73    2.54
   8   9   3    6.48    3.69
   8   9   3   10.47    5.04
   8  -9   4    3.18    2.02
  -8  -9   4    5.73    4.77
   8   9   4    4.09    3.79
   8   9   4    3.29    3.61
   8  -9   5   33.00    8.06
  -8  -9   5   33.83    7.54
   8   9   5   36.27    8.40
   8   9   5   24.57    6.92
   8  -9   6   -1.96    2.41
  -8  -9   6   -0.99    3.19
   8   9   6    3.81    4.16
   8   9   6   -3.18    4.56
   8  -9   7   11.53    6.13
  -8  -9   7   15.58    6.50
   8   9   7    6.00    4.07
   8   9   7   -4.15    4.88
   8  -9   8   24.95    7.54
   8   9   8   16.12    4.15
   8   9   8   17.71    6.70
   8  -9   9    2.35    4.13
   8   9   9    1.47    3.82
   8   9   9   -0.98    3.70
   8   9  10   24.72    6.70
   8  -9  10   26.53    6.99
   8   9  10   31.82    8.10
   8  -9  11   16.31    4.74
   8   9  11   23.09    7.96
   8   9  11    3.76    3.08
   8  -9  12    9.91    5.56
   8   9  12   13.12    4.83
   8   9  12   26.92    6.81
   8  -9  13   34.65    7.92
   8   9  13   44.88    8.99
   8   9  13   40.84    8.95
   8  -9  14   13.44    4.76
   8   9  14    4.79    3.45
   8   9  14    5.11    3.14
   8   9  15   16.20    7.20
   8   9  15   25.04    7.98
   8 -10 -10   -0.93    3.16
  -8 -10 -10    0.22    2.45
   8 -10 -10   -5.51    4.06
   8 -10  -9   52.85   10.03
   8 -10  -9   36.80    7.14
   8  10  -9   44.40    9.38
   8 -10  -8   66.87   10.82
   8 -10  -8   42.46    8.65
  -8 -10  -8   61.87   10.65
   8  10  -8   47.39    9.91
   8 -10  -7   13.57    6.08
   8 -10  -7    8.23    3.84
  -8 -10  -7   24.48    6.81
   8  10  -7   25.24    8.40
   8 -10  -6    5.17    3.00
   8 -10  -6    3.50    3.42
  -8 -10  -6    7.23    3.79
   8  10  -6    4.16    3.91
   8 -10  -5   52.98    9.71
   8 -10  -5   91.05   12.78
  -8 -10  -5   64.84   11.06
   8  10  -5   71.74   11.57
   8 -10  -4   36.23    8.11
   8 -10  -4   35.23    6.31
  -8 -10  -4   19.01    6.18
   8  10  -4   28.25    8.15
   8 -10  -3   -0.21    3.27
   8 -10  -3   -2.17    2.29
  -8 -10  -3   -1.69    4.04
   8  10  -3   -0.99    3.36
   8 -10  -2   30.21    8.18
   8 -10  -2   23.28    6.42
  -8 -10  -2   38.80    8.54
   8  10  -2   28.45    6.99
   8 -10  -1   37.64    8.55
   8 -10  -1   35.99    8.47
  -8 -10  -1   31.52    7.64
   8  10  -1   23.82    7.17
   8 -10   0    2.20    2.72
  -8 -10   0   10.15    5.68
   8  10   0    3.74    2.78
   8 -10   0    0.32    3.90
   8 -10   1   33.53    7.82
  -8 -10   1   33.87    8.41
   8  10   1   40.74    9.43
   8 -10   2   34.55    8.11
  -8 -10   2   29.59    7.24
   8  10   2   24.86    6.66
  -8 -10   3    7.51    3.40
   8  10   3    4.08    2.88
   8 -10   4   21.40    5.75
  -8 -10   4   26.04    7.86
   8  10   4   23.63    6.06
   8 -10   5   59.91   10.26
  -8 -10   5   50.57   10.01
   8  10   5   76.47   12.52
   8 -10   6    5.28    3.69
  -8 -10   6   -2.97    3.04
   8  10   6   -3.21    4.74
   8 -10   7   15.46    5.99
   8  10   7   16.90    7.23
   8 -10   8   49.01    9.91
   8  10   8   46.30   10.34
   8  10   8   34.74    8.97
   8 -10   9   52.84   11.32
   8  10   9   63.38   11.03
   8  10   9   48.68    9.87
   8 -10  10    1.14    3.44
   8  10  10    4.21    4.92
   8  10  10    1.48    3.94
   9   0 -23   -0.96    2.28
   9   0 -22    0.68    3.34
   9   0 -21    1.78    3.24
   9   0 -20   -0.96    2.52
   9   0 -19    2.96    1.86
   9   0 -18    1.15    3.15
   9   0 -17    2.13    2.31
   9   0 -16    2.44    2.89
   9   0 -15    0.52    2.44
   9   0 -14    0.63    2.71
   9   0 -13    0.11    2.13
   9   0 -13    1.24    1.93
   9   0 -12    0.03    2.09
   9   0 -12   -1.00    1.25
   9   0 -11   -1.56    2.14
   9   0 -11    1.66    1.84
   9   0 -10    0.43    1.37
   9   0 -10   -0.50    1.23
   9   0  -9   -0.21    2.17
   9   0  -9   -0.04    1.37
   9   0  -8   -0.11    1.66
   9   0  -8   -1.13    1.85
   9   0  -7    1.70    2.83
   9   0  -7    0.22    0.85
   9   0  -6    1.10    1.29
   9   0  -6    1.54    1.79
   9   0  -5    0.67    1.63
   9   0  -5    0.72    1.55
   9   0  -4   -0.15    1.27
   9   0  -4    0.08    1.36
   9   0  -3    0.08    1.70
   9   0  -3   -0.49    1.26
   9   0  -2   -1.41    2.28
   9   0  -2    2.15    2.38
   9   0  -1    1.23    2.13
   9   0  -1    0.24    0.90
   9   0   0   -1.19    1.70
   9   0   0    1.16    1.78
   9   0   0    2.37    0.87
   9   0   1    1.27    2.05
   9   0   1    0.61    1.71
   9   0   1    0.11    1.21
   9   0   2    2.19    2.76
   9   0   2    0.02    1.70
   9   0   2    0.64    2.17
   9   0   3    1.72    1.14
   9   0   3   -1.04    1.47
   9   0   3   -1.07    2.10
   9   0   4   -0.50    1.50
   9   0   4   -0.43    2.21
   9   0   4    0.87    1.13
   9   0   5    0.44    1.55
   9   0   5   -0.36    1.51
   9   0   5   -0.02    2.17
   9   0   6    0.08    1.33
   9   0   6   -1.03    1.13
   9   0   6    0.71    1.12
   9   0   7    0.98    1.31
   9   0   7    0.18    1.49
   9   0   7    0.05    1.18
   9   0   8    0.64    0.99
   9   0   8    0.01    1.03
   9   0   8    2.93    2.90
   9   0   9   -0.49    1.42
   9   0   9    1.66    2.53
   9   0  10   -0.18    1.25
   9   0  10    1.75    2.68
   9   0  11    1.08    2.09
   9   0  11   -0.58    2.41
   9   0  12    3.19    3.04
   9   0  12   -0.02    1.60
   9   0  13   -2.48    2.29
   9   0  13    2.58    4.17
   9   0  14    4.34    3.69
   9   0  15    0.06    2.06
   9   0  16    1.44    2.13
   9   0  17    1.38    2.15
   9   0  18   -0.07    2.31
   9   0  19    0.53    2.71
   9   0  20    4.82    3.65
   9   0  21   -0.83    2.95
   9   0  22   -1.27    2.93
   9   0  23    2.22    3.39
   9   0  24    2.45    2.25
   9   0  25    3.00    3.26
   9   0  26    5.08    6.10
   9  -1 -24    2.41    3.54
   9  -1 -23   47.86    9.88
   9   1 -22   74.72   11.54
   9  -1 -22   83.72   11.75
   9   1 -21  170.37   16.40
   9  -1 -21  161.85   16.22
   9   1 -20   25.83    6.46
   9  -1 -20   23.06    6.07
   9   1 -19   52.89    8.26
   9  -1 -19   59.79    9.63
   9   1 -18    6.57    3.03
   9  -1 -18    3.29    2.37
   9  -1 -17  789.37   32.85
   9   1 -17  809.46   33.48
   9  -1 -16   87.81   10.61
   9   1 -16   58.00    9.13
   9  -1 -15  358.23   22.12
   9   1 -15  376.96   21.80
   9   1 -14    4.01    3.59
   9  -1 -14   -0.69    3.56
   9  -1 -13    4.87    2.37
   9   1 -13    4.13    1.47
   9  -1 -13    9.39    4.49
   9  -1 -12   91.79   10.67
   9   1 -12   95.97   10.41
   9  -1 -12   96.41    8.79
   9  -1 -11 1350.54   39.76
   9   1 -11 1277.99   38.21
   9  -1 -11 1355.96   32.58
   9   1 -10   31.97    6.15
   9  -1 -10   23.51    5.37
   9  -1 -10   32.55    5.25
   9  -1  -9  648.88   26.92
   9   1  -9  691.81   27.59
   9  -1  -9  693.74   23.64
   9  -1  -8  270.25   16.90
   9   1  -8  237.87   15.77
   9  -1  -8  259.24   14.63
   9  -1  -7  296.95   17.49
   9   1  -7  303.00   17.90
   9  -1  -7  309.71   15.79
   9  -1  -6  231.91   15.40
   9   1  -6  207.62   14.55
   9  -1  -6  206.38   12.87
   9   1  -5  682.87   27.00
   9  -1  -5  691.82   24.15
   9  -1  -5  697.10   26.56
   9   1  -4  295.16   17.40
   9  -1  -4  321.15   16.39
   9  -1  -4  311.74   17.36
   9   1  -3  587.41   24.34
   9  -1  -3  588.66   23.62
   9  -1  -3  649.66   23.22
   9   1  -2  289.41   16.98
   9  -1  -2  254.96   14.76
   9   1  -1  955.98   30.29
   9   1  -1 1088.68   33.10
   9  -1  -1  950.27   29.39
   9  -1  -1 1035.68   30.09
   9   1   0 1190.52   33.78
   9   1   0 1181.55   34.57
   9  -1   0 1122.18   31.65
   9  -1   0 1259.36   33.31
   9   1   1 1036.34   30.98
   9  -1   1 1005.44   29.48
   9   1   1  998.10   32.04
   9  -1   1 1006.96   30.42
   9  -1   1  945.81   29.32
   9   1   2  309.35   17.04
   9  -1   2  320.00   16.72
   9   1   2  299.50   17.46
   9  -1   2  326.53   17.38
   9  -1   2  326.76   17.28
   9   1   3  593.08   24.71
   9   1   3  618.00   23.89
   9  -1   3  593.12   22.56
   9  -1   3  562.05   22.97
   9  -1   3  613.13   23.63
   9   1   4  317.86   17.37
   9  -1   4  316.97   16.34
   9   1   4  347.64   18.88
   9  -1   4  317.43   17.27
   9   1   5  697.33   25.92
   9  -1   5  686.57   24.21
   9   1   5  693.99   27.32
   9  -1   5  698.38   25.82
   9  -1   5  744.72   26.52
   9   1   6  209.09   14.18
   9  -1   6  224.34   13.70
   9   1   6  200.58   14.78
   9  -1   6  228.93   14.89
   9  -1   6  213.33   14.45
   9   1   7  292.13   17.23
   9  -1   7  280.77   15.53
   9   1   7  319.14   18.37
   9  -1   7  321.03   17.51
   9   1   8  272.75   16.48
   9  -1   8  248.21   14.28
   9   1   8  246.95   16.28
   9  -1   8  240.92   15.17
   9  -1   8  259.77   16.21
   9   1   9  681.41   26.14
   9  -1   9  694.69   24.05
   9   1   9  707.64   27.94
   9  -1   9  693.63   26.42
   9   1  10   19.87    4.88
   9  -1  10   19.55    4.21
   9   1  10   36.53    6.66
   9  -1  10   22.31    4.96
   9  -1  10   20.41    4.66
   9   1  11 1356.93   37.97
   9  -1  11 1305.30   33.44
   9   1  11 1305.41   39.07
   9  -1  11 1305.71   36.86
   9  -1  11 1330.16   38.15
   9   1  12   96.39   10.37
   9   1  12  115.14   12.01
   9  -1  12  114.58   10.99
   9  -1  12  112.77   11.12
   9   1  13    6.17    3.24
   9  -1  13   -0.74    1.35
   9   1  13    3.30    3.95
   9  -1  13    5.74    3.85
   9   1  14    0.88    2.56
   9  -1  14    1.59    1.42
   9   1  14    5.77    4.16
   9   1  15  384.38   22.02
   9  -1  15  366.18   20.86
   9  -1  16   61.21    8.80
   9   1  16   72.16    9.56
   9  -1  17  813.23   32.09
   9   1  17  834.81   33.39
   9   1  18   -1.60    3.90
   9  -1  18   11.48    4.12
   9  -1  19   56.57    9.30
   9   1  19   52.70    8.62
   9  -1  20   19.85    5.35
   9   1  20   29.69    6.19
   9  -1  21  183.36   16.65
   9   1  21  189.19   16.49
   9   1  22   64.77   10.13
   9   1  23   44.34    8.41
   9   1  24    8.54    5.29
   9   1  25   27.06    7.44
   9   1  26   60.31   11.12
   9   1  27  118.02   14.00
   9  -2 -25    4.00    3.76
   9  -2 -24    6.03    4.69
   9  -2 -23    4.47    2.82
   9  -2 -22   20.82    6.19
   9  -2 -21   12.50    5.20
   9   2 -21   -0.58    3.68
   9  -2 -20   -3.43    3.95
   9   2 -20    1.46    2.19
   9  -2 -19    1.02    3.04
   9   2 -19    2.58    2.61
   9   2 -18   19.11    5.60
   9  -2 -18   26.03    6.41
   9  -2 -17    2.37    2.79
   9   2 -17    2.19    3.53
   9  -2 -16   17.67    5.25
   9   2 -16   23.42    5.77
   9  -2 -15    1.27    1.76
   9   2 -15   -0.47    1.80
   9  -2 -14    4.44    2.42
   9   2 -14   12.00    3.90
   9  -2 -13    2.68    1.11
   9  -2 -13    4.02    3.77
   9   2 -13   -0.74    1.93
   9  -2 -12   38.35    5.62
   9  -2 -12   44.59    7.77
   9   2 -12   47.15    7.93
   9  -2 -11   14.41    3.55
   9  -2 -11   21.01    5.15
   9   2 -11   11.48    4.14
   9  -2 -10    5.55    2.62
   9  -2 -10    6.67    3.00
   9   2 -10    1.69    3.18
   9  -2  -9    5.87    3.00
   9  -2  -9   10.13    3.69
   9   2  -9    8.70    3.91
   9  -2  -8   67.89    7.59
   9  -2  -8   69.96    8.79
   9   2  -8   65.51    8.61
   9  -2  -7   35.22    5.74
   9  -2  -7   55.96    8.27
   9   2  -7   45.58    7.41
   9  -2  -6    5.83    2.50
   9  -2  -6    4.78    2.36
   9   2  -6    6.61    1.12
   9  -2  -5    2.02    1.75
   9  -2  -5    2.13    1.31
   9   2  -5    2.75    2.01
   9  -2  -4   19.09    4.78
   9  -2  -4   18.49    4.63
   9   2  -4   19.82    4.66
   9  -2  -3   18.27    3.96
   9  -2  -3   13.64    4.21
   9   2  -3   10.39    3.14
   9   2  -3   11.12    3.77
   9  -2  -2   20.91    4.17
   9  -2  -2   15.71    4.01
   9   2  -2   21.92    5.33
   9   2  -2   14.38    4.37
   9  -2  -1   97.33    9.24
   9  -2  -1   92.42    9.20
   9   2  -1   84.82    9.43
   9   2  -1   85.38    9.59
   9  -2   0   30.09    5.26
   9   2   0   24.69    4.84
   9   2   0   22.54    4.77
   9  -2   0   39.70    6.13
   9   2   1   84.33    9.55
   9   2   1  106.14   10.82
   9  -2   1  105.39    9.79
   9  -2   1  114.89   10.16
   9  -2   2   23.95    4.94
   9  -2   2   17.56    3.62
   9   2   2   18.45    4.38
   9   2   2   13.14    3.51
   9  -2   2   16.36    3.71
   9  -2   3   14.42    4.38
   9  -2   3    9.81    2.79
   9   2   3   14.02    3.56
   9   2   3   18.26    4.55
   9  -2   3   12.82    3.64
   9  -2   4   17.79    3.86
   9  -2   4   14.75    3.78
   9   2   4   18.72    5.19
   9   2   4   20.96    5.02
   9  -2   4   22.03    4.49
   9  -2   5    4.12    1.79
   9  -2   5    3.68    2.20
   9   2   5    4.36    2.46
   9   2   5    4.21    2.76
   9  -2   5    3.10    2.92
   9  -2   6   10.73    3.49
   9  -2   6    7.06    3.18
   9   2   6    6.56    3.40
   9   2   6   15.88    4.57
   9  -2   6   12.53    3.92
   9   2   7   40.11    6.35
   9  -2   7   54.24    6.57
   9   2   7   33.77    6.30
   9  -2   7   37.15    6.04
   9  -2   7   39.68    6.82
   9   2   8   76.07    9.51
   9  -2   8   69.25    7.19
   9   2   8   72.15    9.44
   9  -2   8   68.23    8.42
   9  -2   8   79.78    9.43
   9  -2   9    7.62    3.70
   9   2   9    3.76    1.33
   9   2   9    2.51    2.99
   9  -2   9    5.49    2.58
   9  -2   9    5.66    1.66
   9  -2  10    5.94    2.95
   9   2  10    6.99    3.21
   9  -2  10    6.32    2.21
   9  -2  10    8.01    3.90
   9   2  10    3.99    3.29
   9   2  11   12.42    4.10
   9  -2  11   13.94    3.87
   9   2  11   18.27    4.53
   9  -2  11   17.93    4.30
   9  -2  12   57.64    7.86
   9   2  12   34.23    6.37
   9  -2  12   38.38    6.91
   9   2  12   42.81    7.86
   9   2  13    1.13    2.75
   9  -2  13    3.62    2.49
   9   2  13    2.55    3.13
   9  -2  13   11.70    3.35
   9   2  14   12.69    4.39
   9   2  14   10.49    4.56
   9  -2  14   12.20    3.79
   9  -2  14   12.13    3.57
   9   2  15    4.25    4.01
   9  -2  15    4.17    2.21
   9   2  15   -1.56    2.50
   9  -2  15   -0.31    2.09
   9  -2  16   28.61    6.29
   9   2  16   31.67    6.22
   9  -2  16   20.79    5.47
   9   2  17    0.67    2.60
   9  -2  17   -0.35    1.51
   9   2  18   21.64    5.96
   9   2  19    1.90    3.24
   9   2  20    1.59    3.74
   9   2  21    2.24    2.95
   9   2  22   17.46    5.53
   9   2  23   -0.01    2.38
   9   2  24    1.74    2.35
   9   2  25   -0.89    3.81
   9   2  26   13.76    4.45
   9   2  27   -1.31    2.47
   9  -3 -26   11.05    6.27
   9  -3 -25  170.30   18.42
   9  -3 -24   64.84   11.16
   9  -3 -23   36.86    8.27
   9  -3 -22  161.49   16.65
   9  -3 -21  251.15   20.03
   9   3 -20   -2.31    3.27
   9  -3 -20    7.66    4.06
   9   3 -19   42.20    8.40
   9  -3 -19   38.27    8.23
   9  -3 -18  158.83   15.39
   9   3 -18  160.30   15.54
   9  -3 -17  126.02   13.46
   9   3 -17  104.89   12.60
   9  -3 -16  719.44   31.54
   9   3 -16  710.99   31.38
   9  -3 -15  121.03   11.59
   9  -3 -15  110.12   12.50
   9   3 -15   98.14   11.53
   9  -3 -14  148.45   12.75
   9  -3 -14  136.23   13.02
   9   3 -14  122.15   12.89
   9  -3 -13  143.33   12.54
   9  -3 -13  147.15   13.94
   9   3 -13  129.39   13.06
   9  -3 -12  603.73   24.82
   9  -3 -12  658.05   28.59
   9  -3 -11  896.50   30.13
   9  -3 -11  843.71   32.02
   9  -3 -10  946.81   30.80
   9  -3 -10  909.54   33.04
   9   3 -10 1011.86   34.98
   9  -3  -9    7.30    2.56
   9   3  -9   10.84    3.84
   9  -3  -9    2.20    2.61
   9  -3  -8  195.22   13.91
   9   3  -8  157.11   13.71
   9  -3  -8  197.91   15.00
   9  -3  -7 1893.65   43.02
   9   3  -7 1922.26   46.98
   9  -3  -7 1846.48   45.11
   9  -3  -6   53.74    7.54
   9   3  -6   68.49    8.79
   9  -3  -6   61.76    8.51
   9  -3  -5 2409.70   48.97
   9   3  -5 2341.30   51.55
   9  -3  -5 2327.57   50.54
   9   3  -5 2254.77   51.21
   9  -3  -4  821.44   28.49
   9   3  -4  810.87   30.31
   9  -3  -4  793.42   28.39
   9   3  -4  844.99   31.30
   9  -3  -3    1.22    2.60
   9   3  -3    0.25    3.01
   9  -3  -3   -1.28    2.39
   9   3  -3    2.61    3.48
   9  -3  -2   29.01    5.79
   9  -3  -2   31.20    5.78
   9   3  -2   29.23    5.84
   9   3  -2   22.25    5.64
   9  -3  -1 3121.84   55.91
   9   3  -1 3268.95   61.05
   9   3  -1 3253.94   60.67
   9  -3   0    0.73    2.79
   9   3   0    3.03    2.92
   9  -3   0    0.20    1.78
   9   3   0    1.34    2.53
   9  -3   1 3555.39   59.09
   9  -3   1 3419.68   57.50
   9   3   1 3509.68   63.08
   9  -3   2   24.90    5.42
   9  -3   2   23.48    5.20
   9   3   2   33.99    6.64
   9   3   2   29.99    6.52
   9  -3   2   28.14    5.46
   9  -3   3    0.30    1.37
   9   3   3    0.09    1.78
   9  -3   3   -0.77    1.42
   9   3   3    1.00    2.84
   9  -3   3    0.90    1.53
   9  -3   4  905.34   30.80
   9  -3   4  874.13   28.11
   9   3   4  795.19   30.41
   9  -3   4  825.79   26.18
   9   3   4  916.38   32.82
   9  -3   5 2408.78   50.35
   9   3   5 2465.34   53.26
   9   3   5 2430.18   53.47
   9  -3   5 2387.37   45.83
   9   3   6   65.96    8.60
   9   3   6   48.42    7.60
   9  -3   6   50.44    6.69
   9  -3   6   68.13    7.60
   9  -3   6   80.69    9.17
   9   3   7 1790.26   47.21
   9   3   7 1889.92   47.22
   9  -3   7 1846.15   38.76
   9  -3   7 1816.65   39.45
   9  -3   7 1813.67   44.18
   9   3   8  206.20   15.86
   9   3   8  186.77   14.95
   9  -3   8  161.99   11.72
   9  -3   8  192.96   12.56
   9  -3   8  171.05   13.93
   9  -3   9    2.35    1.39
   9   3   9    7.44    3.75
   9  -3   9    2.35    2.38
   9   3   9    5.80    2.56
   9  -3   9    3.97    1.17
   9  -3  10  915.44   27.99
   9   3  10  992.95   35.03
   9  -3  10  921.41   32.60
   9   3  10  971.58   34.69
   9   3  11  909.41   34.01
   9   3  11  897.93   34.21
   9  -3  11  867.57   31.90
   9   3  12  529.54   26.25
   9   3  12  577.28   27.64
   9  -3  12  603.42   26.90
   9   3  13  144.96   14.09
   9   3  13  138.63   13.41
   9  -3  13  128.43   12.40
   9   3  14  134.74   13.34
   9   3  14  128.35   13.34
   9  -3  14  149.46   13.78
   9   3  15  114.65   12.56
   9   3  15   97.76   11.50
   9  -3  15   99.42   11.44
   9   3  16  723.22   31.82
   9   3  16  753.26   32.80
   9  -3  16  736.45   31.80
   9   3  17  109.95   13.22
   9   3  17  106.53   12.64
   9  -3  17  119.50   12.68
   9   3  18  165.42   15.22
   9  -3  18  178.09   16.02
   9   3  19   41.34    7.80
   9  -3  19   45.87    7.73
   9   3  20    0.43    1.78
   9   3  21  229.43   19.29
   9   3  22  139.37   15.08
   9   3  23   22.92    6.59
   9   3  24   56.45    9.97
   9   3  25  152.11   16.80
   9   3  26   15.89    6.56
   9  -4 -25    2.82    3.00
   9  -4 -24    9.87    5.80
   9  -4 -23   30.50    6.83
   9  -4 -22    3.14    3.53
   9  -4 -21   12.64    5.28
   9  -4 -20    3.47    1.81
   9   4 -19    3.60    4.10
   9  -4 -19    3.79    4.36
   9   4 -18    5.03    2.38
   9  -4 -18    2.50    2.58
   9   4 -17  284.27   21.12
   9  -4 -17  286.52   20.12
   9  -4 -16   11.76    4.10
   9   4 -16    7.95    4.46
   9  -4 -15   23.51    6.05
   9  -4 -15   17.90    4.23
   9   4 -15   17.36    5.39
   9  -4 -14   39.94    6.52
   9  -4 -14   47.65    8.20
   9   4 -14   40.07    7.51
   9  -4 -13    7.47    4.04
   9  -4 -13    6.42    3.23
   9   4 -13    5.36    2.48
   9  -4 -12   69.57    8.88
   9   4 -12   90.73   11.35
   9  -4 -12   64.15    9.21
   9  -4 -11  358.95   19.75
   9   4 -11  319.83   20.82
   9  -4 -10    3.06    2.39
   9  -4 -10    5.79    3.78
   9   4 -10    3.03    1.86
   9  -4  -9  208.20   14.78
   9   4  -9  215.80   16.84
   9  -4  -9  250.25   17.54
   9  -4  -8  174.10   13.82
   9   4  -8  143.50   13.67
   9  -4  -8  167.35   14.26
   9  -4  -7   -0.70    1.59
   9  -4  -7    0.28    1.59
   9   4  -7    2.25    2.92
   9   4  -7   -0.14    2.66
   9  -4  -6  275.54   17.21
   9   4  -6  247.23   17.67
   9  -4  -6  238.58   16.65
   9   4  -6  263.93   18.46
   9  -4  -5  105.39   10.63
   9   4  -5  101.24   11.54
   9  -4  -5   99.19   10.80
   9   4  -5  111.78   11.69
   9  -4  -4   95.69   10.23
   9   4  -4   85.74   10.18
   9  -4  -4   76.91    9.29
   9   4  -4  102.11   11.39
   9  -4  -3   25.23    5.32
   9  -4  -3   31.51    5.98
   9   4  -3   34.80    7.24
   9   4  -3   31.25    6.61
   9  -4  -2  179.77   14.05
   9   4  -2  198.25   15.53
   9  -4  -2  203.32   14.42
   9   4  -2  183.38   14.69
   9  -4  -1    0.99    2.58
   9  -4  -1    1.94    1.75
   9   4  -1   -0.09    3.00
   9   4  -1    1.20    2.56
   9  -4   0  557.62   24.42
   9   4   0  531.53   25.29
   9  -4   0  498.05   22.67
   9   4   0  495.45   24.71
   9  -4   1    3.17    2.45
   9   4   1    3.16    3.05
   9   4   1    1.81    3.06
   9  -4   1    0.95    1.37
   9  -4   2  191.74   14.48
   9   4   2  206.69   16.04
   9  -4   2  191.00   13.85
   9   4   2  172.57   14.61
   9  -4   2  189.64   12.53
   9  -4   3   38.71    7.64
   9  -4   3   31.52    5.83
   9   4   3   26.21    5.58
   9   4   3   29.47    7.02
   9  -4   3   24.11    4.50
   9  -4   4   87.28    9.86
   9   4   4   84.24   10.63
   9  -4   4   84.53    9.11
   9   4   4   73.18    9.68
   9  -4   4   93.18    8.98
   9   4   5  126.95   13.45
   9  -4   5  104.84   10.48
   9  -4   5  102.45    9.79
   9   4   5   92.55   10.83
   9   4   6  219.32   17.03
   9  -4   6  233.97   16.20
   9  -4   6  265.21   15.67
   9   4   6  268.15   18.62
   9  -4   7   -0.13    2.20
   9   4   7    0.81    2.81
   9  -4   7    1.47    1.21
   9   4   7   -1.75    3.49
   9  -4   8  180.03   14.64
   9   4   8  164.48   14.70
   9  -4   8  152.50   11.76
   9   4   8  149.26   14.11
   9  -4   9  218.14   16.02
   9   4   9  209.61   16.59
   9   4   9  200.34   16.84
   9  -4  10    9.08    3.39
   9   4  10    2.11    2.21
   9   4  10    6.45    3.12
   9   4  11  316.28   20.40
   9   4  11  313.94   21.27
   9  -4  11  363.38   21.13
   9   4  12   96.07   11.31
   9   4  12   84.30   11.05
   9  -4  12  118.57   12.39
   9   4  13    1.96    2.75
   9  -4  13    6.95    2.27
   9   4  13   10.22    4.55
   9   4  14   51.75    8.42
   9   4  14   47.20    8.54
   9  -4  14   35.44    7.76
   9  -4  15   22.40    5.70
   9   4  15   22.79    6.20
   9   4  15   15.80    4.96
   9  -4  16    0.91    1.57
   9   4  16    3.26    1.95
   9   4  17  327.28   21.71
   9   4  17  297.32   21.45
   9  -4  17  292.97   20.39
   9   4  18    4.27    4.29
   9   4  18    6.65    5.55
   9  -4  18    5.92    4.25
   9   4  19    1.80    3.71
   9  -4  19   -1.18    1.64
   9   4  20    1.28    2.48
   9   4  21    3.79    1.93
   9   4  22    1.48    2.04
   9   4  23   25.56    6.74
   9   4  24   -1.15    4.12
   9   4  25   -0.66    2.61
   9  -5 -24    6.91    4.15
   9  -5 -23   26.96    6.42
   9  -5 -22   47.06    9.70
   9  -5 -21   97.07   12.62
   9  -5 -20   12.43    3.31
   9  -5 -19   17.29    5.69
   9  -5 -18    1.35    3.08
   9  -5 -17   27.68    6.58
   9   5 -17   30.52    7.63
   9  -5 -16   42.90    7.85
   9   5 -16   50.55    9.37
   9  -5 -16   48.12    9.07
   9  -5 -15  344.53   21.29
   9   5 -15  291.03   21.68
   9  -5 -15  319.50   21.82
   9  -5 -14   29.79    6.02
   9  -5 -14   30.22    6.41
   9   5 -14   40.13    7.28
   9  -5 -13   21.61    5.74
   9  -5 -13   29.00    6.99
   9   5 -13   17.61    5.73
   9  -5 -12   42.66    6.61
   9   5 -12   42.45    8.32
   9  -5 -12   53.96    8.38
   9  -5 -11  362.48   21.22
   9   5 -11  376.92   23.66
   9  -5 -11  387.08   23.28
   9   5 -11  370.09   23.37
   9  -5 -10   17.77    4.99
   9  -5 -10   14.43    4.57
   9   5 -10   18.71    5.09
   9   5 -10    9.81    3.58
   9  -5  -9   14.67    3.98
   9  -5  -9   11.79    4.40
   9   5  -9   14.94    3.79
   9   5  -9    6.77    2.87
   9  -5  -8    0.29    1.71
   9  -5  -8    2.24    2.29
   9   5  -8   -2.42    3.36
   9   5  -8    1.80    2.02
   9  -5  -7   81.77    9.45
   9   5  -7  102.69   12.26
   9  -5  -7   81.97   10.54
   9   5  -7  102.10   12.06
   9  -5  -6   30.31    6.55
   9   5  -6   33.04    7.11
   9  -5  -6   22.02    5.26
   9   5  -6   11.37    3.75
   9  -5  -5  616.34   26.76
   9   5  -5  690.36   30.25
   9  -5  -5  639.48   27.91
   9   5  -5  649.12   29.46
   9   5  -4   51.35    8.59
   9  -5  -4   47.36    7.13
   9  -5  -4   35.89    6.84
   9   5  -4   44.32    8.38
   9  -5  -3   11.64    4.21
   9  -5  -3   10.14    4.53
   9   5  -3   14.31    5.41
   9   5  -3   16.49    4.78
   9  -5  -2   14.74    4.60
   9  -5  -2   21.08    5.51
   9   5  -2   11.06    5.00
   9   5  -2   11.08    4.43
   9   5  -1  557.95   27.65
   9  -5  -1  579.60   25.93
   9  -5  -1  564.54   25.70
   9  -5   0   30.43    7.26
   9   5   0   31.98    7.40
   9  -5   0   33.08    6.59
   9   5   0   23.91    5.59
   9   5   1  606.51   28.88
   9  -5   1  598.04   26.77
   9  -5   1  628.91   26.63
   9   5   1  629.65   28.72
   9  -5   2   12.49    4.04
   9  -5   2    8.10    4.33
   9   5   2   12.33    4.78
   9   5   2   13.42    4.91
   9  -5   3    7.96    3.69
   9  -5   3   10.75    4.44
   9   5   3    8.58    4.13
   9   5   3    2.72    3.13
   9  -5   4   47.74    7.54
   9   5   4   37.96    7.42
   9  -5   4   38.92    6.57
   9   5   4   36.78    6.71
   9  -5   5  695.29   29.52
   9   5   5  679.20   29.73
   9   5   5  668.68   30.63
   9   5   6   25.12    6.47
   9  -5   6   17.92    3.91
   9   5   6   22.04    6.00
   9  -5   6   24.62    4.87
   9  -5   7   96.01   11.61
   9  -5   7   94.24   10.18
   9   5   7   88.86   11.13
   9   5   7   86.75   11.26
   9   5   8    2.73    2.56
   9  -5   8    2.73    3.02
   9   5   8    6.73    3.12
   9   5   9   21.90    5.69
   9  -5   9   14.35    4.26
   9   5   9   17.12    4.57
   9   5  10   19.23    4.58
   9  -5  10   10.93    2.91
   9   5  10   14.62    4.51
   9  -5  11  413.18   23.07
   9   5  11  410.88   23.77
   9   5  11  373.60   23.73
   9   5  12   42.74    7.60
   9   5  12   38.70    7.26
   9  -5  12   43.65    7.84
   9  -5  13   14.55    4.06
   9   5  13   18.84    5.82
   9   5  13   24.00    6.24
   9  -5  14   26.11    5.35
   9   5  14   21.66    6.16
   9   5  14   26.85    6.10
   9   5  15  281.76   20.24
   9   5  15  312.98   22.56
   9  -5  15  285.69   20.26
   9  -5  16   33.80    7.53
   9   5  16   42.11    8.95
   9   5  16   32.00    6.96
   9  -5  17   20.22    6.10
   9   5  17   24.72    6.08
   9   5  17   30.37    6.94
   9  -5  18   -1.26    3.74
   9   5  18    3.41    4.79
   9   5  18    1.01    2.82
   9   5  19   22.29    6.10
   9   5  19   15.44    6.27
   9   5  20   10.22    4.22
   9   5  21   90.36   11.67
   9   5  22   39.99    8.16
   9   5  23   23.02    5.54
   9   5  24    7.92    5.17
   9  -6 -23   -1.42    4.93
   9  -6 -22   11.67    4.28
   9  -6 -21    1.61    2.06
   9  -6 -20    4.80    3.60
   9  -6 -19   31.20    7.32
   9  -6 -18   19.79    4.68
   9  -6 -17   23.56    6.38
   9  -6 -16   33.04    6.72
   9   6 -16   37.37    8.43
   9  -6 -16   43.67    8.85
   9   6 -15   87.63   12.35
   9  -6 -15   97.65   11.93
   9  -6 -15  100.59   12.42
   9   6 -15  102.37   13.05
   9  -6 -14    2.41    2.76
   9   6 -14    1.43    2.57
   9  -6 -14    3.17    2.37
   9   6 -14   10.22    4.89
   9  -6 -13   23.07    5.85
   9   6 -13   30.91    7.47
   9  -6 -13   36.53    7.52
   9   6 -13   26.84    6.86
   9  -6 -12   11.04    4.29
   9   6 -12    5.92    5.46
   9  -6 -12    8.61    4.55
   9   6 -12   14.51    3.72
   9  -6 -11    2.56    3.61
   9   6 -11    1.39    2.12
   9  -6 -11    1.60    2.40
   9   6 -11    1.02    3.83
   9  -6 -10   36.71    7.39
   9   6 -10   24.63    5.64
   9  -6 -10   38.66    7.69
   9   6 -10   16.98    4.27
   9  -6  -9   11.81    4.77
   9   6  -9   24.62    6.43
   9  -6  -9   20.14    5.69
   9   6  -9   17.14    4.93
   9   6  -8   90.34   11.70
   9  -6  -8   66.69    9.57
   9  -6  -8   80.63   10.26
   9   6  -8   90.62   11.85
   9   6  -7   92.44   12.01
   9  -6  -7   97.37   11.67
   9  -6  -7   87.59   10.98
   9   6  -7  110.55   12.65
   9  -6  -6   -0.48    2.21
   9   6  -6   -0.23    2.28
   9  -6  -6    3.10    3.07
   9   6  -6    0.91    2.98
   9  -6  -5   13.09    4.38
   9   6  -5    5.21    2.83
   9  -6  -5   12.67    4.60
   9   6  -5    7.88    3.90
   9   6  -4   20.64    6.47
   9  -6  -4   22.41    5.47
   9  -6  -4   20.74    5.14
   9   6  -4   20.46    5.47
   9   6  -3   12.67    4.18
   9  -6  -3   17.58    4.43
   9  -6  -3   17.14    5.60
   9   6  -3    9.05    5.58
   9   6  -2    3.01    4.27
   9  -6  -2   -1.23    2.89
   9  -6  -2    4.74    2.56
   9   6  -2    7.07    3.24
   9  -6  -1   98.93   10.98
   9   6  -1   88.73   10.90
   9  -6  -1   89.16   10.68
   9   6  -1   85.52   11.85
   9  -6   0  117.26   12.32
   9  -6   0  121.29   12.34
   9   6   0  162.85   14.89
   9   6   0  129.33   14.07
   9  -6   1   89.15   11.11
   9  -6   1   71.70    9.76
   9   6   1   97.63   11.04
   9   6   1  101.71   11.48
   9   6   2    7.15    2.84
   9  -6   2    4.42    3.50
   9  -6   2    3.11    2.37
   9   6   2    6.53    3.26
   9   6   3   14.30    5.33
   9  -6   3   14.93    4.48
   9  -6   3   15.88    4.81
   9   6   3    5.58    3.31
   9   6   4   16.38    4.70
   9  -6   4   22.15    6.10
   9  -6   4   21.41    5.83
   9   6   4   11.44    4.27
   9  -6   5   13.84    4.67
   9   6   5    6.96    3.85
   9  -6   5    9.14    3.60
   9   6   5   12.14    4.66
   9   6   6    1.64    2.18
   9  -6   6    1.97    2.96
   9   6   6   -1.51    2.44
   9  -6   6   -6.21    2.66
   9  -6   7   89.79   11.18
   9   6   7   79.86   10.33
   9   6   7  105.17   12.52
   9  -6   8   87.46   10.68
  -9  -6   8   77.68   10.08
   9   6   8   60.25    9.58
   9   6   8  104.56   12.64
   9   6   9   24.77    6.38
   9  -6   9   17.43    5.29
   9   6   9   20.10    5.99
   9  -6  10   26.11    6.27
   9   6  10   21.05    6.18
   9   6  10   31.57    7.72
   9  -6  11    2.97    2.99
   9   6  11   -3.67    3.32
   9   6  11    2.39    2.22
   9  -6  12   12.93    5.05
   9   6  12    6.84    3.80
   9   6  12    7.99    4.27
   9  -6  13   33.17    5.32
   9   6  13   22.17    5.74
   9   6  13   19.11    6.00
   9  -6  14   -0.76    4.20
   9   6  14    1.03    2.45
   9   6  14    6.06    3.40
   9   6  15  105.07   12.72
   9   6  15   98.25   13.04
   9  -6  15   94.11   12.33
   9  -6  16   37.33    7.63
   9   6  16   38.92    8.69
   9   6  16   45.49    9.67
   9  -6  17   18.15    6.05
   9   6  17   14.63    5.69
   9   6  17   16.73    5.47
   9   6  18   26.22    6.84
   9   6  18   15.11    6.09
   9   6  19   46.54    8.64
   9   6  19   25.26    7.44
   9   6  20   16.73    6.39
   9   6  20   28.85   10.13
   9   6  21    5.76    2.57
   9   6  22   12.46    5.63
   9   6  23    4.45    4.52
   9  -7 -20   15.08    6.17
   9  -7 -19    2.58    3.79
   9  -7 -18   11.19    4.29
   9  -7 -17   77.17   11.64
   9  -7 -16    6.22    5.41
   9  -7 -16    4.35    3.75
   9  -7 -15  332.52   22.81
   9  -7 -15  276.60   21.41
   9   7 -14   11.43    4.50
   9  -7 -14    5.22    3.85
   9  -7 -14    5.23    4.23
   9   7 -13   43.16    9.21
   9  -7 -13   31.94    7.24
   9  -7 -13   27.86    6.64
   9   7 -12    8.34    5.50
   9  -7 -12    5.29    3.63
   9  -7 -12    6.80    4.71
   9   7 -12    5.19    3.92
   9  -7 -11  356.20   22.86
   9   7 -11  298.57   22.63
   9  -7 -11  306.19   21.92
   9   7 -11  322.40   23.10
   9  -7 -10   30.12    6.31
   9   7 -10   27.43    7.90
   9  -7 -10   12.83    4.27
   9   7 -10    8.07    4.84
   9  -7  -9   67.15    9.85
   9   7  -9   71.36   11.23
   9  -7  -9   74.42   10.22
   9   7  -9   69.59   11.35
   9   7  -8   20.68    7.11
   9  -7  -8   20.14    5.99
   9  -7  -8   18.84    5.34
   9   7  -8   16.82    5.37
   9   7  -7   18.19    5.10
   9  -7  -7   25.40    6.37
   9  -7  -7   12.07    4.09
   9   7  -7    7.85    4.95
   9  -7  -6   96.40   12.01
   9   7  -6   82.58   11.06
   9  -7  -6  104.96   12.69
   9   7  -6  101.51   13.33
   9  -7  -5  380.93   23.39
   9   7  -5  377.92   24.63
   9  -7  -5  406.16   23.92
   9   7  -5  455.03   26.64
   9  -7  -4    0.43    2.17
   9   7  -4   -0.27    2.57
   9  -7  -4    6.10    4.54
   9   7  -4    0.24    1.92
   9   7  -3   32.92    7.56
   9  -7  -3   40.73    7.97
   9   7  -3   56.34    9.20
   9  -7  -3   50.60    8.66
   9   7  -2    5.22    4.97
   9  -7  -2   -0.29    1.87
   9  -7  -2    9.71    4.41
   9   7  -2    4.78    2.71
   9  -7  -1  225.32   17.52
   9   7  -1  190.79   16.86
   9  -7  -1  222.59   17.37
   9   7  -1  225.85   19.50
   9  -7   0  346.04   22.59
   9   7   0  355.41   22.88
   9  -7   0  372.04   22.73
   9   7   0  407.18   25.00
   9  -7   1  235.39   18.30
   9   7   1  208.34   17.56
   9  -7   1  197.74   16.58
   9   7   1  174.83   16.48
   9   7   2    3.01    3.71
   9  -7   2    5.73    2.33
   9  -7   2    6.81    3.52
   9   7   2   10.46    4.48
   9   7   3   37.42    7.71
   9  -7   3   28.48    6.58
   9  -7   3   34.75    6.81
  -9  -7   3   57.33    9.19
   9   7   3   41.28    8.69
   9   7   4   -0.51    2.01
   9  -7   4    3.58    2.94
  -9  -7   4    5.96    3.84
   9  -7   4    4.55    3.22
   9   7   4    1.90    4.52
   9   7   5  384.72   23.95
   9  -7   5  352.40   22.52
  -9  -7   5  394.64   23.63
   9   7   5  396.99   25.47
   9  -7   6  102.79   11.99
  -9  -7   6   71.99   10.26
   9   7   6   59.72    9.86
   9   7   6   98.42   12.77
   9   7   7    6.87    3.97
   9  -7   7   12.50    5.34
  -9  -7   7    5.23    4.06
   9   7   7   13.77    5.05
   9  -7   8   25.07    6.17
  -9  -7   8   28.69    8.16
   9   7   8   24.18    6.85
   9   7   8   19.35    6.82
   9  -7   9   89.03   11.64
   9   7   9   94.42   12.35
   9   7   9   76.00   11.11
   9  -7  10   12.26    5.63
   9   7  10    7.17    3.31
   9   7  10   11.95    4.77
   9  -7  11  311.68   21.65
   9   7  11  298.69   21.80
   9   7  11  308.74   23.22
   9  -7  12   -1.55    2.81
   9   7  12    3.23    3.05
   9   7  12    7.22    4.12
   9  -7  13   39.35    7.68
   9   7  13   25.26    6.50
   9   7  13   29.58    8.23
   9  -7  14   11.43    6.03
   9   7  14    1.39    3.13
   9   7  14    4.52    3.88
   9  -7  15  322.84   22.91
   9   7  15  315.82   24.04
   9   7  15  353.13   23.81
   9  -7  16    9.80    5.09
   9   7  16    3.42    3.63
   9   7  16    4.26    4.18
   9   7  17   38.61    7.86
   9   7  17   61.28   11.32
   9   7  18    6.15    2.83
   9   7  18    8.76    5.91
   9   7  19   -0.12    2.77
   9   7  19   -0.07    3.68
   9   7  20   31.48    8.01
   9   7  20   28.03    7.46
   9  -8 -18   22.87    7.02
  -9  -8 -18   14.55    5.91
   9  -8 -17    9.49    4.96
   9  -8 -17    2.73    4.76
  -9  -8 -17    4.20    4.49
   9  -8 -16    5.86    4.38
   9  -8 -16    6.84    4.22
  -9  -8 -16   -2.73    2.57
  -9  -8 -15    6.36    3.04
   9  -8 -15   -0.58    3.54
   9  -8 -15    7.43    3.58
   9  -8 -14   12.19    5.73
   9  -8 -14    5.38    4.93
   9   8 -13   -5.64    6.76
   9  -8 -13   -0.38    3.30
   9  -8 -13    5.06    2.68
  -9  -8 -13   -0.87    2.72
   9   8 -12    7.81    5.14
   9  -8 -12    7.64    4.77
   9  -8 -12    6.93    4.11
  -9  -8 -12   12.65    5.10
   9  -8 -11    7.85    4.23
   9   8 -11    2.39    4.77
   9  -8 -11    2.40    3.84
  -9  -8 -11   14.71    5.57
   9   8 -10    7.48    5.37
   9  -8 -10    7.69    3.07
  -9  -8 -10   13.75    3.86
   9  -8 -10   11.07    4.62
   9   8  -9    2.04    2.82
   9  -8  -9    4.47    4.22
  -9  -8  -9    0.97    3.06
   9  -8  -9    4.20    3.54
   9   8  -8   21.13    7.18
   9  -8  -8   12.08    4.38
  -9  -8  -8    9.02    2.87
   9  -8  -8   15.53    5.53
   9   8  -7   11.30    4.97
   9  -8  -7   16.33    4.21
  -9  -8  -7   22.49    6.27
   9  -8  -7   22.52    7.02
   9   8  -6   47.36    9.37
  -9  -8  -6   37.90    7.59
   9  -8  -6   42.17    8.28
   9  -8  -6   40.36    7.57
   9   8  -6   58.98   10.39
   9   8  -5    4.64    3.76
   9  -8  -5    7.70    3.72
  -9  -8  -5    4.08    2.99
   9  -8  -5   10.81    5.03
   9   8  -5   -1.74    4.24
   9   8  -4    1.28    2.29
   9  -8  -4    5.92    3.36
  -9  -8  -4    4.85    4.32
   9  -8  -4   10.15    4.55
   9   8  -4    4.90    4.11
   9   8  -3   12.77    4.87
   9  -8  -3   16.28    5.29
  -9  -8  -3   18.69    5.72
   9  -8  -3   17.31    5.83
   9   8  -3    9.02    2.50
   9   8  -2   29.43    7.35
   9  -8  -2   30.19    7.07
   9  -8  -2   29.93    7.23
   9   8  -2   35.15    7.89
  -9  -8  -2   25.25    5.98
   9   8  -1    1.00    3.61
   9  -8  -1   -1.37    2.35
  -9  -8  -1    1.98    2.53
   9  -8  -1    2.00    1.92
   9   8  -1    1.46    2.53
   9   8   0   31.20    7.68
   9  -8   0   37.78    7.70
  -9  -8   0   31.86    7.16
   9   8   0   35.23    7.98
   9  -8   0   25.02    6.38
   9   8   1    8.82    4.97
   9  -8   1    1.03    3.54
   9  -8   1    1.00    1.75
  -9  -8   1    4.31    4.13
   9   8   1    6.76    3.90
   9   8   2   25.87    6.78
   9  -8   2   38.87    7.63
   9  -8   2   33.60    6.65
  -9  -8   2   34.04    7.16
   9   8   2   34.36    7.66
   9   8   3   14.61    6.14
   9  -8   3   18.74    5.69
   9  -8   3   21.25    6.31
  -9  -8   3   23.24    6.21
   9   8   3   11.14    4.67
   9  -8   4   15.11    6.07
  -9  -8   4    4.26    4.85
   9   8   4    6.39    2.49
   9   8   4    2.07    2.87
   9  -8   5    0.75    2.66
  -9  -8   5    7.38    3.25
   9   8   5    4.64    3.75
   9   8   5   12.23    5.72
   9  -8   6   49.26    8.60
   9   8   6   70.85   11.25
  -9  -8   6   46.25    9.45
   9   8   6   44.80    8.42
   9  -8   7    8.74    3.09
  -9  -8   7   15.42    4.41
   9   8   7   18.48    6.51
   9   8   7   10.00    3.75
   9  -8   8    8.61    4.27
   9   8   8   13.21    4.50
   9  -8   9    0.58    1.93
   9   8   9    1.40    3.03
   9   8   9    1.02    2.67
   9  -8  10   15.33    5.65
   9   8  10   15.77    6.66
   9   8  10    6.01    3.10
   9  -8  11    2.25    2.43
   9   8  11    7.61    3.57
   9   8  11    6.27    4.73
   9  -8  12    5.60    3.27
   9   8  12    4.22    4.53
   9   8  12    1.00    2.94
   9  -8  13   -0.24    2.57
   9   8  13    0.22    4.19
   9   8  13   -0.88    3.88
   9  -8  14   23.41    6.42
   9   8  14   18.55    6.31
   9   8  14   12.26    4.64
   9  -8  15    6.83    2.24
   9   8  15    6.86    2.74
   9   8  16    5.01    3.43
   9   8  16    3.25    3.32
   9   8  17    2.72    3.67
   9   8  17   -0.19    3.90
   9   8  18   24.06    6.22
   9   8  18   19.62    7.46
   9  -9 -14   -5.41    4.96
  -9  -9 -14    1.39    2.43
   9  -9 -14   -2.14    2.63
   9  -9 -13   12.25    5.67
  -9  -9 -13   11.45    5.65
   9  -9 -13   10.38    5.06
   9  -9 -12    6.87    3.20
  -9  -9 -12   10.18    6.17
   9  -9 -12   -1.79    3.87
   9  -9 -11  106.28   13.55
  -9  -9 -11  101.77   13.22
   9   9 -11   79.57   13.24
   9  -9 -11  118.07   14.61
   9  -9 -10  104.06   13.31
  -9  -9 -10   78.94   11.35
   9   9 -10  100.27   15.18
   9  -9 -10  103.33   13.17
   9  -9  -9  111.48   13.32
  -9  -9  -9  101.85   12.88
   9   9  -9  114.33   14.85
   9  -9  -9   89.17   12.75
   9   9  -8    4.89    4.27
   9  -9  -8    0.51    3.82
  -9  -9  -8    0.77    3.48
   9  -9  -8    5.33    3.50
   9  -9  -7   70.97   10.80
  -9  -9  -7  101.16   12.73
   9   9  -7   77.26   13.08
   9  -9  -7   67.77   11.11
   9   9  -6   71.56   11.45
   9  -9  -6   71.96   10.72
  -9  -9  -6   69.84   10.75
   9  -9  -6   82.05   12.10
   9  -9  -5  319.16   22.92
  -9  -9  -5  333.65   23.10
   9   9  -5  313.06   23.86
   9  -9  -5  362.54   24.54
   9   9  -4    6.02    2.73
   9  -9  -4    4.93    3.17
  -9  -9  -4    7.59    3.30
   9  -9  -4   10.95    3.92
   9   9  -3    1.96    2.08
   9  -9  -3   -3.97    2.74
  -9  -9  -3    1.94    3.55
   9  -9  -3    4.31    4.06
   9   9  -2   -1.02    2.48
   9  -9  -2   -4.58    3.72
  -9  -9  -2    6.35    4.43
   9  -9  -2    0.71    2.71
   9  -9  -1  124.62   13.93
  -9  -9  -1  137.47   15.06
   9   9  -1  125.09   15.22
   9  -9  -1  120.92   13.89
   9  -9   0  125.55   14.16
  -9  -9   0   95.39   12.43
   9   9   0  109.91   14.23
   9   9   0  128.70   14.84
   9  -9   0   76.46   11.17
   9  -9   1  176.17   16.81
  -9  -9   1  152.51   15.61
   9   9   1  102.74   13.09
   9   9   1  141.52   15.22
   9  -9   1  108.82   13.61
   9  -9   2    2.53    3.78
  -9  -9   2    7.79    3.96
   9   9   2    6.69    5.73
   9   9   2    2.45    4.37
  -9  -9   3   -1.80    3.03
   9  -9   3   -0.41    2.28
   9   9   3   -0.25    3.18
   9   9   3   -0.53    2.37
   9  -9   4   10.06    4.59
  -9  -9   4    0.63    2.04
   9   9   4    5.65    4.50
   9   9   4   11.01    3.74
   9  -9   5  290.22   21.87
  -9  -9   5  301.03   22.62
   9   9   5  310.52   23.83
   9   9   5  374.67   26.19
   9  -9   6   78.15   10.92
  -9  -9   6   58.89    9.90
   9   9   6   52.16    9.84
   9   9   6   67.80   11.07
   9  -9   7   73.18   11.02
   9   9   7   81.57   12.40
   9   9   7   75.07   12.01
   9   9   8   -5.04    4.40
   9   9   8    3.51    4.08
   9  -9   9   71.88   10.90
   9   9   9   79.84   11.64
   9   9   9  102.74   13.97
   9  -9  10   93.49   13.19
   9   9  10   69.06   11.47
   9   9  10   78.03   12.02
   9  -9  11   75.88   12.04
   9   9  11   95.08   12.81
   9   9  11  116.54   15.14
   9  -9  12    3.65    2.44
   9   9  12    9.24    6.03
   9   9  12    5.09    3.01
   9  -9  13   14.30    5.06
   9   9  13   17.19    6.07
   9   9  13   23.41    7.19
   9  -9  14   -3.45    4.19
   9   9  14    0.48    4.52
   9   9  14    3.61    3.31
   9 -10  -8   80.70   11.73
   9 -10  -8   90.05   13.19
   9  10  -8   86.16   12.56
   9 -10  -7   14.25    5.44
  -9 -10  -7   23.25    6.87
   9 -10  -7   14.27    4.99
   9  10  -7   26.67    7.84
   9 -10  -6  171.67   17.09
  -9 -10  -6  136.97   15.56
   9  10  -6  201.08   19.96
   9 -10  -6  160.93   17.51
   9 -10  -5   38.82    8.89
  -9 -10  -5   43.41    8.34
   9 -10  -5   29.31    7.19
   9  10  -5   40.71    9.05
   9 -10  -4   10.28    4.97
  -9 -10  -4    9.71    4.58
   9 -10  -4    9.66    3.96
   9  10  -4   10.46    5.44
   9 -10  -3    5.02    4.28
  -9 -10  -3    0.08    3.93
   9 -10  -3    6.14    5.90
   9  10  -3    8.72    5.21
   9 -10  -2   81.23   11.15
  -9 -10  -2   81.80   12.33
   9 -10  -2   71.81   11.88
   9  10  -2   68.97   11.42
   9 -10  -1   19.61    7.00
  -9 -10  -1   33.55    8.15
   9 -10  -1   11.86    4.50
   9  10  -1   21.20    6.41
   9 -10   0  220.18   19.29
  -9 -10   0  185.76   18.15
   9  10   0  172.22   18.45
   9 -10   1   18.54    6.35
  -9 -10   1   23.43    5.67
   9  10   1   12.33    6.50
  -9 -10   2   56.22   10.13
   9  10   2   62.55   10.64
   9 -10   3   -0.48    3.77
   9  10   3    1.14    2.59
   9 -10   4   11.17    5.22
  -9 -10   4    3.62    5.49
   9  10   4   16.35    7.02
   9 -10   5   33.83    8.92
  -9 -10   5   42.17    9.31
   9  10   5   37.65    8.24
   9 -10   6  145.61   16.97
   9  10   6  144.07   17.17
   9  10   7    9.73    5.21
   9 -10   7   12.43    5.26
   9  10   7   18.12    5.92
   9 -10   8   86.38   12.62
   9  10   8  111.35   15.54
   9  10   8   75.67   13.08
  10   0 -24  103.15   14.34
  10   0 -23  174.28   18.08
  10   0 -22   66.18   11.02
  10   0 -21  291.47   21.85
  10   0 -20   91.83   12.99
  10   0 -19   93.83   12.20
  10   0 -18  239.20   18.82
  10   0 -17  398.98   23.80
  10   0 -16   95.48   12.08
  10   0 -15  388.04   23.19
  10   0 -14  201.69   16.37
  10   0 -13  231.10   17.17
  10   0 -12  326.75   20.76
  10   0 -12  365.11   17.26
  10   0 -11  442.62   23.42
  10   0 -11  389.85   18.26
  10   0 -10  100.35   11.41
  10   0 -10  117.90    9.95
  10   0  -9  283.55   18.36
  10   0  -9  315.14   16.49
  10   0  -8  257.86   17.48
  10   0  -8  254.10   14.78
  10   0  -7  123.30   11.76
  10   0  -7  158.08   11.68
  10   0  -6   67.50    8.74
  10   0  -6   59.36    7.34
  10   0  -5  324.26   18.71
  10   0  -5  294.29   16.22
  10   0  -4  319.22   18.49
  10   0  -4  365.97   18.20
  10   0  -3  248.38   16.12
  10   0  -3  266.39   15.67
  10   0  -2  228.88   15.41
  10   0  -2  250.59   15.18
  10   0  -1  202.76   14.45
  10   0  -1  172.43   12.81
  10   0   0    3.13    2.10
  10   0   0    4.81    2.63
  10   0   0    1.60    1.48
  10   0   1  160.88   12.89
  10   0   1  170.02   13.54
  10   0   1  155.78   12.44
  10   0   2  285.78   17.09
  10   0   2  234.07   15.77
  10   0   2  262.28   15.98
  10   0   3  276.41   16.67
  10   0   3  310.26   18.32
  10   0   3  272.33   16.51
  10   0   4  360.92   18.69
  10   0   4  319.30   18.17
  10   0   5  301.16   17.24
  10   0   5  304.95   18.25
  10   0   5  308.96   17.69
  10   0   6   67.08    7.85
  10   0   6   71.67    8.90
  10   0   6   54.31    7.67
  10   0   7  140.10   11.81
  10   0   7  124.09   11.93
  10   0   7  167.06   13.46
  10   0   8  286.11   17.35
  10   0   8  272.47   17.60
  10   0   9  299.10   17.59
  10   0   9  311.31   18.88
  10   0  10  114.30   10.77
  10   0  10   93.09   10.69
  10   0  11  396.96   20.75
  10   0  11  412.72   22.46
  10   0  12  369.62   19.71
  10   0  12  355.32   21.16
  10   0  13  217.74   16.27
  10   0  14  172.00   14.53
  10   0  15  415.14   23.12
  10   0  16  117.80   12.40
  10   0  17  375.48   22.56
  10   0  18  243.65   18.40
  10   0  19  105.93   12.60
  10   0  20   78.54   10.68
  10   0  21  274.73   20.66
  10   0  22   63.94    9.91
  10   0  23  145.55   16.17
  10   0  24   85.98   11.46
  10  -1 -25    6.28    4.25
  10  -1 -24   12.73    7.49
  10  -1 -23    5.39    4.81
  10  -1 -22   10.74    3.46
  10   1 -22    5.66    2.54
  10  -1 -21   14.36    3.53
  10   1 -21   12.70    5.07
  10  -1 -20   18.08    6.17
  10   1 -20   24.21    7.11
  10   1 -19    7.41    4.50
  10  -1 -19   10.27    5.12
  10   1 -18   11.10    5.16
  10  -1 -18    9.29    4.42
  10   1 -17    9.43    4.33
  10  -1 -17   21.76    6.06
  10   1 -16    6.38    3.23
  10  -1 -16   19.07    5.42
  10   1 -15   17.08    5.24
  10  -1 -15   30.66    6.67
  10   1 -14    0.75    3.77
  10  -1 -14    4.95    3.19
  10  -1 -13   40.46    6.90
  10   1 -13   48.19    8.41
  10  -1 -13   39.88    6.36
  10   1 -12   39.02    6.89
  10  -1 -12   38.60    6.17
  10  -1 -12   45.59    8.22
  10   1 -11   -0.38    2.09
  10  -1 -11   -0.40    1.20
  10  -1 -10   14.26    4.15
  10  -1 -10   10.82    4.24
  10   1 -10   14.47    4.13
  10  -1  -9   18.73    4.28
  10  -1  -9   19.20    4.83
  10   1  -9   17.61    4.72
  10  -1  -8    2.87    1.19
  10  -1  -8    2.97    3.55
  10   1  -8    1.35    1.47
  10   1  -7   62.00    9.12
  10  -1  -7   45.06    6.81
  10  -1  -7   46.95    7.55
  10  -1  -6   23.55    5.20
  10   1  -6   30.06    6.47
  10  -1  -6   28.82    5.63
  10  -1  -5   -0.98    1.89
  10  -1  -5   -0.08    1.77
  10   1  -5   -0.82    2.93
  10  -1  -4    1.87    1.55
  10   1  -4    4.76    2.18
  10  -1  -3    3.57    2.27
  10  -1  -3    5.97    2.39
  10   1  -3    8.35    2.81
  10  -1  -2    7.73    3.20
  10  -1  -2    9.35    3.15
  10   1  -2    4.12    1.53
  10   1  -2   10.02    3.13
  10   1  -1   31.24    5.64
  10  -1  -1   49.56    7.20
  10   1  -1   42.16    7.48
  10  -1  -1   34.69    5.95
  10   1   0   21.48    4.68
  10  -1   0   21.50    5.44
  10   1   0   31.46    5.92
  10  -1   0   25.75    5.09
  10  -1   0   33.04    5.40
  10   1   1   42.55    6.51
  10  -1   1   38.51    6.23
  10   1   1   37.52    6.57
  10  -1   1   48.59    7.26
  10  -1   1   45.15    6.80
  10  -1   2   10.46    3.33
  10  -1   2   10.03    2.84
  10   1   2   10.94    4.29
  10   1   2    8.93    3.58
  10  -1   2   15.84    4.51
  10  -1   3    6.57    2.72
  10   1   3    2.75    2.57
  10   1   3    6.44    2.53
  10  -1   3    5.46    3.18
  10  -1   3   11.40    3.42
  10  -1   4    4.25    1.79
  10   1   4    5.39    2.64
  10   1   4    8.09    3.43
  10  -1   4    4.60    1.71
  10  -1   4    4.18    2.57
  10   1   5   -0.82    1.84
  10   1   5    3.23    2.85
  10  -1   5    0.39    1.94
  10  -1   5    0.81    2.42
  10  -1   5    0.14    1.49
  10   1   6   29.06    5.60
  10  -1   6   34.98    6.03
  10  -1   6   34.28    6.06
  10   1   6   23.06    5.71
  10  -1   6   27.79    5.37
  10   1   7   51.06    7.63
  10  -1   7   43.76    6.61
  10   1   7   44.09    7.11
  10  -1   7   39.70    6.49
  10  -1   7   40.42    6.85
  10   1   8    2.21    1.98
  10  -1   8    1.23    1.45
  10   1   8   -0.10    2.34
  10  -1   8    1.77    2.83
  10  -1   8   -1.67    2.84
  10   1   9   18.31    4.69
  10  -1   9   16.38    4.53
  10   1   9   23.25    5.71
  10  -1   9   16.16    4.56
  10  -1   9   13.27    3.53
  10   1  10   12.24    4.31
  10  -1  10   12.02    3.21
  10   1  10   15.94    5.30
  10  -1  10    3.21    1.90
  10  -1  10    9.56    3.94
  10   1  11   -0.23    1.29
  10  -1  11   -0.27    1.78
  10  -1  11    0.46    2.52
  10   1  11    2.29    2.71
  10  -1  11    3.09    2.39
  10   1  12   49.42    7.73
  10   1  12   45.71    7.99
  10  -1  12   42.34    6.60
  10  -1  12   45.15    7.16
  10  -1  13   57.15    8.09
  10   1  13   43.73    8.04
  10  -1  13   43.88    7.53
  10   1  13   48.53    8.35
  10  -1  14   -1.16    3.05
  10   1  14    0.43    1.72
  10  -1  15   24.47    5.20
  10   1  15   28.08    6.55
  10  -1  16    8.64    4.40
  10   1  16   11.22    4.28
  10   1  17   19.01    5.60
  10  -1  17   20.01    5.28
  10  -1  18   14.83    5.92
  10   1  18   14.53    5.53
  10  -1  19   17.04    3.88
  10   1  19   10.86    2.93
  10  -1  20    7.33    2.94
  10   1  20   16.33    4.71
  10   1  21   23.65    7.50
  10   1  22    3.12    2.47
  10   1  23    7.40    5.16
  10   1  24   -0.41    2.70
  10   1  25    8.85    3.54
  10   1  26    5.60    4.41
  10   1  27    2.96    3.81
  10  -2 -26   10.22    3.58
  10  -2 -25   43.62    9.71
  10  -2 -24   74.07   11.72
  10  -2 -23   32.09    7.35
  10  -2 -22   34.02    8.58
  10  -2 -21  100.67   12.77
  10   2 -21  103.75   13.48
  10  -2 -20   27.60    6.96
  10   2 -20   16.59    5.32
  10  -2 -19   61.15    9.66
  10   2 -19   68.23   10.37
  10  -2 -18  137.73   14.35
  10   2 -18  159.04   15.94
  10  -2 -17  238.09   18.78
  10   2 -17  221.73   18.30
  10  -2 -16   83.51   10.87
  10   2 -16   57.77    9.70
  10  -2 -15  243.80   18.31
  10   2 -15  225.90   18.06
  10  -2 -14  141.34   14.27
  10   2 -14  150.20   14.38
  10  -2 -14  129.26   11.78
  10  -2 -13   67.63    9.54
  10   2 -13   87.51   11.17
  10  -2 -13   73.50    9.05
  10  -2 -12  249.40   17.52
  10   2 -12  233.09   17.33
  10  -2 -12  262.64   16.18
  10  -2 -11  598.71   27.33
  10   2 -11  578.88   27.16
  10  -2 -11  547.38   23.21
  10  -2 -10  137.32   12.74
  10   2 -10  121.12   12.65
  10  -2 -10  134.39   11.61
  10  -2  -9  181.89   14.93
  10   2  -9  195.07   15.51
  10  -2  -9  208.99   14.49
  10  -2  -8  236.43   16.45
  10   2  -8  241.45   17.32
  10  -2  -8  250.26   15.65
  10  -2  -7  116.17   11.78
  10   2  -7  119.03   11.78
  10  -2  -7  106.16   10.30
  10  -2  -6   75.12    9.23
  10   2  -6   77.61    9.75
  10  -2  -6   85.63    9.42
  10  -2  -5  363.59   20.31
  10   2  -5  376.23   20.38
  10  -2  -5  351.06   18.50
  10  -2  -4  184.51   14.28
  10   2  -4  176.58   14.17
  10  -2  -4  187.36   13.57
  10  -2  -3  247.88   16.53
  10   2  -3  246.43   16.52
  10   2  -3  258.87   17.34
  10  -2  -3  266.13   16.21
  10  -2  -2  461.28   21.92
  10   2  -2  500.93   23.80
  10   2  -2  462.77   23.79
  10  -2  -2  493.62   22.12
  10   2  -1  381.04   20.79
  10   2  -1  409.90   22.10
  10  -2  -1  399.02   19.91
  10  -2  -1  415.02   20.93
  10   2   0   43.10    6.91
  10   2   0   46.08    7.04
  10  -2   0   57.82    7.52
  10  -2   0   53.22    7.31
  10   2   1  451.29   22.36
  10  -2   1  459.14   21.32
  10  -2   1  469.69   21.84
  10   2   2  473.83   23.42
  10   2   2  498.89   24.27
  10  -2   2  465.41   21.77
  10  -2   2  471.32   21.83
  10  -2   2  513.15   23.09
  10   2   3  273.42   17.49
  10   2   3  259.94   17.59
  10  -2   3  264.37   16.42
  10  -2   3  262.48   15.84
  10  -2   3  264.46   16.77
  10   2   4  174.51   14.26
  10   2   4  169.17   14.62
  10  -2   4  180.46   13.54
  10  -2   4  202.53   13.91
  10  -2   4  185.50   14.05
  10   2   5  318.32   19.45
  10   2   5  354.52   20.85
  10  -2   5  392.63   19.16
  10  -2   5  353.99   18.83
  10  -2   5  391.91   20.60
  10   2   6   66.88    9.02
  10  -2   6   67.13    8.03
  10   2   6   67.79    9.37
  10  -2   6   87.63    9.71
  10  -2   6   90.42    9.92
  10   2   7  103.39   11.00
  10  -2   7   90.60    9.34
  10   2   7  127.90   12.29
  10  -2   7   95.61    9.61
  10  -2   7   98.43   10.72
  10   2   8  254.33   17.59
  10  -2   8  232.05   15.08
  10   2   8  247.81   17.71
  10  -2   8  239.18   15.65
  10  -2   8  269.12   17.54
  10   2   9  187.82   15.15
  10  -2   9  206.59   13.87
  10   2   9  210.69   16.26
  10  -2   9  203.91   14.66
  10  -2   9  173.98   14.35
  10   2  10  154.58   14.13
  10  -2  10  128.36   11.77
  10   2  10  120.14   12.43
  10  -2  10  135.48   12.92
  10  -2  11  640.84   26.24
  10   2  11  648.49   29.34
  10  -2  11  593.88   26.39
  10  -2  12  236.18   16.35
  10   2  12  254.37   18.25
  10  -2  12  236.24   16.91
  10   2  12  240.16   17.55
  10  -2  13   83.83   10.02
  10   2  13   80.94   10.57
  10  -2  13   90.23   10.74
  10   2  13   81.64   10.45
  10  -2  14  131.49   12.33
  10   2  14  157.34   14.89
  10  -2  14  174.71   14.82
  10   2  14  156.82   14.78
  10  -2  15  214.38   16.57
  10   2  15  213.70   17.30
  10   2  15  211.25   16.85
  10  -2  15  230.82   17.60
  10   2  16   71.53    9.89
  10  -2  16   44.07    8.07
  10   2  17  243.68   18.63
  10  -2  17  195.80   16.64
  10   2  18  209.33   17.58
  10   2  19   59.47    9.53
  10   2  20   26.41    6.67
  10   2  21   92.15   11.93
  10   2  22   44.64    9.63
  10   2  23   39.03    8.27
  10   2  24   75.05   12.16
  10   2  25   46.23    9.24
  10   2  26   28.48    8.11
  10  -3 -26    5.40    4.44
  10  -3 -25    0.89    3.78
  10  -3 -24    5.32    2.91
  10  -3 -23    4.08    3.63
  10  -3 -22    5.95    4.14
  10  -3 -21   -1.87    2.70
  10  -3 -20    2.48    4.39
  10   3 -20    2.91    3.68
  10  -3 -19   -2.50    2.08
  10   3 -19   -0.33    4.71
  10   3 -18   -3.75    2.62
  10  -3 -18    3.78    4.34
  10   3 -17    2.97    2.48
  10  -3 -17    0.43    2.25
  10   3 -16   13.42    5.06
  10  -3 -16   23.07    6.73
  10   3 -15   -2.18    1.91
  10  -3 -15   -0.05    2.24
  10  -3 -14    1.74    2.25
  10   3 -14    4.49    2.74
  10  -3 -14    3.82    3.18
  10  -3 -13   23.86    4.56
  10   3 -13   22.57    4.97
  10  -3 -13   22.58    5.40
  10  -3 -12   10.00    4.16
  10   3 -12   11.75    4.47
  10  -3 -12   10.55    3.28
  10  -3 -11    4.94    3.63
  10   3 -11    1.73    2.68
  10  -3 -11    7.26    3.60
  10  -3 -10   25.58    6.00
  10   3 -10   16.80    4.80
  10  -3 -10   28.08    6.12
  10  -3  -9   10.96    4.48
  10   3  -9   13.07    4.39
  10  -3  -9   23.62    5.62
  10  -3  -8    1.49    2.74
  10   3  -8    1.79    2.32
  10  -3  -8    2.09    3.68
  10  -3  -7   46.51    7.87
  10   3  -7   39.12    7.38
  10   3  -6    9.46    3.47
  10  -3  -6   23.15    5.10
  10  -3  -6   14.57    4.40
  10  -3  -5    0.57    1.68
  10   3  -5    3.61    2.66
  10  -3  -5   -1.05    2.31
  10   3  -5   -1.37    2.58
  10  -3  -4   15.30    4.33
  10   3  -4   19.80    5.16
  10  -3  -4   19.21    4.72
  10   3  -4   14.52    4.32
  10  -3  -3    2.67    2.94
  10   3  -3    4.94    3.24
  10  -3  -3   -1.81    1.49
  10   3  -3    3.31    2.92
  10  -3  -2    8.65    3.17
  10   3  -2    8.26    3.07
  10  -3  -2    9.56    3.36
  10   3  -2    9.44    3.87
  10  -3  -1   38.10    6.33
  10  -3  -1   24.97    6.00
  10   3  -1   29.74    6.75
  10   3  -1   24.23    5.88
  10  -3   0    3.92    2.74
  10   3   0    2.69    1.97
  10  -3   0    5.40    3.41
  10   3   0    0.69    3.09
  10  -3   1   23.14    5.27
  10  -3   1   33.24    5.86
  10   3   1   18.97    5.10
  10   3   1   29.69    6.23
  10  -3   2   12.69    4.71
  10   3   2    9.44    3.59
  10  -3   2    9.95    3.04
  10   3   2    2.13    2.41
  10  -3   2   10.68    4.18
  10  -3   3    4.19    1.89
  10   3   3    1.12    2.21
  10  -3   3    4.19    2.32
  10   3   3    3.62    2.44
  10  -3   3    2.34    2.55
  10  -3   4   14.52    4.53
  10  -3   4   23.81    5.11
  10   3   4    8.46    3.74
  10   3   4   20.28    5.90
  10  -3   4   14.45    4.22
  10  -3   5    4.10    3.39
  10  -3   5    5.19    3.25
  10   3   5    2.96    2.19
  10   3   5    0.40    2.39
  10  -3   5    3.85    2.90
  10  -3   6   29.02    6.23
  10  -3   6   15.43    4.06
  10   3   6   19.28    6.40
  10   3   6   20.15    5.40
  10  -3   6   21.14    4.87
  10   3   7   52.56    8.48
  10   3   7   51.68    8.36
  10  -3   7   59.01    7.79
  10  -3   7   51.31    7.22
  10  -3   7   59.79    8.39
  10  -3   8    0.12    2.09
  10  -3   8   -1.20    2.65
  10   3   8   -1.11    3.36
  10   3   8    3.21    1.95
  10  -3   8   -0.35    1.84
  10  -3   9   14.89    4.96
  10   3   9   12.78    4.27
  10   3   9   13.90    4.53
  10  -3   9   14.57    5.12
  10  -3   9   -3.48    1.87
  10  -3  10   22.00    5.49
  10   3  10   24.96    5.23
  10   3  10   24.27    5.92
  10  -3  11   -0.62    2.99
  10   3  11    3.77    3.37
  10   3  11    3.44    2.74
  10  -3  12    7.50    2.13
  10   3  12    5.73    2.13
  10   3  12    9.08    4.29
  10  -3  13   25.99    6.11
  10   3  13   29.66    6.66
  10   3  13   29.31    6.13
  10   3  14   -1.84    3.01
  10   3  14    0.97    3.62
  10  -3  14    3.55    2.18
  10   3  15    2.18    1.67
  10   3  15   -1.96    1.48
  10  -3  15    0.62    1.61
  10   3  16   10.06    4.09
  10  -3  16   19.95    6.37
  10   3  16   17.50    5.15
  10   3  17   -0.71    2.12
  10  -3  17    1.48    3.71
  10   3  18   -0.19    2.81
  10  -3  18    4.94    4.18
  10   3  19    2.24    2.19
  10  -3  19   -0.63    2.84
  10   3  20    0.88    2.38
  10  -3  20   -3.20    2.39
  10   3  21    3.23    3.55
  10   3  22    9.53    4.60
  10   3  23    0.61    3.93
  10   3  24    6.86    3.49
  10   3  25    8.26    5.09
  10   3  26    0.54    3.02
  10  -4 -25   46.15   10.07
  10  -4 -24   69.86   11.51
  10  -4 -23   14.98    6.21
  10  -4 -22   35.50    8.40
  10  -4 -21   46.94    9.05
  10  -4 -20   24.45    6.56
  10  -4 -19   71.23   10.60
  10   4 -19   59.38   10.39
  10   4 -18  139.18   15.21
  10  -4 -18  129.79   14.22
  10   4 -17  130.87   14.70
  10  -4 -17  136.86   14.75
  10  -4 -16   50.39    8.97
  10   4 -16   51.33    9.05
  10  -4 -15  145.56   13.38
  10   4 -15  168.35   16.13
  10  -4 -15  184.31   16.33
  10  -4 -14  142.06   13.22
  10   4 -14  104.62   12.89
  10  -4 -14  128.06   13.27
  10  -4 -13   79.41    9.92
  10   4 -13   53.30    9.10
  10  -4 -13   65.26    9.63
  10  -4 -12  166.46   14.06
  10   4 -12  179.21   16.07
  10  -4 -12  133.53   13.75
  10  -4 -11  399.70   21.84
  10   4 -11  372.30   22.95
  10  -4 -11  396.54   23.23
  10  -4 -10  118.61   12.21
  10   4 -10  124.54   13.29
  10  -4 -10   94.43   11.24
  10  -4  -9  100.07   10.95
  10   4  -9   96.58   11.62
  10  -4  -9   97.93   11.33
  10  -4  -8  136.14   12.80
  10   4  -8  134.61   13.62
  10  -4  -8  130.84   12.52
  10   4  -8  138.12   14.14
  10  -4  -7   42.25    6.91
  10   4  -7   36.19    6.72
  10   4  -7   47.14    8.39
  10  -4  -7   34.68    6.55
  10  -4  -6   50.72    7.58
  10   4  -6   52.54    8.63
  10  -4  -6   44.39    6.92
  10   4  -6   36.18    7.33
  10  -4  -5  230.30   16.38
  10   4  -5  254.86   18.36
  10  -4  -5  231.34   16.62
  10   4  -5  279.58   19.82
  10  -4  -4  105.69   10.91
  10   4  -4   81.87   10.62
  10  -4  -4   98.93   10.72
  10   4  -4   80.90   10.45
  10  -4  -3   96.85   10.36
  10   4  -3   72.38   10.25
  10  -4  -3   83.92    9.73
  10   4  -3   96.11   11.55
  10  -4  -2  351.69   20.17
  10   4  -2  319.28   20.44
  10  -4  -2  296.07   18.79
  10   4  -2  294.29   19.75
  10  -4  -1  315.72   19.22
  10   4  -1  341.40   21.05
  10  -4  -1  320.58   19.23
  10   4  -1  333.84   21.03
  10  -4   0  145.92   13.24
  10   4   0  165.16   14.50
  10  -4   0  146.23   12.95
  10  -4   1  346.98   20.67
  10   4   1  338.10   21.17
  10  -4   1  327.27   19.19
  10   4   1  329.26   21.23
  10  -4   2  298.38   18.63
  10   4   2  318.28   20.34
  10  -4   2  320.54   18.61
  10   4   2  318.44   20.64
  10  -4   2  329.40   17.79
  10  -4   3   81.85    9.78
  10   4   3   98.67   11.54
  10  -4   3   79.83    9.50
  10   4   3   95.80   11.27
  10  -4   3   85.46    9.08
  10  -4   4   73.63    9.49
  10   4   4   95.38   11.19
  10  -4   4   89.94    9.81
  10   4   4   65.29    9.22
  10  -4   5  280.96   18.38
  10   4   5  222.03   17.57
  10  -4   5  221.30   15.09
  10   4   5  272.84   19.23
  10   4   6   42.98    7.87
  10  -4   6   38.50    6.76
  10   4   6   52.99    8.54
  10  -4   6   43.00    6.63
  10  -4   7   47.30    7.86
  10   4   7   34.66    6.75
  10  -4   7   40.17    6.04
  10   4   7   38.90    7.45
  10   4   8  129.14   13.59
  10   4   8  115.19   12.93
  10  -4   8  149.21   13.75
  10   4   9  100.65   12.02
  10   4   9  104.71   12.39
  10  -4   9  132.20   12.71
  10   4  10  104.44   12.18
  10   4  10  122.38   13.52
  10  -4  10  100.42   11.90
  10   4  11  400.69   23.54
  10   4  11  414.01   24.99
  10  -4  11  403.35   23.17
  10   4  12  151.94   14.85
  10   4  12  178.50   16.60
  10  -4  12  140.10   13.72
  10   4  13   59.73    9.47
  10   4  13   55.28    9.54
  10  -4  13   76.84    9.87
  10   4  14  113.35   13.09
  10   4  14  129.42   13.95
  10  -4  14  109.53   12.72
  10   4  15  142.96   14.95
  10   4  15  156.75   15.71
  10  -4  15  162.73   15.13
  10   4  16   48.00    8.44
  10   4  16   64.59   10.67
  10  -4  16   57.47    9.11
  10   4  17  144.82   15.03
  10   4  17  125.03   14.64
  10  -4  17  109.89   13.11
  10   4  18  142.07   15.00
  10  -4  18  139.22   15.41
  10   4  19   41.54    8.43
  10  -4  19   44.15    9.32
  10   4  20   28.83    6.92
  10   4  21   42.81    8.42
  10   4  22   27.89    7.97
  10   4  23   20.36    6.24
  10   4  24  106.50   13.55
  10   4  25   40.24    8.82
  10  -5 -23    0.31    3.43
  10  -5 -22    9.44    3.58
  10  -5 -21   36.87    7.32
  10  -5 -20    5.52    2.20
  10  -5 -19    9.90    4.84
  10  -5 -18   -3.40    3.83
  10   5 -18    2.59    3.30
  10  -5 -17    8.01    4.54
  10   5 -17   13.01    5.40
  10  -5 -16   14.26    5.66
  10   5 -16   17.49    6.06
  10  -5 -15   37.62    8.49
  10  -5 -15   28.81    6.17
  10   5 -15   49.71    8.87
  10  -5 -14    3.29    3.28
  10  -5 -14   -1.14    2.01
  10   5 -14    5.39    2.14
  10  -5 -13    0.06    2.22
  10  -5 -13   -1.06    1.91
  10   5 -13    1.00    3.66
  10  -5 -12    2.50    2.93
  10  -5 -12    1.90    3.52
  10   5 -12   -1.37    3.16
  10  -5 -11   10.66    4.20
  10  -5 -11   10.81    4.37
  10   5 -11   10.16    4.19
  10   5 -11   16.82    6.34
  10  -5 -10   35.68    7.50
  10  -5 -10   28.86    6.44
  10   5 -10   34.11    7.48
  10   5 -10   28.51    6.04
  10  -5  -9   14.50    5.19
  10  -5  -9   15.75    5.18
  10   5  -9    8.06    4.21
  10   5  -9    9.66    2.99
  10  -5  -8   46.45    8.01
  10   5  -8   34.36    7.73
  10  -5  -8   40.14    7.54
  10   5  -8   32.54    7.37
  10  -5  -7   26.06    6.39
  10  -5  -7   19.87    5.69
  10   5  -7   19.66    5.97
  10   5  -7   21.47    5.05
  10  -5  -6    4.48    3.35
  10  -5  -6    3.28    3.81
  10   5  -6    6.38    4.46
  10   5  -6    9.51    2.65
  10  -5  -5   17.86    4.58
  10  -5  -5   10.00    3.71
  10   5  -5    3.90    2.40
  10   5  -5   21.39    6.03
  10  -5  -4   45.49    8.11
  10   5  -4   41.29    7.75
  10  -5  -4   37.98    7.23
  10   5  -4   42.39    7.95
  10  -5  -3   35.47    6.79
  10  -5  -3   23.82    5.48
  10   5  -3   20.81    6.63
  10   5  -3   20.67    6.55
  10  -5  -2   83.49   10.45
  10   5  -2   66.34    9.76
  10  -5  -2   89.71   10.27
  10   5  -2   53.95    8.87
  10  -5  -1  179.73   15.13
  10   5  -1  162.64   15.31
  10  -5  -1  161.51   14.01
  10   5  -1  174.03   15.53
  10  -5   0  200.90   15.96
  10   5   0  218.56   17.55
  10  -5   0  221.32   16.32
  10   5   0  209.39   17.21
  10   5   1  188.19   16.32
  10  -5   1  172.29   14.31
  10   5   1  172.63   15.36
  10   5   2   73.55   10.34
  10  -5   2   54.24    8.45
  10  -5   2   72.31    9.35
  10   5   2   78.05   10.41
  10  -5   3   12.31    4.53
  10   5   3   24.88    6.51
  10   5   3   14.81    4.26
  10  -5   3   13.75    4.11
  10   5   4   56.03    9.34
  10  -5   4   45.29    8.22
  10  -5   4   46.02    7.45
  10   5   4   46.19    8.58
  10  -5   5    7.50    2.88
  10   5   5   13.09    3.47
  10  -5   5    8.65    3.86
  10   5   5    9.10    2.58
  10  -5   6    1.76    2.33
  10   5   6    8.48    4.03
  10  -5   6    4.44    2.63
  10   5   6    5.70    3.86
  10  -5   7   22.53    5.18
  10   5   7   37.48    7.51
  10   5   7   17.97    5.95
  10  -5   8   42.93    7.74
  10   5   8   37.24    7.80
  10   5   8   47.89    8.73
  10   5   9    7.41    3.84
  10  -5   9    9.54    4.51
  10   5   9   12.79    5.38
  10   5  10   30.93    6.73
  10  -5  10   21.35    5.50
  10   5  10   29.32    6.54
  10   5  11    9.41    3.85
  10  -5  11   15.41    4.92
  10   5  11   14.79    5.63
  10   5  12   -0.47    2.34
  10  -5  12   -0.13    2.31
  10   5  12   -0.07    2.06
  10  -5  13   -2.39    3.00
  10   5  13    5.63    4.86
  10   5  13    0.34    2.25
  10  -5  14    6.26    4.33
  10   5  14   -1.31    3.41
  10   5  14    1.37    2.75
  10  -5  15   42.08    7.81
  10   5  15   39.33    7.73
  10   5  15   39.47    8.46
  10  -5  16   29.11    6.93
  10   5  16   19.73    6.23
  10   5  16   22.96    6.42
  10  -5  17    3.30    3.44
  10   5  17    0.39    1.80
  10   5  17    2.23    2.37
  10  -5  18    1.96    2.76
  10   5  18    4.61    2.40
  10   5  18    0.29    3.28
  10   5  19    2.03    2.46
  10   5  20    0.87    2.33
  10   5  21   25.45    6.31
  10   5  22   11.42    5.01
  10   5  23    1.01    2.21
  10  -6 -22   24.24    6.62
  10  -6 -21  139.55   15.67
  10  -6 -20   83.63   12.13
  10  -6 -19   29.39    7.69
  10  -6 -18   72.75   11.09
  10  -6 -17   78.89   11.34
  10  -6 -16   73.28   10.97
  10   6 -16   70.79   11.87
  10  -6 -16   86.28   11.82
  10   6 -16   64.49   10.84
  10  -6 -15  221.19   19.05
  10   6 -15  249.01   21.62
  10  -6 -15  203.73   17.96
  10   6 -15  214.59   19.84
  10   6 -14  109.37   14.16
  10  -6 -14  142.16   14.27
  10  -6 -14   95.60   12.61
  10   6 -14  126.35   15.25
  10   6 -13  101.95   13.37
  10  -6 -13   71.51   10.94
  10  -6 -13   67.63   10.31
  10   6 -13   76.45   11.94
  10   6 -12   91.73   13.27
  10  -6 -12   88.84   11.97
  10  -6 -12  105.44   12.49
  10   6 -12   83.07   11.94
  10   6 -11   95.90   13.18
  10  -6 -11   88.30   11.18
  10  -6 -11   99.44   12.50
  10   6 -11   97.35   12.90
  10   6 -10   71.24   10.91
  10  -6 -10   49.27    8.39
  10  -6 -10   62.43   10.35
  10   6 -10   43.60    9.15
  10   6  -9  141.28   14.96
  10  -6  -9  126.21   13.04
  10   6  -9  134.41   14.76
  10  -6  -9  130.61   13.96
  10   6  -8   97.41   12.08
  10  -6  -8  110.37   12.65
  10  -6  -8   99.27   12.38
  10   6  -8  102.35   12.92
  10  -6  -7   23.00    6.32
  10   6  -7   21.80    5.53
  10  -6  -7   19.90    5.73
  10   6  -7   15.64    5.26
  10   6  -6   66.23   10.29
  10  -6  -6   41.70    7.90
  10  -6  -6   51.05    8.79
  10   6  -6   56.09    8.89
  10   6  -5  166.82   16.41
  10  -6  -5  205.39   16.72
  10  -6  -5  186.23   15.91
  10   6  -5  198.51   17.28
  10   6  -4   62.61    9.95
  10  -6  -4   94.20   11.42
  10  -6  -4  102.28   11.89
  10   6  -4   93.10   12.59
  10  -6  -3    4.77    2.10
  10   6  -3    6.29    3.00
  10  -6  -3    5.80    2.74
  10   6  -3    5.73    4.35
  10   6  -2   83.53   11.24
  10  -6  -2   66.36    9.40
  10  -6  -2   82.67   10.42
  10   6  -2   77.77   11.38
  10   6  -1  169.03   16.51
  10  -6  -1  169.06   15.07
  10   6  -1  149.88   15.20
  10   6   0  171.56   15.84
  10  -6   0  188.38   15.48
  10  -6   0  183.35   15.84
  10   6   0  166.38   15.59
  10  -6   1  146.46   13.68
  10  -6   1  145.62   13.90
  10   6   1  158.94   15.29
  10   6   1  124.37   14.06
  10  -6   2   68.21    9.76
  10  -6   2   60.93    8.66
  10   6   2   78.88   11.51
  10   6   2   58.33    9.39
  10   6   3    7.98    4.47
  10  -6   3    2.63    1.84
  10   6   3    1.80    2.84
  10  -6   3    8.85    4.03
  10  -6   4   92.22   11.33
  10  -6   4   77.89    9.97
  10   6   4   93.66   11.56
  10   6   4   84.35   11.46
  10  -6   5  196.66   16.18
  10  -6   5  173.93   14.80
  10   6   5  187.63   17.19
  10   6   5  210.99   18.63
  10  -6   6   46.89    8.58
  10   6   6   64.46    9.81
  10   6   6   51.82   10.04
  10   6   7   17.67    4.62
  10  -6   7   18.49    5.54
  10   6   7   26.27    6.11
  10  -6   8  124.86   12.89
  10   6   8  123.18   13.02
  10   6   8  107.56   12.95
  10  -6   9  131.05   13.51
  10   6   9  131.86   14.35
  10   6   9  124.34   14.08
  10   6  10   43.40    8.49
  10  -6  10   67.86    9.89
  10   6  10   46.59    8.57
  10  -6  11   98.51   12.22
  10   6  11  123.72   13.81
  10   6  11   92.58   11.88
  10  -6  12   70.61   10.26
  10   6  12   88.40   11.57
  10   6  12   88.04   12.53
  10   6  13   71.88   10.88
  10   6  13   62.88   10.46
  10  -6  13   73.72   10.89
  10   6  14  139.55   15.06
  10   6  14  120.39   15.04
  10  -6  14  123.33   13.82
  10   6  15  227.85   18.92
  10   6  15  197.99   19.09
  10  -6  15  227.65   19.20
  10   6  16   80.47   11.93
  10   6  16   69.43   11.65
  10  -6  16   75.72   11.68
  10   6  17   91.37   11.70
  10   6  17   95.73   13.58
  10  -6  17   84.71   11.91
  10   6  18   65.68   10.79
  10   6  18   48.87   10.66
  10   6  19   27.83    7.77
  10   6  19   25.51    7.96
  10   6  20   80.86   11.90
  10   6  21  167.08   17.31
  10   6  22   51.18   10.37
  10  -7 -19   -1.08    4.42
  10  -7 -18   17.24    5.36
  10  -7 -17    4.65    3.56
  10  -7 -16   10.42    4.43
  10  -7 -16   13.75    5.60
  10   7 -15   11.06    5.96
  10  -7 -15    5.95    4.43
  10  -7 -15    9.70    3.61
  10   7 -14   27.88    6.66
  10  -7 -14   20.86    6.12
  10  -7 -14   16.18    5.13
  10   7 -13   14.35    7.16
  10  -7 -13   17.93    6.39
  10  -7 -13    5.90    4.73
  10   7 -13   15.85    4.15
  10   7 -12   13.62    5.89
  10  -7 -12    5.71    3.31
  10  -7 -12    6.94    3.81
  10   7 -12   11.54    5.35
  10   7 -11   42.27    9.26
  10  -7 -11   52.08    8.79
  10  -7 -11   57.70    9.47
  10   7 -11   42.65    9.61
  10   7 -10   47.04    9.32
  10  -7 -10   56.36    9.04
  10  -7 -10   46.35    8.89
  10   7 -10   45.53    8.72
  10   7  -9   39.79    8.67
  10  -7  -9   40.23    7.75
  10  -7  -9   42.76    8.21
  10   7  -9   44.79    8.70
  10   7  -8   34.13    7.98
  10  -7  -8   33.27    7.19
  10  -7  -8   50.07    9.28
  10   7  -8   31.70    6.86
  10   7  -7    3.53    2.49
  10  -7  -7    0.93    1.81
  10  -7  -7    3.17    3.75
  10   7  -7    1.51    3.13
  10   7  -6   10.45    4.28
  10  -7  -6   12.08    5.14
  10  -7  -6    6.09    3.29
  10   7  -6    9.11    4.76
  10   7  -5    6.60    5.00
  10  -7  -5   10.26    4.07
  10  -7  -5    5.24    2.79
  10   7  -5   16.18    7.11
  10   7  -4    3.43    2.66
  10  -7  -4   12.55    4.33
  10  -7  -4    4.34    2.99
  10   7  -4   14.71    5.63
  10   7  -3   19.58    6.13
  10  -7  -3   20.63    6.61
  10  -7  -3   21.11    5.83
  10   7  -3   19.63    5.59
  10   7  -2   42.37    8.77
  10  -7  -2   36.48    7.57
  10  -7  -2   29.55    6.43
  10   7  -2   33.24    7.86
  10  -7  -1   72.77   10.40
  10  -7  -1   72.68   10.57
  10   7  -1   63.46    9.85
  10   7  -1   67.41   11.59
  10  -7   0   64.74    9.59
  10  -7   0   50.10    8.37
  10   7   0   61.57   10.22
  10   7   0   61.01   10.70
  10  -7   1   67.54    9.76
  10  -7   1   63.00    9.88
  10   7   1   88.03   11.92
  10   7   1   75.09   11.71
  10   7   2   27.03    8.14
  10  -7   2   29.38    6.98
  10  -7   2   23.53    6.39
  10   7   2   20.91    5.50
  10   7   3   12.40    3.47
  10  -7   3   22.33    5.62
  10  -7   3   27.46    6.87
  10   7   3   20.68    6.36
  10  -7   4   12.50    5.34
  10   7   4    7.89    3.61
  10  -7   4    3.54    2.45
  10   7   4    8.94    4.75
  10   7   5    5.32    3.33
  10  -7   5    3.65    2.54
 -10  -7   5    4.28    2.38
  10   7   6    2.40    2.80
  10  -7   6    7.35    2.35
 -10  -7   6   13.50    5.19
  10   7   6    4.45    3.71
  10   7   7    1.89    3.58
  10  -7   7   -1.56    2.00
 -10  -7   7    6.00    3.30
  10   7   7    1.72    3.48
  10   7   8   23.15    7.00
  10  -7   8   37.13    7.34
  10   7   8   30.23    7.39
  10  -7   9   28.74    7.65
  10   7   9   41.03    8.71
  10   7   9   42.80    8.66
  10  -7  10   40.97    8.83
  10   7  10   50.45    9.70
  10   7  10   45.21    9.08
  10   7  11   30.33    6.52
  10   7  11   26.17    6.20
  10  -7  12    4.25    1.92
  10   7  12   16.30    5.69
  10   7  12   14.74    5.00
  10  -7  13   26.57    7.71
  10   7  13    7.62    3.88
  10   7  13   28.22    7.38
  10  -7  14   26.10    6.58
  10   7  14   19.55    6.74
  10   7  14   21.11    6.08
  10  -7  15    7.29    4.22
  10   7  15   16.58    5.13
  10   7  15   14.84    5.64
  10  -7  16   11.80    4.68
  10   7  16   10.01    5.22
  10   7  16   20.61    6.20
  10  -7  17   20.08    7.74
  10   7  17    6.47    4.77
  10   7  17    8.95    4.89
  10   7  18   26.52    6.88
  10   7  18   19.22    7.69
  10   7  19   -0.57    3.70
  10   7  19    6.68    5.10
  10  -8 -16    7.61    3.44
  10  -8 -16    9.86    3.54
 -10  -8 -16    1.93    2.76
  10  -8 -15  124.08   14.66
  10  -8 -15  126.17   14.17
  10  -8 -14   91.32   12.22
  10  -8 -14   91.77   12.71
  10   8 -13   12.85    7.23
  10  -8 -13   39.06    8.35
  10  -8 -13   28.08    7.39
  10   8 -12   17.88    6.95
  10  -8 -12   33.50    7.44
  10  -8 -12   38.98    8.40
  10   8 -11   58.28   10.94
  10  -8 -11   40.11    8.45
  10  -8 -11   67.12   10.71
  10   8 -10    4.91    3.98
  10  -8 -10    1.04    2.17
  10  -8  -9   80.23   11.58
  10  -8  -9   75.25   10.91
  10   8  -9   80.39   12.81
  10  -8  -8   96.60   12.39
  10  -8  -8  100.14   12.58
  10   8  -7   18.67    5.47
  10  -8  -7   38.34    7.92
  10  -8  -7   23.58    6.32
  10   8  -7   29.54    8.85
  10  -8  -6  106.73   12.84
  10   8  -6  105.67   14.15
  10  -8  -6   86.90   12.02
  10  -8  -5  211.76   18.34
  10   8  -5  217.53   19.76
  10  -8  -5  206.58   18.14
  10   8  -5  215.18   19.37
  10  -8  -4  123.45   13.75
  10   8  -4  117.29   14.79
  10  -8  -4  119.00   14.33
  10   8  -4  125.48   14.47
  10   8  -3   20.26    5.82
  10  -8  -3   32.82    6.86
  10  -8  -3   18.00    5.16
  10   8  -3   31.39    7.00
  10   8  -2   22.55    6.82
  10  -8  -2   19.67    5.53
  10  -8  -2   28.99    7.70
 -10  -8  -2   17.31    5.55
  10   8  -2   25.60    6.62
  10   8  -1   46.19    8.86
  10  -8  -1   29.79    7.59
  10  -8  -1   37.25    8.86
 -10  -8  -1   40.11    8.08
  10   8  -1   48.17    9.54
  10   8   0   30.87    8.03
  10  -8   0   37.25    7.41
  10  -8   0   42.41    8.19
 -10  -8   0   33.24    7.44
  10   8   0   42.39    9.24
  10   8   1   37.27    8.55
  10  -8   1   51.60    9.21
  10  -8   1   46.78    8.71
 -10  -8   1   38.95    7.45
  10   8   1   51.81    9.49
  10   8   2   25.95    6.21
  10  -8   2   21.89    5.72
  10  -8   2   24.77    6.49
 -10  -8   2   45.25    9.01
  10   8   2   32.35    7.35
  10   8   3   17.89    5.85
  10  -8   3   14.28    6.65
 -10  -8   3   16.07    5.15
  10   8   3   31.73    8.57
  10  -8   4  125.61   14.12
 -10  -8   4  107.46   12.71
  10   8   4   93.81   12.55
  10   8   4  121.71   14.40
  10  -8   5  196.41   18.03
 -10  -8   5  188.51   17.21
  10   8   5  217.72   19.05
  10   8   5  169.16   17.26
  10  -8   6  105.10   13.01
 -10  -8   6  118.34   14.22
  10   8   6   85.63   12.42
  10   8   6  139.38   15.49
  10  -8   7   36.06    8.07
  10   8   7   17.92    5.88
  10   8   7   39.25    8.50
  10  -8   8  110.13   13.47
  10   8   8  110.30   13.85
  10   8   8  119.64   14.95
  10  -8   9   62.48   10.12
  10   8   9   66.06   10.94
  10  -8  10   14.64    5.69
  10   8  10   13.22    4.80
  10   8  10   19.30    6.37
  10  -8  11   46.56    9.33
  10   8  11   56.97    9.99
  10   8  11   49.66    9.44
  10  -8  12   31.11    7.53
  10   8  12   24.51    6.85
  10   8  12   43.54    8.96
  10  -8  13   21.01    5.67
  10   8  13   12.04    4.17
  10  -8  14   77.44   11.76
  10   8  14   96.31   12.94
  10   8  14   81.06   12.70
  10  -8  15   85.61   12.65
  10   8  15   92.83   13.29
  10   8  15   97.99   13.66
  10  -8  16    8.59    4.00
  10   8  16    7.85    4.86
  10   8  16   -3.82    4.61
  10   9 -12    4.47    4.99
  10  -9 -12   -1.23    3.02
  10  -9 -12    0.11    2.95
 -10  -9 -12   -0.77    4.29
  10   9 -11   17.70    7.40
  10  -9 -11   19.17    6.89
  10  -9 -11   17.73    5.09
 -10  -9 -11   21.88    7.41
  10   9 -10   20.50    7.71
  10  -9 -10   14.64    6.12
  10  -9 -10   18.40    5.22
 -10  -9 -10    7.41    3.85
  10   9  -9    7.72    5.36
  10  -9  -9    2.44    3.50
  10  -9  -9   -1.25    1.81
 -10  -9  -9   -0.14    2.43
  10   9  -8   24.69    7.82
  10  -9  -8   18.30    6.18
  10  -9  -8    9.74    3.78
 -10  -9  -8    9.81    4.11
  10   9  -7   16.24    6.15
  10  -9  -7    6.60    2.91
  10  -9  -7    0.73    3.34
 -10  -9  -7    9.76    5.10
  10   9  -6    3.53    2.65
  10  -9  -6   -3.36    3.82
  10  -9  -6   -1.39    3.96
 -10  -9  -6    8.45    4.46
  10   9  -5    7.31    3.78
  10  -9  -5    6.56    3.48
  10  -9  -5    6.53    4.19
 -10  -9  -5    2.65    2.04
  10   9  -4   14.32    5.95
  10  -9  -4    4.67    3.11
  10  -9  -4   10.74    4.82
 -10  -9  -4   15.79    5.00
  10   9  -3   13.70    5.73
  10  -9  -3   19.98    5.57
  10  -9  -3   25.06    6.60
 -10  -9  -3   21.73    6.92
  10   9  -2    3.93    4.61
  10  -9  -2    8.45    2.71
  10  -9  -2    6.47    4.37
 -10  -9  -2    8.24    4.78
  10   9  -1   16.74    6.14
  10  -9  -1   19.37    5.20
  10  -9  -1    3.79    3.81
 -10  -9  -1   24.72    6.32
  10   9  -1   18.00    6.76
  10   9   0   26.43    6.61
  10  -9   0   20.93    5.27
  10  -9   0   32.05    8.04
 -10  -9   0   37.46    8.26
  10   9   0   29.94    7.08
  10  -9   1   11.46    5.07
 -10  -9   1   20.32    6.22
  10   9   1   24.95    6.94
  10   9   1   21.90    6.51
  10  -9   2    4.83    3.29
 -10  -9   2    1.18    3.90
  10   9   2    6.07    4.38
  10   9   2    3.11    2.39
  10  -9   3   14.27    4.67
 -10  -9   3   16.10    4.93
  10   9   3   18.15    5.17
  10   9   3   28.80    7.47
  10  -9   4    6.86    3.69
 -10  -9   4    7.36    2.25
  10   9   4    8.15    4.16
  10   9   4   11.35    6.96
  10  -9   5    2.87    2.32
 -10  -9   5    4.82    3.99
  10   9   5   11.16    6.23
  10   9   5    8.67    3.01
  10  -9   6    5.58    3.35
 -10  -9   6    0.02    5.24
  10   9   6    1.59    2.76
  10   9   6    6.63    3.32
  10  -9   7    9.53    4.23
  10   9   7    8.33    5.56
  10   9   7    8.92    4.69
  10  -9   8    6.06    3.57
  10   9   8   12.46    7.66
  10   9   8    8.04    3.37
  10  -9   9    2.87    3.26
  10   9   9    1.77    2.88
  10   9   9   -3.93    5.02
  10  -9  10    7.54    5.49
  10   9  10   10.88    5.73
  10   9  10    8.13    4.40
  10  -9  11   17.82    6.20
  10   9  11   21.14    5.88
  10   9  11   24.97    7.07
  10  -9  12    1.08    2.77
  10   9  12    3.44    5.68
  10   9  12    4.70    3.48
  10 -10  -5   64.63   10.57
  10 -10  -5   38.99    8.28
 -10 -10  -5   40.33    8.85
  10  10  -5   34.74    8.55
  10 -10  -4   37.96    8.52
  10 -10  -4   38.62    8.77
 -10 -10  -4   29.62    7.28
  10  10  -4   44.28   11.24
  10 -10  -3    4.59    2.80
  10 -10  -3    2.98    3.64
 -10 -10  -3    2.27    3.74
  10  10  -3    1.63    2.74
  10 -10  -2   48.21    9.60
 -10 -10  -2   62.37   11.04
  10 -10  -2   49.40    9.55
  10  10  -2   59.20   11.12
  10 -10  -1   32.94    8.24
  10 -10  -1   17.96    7.66
 -10 -10  -1   16.15    5.25
  10  10  -1   25.40    8.05
  10 -10   0    5.25    5.05
 -10 -10   0   -0.26    3.44
  10  10   0   -0.49    2.92
  10 -10   1   20.36    6.89
 -10 -10   1    6.18    4.38
  10  10   1   22.61    7.11
  10 -10   2   44.39    9.81
 -10 -10   2   43.79    9.48
  10  10   2   48.15   10.35
  10 -10   3    3.82    4.16
 -10 -10   3    3.37    2.90
  10  10   3   -0.51    3.21
  10 -10   4   36.62    8.19
 -10 -10   4   36.87    8.33
  10  10   4   40.95   10.72
  10 -10   5   65.01   11.20
  10  10   5   53.81   11.14
  11   0 -24    2.63    5.61
  11   0 -23    1.51    2.74
  11   0 -22   -3.27    2.35
  11   0 -21   -0.72    3.07
  11   0 -20    0.17    2.64
  11   0 -19    0.74    3.68
  11   0 -18    1.52    2.51
  11   0 -17    1.48    2.96
  11   0 -16   -4.24    3.71
  11   0 -15    3.01    2.95
  11   0 -14   -1.87    1.57
  11   0 -13    0.04    1.62
  11   0 -12    3.41    2.15
  11   0 -11   -1.41    2.95
  11   0 -11   -0.71    2.27
  11   0 -10    0.18    3.08
  11   0 -10   -1.22    2.41
  11   0  -9    1.25    1.74
  11   0  -9    0.67    2.24
  11   0  -8   -1.66    2.45
  11   0  -8    0.57    1.82
  11   0  -7   -1.91    3.11
  11   0  -7    1.67    2.74
  11   0  -6    0.16    1.43
  11   0  -6    0.23    2.80
  11   0  -5    1.63    3.33
  11   0  -5   -0.14    1.67
  11   0  -4    1.08    1.76
  11   0  -4    0.83    1.16
  11   0  -3    0.77    2.81
  11   0  -3    0.70    1.63
  11   0  -2   -0.47    1.23
  11   0  -2    1.60    1.46
  11   0  -1    1.23    2.33
  11   0  -1   -0.49    1.77
  11   0  -1   -1.00    1.21
  11   0   0   -0.69    1.73
  11   0   0   -0.13    1.45
  11   0   0    1.03    1.83
  11   0   1   -0.44    1.73
  11   0   1   -0.06    1.72
  11   0   1    1.32    2.17
  11   0   2   -1.21    2.59
  11   0   2    3.15    2.31
  11   0   2   -2.11    1.90
  11   0   3    0.47    1.94
  11   0   3    0.92    1.84
  11   0   3   -1.44    2.70
  11   0   4    0.48    1.22
  11   0   4   -0.11    1.53
  11   0   4    0.91    2.27
  11   0   5    0.02    1.74
  11   0   5    0.27    2.02
  11   0   5   -0.14    1.40
  11   0   6    1.77    2.56
  11   0   6   -2.17    2.51
  11   0   6    3.07    2.25
  11   0   7    1.00    2.37
  11   0   7   -0.80    2.18
  11   0   7    0.26    2.18
  11   0   8    0.02    1.89
  11   0   8    0.27    1.99
  11   0   9   -0.68    1.80
  11   0   9   -0.86    1.37
  11   0  10   -0.72    2.14
  11   0  10   -0.55    2.21
  11   0  11   -1.23    1.96
  11   0  11   -0.63    2.01
  11   0  12   -1.50    2.45
  11   0  12    0.55    2.64
  11   0  13   -0.85    1.49
  11   0  14   -1.76    3.15
  11   0  15    1.67    3.58
  11   0  16   -0.52    2.99
  11   0  17    4.64    3.20
  11   0  18   -0.56    2.87
  11   0  19   -1.62    3.17
  11   0  20    1.77    2.77
  11   0  21    4.78    4.41
  11   0  22    0.83    2.24
  11   0  23   -5.41    3.94
  11   0  24   -6.08    5.59
  11  -1 -25   42.95    9.51
  11  -1 -24  126.54   16.04
  11  -1 -23    5.52    4.14
  11   1 -23   12.70    5.15
  11  -1 -22   -0.77    2.75
  11   1 -22   -0.56    2.65
  11  -1 -21   47.03    9.82
  11   1 -21   33.39    8.18
  11  -1 -20   29.61    7.85
  11   1 -20   38.08    9.32
  11   1 -19   95.63   13.14
  11  -1 -19   80.80   11.61
  11   1 -18  360.11   24.19
  11  -1 -18  467.96   27.37
  11  -1 -17   25.71    6.85
  11   1 -17   22.78    6.11
  11  -1 -16   18.50    5.42
  11   1 -16   12.60    3.98
  11   1 -15  108.01   12.58
  11  -1 -15  113.02   12.90
  11   1 -14  404.92   24.13
  11  -1 -14  388.73   23.76
  11   1 -13  594.92   28.79
  11  -1 -13  613.20   24.65
  11  -1 -13  528.21   26.98
  11   1 -12  680.32   30.71
  11  -1 -12  740.89   28.17
  11  -1 -12  678.79   30.48
  11  -1 -11   53.29    7.35
  11  -1 -11   52.10    7.80
  11   1 -11   34.25    6.69
  11   1 -10  370.40   21.96
  11  -1 -10  383.63   22.43
  11  -1 -10  355.36   18.95
  11   1  -9  278.85   18.97
  11  -1  -9  281.79   19.05
  11  -1  -9  269.29   16.48
  11   1  -8  369.57   21.50
  11  -1  -8  352.85   21.03
  11  -1  -8  311.04   17.86
  11   1  -7  306.52   19.80
  11  -1  -7  280.38   18.42
  11  -1  -7  266.79   16.58
  11   1  -6  244.55   17.67
  11  -1  -6  230.06   16.72
  11  -1  -6  262.84   16.26
  11   1  -5   51.38    7.85
  11  -1  -5   67.42    9.15
  11  -1  -5   62.79    8.51
  11   1  -4   77.77    9.69
  11  -1  -4   67.82    8.68
  11  -1  -4   62.42    8.07
  11   1  -3  297.60   18.72
  11  -1  -3  324.86   19.39
  11  -1  -3  304.94   17.70
  11   1  -2 1026.61   34.73
  11  -1  -2 1075.63   34.94
  11   1  -2 1075.26   36.04
  11  -1  -2 1105.77   33.88
  11   1  -1   47.37    7.37
  11  -1  -1   45.43    7.30
  11   1  -1   54.57    8.21
  11  -1  -1   49.79    7.40
  11  -1   0    5.96    2.66
  11  -1   0    7.08    2.96
  11   1   0    2.37    2.60
  11   1   0    3.34    2.09
  11  -1   0    4.31    2.52
  11   1   1   40.88    6.48
  11  -1   1   41.30    6.45
  11   1   1   40.33    6.95
  11  -1   1   46.54    7.48
  11  -1   1   60.18    8.03
  11   1   2 1041.47   34.65
  11  -1   2 1131.89   34.89
  11   1   2 1073.03   36.44
  11  -1   2 1117.81   36.20
  11  -1   2 1073.37   33.94
  11   1   3  308.42   18.80
  11  -1   3  287.12   18.17
  11   1   3  348.79   20.66
  11  -1   3  330.15   19.47
  11   1   4   57.31    8.21
  11  -1   4   59.93    8.50
  11   1   4   57.03    8.61
  11  -1   4   57.58    8.04
  11  -1   4   61.53    8.57
  11   1   5   66.93    9.11
  11  -1   5   76.94    9.08
  11   1   5   48.14    7.99
  11  -1   5   69.08    8.96
  11  -1   5   77.32    9.01
  11   1   6  236.76   16.62
  11  -1   6  232.96   15.61
  11   1   6  249.06   17.50
  11  -1   6  273.91   18.18
  11   1   7  285.22   18.66
  11  -1   7  311.31   18.32
  11   1   7  314.89   19.94
  11  -1   7  279.09   18.30
  11  -1   7  302.91   19.08
  11   1   8  296.22   19.08
  11  -1   8  301.81   17.97
  11   1   8  342.93   20.67
  11  -1   8  270.25   17.92
  11  -1   8  311.91   19.25
  11   1   9  216.58   16.54
  11  -1   9  249.93   16.23
  11   1   9  258.23   18.34
  11  -1   9  277.19   18.25
  11  -1   9  284.92   18.53
  11   1  10  336.82   20.31
  11  -1  10  383.35   20.36
  11   1  10  364.44   21.96
  11  -1  10  347.33   20.62
  11  -1  10  401.18   21.74
  11   1  11   38.83    7.08
  11  -1  11   52.56    8.14
  11   1  11   52.73    8.47
  11  -1  11   56.43    8.32
  11  -1  12  704.54   30.14
  11   1  12  743.18   31.70
  11  -1  12  666.42   29.23
  11   1  13  545.57   26.77
  11  -1  13  600.43   27.50
  11   1  13  600.77   28.79
  11  -1  13  590.50   28.11
  11  -1  14  407.69   23.42
  11   1  14  354.39   22.33
  11  -1  15   98.79   12.05
  11   1  15  104.16   12.56
  11  -1  16    9.66    3.97
  11   1  16   10.14    4.32
  11  -1  17   28.81    6.51
  11   1  17   23.59    5.95
  11  -1  18  425.18   24.70
  11   1  18  393.54   24.35
  11  -1  19   96.16   12.93
  11   1  19   97.21   12.30
  11   1  20   48.78    9.24
  11   1  21   39.99    8.11
  11   1  22    2.37    3.63
  11   1  23    8.68    4.86
  11   1  24  147.54   16.56
  11   1  25   26.67    6.09
  11   1  26   22.75    6.25
  11  -2 -25    5.97    3.44
  11  -2 -24    4.81    4.12
  11  -2 -23   58.94   10.24
  11  -2 -22    5.41    3.67
  11   2 -22    0.02    2.59
  11  -2 -21    9.20    5.08
  11   2 -21    1.96    3.20
  11  -2 -20   19.50    6.45
  11   2 -20   16.82    5.70
  11  -2 -19    2.31    3.65
  11   2 -19    0.57    3.30
  11  -2 -18    7.07    4.56
  11   2 -18    3.78    3.73
  11  -2 -17    1.39    3.04
  11   2 -17    1.37    3.05
  11  -2 -16    1.01    3.62
  11   2 -16    1.27    2.04
  11  -2 -15   -1.55    2.00
  11   2 -15    3.05    2.94
  11  -2 -14   14.28    4.21
  11   2 -14   25.55    6.00
  11  -2 -13   51.72    8.44
  11   2 -13   46.45    8.49
  11  -2 -13   35.65    6.53
  11  -2 -12   16.90    4.85
  11  -2 -12   17.20    5.26
  11   2 -12    8.14    4.07
  11  -2 -11    9.44    4.35
  11  -2 -11    6.39    3.69
  11   2 -11   -1.22    2.48
  11  -2 -10    8.13    2.27
  11  -2 -10   14.99    3.77
  11   2 -10    4.85    3.48
  11  -2  -9    5.19    1.99
  11  -2  -9    4.79    2.97
  11   2  -9    6.06    3.95
  11  -2  -8  101.90   11.76
  11   2  -8  114.49   11.83
  11  -2  -8  105.49   10.82
  11  -2  -7   30.58    6.31
  11  -2  -7   22.38    5.49
  11   2  -7   17.76    4.92
  11  -2  -6    5.60    3.28
  11  -2  -6    7.55    3.42
  11   2  -6    4.99    2.97
  11  -2  -5   57.33    8.68
  11   2  -5   46.24    7.68
  11  -2  -5   59.03    8.11
  11  -2  -4    4.39    3.00
  11  -2  -4    2.94    1.56
  11   2  -4    2.73    1.82
  11   2  -4    5.33    3.54
  11   2  -3  467.74   23.70
  11   2  -3  500.95   25.22
  11  -2  -3  455.83   22.34
  11  -2  -3  470.92   23.45
  11  -2  -2   24.88    5.56
  11  -2  -2   23.48    5.24
  11   2  -2   20.68    5.34
  11   2  -1  365.88   20.89
  11   2  -1  402.94   22.85
  11  -2  -1  401.26   21.14
  11  -2  -1  447.04   21.70
  11  -2   0   -0.73    2.08
  11  -2   0    5.50    2.69
  11   2   0    4.20    2.96
  11   2   0    0.85    2.15
  11   2   1  398.97   22.01
  11   2   1  404.12   22.74
  11  -2   1  414.88   21.57
  11  -2   1  355.59   20.16
  11  -2   1  432.71   21.68
  11  -2   2   32.73    6.46
  11  -2   2   30.62    5.56
  11   2   2   28.40    5.95
  11   2   2   24.94    5.39
  11  -2   2   33.80    6.03
  11   2   3  482.92   24.57
  11   2   3  473.25   24.53
  11  -2   3  492.35   23.42
  11  -2   3  541.35   24.72
  11  -2   3  456.05   22.33
  11  -2   4    8.37    3.19
  11  -2   4    8.77    3.90
  11   2   4    4.86    2.51
  11   2   4    7.40    3.68
  11  -2   4    4.65    2.37
  11   2   5   46.84    8.00
  11  -2   5   50.51    7.39
  11   2   5   48.99    7.44
  11  -2   5   42.93    7.11
  11  -2   5   57.84    8.11
  11  -2   6   -0.38    2.49
  11   2   6    2.10    3.90
  11   2   6    3.48    2.46
  11  -2   6    6.31    2.90
  11  -2   6    4.16    3.19
  11   2   7   18.60    5.38
  11   2   7   31.39    6.53
  11  -2   7   18.69    4.62
  11  -2   7   22.02    5.28
  11  -2   7   28.91    6.82
  11   2   8   94.96   10.95
  11  -2   8   98.18   10.26
  11   2   8   96.48   11.68
  11  -2   8  103.34   10.93
  11  -2   8  119.61   12.00
  11   2   9    2.73    1.61
  11   2   9    1.05    2.97
  11  -2   9    5.13    3.42
  11  -2   9    4.75    1.61
  11  -2   9    6.60    3.25
  11   2  10    7.34    2.97
  11   2  10   10.90    4.46
  11  -2  10    9.94    3.09
  11  -2  10    7.78    3.29
  11   2  11   10.14    5.49
  11  -2  11   -1.00    2.35
  11   2  11    2.07    2.09
  11  -2  11    6.16    3.77
  11   2  12    9.77    4.00
  11  -2  12    7.69    4.04
  11   2  12    5.19    3.53
  11  -2  12    8.19    2.93
  11   2  13   37.91    7.59
  11  -2  13   38.92    6.92
  11   2  13   39.56    7.74
  11  -2  13   43.78    7.19
  11   2  14   24.33    5.59
  11  -2  14   35.50    7.73
  11   2  14   20.38    6.58
  11  -2  14   25.64    6.46
  11   2  15    4.10    2.44
  11  -2  15    1.39    1.91
  11   2  16    6.09    3.41
  11  -2  16    4.45    1.99
  11   2  17    0.99    3.36
  11   2  18    6.25    4.19
  11   2  19    6.47    2.60
  11   2  20   20.55    5.73
  11   2  21    1.63    2.57
  11   2  22    9.79    5.46
  11   2  23   73.61   11.03
  11   2  24    7.22    4.39
  11   2  25    4.58    2.22
  11  -3 -25  102.25   14.29
  11  -3 -24  137.05   16.61
  11  -3 -23   95.65   13.23
  11  -3 -22   29.20    7.98
  11  -3 -21   33.77    7.80
  11  -3 -20   73.43   11.21
  11   3 -20   63.61   10.62
  11  -3 -19   27.38    6.64
  11   3 -19   28.15    7.83
  11  -3 -18  205.97   18.08
  11   3 -18  142.61   15.67
  11  -3 -17  119.51   13.61
  11   3 -17   95.97   12.73
  11  -3 -16    0.54    3.42
  11   3 -16   -0.03    2.42
  11  -3 -15   42.22    7.97
  11   3 -15   46.84    8.31
  11  -3 -14  180.06   14.78
  11  -3 -14  135.64   13.85
  11   3 -14  179.56   16.31
  11  -3 -13  126.37   12.41
  11  -3 -13  124.12   13.36
  11   3 -13  118.91   13.45
  11  -3 -12  143.53   13.29
  11  -3 -12  132.69   13.97
  11   3 -12  161.36   15.13
  11  -3 -11  252.68   17.52
  11  -3 -11  260.54   19.18
  11   3 -11  248.45   18.49
  11  -3 -10   79.72    9.67
  11  -3 -10   69.59    9.49
  11   3 -10   84.49   10.59
  11  -3  -9  964.26   33.91
  11  -3  -9  914.62   34.94
  11   3  -9  864.13   33.99
  11  -3  -8  436.75   22.45
  11  -3  -8  413.55   23.25
  11   3  -8  407.32   23.37
  11  -3  -7   97.25   10.61
  11  -3  -7   86.81   10.62
  11   3  -7   87.68   11.26
  11  -3  -6   95.48   10.66
  11  -3  -6   99.68   11.38
  11   3  -6   89.74   10.93
  11   3  -6   88.34   10.84
  11  -3  -5  612.37   26.83
  11  -3  -5  639.55   27.81
  11   3  -5  619.21   28.19
  11   3  -5  569.00   27.82
  11  -3  -4  464.15   23.56
  11   3  -4  457.41   24.52
  11   3  -4  455.17   24.79
  11  -3  -3 2201.29   50.56
  11  -3  -3 2135.80   50.43
  11   3  -3 2131.56   52.76
  11   3  -3 2128.38   53.85
  11  -3  -2  580.90   25.79
  11  -3  -2  518.35   24.47
  11   3  -2  582.41   27.83
  11   3  -2  528.30   26.23
  11  -3  -1 1811.70   46.00
  11  -3  -1 1863.59   47.18
  11   3  -1 1936.51   50.12
  11   3  -1 1791.47   49.05
  11  -3   0  161.07   14.28
  11  -3   0  180.40   14.46
  11   3   0  162.73   14.90
  11   3   0  161.25   14.81
  11  -3   1 1945.23   47.68
  11   3   1 1878.39   49.58
  11  -3   1 1893.50   45.97
  11  -3   1 1785.55   46.03
  11   3   2  514.49   26.74
  11   3   2  558.06   27.37
  11  -3   2  557.52   25.34
  11  -3   2  533.85   24.89
  11  -3   2  551.14   25.30
  11   3   3 2264.40   54.68
  11   3   3 2164.58   54.49
  11  -3   3 2232.90   49.53
  11  -3   3 2219.98   50.03
  11  -3   3 2042.85   49.21
  11   3   4  501.58   25.68
  11   3   4  441.15   24.28
  11  -3   4  450.52   22.52
  11  -3   4  442.95   22.10
  11  -3   4  441.48   23.11
  11   3   5  608.88   28.51
  11   3   5  637.73   29.37
  11  -3   5  670.79   26.91
  11  -3   5  578.88   25.35
  11  -3   5  674.30   28.63
  11   3   6   99.63   11.61
  11   3   6   80.58   10.59
  11  -3   6   90.16   10.28
  11  -3   6   89.62    9.98
  11  -3   6   73.30    9.37
  11   3   7   86.21   10.96
  11   3   7   77.25   10.35
  11  -3   7   60.46    8.23
  11  -3   7   88.44    9.48
  11  -3   7   85.48   10.17
  11   3   8  437.78   24.67
  11  -3   8  414.41   21.48
  11   3   8  436.89   24.48
  11  -3   8  461.03   24.22
  11   3   9  975.10   36.98
  11   3   9  871.05   35.10
  11  -3   9  933.56   34.86
  11   3  10   81.80   10.87
  11   3  10   83.66   10.70
  11  -3  10   75.89   10.15
  11   3  11  224.47   18.21
  11  -3  11  258.73   18.71
  11   3  11  228.58   18.31
  11   3  12  184.88   16.30
  11  -3  12  163.42   15.25
  11   3  12  142.41   15.14
  11   3  13  122.08   13.16
  11  -3  13  110.88   12.33
  11   3  13  129.15   13.88
  11   3  14  158.56   15.24
  11   3  14  180.03   16.86
  11   3  15   30.70    7.41
  11   3  15   24.93    6.97
  11  -3  15   42.72    8.37
  11   3  16    9.98    6.72
  11   3  16    1.13    2.88
  11  -3  16    4.14    3.79
  11   3  17   84.05   11.84
  11  -3  17   80.76   11.59
  11   3  18  187.17   17.05
  11  -3  18  178.92   16.80
  11   3  19   30.39    6.91
  11  -3  19   40.06    8.10
  11   3  20   60.34   10.39
  11   3  21   33.83    8.88
  11   3  22   31.82    7.53
  11   3  23   97.43   13.26
  11   3  24  154.68   16.35
  11   3  25  117.84   14.25
  11  -4 -24   14.03    6.21
  11  -4 -23    7.99    2.88
  11  -4 -22   31.53    8.20
  11  -4 -21   25.89    7.63
  11  -4 -20    0.17    3.21
  11   4 -19    1.70    2.81
  11  -4 -19    3.49    3.34
  11   4 -18    0.72    3.97
  11  -4 -18    5.89    4.44
  11   4 -17   -0.21    2.43
  11  -4 -17    1.72    3.01
  11   4 -16    2.49    2.90
  11  -4 -16    3.14    3.09
  11   4 -15   10.47    4.81
  11  -4 -15   11.38    4.37
  11  -4 -14   -0.42    3.42
  11   4 -14    4.29    2.51
  11  -4 -14   -0.01    3.34
  11  -4 -13    2.79    2.27
  11   4 -13   -1.07    2.42
  11  -4 -13    3.04    3.60
  11  -4 -12   60.68    9.54
  11   4 -12   59.58    9.92
  11  -4 -12   33.24    7.49
  11  -4 -11   12.91    5.13
  11   4 -11   18.07    4.28
  11  -4 -11   11.12    4.62
  11  -4 -10   52.77    8.58
  11   4 -10   81.53   11.41
  11  -4 -10   72.14   10.18
  11  -4  -9    6.83    3.56
  11   4  -9   13.07    5.09
  11  -4  -9    8.58    4.01
  11   4  -9    7.94    3.72
  11  -4  -8  136.31   13.66
  11   4  -8  146.20   14.75
  11  -4  -8  128.69   13.31
  11   4  -8  170.91   15.63
  11  -4  -7   17.85    4.68
  11   4  -7   26.79    6.73
  11  -4  -7   25.48    6.37
  11   4  -7   18.42    5.92
  11  -4  -6   11.99    4.41
  11   4  -6   13.63    4.86
  11  -4  -6   13.72    4.90
  11   4  -6    5.64    3.05
  11  -4  -5    4.27    3.63
  11   4  -5    4.61    4.12
  11  -4  -5    8.24    4.19
  11   4  -5    2.20    3.42
  11  -4  -4  945.84   34.87
  11   4  -4 1012.47   37.54
  11  -4  -4 1018.14   35.91
  11   4  -4  923.74   36.19
  11  -4  -3  112.27   11.67
  11   4  -3  123.49   12.86
  11  -4  -3  105.02   11.50
  11   4  -3  121.08   13.17
  11  -4  -2  211.12   16.39
  11   4  -2  204.00   16.69
  11  -4  -2  209.30   16.18
  11   4  -2  232.71   18.03
  11  -4  -1  368.44   20.77
  11   4  -1  350.86   22.30
  11  -4  -1  348.62   20.63
  11   4  -1  370.54   22.34
  11  -4   0    8.56    3.93
  11   4   0   12.49    3.87
  11  -4   0    7.50    1.95
  11   4   0    9.31    4.31
  11  -4   1  332.02   19.92
  11  -4   1  327.48   19.68
  11   4   1  369.73   22.65
  11   4   1  339.61   21.76
  11  -4   1  312.52   18.65
  11  -4   2  131.21   12.69
  11  -4   2  213.78   15.66
  11   4   2  196.88   16.56
  11   4   2  211.73   17.47
  11  -4   2  149.10   13.02
  11  -4   3  124.46   12.61
  11  -4   3  119.09   11.83
  11   4   3  112.63   12.69
  11   4   3  113.06   12.37
  11  -4   4  991.87   35.84
  11  -4   4 1002.13   34.71
  11   4   4  923.09   36.44
  11   4   4  970.10   36.82
  11  -4   5    7.75    3.38
  11   4   5    1.88    2.22
  11  -4   5    3.43    3.11
  11   4   5    5.85    4.90
  11  -4   6   11.02    4.95
  11   4   6   13.19    4.10
  11  -4   6   11.47    3.13
  11   4   6   16.75    6.08
  11  -4   7   26.80    5.85
  11  -4   7   27.54    5.97
  11   4   7   21.87    5.64
  11   4   7   25.12    6.64
  11   4   8  152.02   14.69
  11  -4   8  139.00   13.50
  11   4   8  140.70   14.47
  11   4   9    4.53    2.19
  11   4   9    5.93    3.30
  11   4  10   68.65   10.43
  11   4  10   57.34    9.66
  11  -4  10   61.84    9.03
  11  -4  11   12.56    5.40
  11   4  11   13.23    4.94
  11   4  11   22.93    6.26
  11   4  12   55.93    9.23
  11   4  12   45.73    9.15
  11  -4  12   60.70    8.84
  11  -4  13    4.18    3.42
  11   4  13    2.99    2.70
  11   4  13    1.61    2.23
  11  -4  14    4.53    1.99
  11   4  14    7.89    4.81
  11   4  14    1.07    3.64
  11  -4  15   13.90    5.23
  11   4  15   21.38    6.62
  11   4  15   10.30    3.82
  11   4  16    0.75    2.62
  11  -4  16    1.41    1.76
  11   4  17    3.59    1.88
  11  -4  17    2.70    2.40
  11   4  18    4.86    3.50
  11  -4  18    4.89    4.31
  11   4  19    5.22    3.74
  11  -4  19   -0.28    3.55
  11   4  20    4.60    3.81
  11   4  21   29.07    7.68
  11   4  22   37.86    7.69
  11   4  23   13.58    6.05
  11   4  24   13.81    5.72
  11  -5 -22   97.73   13.79
  11  -5 -21   15.07    5.81
  11  -5 -20   87.30   12.25
  11  -5 -19   27.90    7.61
  11  -5 -18   76.08   11.97
  11   5 -18   59.01   11.04
  11   5 -17   28.57    7.97
  11  -5 -17   20.65    5.55
  11   5 -16    6.57    4.07
  11  -5 -16    3.79    1.89
  11  -5 -15   40.93    7.49
  11  -5 -15   57.07    9.67
  11   5 -15   39.02    9.04
  11  -5 -14  164.26   15.57
  11   5 -14  155.26   16.37
  11  -5 -14  132.89   14.45
  11  -5 -13   82.98   10.87
  11   5 -13   85.19   12.26
  11  -5 -13   87.72   11.56
  11  -5 -12   35.94    7.49
  11   5 -12   16.74    4.70
  11   5 -12   31.14    6.95
  11  -5 -12   31.70    6.98
  11  -5 -11    2.97    3.30
  11   5 -11   -0.74    2.00
  11   5 -11    2.31    4.51
  11  -5 -11    1.15    2.37
  11  -5 -10    3.42    2.16
  11   5 -10    6.52    5.27
  11   5 -10    6.87    3.67
  11  -5 -10    0.24    2.28
  11  -5  -9  114.33   12.85
  11   5  -9   94.69   12.40
  11  -5  -9   92.59   11.58
  11   5  -9   90.15   12.19
  11  -5  -8  534.73   26.93
  11   5  -8  491.60   27.65
  11  -5  -8  480.80   25.82
  11   5  -8  490.60   27.42
  11  -5  -7   70.38    9.30
  11   5  -7   44.97    8.11
  11  -5  -7   50.09    8.52
  11   5  -7   59.67    9.99
  11  -5  -6   44.33    7.91
  11   5  -6   43.49    9.05
  11  -5  -6   58.04    8.99
  11   5  -6   43.05    8.47
  11  -5  -5   22.02    5.88
  11   5  -5   22.65    6.00
  11   5  -5   21.81    5.53
  11  -5  -5   24.59    5.59
  11  -5  -4  472.63   24.62
  11   5  -4  476.10   26.61
  11  -5  -4  442.71   24.41
  11   5  -4  466.23   26.71
  11  -5  -3   49.57    7.39
  11   5  -3   56.15    8.71
  11  -5  -3   52.97    8.70
  11   5  -3   64.57    9.65
  11  -5  -2  189.46   15.47
  11   5  -2  186.29   16.87
  11  -5  -2  181.65   15.55
  11   5  -2  167.69   15.80
  11  -5  -1  239.71   17.89
  11   5  -1  232.21   18.85
  11  -5  -1  252.84   18.07
  11   5  -1  228.54   18.54
  11  -5   0   11.89    4.67
  11   5   0    7.43    3.73
  11   5   0    7.93    3.91
  11  -5   0   13.98    5.39
  11  -5   1  213.89   17.05
  11   5   1  258.23   19.81
  11  -5   1  236.59   17.34
  11   5   1  240.42   19.03
  11  -5   2  179.82   15.58
  11   5   2  183.20   17.07
  11  -5   2  188.04   15.60
  11   5   2  169.15   16.03
  11   5   3   48.60    8.63
  11  -5   3   54.85    8.22
  11  -5   3   52.92    8.35
  11   5   3   59.19    9.40
  11   5   4  467.88   26.89
  11  -5   4  485.35   25.26
  11  -5   4  491.64   24.56
  11   5   4  463.95   26.14
  11  -5   5   16.43    5.52
  11   5   5    9.25    4.21
  11  -5   5   14.64    4.95
  11   5   5   22.70    5.57
  11  -5   6   48.52    8.10
  11  -5   6   56.41    9.61
  11   5   6   34.82    7.57
  11   5   6   58.09    9.44
  11  -5   7   67.76    9.67
  11   5   7   56.75    9.58
  11   5   7   50.61    8.82
  11  -5   8  532.62   27.51
  11   5   8  531.41   28.23
  11   5   8  472.06   27.83
  11   5   9  117.96   13.57
  11   5   9  129.80   14.05
  11  -5   9  102.11   12.34
  11  -5  10    1.40    3.41
  11   5  10    3.09    2.07
  11   5  10    6.14    3.25
  11   5  11   -0.16    1.66
  11  -5  11    1.93    1.99
  11   5  11    4.00    3.81
  11   5  12   39.02    8.20
  11  -5  12   49.46    8.35
  11   5  12   29.30    6.60
  11   5  13   77.68   11.37
  11   5  13   61.23    9.63
  11  -5  13   98.45   11.96
  11   5  14  145.14   15.64
  11   5  14  150.12   16.41
  11  -5  14  158.27   15.77
  11  -5  15   41.83    8.58
  11   5  15   40.52    8.23
  11   5  15   23.57    7.15
  11  -5  16   10.92    4.69
  11   5  16    8.93    4.61
  11   5  16    6.42    4.45
  11  -5  17   26.39    6.37
  11   5  17   25.92    7.12
  11   5  17   12.08    5.56
  11   5  18   75.52   10.72
  11   5  18   83.41   13.61
  11  -5  18   83.92   12.07
  11   5  19   24.02    6.16
  11  -5  19    8.72    5.13
  11   5  20   59.34   10.88
  11   5  21    6.42    3.05
  11   5  22   70.56   11.52
  11  -6 -20   45.43    9.47
  11  -6 -19   20.65    6.32
  11  -6 -18   10.62    5.84
  11  -6 -17    4.92    4.49
  11   6 -17   -3.35    4.37
  11   6 -17   -0.59    5.21
  11  -6 -16   -0.35    4.47
  11   6 -16    3.71    2.74
  11  -6 -15   18.07    5.50
  11  -6 -15   16.26    5.58
  11   6 -15   17.84    6.56
  11   6 -15   16.81    5.00
  11  -6 -14   32.63    8.29
  11  -6 -14   24.12    6.41
  11   6 -14   37.11    9.03
  11   6 -14   28.90    7.84
  11  -6 -13   24.30    6.45
  11  -6 -13   16.15    5.48
  11   6 -13   18.48    6.33
  11   6 -13   24.85    6.27
  11  -6 -12    4.86    3.00
  11  -6 -12    6.17    3.70
  11   6 -12    4.45    4.26
  11   6 -12    1.78    4.29
  11  -6 -11    3.67    3.06
  11  -6 -11    4.04    3.15
  11   6 -11    3.47    3.17
  11   6 -11    4.89    3.48
  11  -6 -10   80.61   10.79
  11   6 -10   70.93   10.81
  11  -6 -10   73.33   10.62
  11   6 -10   83.20   11.66
  11  -6  -9    3.29    3.77
  11  -6  -9    8.30    3.78
  11   6  -9    3.46    3.54
  11   6  -9    6.08    2.90
  11  -6  -8   59.07    9.03
  11   6  -8   59.75    9.89
  11  -6  -8   57.21    9.48
  11   6  -8   65.03   10.98
  11  -6  -7    6.05    2.28
  11  -6  -7    3.35    3.69
  11   6  -7    6.57    3.31
  11   6  -7    6.63    2.85
  11   6  -6   55.98   10.28
  11  -6  -6   67.43    9.89
  11  -6  -6   62.80    9.69
  11   6  -6   52.41    9.28
  11  -6  -5   19.63    4.60
  11  -6  -5   11.26    4.15
  11   6  -5   29.42    7.22
  11   6  -5   21.29    5.48
  11  -6  -4    5.43    2.26
  11  -6  -4    8.30    3.84
  11   6  -4    5.69    1.98
  11   6  -4    2.41    2.61
  11  -6  -3    6.54    4.02
  11  -6  -3   -2.37    3.41
  11   6  -3   -1.66    1.98
  11   6  -3   -0.18    2.00
  11   6  -2  150.46   15.72
  11  -6  -2  129.39   13.85
  11  -6  -2  137.61   13.92
  11   6  -2  117.58   13.90
  11  -6  -1   14.40    4.99
  11   6  -1   12.35    5.54
  11   6  -1   14.69    2.40
  11  -6  -1   12.12    4.82
  11  -6   0    3.44    2.63
  11   6   0    6.83    4.32
  11   6   0   -3.56    3.50
  11  -6   0   -4.31    3.42
  11  -6   1    7.57    4.39
  11   6   1   17.64    6.04
  11   6   1   13.11    5.20
  11  -6   1   23.01    5.59
  11  -6   2  180.15   15.77
  11  -6   2  132.93   14.13
  11   6   2  136.28   14.09
  11   6   2  137.17   14.47
  11  -6   3   -1.03    2.75
  11   6   3    1.91    3.52
  11   6   3    0.19    3.58
  11  -6   3   -0.48    2.15
  11  -6   4    6.93    3.25
  11   6   4   11.17    3.68
  11   6   4    9.84    4.87
  11  -6   4   11.65    4.49
  11   6   5   25.88    6.62
  11  -6   5   14.36    4.64
  11   6   5   21.25    5.16
  11  -6   6   43.18    8.06
  11   6   6   64.41   10.01
  11   6   6   50.02    9.70
  11   6   7    6.29    3.96
  11  -6   7    9.30    4.74
  11   6   7    5.86    3.98
  11  -6   8   56.95    9.47
  11   6   8   57.34    9.96
  11   6   8   86.66   12.64
  11   6   9    0.39    1.92
  11  -6   9    6.41    2.28
  11   6   9   10.56    3.68
  11  -6  10   77.49   10.82
  11   6  10   80.39   10.88
  11   6  10   87.27   12.37
  11   6  11    3.76    3.20
  11  -6  11    6.03    5.18
  11   6  11    4.09    3.16
  11   6  12    6.49    5.02
  11  -6  12    4.72    4.65
  11   6  12    5.50    4.29
  11  -6  13   23.50    6.45
  11   6  13   21.04    6.38
  11   6  13   22.83    6.90
  11  -6  14   30.40    6.77
  11   6  14   24.59    6.49
  11   6  14   36.35    7.70
  11  -6  15   27.81    7.16
  11   6  15   19.15    7.02
  11  -6  16    4.03    3.09
  11   6  16   14.64    6.37
  11   6  16    8.57    4.86
  11  -6  17    3.72    3.40
  11   6  17   -3.34    3.11
  11   6  17   -1.26    3.43
  11  -6  18    2.81    3.68
  11   6  18    6.32    4.39
  11   6  18    3.44    3.55
  11   6  19    8.73    3.88
  11   6  19    6.91    3.85
  11   6  20   48.88    8.86
  11  -7 -18   67.37   10.62
  11  -7 -17    6.00    4.26
  11  -7 -16    0.45    3.18
  11  -7 -15   30.55    7.62
  11  -7 -15   39.01    8.71
  11   7 -15   42.11   10.09
  11   7 -14  138.70   16.85
  11  -7 -14  151.80   16.42
  11  -7 -14  129.07   14.37
  11   7 -13   94.65   13.38
  11  -7 -13   80.17   11.89
  11  -7 -13  103.58   13.24
  11   7 -13  109.62   14.80
  11  -7 -12   79.53   11.04
  11   7 -12   59.79   11.64
  11  -7 -12   75.70   11.12
  11   7 -12   61.84   11.21
  11  -7 -11   12.18    4.90
  11  -7 -11   20.15    6.95
  11   7 -11   14.26    6.10
  11   7 -11   11.26    5.29
  11  -7 -10    9.84    5.15
  11  -7 -10    6.08    3.38
  11   7 -10    8.18    5.30
  11   7 -10   10.42    4.46
  11  -7  -9   83.18   12.10
  11  -7  -9   51.78    8.85
  11   7  -9   50.36    9.63
  11   7  -9   55.85   10.23
  11   7  -8  229.61   20.32
  11  -7  -8  259.54   20.19
  11  -7  -8  234.29   19.28
  11   7  -8  202.84   19.26
  11   7  -7  193.41   18.10
  11  -7  -7  195.41   17.16
  11  -7  -7  213.70   18.00
  11   7  -7  203.00   18.84
  11   7  -6   68.90   11.39
  11  -7  -6   76.37   10.61
  11  -7  -6   92.50   12.16
  11   7  -6   78.10   11.59
  11   7  -5   16.56    4.81
  11  -7  -5    9.93    4.74
  11  -7  -5   13.88    4.67
  11   7  -5    2.48    2.33
  11  -7  -4   92.33   11.93
  11  -7  -4  108.32   12.61
  11   7  -4   83.50   11.18
  11   7  -4   77.87   12.32
  11  -7  -3  151.70   14.99
  11  -7  -3  163.44   15.25
  11   7  -3  148.89   16.38
  11   7  -3  156.81   16.54
  11  -7  -2   32.35    6.88
  11   7  -2   47.30    8.53
  11  -7  -2   41.22    8.34
  11  -7  -1    9.20    3.17
  11   7  -1    4.14    2.51
  11  -7  -1    8.30    4.80
  11   7  -1   11.80    5.30
  11  -7   0   -2.58    3.46
  11   7   0    2.07    3.15
  11  -7   0    1.45    3.14
  11   7   0    0.75    2.02
  11  -7   1    8.16    4.56
  11   7   1   13.75    6.32
  11  -7   1    9.15    3.98
  11   7   1    8.49    5.62
  11   7   2   53.09    9.39
  11  -7   2   50.42    8.05
  11  -7   2   65.19   10.40
  11   7   2   64.37   10.22
  11  -7   3  172.67   16.18
  11  -7   3  177.12   16.13
  11   7   3  160.87   16.21
  11   7   3  151.03   16.59
  11  -7   4  108.59   13.15
  11   7   4  114.03   14.09
  11   7   4   90.74   12.88
  11   7   5    5.40    4.57
  11  -7   5    4.60    3.50
  11   7   5   10.48    4.87
  11   7   6   61.89   10.63
  11   7   6   72.17   12.02
  11  -7   7  186.89   16.95
  11   7   7  190.92   17.73
  11   7   7  183.96   17.97
  11  -7   8  227.99   18.77
  11   7   8  235.96   20.00
  11   7   8  287.23   22.36
  11   7   9   48.63    9.44
  11  -7   9   48.53    8.85
  11   7   9   74.74   11.80
  11  -7  10    6.78    2.98
  11   7  10    2.27    2.61
  11  -7  11    6.00    2.19
  11   7  11   10.80    4.48
  11   7  11   10.62    4.96
  11  -7  12   62.13   10.01
  11   7  12   43.78    7.90
  11   7  12   67.68   11.28
  11   7  13  110.10   13.96
  11   7  13   93.23   12.73
  11  -7  13   68.71   10.98
  11   7  14  120.61   14.61
  11   7  14  145.40   16.65
  11  -7  14  128.26   15.41
  11  -7  15   35.66    8.03
  11   7  15   40.06    8.25
  11   7  15   38.40    8.89
  11  -7  16    5.21    4.67
  11   7  16    6.01    4.60
  11   7  16    5.07    4.41
  11  -7  17    1.92    3.57
  11   7  17    0.11    2.95
  11   7  18   51.21   10.50
  11   7  18   42.58    9.09
  11  -8 -15    5.29    4.45
  11  -8 -15    4.91    6.05
  11   8 -14    1.84    4.00
  11  -8 -14   -1.63    4.10
  11  -8 -14    1.47    4.19
  11   8 -13    7.33    4.43
  11  -8 -13    8.64    6.25
  11  -8 -13    1.52    2.53
  11   8 -12    6.26    4.77
  11  -8 -12    1.11    3.16
  11  -8 -12    0.14    2.43
  11   8 -11   -0.63    4.96
  11  -8 -11   -1.13    3.15
  11  -8 -11    3.88    4.17
  11   8 -10   -1.33    5.62
  11  -8 -10    1.05    3.54
  11  -8 -10    3.17    3.26
  11   8  -9   10.94    4.70
  11  -8  -9   10.20    4.34
  11  -8  -9    8.38    3.59
  11  -8  -8    5.48    3.31
  11  -8  -8    5.27    2.10
  11   8  -8   -1.41    4.20
  11   8  -7    4.11    5.12
  11  -8  -7    5.48    4.79
  11  -8  -7    5.94    4.45
  11   8  -7   -0.55    4.41
  11   8  -6   10.44    5.85
  11  -8  -6    8.35    6.14
  11  -8  -6    6.08    2.92
  11   8  -6   10.53    6.83
  11   8  -5    8.73    3.90
  11  -8  -5    6.73    5.17
  11  -8  -5   14.21    5.85
  11   8  -5    9.03    6.18
  11   8  -4   -1.40    4.21
  11  -8  -4    4.68    3.59
  11  -8  -4    0.66    2.38
  11   8  -4    3.09    5.24
  11   8  -3    0.91    2.41
  11  -8  -3   -0.37    2.67
  11  -8  -3   -2.03    2.26
  11   8  -3   -2.70    2.75
  11   8  -2    4.62    4.60
  11  -8  -2    6.48    4.59
  11  -8  -2    6.03    4.19
  11   8  -2    2.96    2.63
  11  -8  -1   53.18   10.02
  11  -8  -1   36.79    7.91
  11   8  -1   71.83   11.11
  11   8  -1   73.05   11.39
  11   8   0   10.41    5.23
  11  -8   0    6.05    2.56
  11  -8   0    9.36    3.27
  11   8   0    3.03    2.32
  11   8   1   47.12    9.71
  11  -8   1   53.07    8.92
  11  -8   1   72.96   11.17
 -11  -8   1   58.89   10.16
  11   8   1   47.76    8.90
  11   8   2    1.15    2.73
  11  -8   2    2.63    4.56
  11  -8   2    0.90    2.88
 -11  -8   2    8.44    4.93
  11   8   2    1.35    2.63
  11   8   3    4.91    3.87
  11  -8   3    5.66    3.64
 -11  -8   3    0.41    2.96
  11   8   3   -1.11    3.15
  11   8   4   -1.09    2.59
  11  -8   4    0.57    2.66
 -11  -8   4    3.10    3.39
  11   8   4    1.06    2.57
  11   8   5    4.98    4.05
  11  -8   5    3.56    3.37
 -11  -8   5    3.29    3.53
  11   8   5    7.15    4.56
  11   8   6    2.60    2.03
  11  -8   6    0.45    3.67
 -11  -8   6    5.87    4.81
  11   8   6    7.74    4.87
  11  -8   7    3.72    4.79
  11   8   7    7.54    4.25
  11   8   7    1.85    3.15
  11  -8   8   -0.87    3.32
  11   8   8    3.15    4.37
  11   8   8    8.56    5.08
  11  -8   9    8.10    5.70
  11   8   9   15.68    6.06
  11   8   9   16.73    6.54
  11  -8  10    4.60    3.92
  11   8  10    0.88    2.66
  11   8  10    3.50    5.52
  11  -8  11    2.09    3.23
  11   8  11    7.91    4.17
  11   8  11    5.97    4.18
  11  -8  12    7.88    4.15
  11   8  12    1.49    3.98
  11   8  12    8.98    4.46
  11  -8  13    4.32    2.24
  11   8  13   -1.83    3.90
  11   8  13    4.62    3.91
  11  -8  14    5.73    4.64
  11   8  14    0.39    2.99
  11   8  14   -0.95    2.90
  11  -8  15   12.10    5.12
  11   8  15    6.73    4.42
  11   8  15    6.81    3.46
  11   9 -10    8.21    6.55
  11  -9 -10   14.65    6.14
  11  -9 -10    0.63    3.32
 -11  -9 -10    3.43    4.02
  11   9  -9   41.27    9.38
  11  -9  -9   58.64   10.72
  11  -9  -9   40.11    7.83
 -11  -9  -9   43.98    9.06
  11   9  -8   45.28   10.24
  11  -9  -8   60.12   10.80
  11  -9  -8   51.25    9.67
 -11  -9  -8   46.34    8.98
  11  -9  -7  134.23   15.83
 -11  -9  -7  125.54   14.56
  11  -9  -7  121.59   14.77
  11   9  -6   31.86    8.42
  11  -9  -6   21.92    6.39
  11  -9  -6   27.55    7.13
 -11  -9  -6   16.58    5.26
  11   9  -5   45.65    9.51
  11  -9  -5   44.24    8.33
  11  -9  -5   29.21    8.05
 -11  -9  -5   29.63    6.95
  11   9  -4   21.83    7.31
  11  -9  -4   24.06    6.99
  11  -9  -4   18.05    5.73
 -11  -9  -4   14.92    4.85
  11  -9  -3  279.54   22.51
 -11  -9  -3  276.49   21.70
  11  -9  -3  232.86   20.91
  11   9  -3  293.04   23.95
  11   9  -2   52.77   10.29
  11  -9  -2   55.53   10.45
  11  -9  -2   54.08   10.05
 -11  -9  -2   61.53    9.98
  11   9  -2   62.02   12.49
  11   9  -1    5.61    3.04
  11  -9  -1    6.63    3.76
  11  -9  -1    5.30    4.45
 -11  -9  -1    2.26    2.25
  11   9  -1    1.76    4.94
  11   9   0    6.36    6.06
 -11  -9   0    0.60    3.79
  11  -9   0    3.15    2.01
  11  -9   0   10.52    5.26
  11   9   0    5.00    3.03
  11   9   1    3.51    4.31
  11  -9   1    3.74    3.21
 -11  -9   1    5.14    2.54
  11   9   1    8.02    5.12
  11  -9   2   48.88    9.04
 -11  -9   2   50.00    9.47
  11   9   2   61.45   10.71
  11   9   2   66.75   11.39
  11  -9   3  275.94   22.01
 -11  -9   3  269.27   22.01
  11   9   3  301.48   23.54
  11   9   3  287.03   23.24
  11  -9   4   20.45    5.99
 -11  -9   4   10.71    4.12
  11   9   4   25.63    7.44
  11   9   4   25.89    6.50
  11  -9   5   50.15    9.29
 -11  -9   5   34.33    8.18
  11   9   5   50.56    9.19
  11   9   5   35.86    8.02
  11  -9   6   43.78    8.31
  11   9   6   30.55    8.95
  11   9   6   12.52    5.67
  11  -9   7  113.61   14.30
  11   9   7  123.65   15.93
  11   9   7  109.66   14.06
  11  -9   8   62.28   11.15
  11   9   8   40.65    8.73
  11   9   8   51.72   10.05
  11  -9   9   42.89    8.27
  11   9   9   50.18    9.59
  11   9   9   45.64    9.82
  11  -9  10    9.46    5.91
  11   9  10    9.27    7.71
  11   9  10    9.13    5.12
  12   0 -24   41.04    8.58
  12   0 -23   14.30    4.04
  12   0 -22   19.49    6.51
  12   0 -21    6.54    5.03
  12   0 -20   71.85   12.15
  12   0 -19  177.67   17.60
  12   0 -18  128.88   15.19
  12   0 -17  343.58   23.69
  12   0 -16  192.18   17.13
  12   0 -15   15.11    4.50
  12   0 -14  473.55   26.63
  12   0 -13  671.94   31.25
  12   0 -12  303.14   21.12
  12   0 -11  331.00   21.65
  12   0 -10  466.76   25.17
  12   0 -10  446.47   22.25
  12   0  -9   46.38    8.16
  12   0  -9   47.14    7.57
  12   0  -8  287.17   19.66
  12   0  -8  296.43   17.73
  12   0  -7   21.18    5.84
  12   0  -7   27.52    5.06
  12   0  -6  228.30   17.09
  12   0  -6  231.00   16.15
  12   0  -5  307.30   19.82
  12   0  -5  290.43   18.04
  12   0  -4  162.29   14.37
  12   0  -4  165.51   13.57
  12   0  -3   92.14   10.60
  12   0  -3   91.89   10.03
  12   0  -2  712.92   30.00
  12   0  -2  801.01   31.99
  12   0  -2  786.22   30.33
  12   0  -1 1407.44   41.98
  12   0  -1 1448.99   43.13
  12   0  -1 1349.33   39.18
  12   0   0  514.71   25.42
  12   0   0  558.85   26.80
  12   0   0  520.26   24.51
  12   0   1 1413.39   41.96
  12   0   1 1453.35   43.71
  12   0   1 1304.11   38.93
  12   0   2  796.19   32.40
  12   0   2  789.15   30.34
  12   0   3   75.61    9.74
  12   0   3   73.59    9.85
  12   0   3   79.50   10.18
  12   0   4  143.83   13.14
  12   0   4  175.40   14.99
  12   0   4  159.02   13.84
  12   0   5  299.52   18.94
  12   0   5  328.99   20.57
  12   0   5  298.50   18.92
  12   0   6  225.93   16.77
  12   0   6  243.36   17.88
  12   0   6  220.15   16.45
  12   0   7   34.79    6.59
  12   0   7   29.31    6.38
  12   0   8  268.63   18.47
  12   0   8  295.43   19.98
  12   0   9   33.65    6.54
  12   0   9   28.28    6.24
  12   0  10  442.40   24.06
  12   0  10  455.40   25.11
  12   0  11  245.42   17.83
  12   0  11  303.51   20.70
  12   0  12  339.85   22.63
  12   0  13  746.95   33.22
  12   0  14  473.30   26.04
  12   0  15    6.03    3.54
  12   0  16  188.69   16.88
  12   0  17  343.53   23.50
  12   0  18  148.55   15.13
  12   0  19  133.32   14.77
  12   0  20   62.23   10.52
  12   0  21   14.36    5.10
  12   0  22    2.93    3.11
  12  -1 -25    6.76    5.65
  12  -1 -24   12.82    5.14
  12  -1 -23   10.73    3.52
  12   1 -23    5.96    4.00
  12  -1 -22   24.75    7.58
  12   1 -22   30.67    7.01
  12  -1 -21    9.75    3.23
  12   1 -21   11.90    5.62
  12  -1 -20   -0.54    3.81
  12   1 -20   13.19    5.35
  12  -1 -19   13.74    5.78
  12   1 -19   11.18    5.75
  12  -1 -18    2.06    2.51
  12   1 -18    7.05    5.80
  12  -1 -17   31.64    8.01
  12   1 -17   43.14    8.54
  12  -1 -16   21.90    6.26
  12   1 -16    6.98    4.86
  12  -1 -15    1.07    3.20
  12   1 -15    3.93    2.47
  12  -1 -14   17.17    5.51
  12   1 -14   14.81    5.57
  12  -1 -13    7.83    4.60
  12   1 -13   10.69    4.59
  12  -1 -12    8.63    3.64
  12   1 -12    7.84    4.95
  12  -1 -12   10.69    2.67
  12   1 -11   62.84    9.85
  12  -1 -11   71.22   10.27
  12  -1 -11   64.53    8.78
  12   1 -10   71.52   10.13
  12  -1 -10   64.82    9.66
  12  -1 -10   64.49    7.95
  12   1  -9   49.24    8.90
  12  -1  -9   57.33    8.95
  12  -1  -9   60.55    8.92
  12  -1  -8   39.87    7.08
  12   1  -8   28.43    6.62
  12  -1  -8   31.11    6.04
  12  -1  -7    1.54    1.99
  12  -1  -7    2.62    3.71
  12   1  -7    0.39    2.76
  12  -1  -6   12.07    3.31
  12  -1  -6   12.30    4.13
  12   1  -6   17.08    4.74
  12   1  -5   50.92    7.94
  12  -1  -5   65.05    9.16
  12  -1  -5   45.57    7.59
  12   1  -4  110.24   11.93
  12  -1  -4   96.12   11.18
  12  -1  -4   96.94   10.62
  12   1  -3  265.08   18.63
  12  -1  -3  256.63   17.89
  12   1  -3  291.64   19.57
  12  -1  -3  247.60   16.76
  12   1  -2  136.51   13.19
  12  -1  -2  131.74   12.76
  12   1  -2  150.20   14.49
  12  -1  -2  150.68   13.14
  12   1  -1   77.37    9.76
  12  -1  -1   63.45    8.91
  12   1  -1   65.59    9.57
  12  -1  -1   79.33    9.91
  12  -1  -1   83.33    9.85
  12  -1   0   10.29    4.35
  12   1   0    7.47    4.26
  12   1   0    9.64    3.54
  12  -1   0   14.40    4.82
  12  -1   0   14.89    4.93
  12   1   1   88.21   10.51
  12  -1   1   74.24    9.53
  12   1   1   60.83    9.08
  12  -1   1   77.05   10.20
  12  -1   1   80.33    9.58
  12   1   2  152.42   13.92
  12  -1   2  141.83   13.07
  12   1   2  153.94   14.18
  12  -1   2  155.05   14.41
  12  -1   2  143.54   12.69
  12   1   3  229.90   17.04
  12  -1   3  275.38   18.18
  12   1   3  249.37   18.42
  12  -1   3  293.61   19.15
  12  -1   3  275.79   18.10
  12   1   4  107.07   11.50
  12  -1   4  108.36   11.45
  12   1   4  101.90   11.48
  12  -1   4  110.18   11.84
  12  -1   4  102.83   11.54
  12   1   5   66.21    9.59
  12  -1   5   57.70    8.38
  12   1   5   52.02    9.16
  12  -1   5   41.63    7.44
  12  -1   5   40.68    6.60
  12   1   6   18.29    5.31
  12  -1   6   16.92    4.58
  12   1   6   22.59    5.91
  12  -1   6   13.75    4.37
  12  -1   6   18.40    4.59
  12   1   7    4.38    2.18
  12  -1   7    0.96    3.56
  12   1   7    0.04    2.84
  12  -1   7    4.36    1.56
  12  -1   7   -0.34    1.81
  12   1   8   31.72    6.34
  12  -1   8   27.88    5.67
  12   1   8   35.63    6.99
  12  -1   8   30.30    6.58
  12  -1   8   39.18    7.43
  12   1   9   69.19    9.58
  12  -1   9   42.65    6.92
  12   1   9   59.19    9.26
  12  -1   9   67.08    9.30
  12  -1   9   47.33    7.78
  12   1  10   72.65   10.03
  12  -1  10   64.72    8.84
  12   1  10   59.29    9.16
  12  -1  10   76.74   10.20
  12  -1  10   61.30    9.24
  12   1  11   60.27    9.65
  12   1  11   72.92    9.88
  12  -1  11   64.53    9.85
  12  -1  11   59.71    9.09
  12   1  12   17.67    5.03
  12  -1  12   16.15    6.16
  12   1  12    8.76    3.28
  12  -1  12    6.42    3.38
  12  -1  13   17.19    4.29
  12   1  13   19.23    5.93
  12  -1  14   10.97    3.98
  12   1  14   15.15    4.91
  12  -1  15    4.21    3.58
  12   1  15   13.96    4.59
  12  -1  16   25.34    6.82
  12   1  16   19.39    6.30
  12  -1  17   30.65    6.97
  12   1  17   26.84    6.32
  12  -1  18   17.35    8.82
  12   1  18    7.08    4.57
  12   1  19   11.45    3.05
  12   1  20    2.99    3.63
  12   1  21    9.37    3.53
  12   1  22   13.14    4.78
  12   1  23   14.59    5.86
  12   1  24    3.90    3.74
  12   1  25   10.56    3.99
  12  -2 -24   97.41   13.78
  12  -2 -23   24.93    7.91
  12  -2 -22   24.43    7.08
  12   2 -22   19.59    6.39
  12  -2 -21   21.65    6.75
  12   2 -21   25.43    6.54
  12  -2 -20   43.08    8.50
  12   2 -20   55.67    9.78
  12  -2 -19   52.61    9.73
  12   2 -19   36.60    8.61
  12   2 -18  115.44   13.78
  12  -2 -18  172.30   16.70
  12   2 -17   60.19   10.61
  12  -2 -17   78.95   11.34
  12  -2 -16   20.89    5.49
  12   2 -16   23.16    5.91
  12  -2 -15   43.92    8.79
  12   2 -15   22.30    6.79
  12  -2 -14  173.65   16.33
  12   2 -14  153.94   15.80
  12  -2 -13  195.45   17.40
  12   2 -13  173.87   16.21
  12  -2 -13  192.73   15.22
  12  -2 -12  167.94   16.34
  12   2 -12  151.27   15.03
  12  -2 -12  158.82   14.19
  12  -2 -11   89.84   11.16
  12   2 -11   82.46   10.79
  12  -2 -11   70.28    8.94
  12  -2 -10  123.86   13.23
  12   2 -10  120.15   13.01
  12  -2 -10  142.21   12.71
  12   2  -9  124.37   12.92
  12  -2  -9  155.06   13.68
  12  -2  -9  122.23   13.15
  12   2  -8  346.84   21.70
  12  -2  -8  301.43   18.53
  12  -2  -8  320.77   21.10
  12   2  -7   89.02   11.01
  12  -2  -7  102.41   11.00
  12  -2  -7   97.35   11.39
  12   2  -6   68.60    9.63
  12  -2  -6   65.68    8.70
  12  -2  -6   67.99    9.61
  12   2  -5  145.04   13.93
  12   2  -5  180.31   15.92
  12  -2  -5  180.76   14.25
  12  -2  -5  145.53   14.01
  12   2  -4  365.41   21.99
  12   2  -4  400.37   23.47
  12  -2  -4  423.23   23.06
  12  -2  -4  357.59   20.63
  12  -2  -3   30.72    5.39
  12   2  -3   38.72    7.63
  12   2  -3   34.43    7.69
  12  -2  -3   37.12    7.08
  12   2  -2  480.49   25.02
  12   2  -2  515.34   26.64
  12  -2  -2  508.85   25.49
  12  -2  -2  571.54   25.66
  12   2  -1  638.95   29.00
  12   2  -1  646.16   29.97
  12  -2  -1  658.40   28.45
  12  -2  -1  636.33   27.30
  12   2   0  180.60   15.73
  12   2   0  227.59   17.68
  12  -2   0  209.16   15.94
  12  -2   0  234.28   17.13
  12  -2   0  231.01   16.46
  12   2   1  654.52   29.41
  12   2   1  679.27   30.36
  12  -2   1  593.35   26.55
  12  -2   1  654.64   28.95
  12  -2   1  648.92   28.28
  12   2   2  509.71   26.12
  12   2   2  509.27   26.61
  12  -2   2  528.21   25.26
  12  -2   2  526.48   25.70
  12  -2   2  512.90   24.69
  12  -2   3   36.83    6.40
  12   2   3   31.06    6.48
  12  -2   3   38.67    7.16
  12   2   3   22.52    5.62
  12  -2   3   25.18    6.36
  12   2   4  370.52   22.28
  12  -2   4  356.42   20.46
  12   2   4  403.25   23.71
  12  -2   4  378.79   21.80
  12  -2   4  399.33   22.18
  12   2   5  163.02   14.83
  12  -2   5  159.13   13.49
  12   2   5  169.88   15.70
  12  -2   5  149.88   13.75
  12  -2   5  174.60   14.96
  12  -2   6   62.36    8.75
  12   2   6   63.46    9.76
  12  -2   6   71.42    9.72
  12  -2   6   66.75    9.49
  12   2   7  112.79   12.20
  12  -2   7   91.97   10.55
  12   2   7   82.61   10.64
  12  -2   7   99.69   11.53
  12  -2   7  114.61   11.89
  12   2   8  347.98   22.07
  12  -2   8  286.66   18.37
  12   2   8  317.83   21.07
  12  -2   8  325.88   20.54
  12  -2   8  316.85   20.47
  12   2   9  124.08   13.50
  12  -2   9  140.84   13.12
  12   2   9  153.58   14.63
  12  -2   9  143.36   13.48
  12  -2   9  140.86   13.62
  12   2  10  100.70   12.18
  12   2  10   91.31   11.87
  12  -2  10  112.68   11.87
  12  -2  10  112.33   12.29
  12   2  11   95.73   12.18
  12  -2  11  101.29   11.45
  12   2  11   81.74   10.78
  12  -2  11   99.10   11.59
  12   2  12  192.09   17.01
  12  -2  12  149.95   14.48
  12   2  12  148.58   14.90
  12  -2  12  220.44   17.29
  12   2  13  190.98   17.02
  12  -2  13  202.65   16.74
  12   2  13  201.05   17.53
  12   2  14  146.74   15.11
  12  -2  14  144.68   14.38
  12   2  14  142.86   14.98
  12   2  15   33.99    7.78
  12  -2  15   39.25    6.85
  12   2  16   29.37    6.58
  12  -2  16   22.48    6.63
  12   2  17   73.93   10.73
  12   2  18  163.03   16.34
  12   2  19   40.07    8.14
  12   2  20   31.48    8.02
  12   2  21   26.50    6.56
  12   2  22   12.54    5.61
  12   2  23    2.48    4.24
  12   2  24   68.50   11.51
  12  -3 -24    6.63    4.66
  12  -3 -23   24.78    6.00
  12  -3 -22   28.26    7.52
  12  -3 -21    8.63    4.84
  12   3 -21    9.02    4.92
  12  -3 -20   15.14    5.08
  12   3 -20   11.19    5.97
  12  -3 -19    2.65    4.07
  12   3 -19   -1.53    3.42
  12  -3 -18   51.25    9.71
  12   3 -18   52.66    9.58
  12  -3 -17    5.64    2.98
  12   3 -17    4.57    2.26
  12  -3 -16    8.17    3.87
  12   3 -16    1.80    2.41
  12  -3 -15    4.48    3.65
  12   3 -15    3.71    2.75
  12  -3 -14   12.64    4.60
  12   3 -14   23.90    6.57
  12  -3 -13    3.47    2.88
  12  -3 -13    5.16    1.64
  12   3 -13   10.88    4.44
  12  -3 -12  100.61   12.13
  12   3 -12  129.43   14.06
  12  -3 -12  141.16   13.86
  12  -3 -11   79.19   10.61
  12   3 -11   65.12    9.61
  12  -3 -11   65.61    9.05
  12  -3 -10  101.97   12.00
  12  -3 -10  123.93   12.38
  12  -3  -9   35.13    7.36
  12   3  -9   37.89    7.79
  12  -3  -9   45.88    7.80
  12  -3  -8   42.62    7.35
  12  -3  -8   45.41    8.52
  12   3  -8   34.33    7.41
  12  -3  -7   10.03    4.24
  12   3  -7    3.44    1.97
  12   3  -7    4.81    2.15
  12  -3  -6    9.08    3.34
  12  -3  -6    8.58    3.59
  12   3  -6   14.18    5.21
  12   3  -6   12.75    5.29
  12  -3  -5   28.24    6.27
  12  -3  -5   37.84    7.49
  12   3  -5   29.24    6.39
  12   3  -5   42.00    7.66
  12  -3  -4  228.45   17.18
  12   3  -4  214.22   17.65
  12   3  -4  228.45   18.11
  12  -3  -4  212.77   16.48
  12  -3  -3  471.88   24.63
  12   3  -3  501.86   26.25
  12   3  -3  448.93   25.42
  12  -3  -3  468.53   24.21
  12  -3  -2  234.88   17.22
  12   3  -2  234.82   17.98
  12   3  -2  253.13   18.92
  12  -3  -2  249.30   17.64
  12   3  -1   68.52   10.08
  12   3  -1   66.46   10.11
  12  -3  -1   66.11    8.96
  12  -3  -1   55.56    8.61
  12  -3   0   41.50    6.89
  12  -3   0   20.76    4.66
  12   3   0   31.65    7.01
  12   3   0   30.06    5.67
  12   3   1   67.43    9.86
  12   3   1   52.70    9.01
  12  -3   1   52.81    8.50
  12  -3   1   48.88    7.94
  12  -3   1   53.13    8.62
  12   3   2  228.37   18.06
  12   3   2  214.99   17.34
  12  -3   2  255.67   18.14
  12  -3   2  249.35   17.60
  12  -3   2  275.69   18.45
  12   3   3  456.53   25.49
  12   3   3  462.88   25.92
  12  -3   3  480.24   24.56
  12  -3   3  467.50   23.72
  12  -3   3  452.60   23.88
  12   3   4  223.37   17.74
  12   3   4  215.40   17.73
  12  -3   4  201.37   15.73
  12  -3   4  228.90   16.55
  12  -3   4  238.92   17.24
  12   3   5   40.69    7.72
  12  -3   5   40.40    7.40
  12   3   5   36.53    7.55
  12  -3   5   34.65    6.76
  12  -3   5   49.17    8.31
  12  -3   6    7.70    4.17
  12  -3   6   10.11    3.17
  12   3   6    9.55    3.62
  12   3   6   15.70    5.02
  12  -3   6   13.93    4.32
  12  -3   7    9.14    3.70
  12  -3   7   11.07    5.27
  12   3   7    9.54    4.78
  12  -3   7   21.56    7.09
  12   3   7   12.76    4.48
  12  -3   8   34.23    6.98
  12   3   8   30.35    6.07
  12   3   8   31.43    7.18
  12  -3   9   27.42    5.64
  12   3   9   24.08    6.08
  12   3  10   97.09   12.79
  12   3  10   93.66   11.61
  12  -3  10   99.99   11.91
  12   3  11   69.33    9.81
  12  -3  11   77.38   10.51
  12   3  11   66.63   10.58
  12   3  12  123.19   14.17
  12  -3  12  104.50   12.34
  12   3  12  124.18   13.82
  12   3  13    2.90    2.69
  12   3  13   -2.49    2.01
  12  -3  13    1.50    3.82
  12   3  14    6.83    2.05
  12   3  14   11.28    5.50
  12  -3  14    5.99    3.61
  12   3  15    1.39    2.56
  12   3  15    1.96    3.13
  12  -3  15    5.36    3.04
  12   3  16    7.22    2.45
  12  -3  16    0.52    3.10
  12   3  17   12.74    4.59
  12  -3  17    4.85    4.42
  12   3  18   42.93    8.49
  12  -3  18   48.82    9.16
  12   3  19    2.24    2.70
  12  -3  19    5.26    3.63
  12   3  20   15.74    5.85
  12   3  21    6.24    4.84
  12   3  22   39.79    8.61
  12   3  23   22.32    7.64
  12   3  24    3.45    2.40
  12  -4 -22   78.82   12.29
  12  -4 -21   27.08    7.15
  12   4 -20   24.14    8.09
  12  -4 -20   43.41    9.95
  12   4 -19   10.80    4.50
  12  -4 -19   20.56    5.03
  12   4 -18   26.25    7.10
  12  -4 -18   33.17    7.79
  12   4 -17   22.58    7.28
  12  -4 -17   17.46    5.85
  12   4 -16   16.64    5.48
  12  -4 -16   19.32    6.49
  12   4 -15   18.08    6.13
  12  -4 -15    9.78    5.31
  12  -4 -14   66.76    9.85
  12  -4 -14   67.92   10.60
  12   4 -14   62.99    9.96
  12  -4 -13   49.76    8.56
  12  -4 -13   58.48    9.43
  12   4 -13   57.31    9.62
  12  -4 -12    6.98    4.91
  12   4 -12    3.04    2.89
  12  -4 -12    3.11    2.57
  12  -4 -11    8.28    4.25
  12  -4 -11   12.36    3.24
  12  -4 -10   60.81    9.76
  12   4 -10   54.54    9.75
  12  -4 -10   37.60    7.58
  12   4 -10   54.09    9.60
  12  -4  -9   90.06   11.38
  12  -4  -9   98.44   12.24
  12   4  -9   91.89   12.02
  12   4  -9   85.42   11.90
  12  -4  -8  367.41   22.10
  12  -4  -8  356.50   22.91
  12   4  -8  390.57   24.60
  12  -4  -7  297.31   19.92
  12  -4  -7  330.56   21.66
  12   4  -7  303.24   21.52
  12   4  -7  314.26   22.33
  12  -4  -6   65.09    9.06
  12  -4  -6   92.01   11.30
  12   4  -6   77.39   11.21
  12   4  -6   88.39   11.93
  12  -4  -5  205.87   16.45
  12  -4  -5  221.96   17.54
  12   4  -5  228.24   18.37
  12   4  -5  235.53   19.35
  12  -4  -4  624.66   28.73
  12  -4  -4  633.67   29.67
  12   4  -4  698.57   32.07
  12   4  -4  703.57   32.88
  12  -4  -3  340.56   21.04
  12  -4  -3  321.73   21.27
  12   4  -3  331.68   22.29
  12   4  -3  361.00   23.20
  12  -4  -2  588.78   27.81
  12   4  -2  512.15   27.74
  12   4  -2  505.12   27.81
  12  -4  -1  176.23   14.91
  12  -4  -1  153.16   14.19
  12   4  -1  214.92   17.86
  12   4  -1  174.25   16.06
  12  -4   0   14.30    4.99
  12   4   0   21.79    5.94
  12  -4   0   16.29    5.34
  12   4   0   13.09    5.41
  12  -4   1  219.48   16.79
  12  -4   1  195.24   16.13
  12   4   1  199.94   17.09
  12   4   1  186.68   16.62
  12  -4   1  151.20   14.73
  12  -4   2  531.34   27.00
  12  -4   2  519.56   26.18
  12   4   2  516.99   27.77
  12   4   2  562.86   29.04
  12   4   3  339.68   22.54
  12   4   3  314.66   21.87
  12  -4   3  306.09   20.32
  12  -4   3  345.84   21.70
  12   4   4  668.19   31.61
  12   4   4  687.53   31.98
  12  -4   4  657.72   29.15
  12  -4   4  628.98   29.14
  12   4   5  220.39   18.04
  12   4   5  231.68   18.66
  12  -4   5  197.26   15.76
  12  -4   5  246.90   18.35
  12   4   6   60.31    9.59
  12   4   6   59.99    9.68
  12  -4   6   73.91    9.97
  12  -4   6   81.52   10.45
  12   4   7  316.09   23.02
  12   4   7  348.71   23.05
  12  -4   7  294.67   20.49
  12   4   8  341.60   23.18
  12   4   8  355.73   23.55
  12  -4   8  345.53   22.11
  12   4   9   84.42   11.47
  12  -4   9   92.13   11.54
  12   4   9  106.78   13.51
  12   4  10   38.64    7.81
  12   4  10   44.00    8.08
  12  -4  10   58.50    9.27
  12  -4  11   20.41    5.65
  12   4  11    9.81    3.71
  12   4  11   10.32    3.49
  12  -4  12    1.82    2.95
  12   4  12    2.87    1.79
  12   4  12    1.42    4.23
  12  -4  13   46.57    8.01
  12   4  13   39.57    7.69
  12   4  13   62.84   10.53
  12   4  14   75.40   11.53
  12   4  14   57.27   10.64
  12  -4  14   58.63   10.06
  12   4  15    5.90    4.17
  12   4  15   13.73    4.91
  12  -4  15   20.77    6.26
  12   4  16   23.85    6.49
  12  -4  16    4.24    3.34
  12   4  16   22.56    6.20
  12   4  17   19.72    5.70
  12  -4  17   13.05    4.79
  12   4  18   35.86    8.70
  12  -4  18   23.17    6.77
  12   4  19   21.20    5.80
  12  -4  19    4.50    3.62
  12   4  20   32.73    8.90
  12  -4  20   -2.62    4.25
  12   4  21   23.94    8.10
  12   4  22   82.08   12.29
  12  -5 -21    1.14    3.08
  12  -5 -20    1.95    4.16
  12  -5 -19   27.49    7.53
  12   5 -18   16.61    6.96
  12  -5 -18   21.13    5.62
  12   5 -17   24.49    6.85
  12  -5 -17   14.77    6.04
  12   5 -16    0.23    3.28
  12  -5 -16    1.47    2.40
  12   5 -15   -0.61    4.29
  12  -5 -15   -1.67    4.07
  12  -5 -14    1.14    3.02
  12   5 -14    2.60    3.72
  12  -5 -14   -1.67    2.72
  12  -5 -13   35.88    7.48
  12   5 -13   28.07    7.53
  12  -5 -13   26.83    6.52
  12   5 -13   29.20    8.05
  12  -5 -12   29.57    7.41
  12   5 -12   23.56    6.55
  12  -5 -12   21.27    5.74
  12   5 -12   20.56    5.56
  12  -5 -11   11.44    4.73
  12   5 -11   15.49    5.01
  12  -5 -11   25.96    6.24
  12   5 -11   13.16    5.36
  12  -5 -10   59.17    9.76
  12  -5 -10   62.56   10.16
  12   5 -10   56.85    9.27
  12   5 -10   55.58    8.82
  12  -5  -9   19.09    5.80
  12   5  -9   17.86    5.47
  12  -5  -9   14.82    5.28
  12   5  -9   20.51    5.35
  12  -5  -8    6.77    4.12
  12   5  -8    6.71    4.11
  12  -5  -8    2.61    2.23
  12   5  -8    4.04    3.02
  12  -5  -7   10.14    4.17
  12   5  -7   21.55    6.10
  12  -5  -7   12.96    4.14
  12   5  -7   12.60    4.66
  12  -5  -6    3.08    3.00
  12   5  -6   -1.40    2.54
  12  -5  -6   -1.31    2.86
  12   5  -6   -0.41    3.24
  12  -5  -5    9.30    4.77
  12   5  -5    4.02    1.99
  12  -5  -5   -0.86    2.28
  12   5  -5    1.36    3.50
  12  -5  -4    7.46    3.56
  12   5  -4    3.94    3.82
  12  -5  -4    5.32    3.10
  12   5  -4   -1.21    3.40
  12  -5  -3   30.18    7.38
  12   5  -3   37.57    8.05
  12  -5  -3   26.34    6.32
  12   5  -3   19.48    5.57
  12  -5  -2  127.90   13.08
  12   5  -2   94.59   12.02
  12  -5  -2   95.36   11.59
  12   5  -2  115.24   13.21
  12   5  -1   51.73    9.15
  12  -5  -1   35.83    6.94
  12  -5  -1   39.24    7.54
  12   5  -1   37.80    8.05
  12  -5   0    7.92    3.80
  12   5   0   10.24    5.43
  12  -5   0    9.03    4.35
  12   5   0   15.26    5.69
  12   5   1   61.02    9.64
  12  -5   1   38.80    7.58
  12  -5   1   50.92    8.21
  12   5   1   44.69    8.86
  12   5   2  113.35   13.44
  12   5   2  122.82   14.42
  12  -5   3   21.26    4.86
  12   5   3   35.07    7.97
  12  -5   3   25.04    6.34
  12   5   3   22.44    5.75
  12  -5   4    3.88    1.64
  12   5   4    2.23    3.92
  12  -5   4    6.42    2.74
  12   5   4   10.78    4.17
  12  -5   5    0.81    2.19
  12   5   5    6.88    2.39
  12  -5   5    0.17    2.62
  12   5   5    3.17    4.63
  12  -5   6   -0.82    2.01
  12   5   6   -0.30    2.89
  12   5   6   -0.25    2.11
  12  -5   7    7.87    4.15
  12   5   7   15.44    5.97
  12   5   7    8.40    3.27
  12  -5   8    3.44    3.19
  12   5   8   -2.06    2.37
  12   5   8    5.08    4.97
  12  -5   9   11.62    3.39
  12   5   9   23.68    6.63
  12   5   9   24.99    6.75
  12   5  10   59.61   10.24
  12   5  10   58.60    9.81
  12  -5  10   55.15    9.08
  12  -5  11   22.45    5.53
  12   5  11   17.50    5.37
  12   5  11   16.18    5.98
  12  -5  12   25.89    6.70
  12   5  12   19.47    5.83
  12   5  12   19.07    6.69
  12   5  13   20.45    6.58
  12  -5  13   21.36    6.34
  12   5  13   17.60    6.93
  12   5  14    2.33    3.14
  12  -5  14    4.46    4.01
  12   5  14   -0.76    2.04
  12  -5  15    0.51    2.63
  12   5  15    6.66    4.10
  12   5  15    2.58    4.61
  12  -5  16    0.50    3.16
  12   5  16    2.16    1.91
  12   5  16   -1.18    3.75
  12  -5  17   14.38    6.31
  12   5  17   13.24    4.21
  12   5  17    2.60    3.53
  12   5  18   16.60    6.86
  12  -5  18   13.51    6.24
  12   5  19   22.78    7.73
  12  -5  19   18.85    5.92
  12   5  20   10.69    5.52
  12   5  21    2.92    2.30
  12  -6 -19   56.85   10.58
  12   6 -19   38.21    9.29
  12  -6 -18   13.68    4.81
  12   6 -18   16.69    8.59
  12  -6 -17   78.97   12.11
  12   6 -17   51.16   10.72
  12   6 -17   84.85   13.58
  12   6 -16   45.31    9.54
  12   6 -16   45.60   10.07
  12  -6 -16   45.04    7.85
  12   6 -15    9.41    5.66
  12   6 -15   11.01    7.05
  12  -6 -15   24.24    6.30
  12  -6 -14  141.35   15.45
  12   6 -14  152.01   17.08
  12  -6 -14  148.40   16.10
  12   6 -14  124.33   15.40
  12  -6 -13  111.26   13.18
  12   6 -13  107.82   14.26
  12  -6 -13  116.41   13.44
  12   6 -13  137.87   16.26
  12  -6 -12    6.54    5.41
  12   6 -12    7.42    4.40
  12   6 -12   11.25    4.33
  12  -6 -12    8.84    4.18
  12  -6 -11   69.26   10.31
  12   6 -11   63.35   11.16
  12  -6 -11   45.81    8.86
  12  -6 -10   78.77   11.38
  12   6 -10   79.33   12.23
  12  -6 -10   83.51   11.62
  12   6 -10   79.78   12.33
  12  -6  -9   28.00    7.10
  12   6  -9   36.50    9.69
  12   6  -9   30.41    7.69
  12  -6  -9   25.97    6.82
  12  -6  -8  282.26   20.80
  12   6  -8  275.33   21.95
  12  -6  -8  238.09   18.85
  12   6  -8  218.40   19.33
  12  -6  -7  239.88   19.53
  12   6  -7  220.61   19.53
  12  -6  -7  254.84   19.83
  12   6  -7  250.46   20.90
  12  -6  -6   40.34    7.92
  12   6  -6   22.85    7.00
  12   6  -6   48.99    9.38
  12  -6  -6   40.16    7.88
  12  -6  -5   66.42    9.85
  12   6  -5   77.03   11.21
  12  -6  -5   64.10    9.73
  12   6  -5   70.30   10.71
  12  -6  -4  209.71   17.64
  12   6  -4  195.74   18.18
  12  -6  -4  180.01   16.56
  12   6  -4  164.18   16.41
  12  -6  -3  198.45   17.01
  12   6  -3  228.53   19.82
  12  -6  -3  200.03   17.28
  12   6  -3  244.23   20.30
  12  -6  -2  266.32   19.99
  12   6  -2  228.27   19.85
  12  -6  -2  254.87   19.53
  12   6  -2  272.50   21.36
  12   6  -1   48.97   10.24
  12  -6  -1   61.37    9.67
  12  -6  -1   64.93    9.66
  12   6  -1   37.29    8.22
  12  -6   0    2.29    2.74
  12   6   0   -0.50    2.34
  12   6   0   -0.84    2.98
  12  -6   0   -1.17    1.71
  12   6   1   71.53   10.87
  12  -6   1   80.30   10.68
  12   6   1   52.28    9.51
  12   6   2  234.17   19.97
  12  -6   2  243.77   19.18
  12  -6   2  232.59   18.46
  12   6   2  248.73   20.03
  12  -6   3  186.10   16.79
  12  -6   3  195.96   16.80
  12   6   3  212.21   18.33
  12   6   3  177.49   17.29
  12  -6   4  182.25   16.59
  12  -6   4  124.60   14.37
  12   6   4  177.95   16.90
  12   6   4  164.76   16.52
  12  -6   5   46.89    8.61
  12   6   5   70.89   11.19
  12   6   5   73.08   11.23
  12  -6   6   31.00    6.81
  12   6   6   29.12    7.41
  12   6   6   36.14    7.82
  12  -6   7  226.35   18.53
  12   6   7  286.12   21.61
  12   6   7  226.35   19.84
  12  -6   8  259.28   19.68
  12   6   8  214.88   19.08
  12   6   8  277.38   21.76
  12   6   9   32.55    8.58
  12  -6   9   37.64    7.82
  12   6   9   20.81    6.42
  12   6  10   92.81   12.53
  12   6  10   70.27   11.68
  12  -6  10   89.92   12.29
  12   6  11   75.17   11.49
  12   6  11   72.60   12.01
  12  -6  11   79.04   11.56
  12   6  12   14.36    4.99
  12  -6  12    7.03    4.04
  12   6  12    7.47    3.08
  12   6  13  165.39   16.68
  12   6  13  127.87   15.06
  12  -6  13  150.58   16.08
  12   6  14  155.14   16.10
  12   6  14  129.71   16.09
  12  -6  14  149.79   16.15
  12  -6  15   13.10    6.08
  12   6  15   17.68    6.47
  12   6  15   14.75    4.34
  12  -6  16   29.77    7.59
  12   6  16   39.00    8.57
  12   6  16   32.42    7.74
  12   6  17   67.12   11.06
  12   6  17   65.72   11.45
  12  -6  17   77.67   12.63
  12  -6  18   11.11    4.99
  12   6  18    9.28    4.60
  12   6  18   12.54    6.02
  12   6  19   53.77    9.97
  12  -7 -17   13.58    5.56
  12  -7 -16    0.39    3.24
  12  -7 -15   57.86   11.22
  12   7 -15   52.84   11.18
  12  -7 -15   67.46   10.60
  12  -7 -14   10.92    5.42
  12  -7 -14    8.34    6.29
  12   7 -14    3.50    4.28
  12   7 -14    6.45    4.36
  12  -7 -13   21.04    5.59
  12  -7 -13   18.01    5.73
  12   7 -13   21.33    6.68
  12   7 -13   33.58   10.11
  12  -7 -12   14.55    5.67
  12  -7 -12   23.43    6.61
  12   7 -12   18.50    5.90
  12   7 -12   13.46    4.45
  12  -7 -11   -2.16    2.76
  12  -7 -11    0.69    2.51
  12   7 -11    1.58    3.07
  12   7 -11   -5.12    4.54
  12  -7 -10   26.59    6.94
  12  -7 -10   34.30    7.91
  12   7 -10   38.31    8.10
  12   7 -10   41.21    9.30
  12   7  -9   93.17   13.25
  12  -7  -9   73.78   11.67
  12  -7  -9   89.73   12.36
  12   7  -9   88.70   13.46
  12  -7  -8   15.90    5.41
  12  -7  -8   17.81    6.64
  12   7  -8   26.09    6.91
  12   7  -8   17.83    7.15
  12  -7  -7   15.99    5.32
  12  -7  -7   33.93    7.72
  12   7  -7   32.82    8.51
  12   7  -7   33.59    7.60
  12  -7  -6   -1.65    2.79
  12  -7  -6    8.56    5.08
  12   7  -6    7.20    4.99
  12   7  -6    5.45    3.05
  12  -7  -5    3.51    1.77
  12  -7  -5    5.61    2.91
  12   7  -5    7.58    4.80
  12   7  -5    4.62    3.59
  12   7  -4   72.88   11.45
  12  -7  -4   85.05   11.39
  12  -7  -4   80.48   11.31
  12   7  -4   75.91   11.06
  12  -7  -3   12.25    4.24
  12   7  -3   14.26    6.04
  12   7  -3   16.78    6.78
  12  -7  -3   16.03    6.67
  12  -7  -2   50.93    8.71
  12   7  -2   36.09    8.10
  12   7  -2   49.68    9.61
  12  -7  -2   39.07    8.47
  12  -7  -1   71.86    9.91
  12  -7  -1   60.27    9.76
  12   7  -1   48.14    9.47
  12   7  -1   69.00   11.26
  12   7   0   16.84    4.46
  12  -7   0   28.39    6.60
  12   7   0   22.81    6.63
  12  -7   0   26.85    6.26
  12  -7   1   45.39    8.53
  12  -7   1   53.25    9.55
  12   7   1   52.92    9.69
  12   7   1   72.38   11.65
  12   7   2   31.19    8.73
  12  -7   2   39.21    7.39
  12   7   2   47.34    9.24
  12  -7   2   36.83    7.22
  12   7   3   10.05    5.14
  12  -7   3    3.18    3.13
  12   7   3   17.19    5.82
  12   7   4   58.44   10.38
  12   7   4   84.53   12.42
  12   7   5    0.19    1.79
  12  -7   5    4.21    3.55
  12   7   5    1.62    2.56
  12   7   6    8.47    5.34
  12  -7   6   10.21    5.20
  12   7   6    5.14    3.43
  12   7   7   32.32    8.04
  12  -7   7   37.34    7.22
  12   7   7   44.56    9.03
  12   7   8   33.22    8.48
  12  -7   8   19.86    5.92
  12   7   8   22.63    5.77
  12  -7   9   79.44   11.72
  12   7   9   78.11   11.49
  12   7   9   99.00   14.20
  12   7  10   37.07    8.21
  12  -7  10   51.28    9.20
  12   7  10   31.73    7.12
  12  -7  11    5.97    3.61
  12   7  11    5.64    4.54
  12   7  11   -4.63    4.28
  12  -7  12   17.33    4.81
  12   7  12   12.85    4.92
  12   7  12   14.95    6.22
  12  -7  13   32.52    7.95
  12   7  13   26.67    7.17
  12   7  13   22.19    7.08
  12  -7  14    9.96    3.85
  12   7  14    2.17    2.80
  12  -7  15   48.39    9.13
  12   7  15   89.38   12.52
  12   7  15   71.37   12.34
  12  -7  16    8.06    5.59
  12   7  16   -6.54    4.92
  12   7  16    4.90    5.72
  12  -7  17   19.85    7.20
  12   7  17   21.09    6.36
  12   7  17    8.06    3.48
  12  -8 -13   55.30    9.93
  12   8 -13   44.11    9.70
  12  -8 -13   65.32   11.87
  12   8 -12   66.75   12.48
  12  -8 -12   84.45   11.56
  12  -8 -12  103.47   13.60
  12  -8 -11   13.77    5.77
  12   8 -11   21.43    6.93
  12   8 -10   15.39    5.62
  12  -8 -10   15.41    4.66
  12  -8  -9   37.65    8.47
  12   8  -9   48.08    9.61
  12  -8  -9   26.63    7.39
  12   8  -9   18.98    7.78
  12   8  -8   40.23    9.52
  12  -8  -8   49.18    9.81
  12  -8  -8   55.11   10.31
  12   8  -8   48.72    9.40
  12  -8  -7   79.62   12.24
  12   8  -7   59.24   11.15
  12  -8  -7   78.82   11.49
  12   8  -7   77.55   12.59
  12  -8  -6   31.55    7.54
  12   8  -6   33.11    8.08
  12  -8  -6   41.02    7.99
  12   8  -6   35.02    7.43
  12  -8  -5    6.31    2.59
  12   8  -5   -2.25    4.01
  12  -8  -5    2.16    3.16
  12   8  -5    4.07    3.81
  12  -8  -4   10.53    4.92
  12   8  -4    2.65    4.22
  12  -8  -4   19.05    5.63
  12   8  -4    7.94    4.45
  12  -8  -3   98.33   12.41
  12  -8  -3   89.69   12.40
  12   8  -3   75.28   12.12
  12   8  -3   75.42   11.65
  12  -8  -2   32.06    7.62
  12   8  -2   47.38   10.78
  12  -8  -2   48.82    8.81
  12   8  -2   29.05    7.77
  12  -8  -1    3.97    4.30
  12   8  -1    7.34    5.26
  12  -8  -1    5.33    4.28
  12   8  -1    2.87    2.82
  12   8   0    1.79    4.52
  12  -8   0    1.87    2.85
  12   8   0    9.36    5.65
  12  -8   0    2.95    2.60
  12   8   1    8.54    3.59
  12  -8   1    3.66    3.81
  12   8   1    2.93    2.73
  12  -8   1    1.67    2.39
  12  -8   2   55.76    9.74
  12   8   2   48.01    9.39
  12   8   2   58.69   11.10
  12  -8   3   80.06   11.63
 -12  -8   3   75.40   11.23
  12   8   3   74.75   11.64
  12   8   3  107.58   14.05
  12   8   4   16.88    6.35
  12  -8   4    5.03    3.94
 -12  -8   4   19.12    6.50
  12   8   4   11.71    5.10
  12   8   5    3.68    4.29
  12  -8   5    1.40    2.56
 -12  -8   5   10.31    4.08
  12   8   5    0.51    3.52
  12  -8   6   45.72    9.15
  12   8   6   23.66    7.00
  12   8   6   47.02   10.52
  12   8   7   53.86   10.04
  12  -8   7   69.05   10.60
  12   8   7   63.83   11.29
  12  -8   8   43.43    8.32
  12   8   8   30.16    7.14
  12   8   8   43.24    9.64
  12  -8   9   41.83    8.93
  12   8   9   36.71    8.71
  12   8   9   35.88    8.86
  12  -8  10   24.73    6.50
  12   8  10   19.78    7.18
  12   8  10   21.74    7.14
  12  -8  11   23.42    6.39
  12   8  11   21.66    7.69
  12   8  11   14.35    5.81
  12  -8  12   94.46   13.47
  12   8  12   85.05   11.97
  12   8  12   81.58   13.15
  12  -8  13   46.05    8.81
  12   8  13   71.03   11.88
  12   8  13   60.29   11.12
  12   9  -8    0.58    3.75
  12  -9  -8    4.63    2.10
  12  -9  -8    9.16    4.16
  12   9  -7   -2.52    3.42
  12  -9  -7    4.53    4.83
  12  -9  -7    2.69    2.80
 -12  -9  -7    6.73    4.53
  12   9  -6   18.22    6.82
  12  -9  -6    8.92    4.85
  12  -9  -6    4.71    3.84
 -12  -9  -6    7.26    4.52
  12   9  -5   17.48    6.72
  12  -9  -5    9.36    5.32
  12  -9  -5   13.22    3.28
 -12  -9  -5   19.80    5.94
  12   9  -4    2.13    4.25
  12  -9  -4   11.94    5.15
  12  -9  -4   12.62    5.54
 -12  -9  -4    3.37    2.04
  12   9  -3   47.62    9.89
  12  -9  -3   67.03   10.72
  12  -9  -3   47.01    9.27
 -12  -9  -3   47.75    8.56
  12   9  -3   50.19   10.07
  12   9  -2   -3.17    4.35
  12  -9  -2   -1.83    3.66
  12  -9  -2    3.91    3.88
 -12  -9  -2    2.44    2.99
  12   9  -2    0.90    3.98
  12   9  -1    5.09    3.87
  12  -9  -1   21.54    6.20
  12  -9  -1   13.00    5.69
 -12  -9  -1    8.62    4.43
  12   9  -1   23.14    7.47
  12   9   0   -0.55    2.77
  12  -9   0    3.45    4.25
 -12  -9   0    0.02    2.45
  12   9   0    2.46    5.02
  12   9   1    7.99    5.27
  12  -9   1    7.96    3.31
 -12  -9   1   14.99    5.34
  12   9   1   13.61    6.37
  12   9   2    2.46    4.39
  12  -9   2   -3.71    3.74
 -12  -9   2    3.80    3.72
  12   9   2   -0.98    3.42
  12   9   3   23.48    6.70
  12  -9   3   44.72    8.81
 -12  -9   3   40.07    8.74
  12   9   3   43.31    8.52
  12  -9   4    4.89    5.07
 -12  -9   4   -5.63    4.34
  12   9   4    1.40    3.83
  12   9   4    0.39    4.30
  12  -9   5    9.10    5.08
  12   9   5    9.04    4.97
  12   9   5   12.62    5.52
  12  -9   6    8.80    4.99
  12   9   6    2.91    3.60
  12   9   6    6.14    4.18
  12  -9   7    6.00    3.67
  12   9   7    9.47    2.82
  12   9   7   -0.14    3.09
  12  -9   8    6.40    4.80
  12   9   8    7.24    5.86
  12   9   8   17.68    7.12
  13   0 -24    6.20    4.67
  13   0 -23   -3.50    5.60
  13   0 -22    0.10    3.70
  13   0 -21   -0.79    2.30
  13   0 -20   -4.07    3.77
  13   0 -19    1.57    4.37
  13   0 -18   -0.07    3.93
  13   0 -17   -0.71    2.43
  13   0 -16    4.38    3.64
  13   0 -15    3.52    3.99
  13   0 -14   -1.13    2.13
  13   0 -13    1.57    1.88
  13   0 -12   -0.23    3.43
  13   0 -11   -1.80    2.60
  13   0 -10   -0.63    2.46
  13   0  -9    1.10    1.65
  13   0  -9   -0.18    3.09
  13   0  -8    0.43    2.02
  13   0  -8    1.13    2.10
  13   0  -7   -0.60    2.05
  13   0  -7   -0.93    2.60
  13   0  -6   -1.06    2.39
  13   0  -6   -0.08    2.15
  13   0  -5    0.93    1.57
  13   0  -5   -1.92    1.71
  13   0  -4    0.64    2.47
  13   0  -4    4.51    3.67
  13   0  -3   -0.09    2.14
  13   0  -3    0.13    2.00
  13   0  -2   -1.90    4.15
  13   0  -2    0.49    2.41
  13   0  -2    0.66    2.22
  13   0  -1   -2.19    2.54
  13   0  -1   -0.20    1.98
  13   0  -1   -2.58    3.61
  13   0   0   -0.13    2.92
  13   0   0    1.99    2.36
  13   0   0    1.44    2.77
  13   0   1    1.71    1.61
  13   0   1    0.88    1.90
  13   0   1   -0.78    2.01
  13   0   2   -0.14    1.63
  13   0   2   -1.03    1.73
  13   0   2    1.04    2.63
  13   0   3    0.61    2.81
  13   0   3    4.24    3.30
  13   0   3    2.65    4.13
  13   0   4    0.15    1.66
  13   0   4    0.01    1.65
  13   0   4    0.06    2.14
  13   0   5   -2.03    3.32
  13   0   5   -0.11    3.18
  13   0   6    1.38    2.71
  13   0   6   -1.49    2.20
  13   0   7   -3.44    2.59
  13   0   7    0.43    2.25
  13   0   8    1.17    1.60
  13   0   8    1.49    2.41
  13   0   9    0.02    1.76
  13   0   9    0.05    2.23
  13   0  10   -0.02    2.49
  13   0  10    0.86    3.27
  13   0  11   -3.27    2.93
  13   0  11    2.54    2.98
  13   0  12   -0.47    1.61
  13   0  13    1.02    2.47
  13   0  14    1.83    3.04
  13   0  15    2.70    4.53
  13   0  16    1.26    4.08
  13   0  17   -1.17    3.86
  13   0  18   -0.62    3.17
  13   0  19    1.59    2.22
  13   0  20    0.06    2.56
  13   0  21    1.45    4.10
  13  -1 -24   18.22    6.83
  13  -1 -23   24.46    7.94
  13   1 -23   21.35    7.79
  13  -1 -22   13.42    6.87
  13   1 -22   10.33    7.60
  13   1 -21  140.54   17.33
  13  -1 -21  119.66   14.61
  13   1 -20  133.50   16.08
  13  -1 -20  131.05   15.51
  13  -1 -19    2.79    4.10
  13   1 -19   11.02    5.05
  13  -1 -18    7.46    3.63
  13   1 -18    3.92    3.95
  13  -1 -17   47.83    9.38
  13   1 -17   43.36    9.63
  13   1 -16  192.71   18.39
  13  -1 -16  164.80   16.59
  13   1 -15   78.46   11.02
  13  -1 -15   73.33   11.27
  13   1 -14  149.04   15.64
  13  -1 -14  145.63   14.91
  13  -1 -13   27.19    6.54
  13   1 -13   22.55    5.97
  13  -1 -12   79.38   10.81
  13  -1 -12   77.85   10.14
  13  -1 -11   22.14    6.33
  13   1 -11   15.94    6.01
  13  -1 -11   18.59    4.70
  13   1 -10  136.42   14.36
  13  -1 -10  169.29   15.64
  13  -1 -10  171.24   14.63
  13   1  -9  211.77   17.61
  13  -1  -9  208.33   16.85
  13  -1  -9  200.90   16.27
  13  -1  -8   26.56    5.56
  13   1  -8   30.59    6.66
  13  -1  -8   41.62    6.95
  13   1  -7   77.71   11.09
  13  -1  -7   78.08   10.11
  13  -1  -7   61.69    8.54
  13   1  -6   77.42   10.90
  13  -1  -6   69.85   10.12
  13  -1  -6   61.88    8.75
  13   1  -5  442.25   25.06
  13  -1  -5  450.02   24.76
  13   1  -4   77.12   10.56
  13  -1  -4   80.54   10.72
  13   1  -4   79.12   10.98
  13  -1  -4   78.01   10.06
  13   1  -3  104.19   11.83
  13  -1  -3   98.06   11.25
  13   1  -3  108.43   12.59
  13  -1  -3   92.19   10.51
  13   1  -2  205.36   16.58
  13  -1  -2  218.62   17.21
  13   1  -2  187.25   16.43
  13  -1  -2  208.63   16.35
  13   1  -1  193.65   15.93
  13  -1  -1  202.25   16.01
  13   1  -1  155.87   14.48
  13  -1  -1  152.38   14.42
  13  -1  -1  170.92   14.41
  13   1   0 1559.19   45.66
  13  -1   0 1669.07   46.71
  13   1   0 1591.13   47.88
  13  -1   0 1634.33   47.65
  13  -1   0 1589.75   44.30
  13   1   1  149.45   14.37
  13  -1   1  128.86   13.24
  13   1   1  157.76   15.04
  13  -1   1  152.71   14.26
  13  -1   1  168.58   14.72
  13   1   2  205.25   16.63
  13  -1   2  218.74   16.91
  13   1   2  225.31   17.86
  13  -1   2  211.82   17.21
  13  -1   2  205.66   15.93
  13   1   3  101.73   11.86
  13  -1   3  110.36   12.29
  13   1   3   99.83   12.00
  13  -1   3  120.19   12.91
  13  -1   3  114.81   12.04
  13   1   4   59.72    8.89
  13  -1   4   76.18   10.12
  13   1   4   75.29   10.44
  13  -1   4   72.20    9.58
  13  -1   4   78.52   10.29
  13   1   5  459.40   25.18
  13  -1   5  437.80   24.05
  13   1   5  446.00   25.53
  13  -1   5  484.75   26.02
  13  -1   5  423.13   23.49
  13   1   6   74.82   10.17
  13  -1   6   57.22    8.58
  13   1   6   58.96    9.60
  13  -1   6   71.80   10.17
  13  -1   6   59.26    8.74
  13   1   7   68.52    9.72
  13  -1   7   65.87    9.31
  13   1   7   63.83    9.83
  13  -1   7   59.39    9.20
  13  -1   7   92.28   11.04
  13  -1   8   45.77    8.04
  13   1   8   40.43    7.80
  13   1   8   27.14    5.80
  13  -1   8   37.56    7.81
  13  -1   8   44.54    8.06
  13   1   9  231.76   18.23
  13  -1   9  182.97   15.96
  13   1   9  191.46   16.83
  13  -1   9  166.48   15.80
  13  -1   9  222.68   17.38
  13   1  10  132.10   14.14
  13  -1  10  154.02   15.16
  13   1  10  174.46   16.29
  13  -1  10  150.00   14.73
  13  -1  10  189.46   16.04
  13   1  11   23.59    6.35
  13   1  11   30.26    7.06
  13  -1  11   22.46    5.58
  13  -1  11   24.72    6.59
  13   1  12   92.79   11.78
  13  -1  12   87.33   11.33
  13   1  12  102.67   12.48
  13  -1  13   36.06    7.26
  13   1  13   32.18    6.58
  13  -1  14  152.24   15.07
  13   1  14  164.57   15.90
  13  -1  15   77.28   11.39
  13   1  15   65.23   10.30
  13  -1  16  162.02   16.19
  13   1  16  183.38   17.64
  13  -1  17   19.53    7.05
  13   1  17   50.20    9.17
  13   1  18    5.16    2.34
  13   1  19   13.34    5.59
  13   1  20  176.43   17.34
  13   1  21  119.54   15.26
  13   1  22   21.72    5.22
  13   1  23    7.73    2.88
  13   1  24    5.43    3.82
  13  -2 -23   20.82    6.60
  13  -2 -22   11.61    2.72
  13   2 -22    0.31    4.25
  13  -2 -21   21.31    7.00
  13   2 -21   25.09    7.36
  13  -2 -20    8.99    5.74
  13   2 -20    5.63    4.07
  13  -2 -19    0.25    3.12
  13   2 -19    4.41    3.41
  13  -2 -18    9.65    2.26
  13   2 -18    6.01    4.88
  13   2 -17   95.27   12.74
  13  -2 -17  114.78   13.88
  13  -2 -16   16.86    5.57
  13   2 -16    4.94    3.17
  13  -2 -15    7.04    3.11
  13   2 -15   13.62    5.19
  13  -2 -14   15.83    5.97
  13   2 -14    1.38    3.86
  13  -2 -13   20.25    6.97
  13   2 -13   11.27    4.30
  13   2 -12   69.99   10.60
  13  -2 -12   78.72   10.72
  13  -2 -12   90.86   11.88
  13   2 -11  330.82   22.41
  13  -2 -11  285.67   19.76
  13  -2 -11  321.25   22.06
  13  -2 -10   10.29    3.87
  13  -2 -10    8.20    4.02
  13  -2  -9   22.81    5.87
  13  -2  -9   21.67    5.93
  13   2  -9   20.02    6.61
  13   2  -8   88.64   11.70
  13  -2  -8   79.93   11.18
  13  -2  -8   70.78   10.08
  13  -2  -7   41.31    7.19
  13   2  -7   34.14    6.72
  13  -2  -7   41.01    8.01
  13  -2  -6   19.39    5.30
  13  -2  -6    6.63    3.29
  13   2  -6   10.95    4.90
  13   2  -6   12.81    4.59
  13  -2  -5    3.38    2.77
  13  -2  -5    2.72    3.04
  13   2  -5    1.36    1.97
  13   2  -5    0.45    2.19
  13  -2  -4    9.08    3.46
  13  -2  -4   10.30    2.91
  13   2  -4   14.81    4.66
  13   2  -4   15.50    4.76
  13   2  -3  123.38   13.22
  13   2  -3  160.25   15.25
  13  -2  -3  122.00   13.13
  13  -2  -3  118.92   12.33
  13   2  -2   75.38   10.46
  13   2  -2   57.44    9.32
  13  -2  -2   57.97    8.89
  13  -2  -2   62.81    8.80
  13   2  -1   76.29   10.19
  13   2  -1   68.93    9.90
  13  -2  -1   74.04    9.96
  13  -2  -1   83.25   10.76
  13  -2  -1   73.58    9.92
  13   2   0  732.47   32.04
  13  -2   0  702.03   30.40
  13   2   0  741.60   33.07
  13  -2   0  778.93   32.55
  13  -2   0  737.09   30.96
  13   2   1   78.43   10.58
  13  -2   1   65.49    9.52
  13   2   1   91.33   11.45
  13  -2   1   80.39   10.53
  13  -2   1   89.96   11.19
  13   2   2   64.38    9.87
  13  -2   2   55.50    8.50
  13   2   2   66.85    9.77
  13  -2   2   67.89    9.97
  13  -2   2   57.38    8.61
  13   2   3  103.37   12.18
  13  -2   3  121.73   12.56
  13   2   3  110.91   13.18
  13  -2   3  125.34   13.24
  13  -2   3  113.90   12.30
  13  -2   4   18.88    5.85
  13   2   4   17.11    5.15
  13   2   4   11.21    5.01
  13  -2   4   11.97    4.32
  13  -2   4   13.70    4.93
  13  -2   5    1.24    2.94
  13   2   5    2.45    1.58
  13   2   5    2.17    2.86
  13  -2   5    3.30    2.66
  13  -2   5    0.67    2.42
  13   2   6    6.24    4.22
  13   2   6    6.52    4.36
  13  -2   6   13.23    5.05
  13  -2   6    4.99    3.65
  13  -2   6    4.53    3.43
  13   2   7   39.15    7.66
  13   2   7   38.38    7.54
  13  -2   7   36.06    7.36
  13  -2   7   32.41    6.93
  13  -2   7   34.99    6.51
  13   2   8   69.99   10.41
  13  -2   8   81.08   10.38
  13   2   8   89.98   11.68
  13  -2   8   88.48   11.06
  13  -2   8   70.73    9.91
  13   2   9   18.83    5.95
  13   2   9   21.87    5.68
  13  -2   9   19.78    5.00
  13  -2   9   23.68    6.84
  13   2  10   10.33    4.74
  13   2  10   21.09    5.80
  13  -2  10   13.39    3.02
  13   2  11  314.56   22.17
  13   2  11  321.66   22.24
  13  -2  11  289.13   20.43
  13  -2  11  289.86   20.92
  13   2  12   77.42   11.77
  13   2  12   74.81   10.38
  13  -2  12   98.88   12.05
  13   2  13   15.56    4.53
  13   2  13   12.38    4.91
  13  -2  13   10.75    4.75
  13   2  14    3.33    3.79
  13  -2  14   11.19    4.99
  13   2  15    7.84    3.36
  13  -2  15    8.30    3.50
  13   2  16    4.98    3.23
  13   2  17  101.08   13.74
  13   2  18    2.22    1.94
  13   2  19   -3.20    4.39
  13   2  20   11.92    5.69
  13   2  21   27.76    6.72
  13   2  22   14.42    6.02
  13   2  23   15.19    5.94
  13  -3 -22   93.94   13.51
  13  -3 -21   20.48    6.31
  13   3 -21   22.12    7.47
  13  -3 -20   38.30    8.10
  13   3 -20   37.11    8.64
  13  -3 -19   18.52    5.90
  13   3 -19   26.03    7.39
  13  -3 -18   19.55    6.54
  13   3 -18   21.42    6.97
  13  -3 -17   52.84    9.24
  13   3 -17   40.34    9.15
  13  -3 -16  344.22   23.94
  13   3 -16  321.37   23.50
  13  -3 -15   88.73   12.31
  13   3 -15   57.45    9.74
  13  -3 -14  185.17   17.26
  13   3 -14  176.57   17.44
  13  -3 -13   90.01   11.56
  13   3 -13  104.12   13.48
  13  -3 -13   95.98   11.98
  13  -3 -12  242.03   19.81
  13   3 -12  213.97   18.93
  13  -3 -12  241.38   18.55
  13  -3 -11   40.90    7.38
  13  -3 -11   25.48    6.87
  13   3 -11   51.09    8.71
  13   3 -10  420.00   25.53
  13  -3 -10  387.79   23.13
  13  -3  -9   71.72   10.56
  13   3  -9   54.29    9.20
  13  -3  -9   54.53    8.70
  13  -3  -8   84.57   11.20
  13   3  -8   79.68   10.99
  13   3  -8   73.87   10.97
  13  -3  -8   91.18   10.84
  13  -3  -7   59.68    9.13
  13   3  -7   64.41    9.86
  13   3  -7   62.76   10.38
  13  -3  -7   69.45    9.69
  13  -3  -6  135.51   13.78
  13   3  -6  115.93   13.29
  13   3  -6  118.63   13.37
  13  -3  -6  107.50   11.95
  13  -3  -5   12.70    4.92
  13  -3  -5   15.83    5.08
  13   3  -5   12.23    4.08
  13   3  -5    2.68    2.33
  13   3  -4  358.26   22.94
  13   3  -4  323.78   22.46
  13  -3  -4  284.39   19.24
  13  -3  -4  357.39   22.67
  13   3  -3   65.69    9.66
  13   3  -3   71.85   10.14
  13  -3  -3   71.04    9.60
  13  -3  -3   81.98   10.98
  13  -3  -2    4.26    2.34
  13  -3  -2    7.52    4.73
  13   3  -2    4.56    3.04
  13   3  -2    1.12    2.05
  13  -3  -1   20.89    5.48
  13  -3  -1   25.70    5.96
  13   3  -1   21.24    6.22
  13   3  -1   17.39    5.71
  13   3   0  134.50   14.27
  13   3   0  136.04   14.54
  13  -3   0  133.32   13.70
  13  -3   0  135.14   13.32
  13  -3   0  142.78   13.50
  13  -3   1   25.07    6.39
  13  -3   1    9.82    3.04
  13   3   1    6.76    3.19
  13   3   1   23.32    5.55
  13  -3   1   14.29    4.92
  13  -3   2    4.90    3.05
  13  -3   2    3.80    4.00
  13   3   2    0.31    1.61
  13   3   2    3.91    3.40
  13  -3   2    3.05    3.78
  13   3   3   75.43   10.65
  13   3   3   59.56    9.83
  13  -3   3   76.08   10.08
  13  -3   3   63.28    9.07
  13  -3   3   63.51    9.68
  13   3   4  335.66   22.29
  13   3   4  339.37   22.78
  13  -3   4  343.88   21.47
  13  -3   4  292.68   19.71
  13  -3   4  326.13   20.78
  13  -3   5   14.50    4.09
  13  -3   5    8.10    3.65
  13   3   5   10.24    4.61
  13   3   5    4.52    3.21
  13  -3   5    7.65    3.33
  13   3   6   92.89   12.43
  13  -3   6  111.00   11.86
  13   3   6  134.48   14.38
  13  -3   6  125.63   14.41
  13  -3   6   91.80   11.67
  13   3   7   53.57    9.90
  13  -3   7   64.10    9.17
  13   3   7   55.85    9.15
  13  -3   7   59.42    9.21
  13   3   8   69.99   10.45
  13   3   8   67.34   10.50
  13  -3   8   76.87   10.39
  13   3   9   69.12   10.35
  13   3   9   46.82    8.59
  13  -3   9   80.66   10.57
  13   3  10  480.32   27.89
  13   3  10  414.97   25.50
  13  -3  10  429.19   25.25
  13   3  11   35.70    7.99
  13   3  11   29.65    7.28
  13  -3  11   30.38    6.92
  13   3  12  245.63   19.66
  13  -3  12  253.74   19.42
  13   3  12  228.28   20.08
  13   3  13   76.17   11.30
  13  -3  13  107.74   12.59
  13   3  13   78.37   12.13
  13   3  14  165.75   16.14
  13  -3  14  160.89   15.47
  13   3  14  187.26   17.96
  13   3  15   61.53    9.82
  13  -3  15   81.31   11.49
  13   3  16  361.07   24.53
  13  -3  16  346.65   24.32
  13   3  17   42.06    9.21
  13  -3  17   43.56    8.13
  13   3  18   40.07    9.13
  13  -3  18   23.75    7.32
  13   3  19   21.41    6.28
  13   3  20   38.55    8.41
  13   3  21   31.13    7.34
  13   3  22   75.21   11.88
  13  -4 -21   23.13    7.05
  13  -4 -20   20.11    6.40
  13   4 -20    7.77    5.28
  13   4 -19   22.50    6.82
  13  -4 -19   36.63    8.38
  13   4 -18   -0.07    3.20
  13  -4 -18    0.12    3.78
  13   4 -17   29.06    7.02
  13  -4 -17   44.15    8.88
  13   4 -16    1.08    2.23
  13  -4 -16   -2.18    2.91
  13   4 -15   34.01    8.22
  13  -4 -15   25.48    6.35
  13   4 -14    6.33    4.23
  13  -4 -14   10.75    5.36
  13  -4 -13    0.82    3.21
  13   4 -13    2.14    4.20
  13  -4 -13   -1.82    1.77
  13  -4 -12   16.28    6.03
  13   4 -12    9.19    4.37
  13  -4 -12   25.78    6.79
  13  -4 -11    1.52    2.68
  13   4 -11    1.27    3.16
  13  -4 -11    0.38    2.49
  13   4 -11    0.99    3.47
  13  -4 -10   21.70    6.11
  13   4 -10   10.69    4.31
  13  -4 -10    5.63    2.12
  13   4 -10   17.31    4.44
  13  -4  -9  260.28   19.03
  13  -4  -9  254.58   19.68
  13   4  -9  258.25   20.50
  13   4  -9  316.51   22.55
  13  -4  -8    2.55    2.66
  13   4  -8    6.72    4.85
  13  -4  -8    2.28    1.53
  13   4  -8    6.07    3.82
  13  -4  -7   10.30    1.73
  13   4  -7   10.44    4.91
  13  -4  -7    8.95    4.54
  13   4  -7   15.60    6.33
  13  -4  -6  152.51   14.79
  13  -4  -6  157.14   15.62
  13   4  -6  142.43   15.41
  13   4  -6  153.33   15.86
  13  -4  -5   19.43    4.04
  13   4  -5   12.92    5.47
  13  -4  -5   14.97    4.43
  13   4  -5   13.22    4.18
  13  -4  -4   44.30    8.74
  13   4  -4   38.63    8.73
  13  -4  -4   34.94    7.46
  13   4  -4   30.79    6.70
  13   4  -3   12.78    4.88
  13  -4  -3   21.75    4.89
  13   4  -3   21.94    7.35
  13  -4  -2  211.54   17.35
  13  -4  -2  213.25   17.47
  13   4  -2  271.45   20.30
  13   4  -2  221.28   18.44
  13  -4  -1   94.94   11.76
  13   4  -1  108.30   12.86
  13   4  -1  122.95   14.33
  13  -4  -1  105.52   12.33
  13  -4   0    6.50    4.64
  13   4   0    7.32    1.70
  13  -4   0    7.11    4.00
  13   4   0   13.30    4.48
  13  -4   0   11.21    4.95
  13   4   1  103.14   12.48
  13   4   1  121.47   14.27
  13  -4   1  108.73   12.82
  13  -4   1  114.06   13.02
  13   4   2  245.68   19.49
  13   4   2  241.54   19.65
  13  -4   2  220.44   17.49
  13  -4   2  261.23   18.66
  13  -4   3   35.22    7.36
  13  -4   3   19.21    5.28
  13   4   3   29.12    7.25
  13   4   3   30.43    7.31
  13  -4   4   43.28    7.78
  13  -4   4   37.60    7.79
  13   4   4   35.38    8.04
  13   4   4   41.89    8.67
  13  -4   5   11.91    3.19
  13  -4   5   10.47    4.63
  13   4   5   18.53    5.03
  13   4   5    9.25    3.91
  13   4   6  163.17   16.04
  13   4   6  181.33   17.06
  13  -4   6  155.39   14.27
  13  -4   6  139.42   14.39
  13  -4   7   13.31    4.76
  13   4   7   11.66    4.50
  13   4   7   17.21    6.35
  13  -4   8    4.42    3.00
  13   4   8    9.16    5.55
  13   4   8    4.76    3.25
  13   4   9  258.30   21.20
  13   4   9  305.57   22.01
  13  -4   9  282.69   20.71
  13  -4  10   18.79    5.62
  13   4  10    6.68    2.33
  13   4  10   11.06    4.83
  13  -4  11    2.90    4.11
  13   4  11   -0.23    1.97
  13   4  11   -2.44    1.86
  13   4  12    9.26    5.12
  13   4  12   11.55    3.98
  13  -4  13    4.15    2.48
  13   4  13    6.35    4.69
  13   4  13    3.78    3.96
  13   4  14   16.85    6.80
  13   4  14   11.22    4.88
  13  -4  14   10.85    4.74
  13   4  15   25.41    6.80
  13   4  15   19.15    7.13
  13  -4  15   21.34    6.98
  13   4  16   12.62    4.68
  13  -4  16    9.12    3.44
  13   4  17   40.21    9.03
  13  -4  17   30.69    7.67
  13   4  18    6.82    4.34
  13  -4  18    3.94    3.68
  13   4  19   29.16    7.05
  13  -4  19   23.55    7.13
  13   4  20    3.74    4.02
  13  -4  20   17.41    5.31
  13   4  21   28.85    7.31
  13  -5 -20   59.84   10.08
  13  -5 -19   26.31    7.51
  13   5 -18    4.04    4.00
  13  -5 -18   23.24    7.66
  13   5 -17   54.01   10.26
  13  -5 -17   57.13   10.13
  13   5 -16   52.73   10.13
  13  -5 -16   48.12    9.16
  13   5 -15   25.97    6.87
  13  -5 -15   27.82    6.90
  13   5 -15   22.89    6.63
  13   5 -14   38.65    8.81
  13  -5 -14   35.27    7.73
  13   5 -14   43.81    9.16
  13  -5 -13   13.16    4.94
  13   5 -13   15.77    6.46
  13  -5 -13    2.90    3.12
  13   5 -13    7.11    3.79
  13   5 -12   33.39    8.38
  13  -5 -12   49.71    8.57
  13   5 -12   31.00    7.90
  13  -5 -11  161.98   15.85
  13   5 -11  109.43   13.89
  13  -5 -11  142.53   15.28
  13   5 -11  133.66   15.40
  13  -5 -10   55.43    9.31
  13   5 -10   37.60    8.77
  13   5 -10   42.33    8.93
  13  -5  -9   -1.62    2.02
  13   5  -9    3.70    2.46
  13  -5  -9    4.40    3.29
  13   5  -9    4.99    2.36
  13  -5  -8   32.80    6.99
  13   5  -8   14.76    5.73
  13  -5  -8   17.54    4.63
  13   5  -8   21.78    6.77
  13  -5  -7   74.46   10.24
  13   5  -7   75.25   11.35
  13  -5  -7   70.12   10.67
  13   5  -7   77.36   11.85
  13  -5  -6  121.41   13.68
  13   5  -6  139.73   15.51
  13  -5  -6  127.06   14.26
  13   5  -6  119.10   14.49
  13  -5  -5   52.83    9.18
  13  -5  -5   40.52    7.30
  13   5  -5   31.32    7.26
  13  -5  -4  100.43   12.04
  13   5  -4  119.49   13.92
  13  -5  -4  120.63   13.62
  13   5  -4  105.79   13.80
  13  -5  -3  111.24   12.28
  13   5  -3   92.19   12.18
  13  -5  -3  101.10   12.06
  13   5  -3  110.31   13.04
  13  -5  -2  310.29   21.02
  13   5  -2  302.77   22.52
  13  -5  -2  275.04   20.12
  13   5  -2  341.25   23.96
  13  -5  -1  219.80   17.72
  13   5  -1  223.62   19.51
  13  -5  -1  242.24   18.51
  13   5  -1  193.36   17.61
  13  -5   0    3.43    3.92
  13   5   0    9.24    5.07
  13  -5   0   -1.36    1.57
  13   5   0    3.03    2.68
  13  -5   1  225.67   18.31
  13   5   1  196.64   17.80
  13  -5   1  221.14   18.14
  13   5   1  226.53   19.48
  13  -5   2  301.36   21.03
  13  -5   2  318.74   21.81
  13   5   2  289.02   21.58
  13   5   2  283.48   21.70
  13  -5   3  116.39   12.83
  13  -5   3   92.58   11.75
  13   5   3  121.17   14.18
  13   5   3  114.68   13.39
  13   5   4  128.46   14.97
  13   5   4  119.62   14.18
  13  -5   4  100.96   12.30
  13  -5   4  143.04   15.01
  13  -5   5   42.30    8.20
  13   5   5   50.72    9.39
  13   5   5   53.90    9.37
  13   5   6  102.24   13.46
  13   5   6  135.57   14.34
  13  -5   6  146.71   14.58
  13   5   7   69.55   11.28
  13  -5   7   89.09   11.50
  13   5   7   83.00   11.91
  13  -5   8   23.70    5.78
  13   5   8   19.59    6.03
  13   5   8   17.37    6.09
  13  -5   9    3.96    3.90
  13   5   9   -2.64    2.17
  13   5   9    7.89    3.81
  13  -5  10   43.15    8.36
  13   5  10   44.99    9.13
  13   5  10   26.30    7.62
  13   5  11  125.85   14.37
  13   5  11  112.30   14.48
  13  -5  11  122.73   14.16
  13  -5  12   30.60    7.81
  13   5  12   33.26    8.18
  13   5  12   34.42    8.26
  13  -5  13   11.13    4.65
  13   5  13    5.88    4.01
  13   5  13    7.00    4.51
  13  -5  14   29.16    7.58
  13   5  14   51.06    9.51
  13   5  14   46.63    9.26
  13   5  15   15.72    6.35
  13  -5  15   29.96    7.70
  13   5  15   21.63    6.10
  13  -5  16   36.91    8.89
  13   5  16   36.81    8.52
  13   5  16   39.56    9.16
  13   5  17   36.73    9.06
  13  -5  17   55.77   10.89
  13   5  18    6.30    2.62
  13  -5  18   15.92    5.55
  13   5  19    6.90    3.54
  13  -5  19   15.73    6.70
  13   5  20   43.76    9.38
  13  -6 -18    8.45    4.87
  13   6 -18    2.69    6.05
  13   6 -17   -5.05    5.36
  13  -6 -17    4.60    4.76
  13   6 -17   10.80    6.32
  13   6 -16   -3.79    6.19
  13  -6 -16    1.69    4.59
  13   6 -16   -2.61    3.32
  13   6 -15   12.06    7.61
  13  -6 -15    4.77    3.94
  13   6 -15    7.26    6.37
  13  -6 -14    6.81    3.86
  13   6 -14   10.52    4.91
  13  -6 -14   18.07    5.40
  13   6 -14   12.55    5.07
  13  -6 -13   20.48    7.78
  13   6 -13    7.05    3.22
  13  -6 -13    9.00    4.87
  13   6 -13   15.05    6.05
  13  -6 -12    6.54    5.38
  13   6 -12    4.10    3.22
  13  -6 -12    5.39    4.05
  13   6 -12    2.20    3.60
  13  -6 -11   21.45    6.32
  13   6 -11    4.35    2.45
  13  -6 -11   14.40    5.53
  13   6 -11   18.61    5.21
  13  -6 -10    2.92    2.99
  13   6 -10    1.05    4.23
  13  -6 -10   12.06    5.45
  13   6 -10    1.20    2.81
  13  -6  -9    4.79    4.03
  13   6  -9    1.60    4.67
  13  -6  -9    4.03    2.46
  13   6  -9    0.23    3.14
  13  -6  -8    1.75    3.57
  13  -6  -8    8.03    3.59
  13   6  -8    6.49    3.05
  13  -6  -7    5.01    4.72
  13   6  -7    4.86    4.08
  13  -6  -7    8.42    4.76
  13   6  -7    7.94    4.38
  13  -6  -6    4.88    2.25
  13   6  -6   10.46    6.02
  13  -6  -6    7.77    3.74
  13   6  -6    7.90    4.26
  13  -6  -5    2.26    3.01
  13   6  -5    3.89    2.35
  13  -6  -5    2.84    3.02
  13   6  -5    9.66    5.53
  13  -6  -4   -4.78    4.40
  13   6  -4   -4.01    4.35
  13  -6  -4    1.42    2.37
  13   6  -4    2.34    2.57
  13  -6  -3    9.67    3.76
  13   6  -3   16.43    6.01
  13  -6  -3   12.07    5.15
  13   6  -3   12.29    3.90
  13  -6  -2   12.86    5.75
  13   6  -2   19.16    7.08
  13  -6  -2   19.07    4.91
  13   6  -2   20.86    5.50
  13  -6  -1   18.67    5.66
  13   6  -1   14.14    4.02
  13  -6  -1   20.13    5.75
  13   6  -1   22.75    6.08
  13  -6   0    5.06    2.63
  13   6   0   -1.36    2.14
  13  -6   0    1.19    3.18
  13   6   0   -5.06    3.58
  13  -6   1   12.60    5.03
  13   6   1   27.63    7.58
  13  -6   1   27.33    6.64
  13   6   1   18.22    6.66
  13  -6   2   20.32    6.37
  13   6   2   17.62    5.27
  13  -6   2   10.38    6.72
  13   6   2   27.36    7.47
  13  -6   3   12.07    5.28
  13   6   3    8.51    4.45
  13  -6   3   10.75    4.68
  13   6   3   16.31    4.92
  13  -6   4   -0.14    2.27
  13   6   4    2.16    3.00
  13   6   4   -3.08    4.17
  13  -6   5    7.74    4.25
  13   6   5    1.82    2.59
  13   6   5    5.72    3.86
  13  -6   6    3.63    3.71
  13   6   6    9.26    5.38
  13   6   6   -0.73    3.09
  13  -6   7   10.95    3.59
  13   6   7    4.18    3.90
  13   6   7    9.74    5.19
  13  -6   8   10.38    3.43
  13   6   8    5.73    4.59
  13   6   8    7.65    3.70
  13  -6   9    4.19    3.01
  13   6   9    9.62    4.95
  13   6   9    3.24    3.31
  13   6  10    4.43    2.53
  13  -6  10    5.85    4.05
  13   6  10    9.82    4.76
  13   6  11   20.41    6.55
  13  -6  11   18.84    5.83
  13   6  11   25.46    7.08
  13  -6  12   -0.35    2.92
  13   6  12    2.12    2.92
  13   6  13   17.02    6.13
  13  -6  13    7.59    5.66
  13   6  13   10.07    3.69
  13  -6  14   26.37    7.28
  13   6  14   19.89    6.35
  13   6  14    8.14    5.27
  13  -6  15   10.24    4.35
  13   6  15    5.43    3.28
  13   6  15   10.11    5.57
  13  -6  16   -0.68    4.16
  13   6  16   -3.76    3.44
  13   6  16   -0.76    2.31
  13  -6  17   -4.06    3.12
  13   6  17   -1.18    1.95
  13   6  17    3.34    4.00
  13  -6  18   12.06    4.88
  13   6  18    4.44    4.65
  13   7 -15    4.68    4.12
  13  -7 -15   33.21    7.86
  13  -7 -14   32.54    9.16
  13   7 -14   15.85    5.52
  13   7 -14   25.73    8.04
  13  -7 -14   29.32    7.33
  13  -7 -13    9.26    5.37
  13   7 -13    3.63    4.34
  13   7 -13    6.64    5.31
  13  -7 -13   18.34    4.98
  13  -7 -12   11.23    3.73
  13   7 -12   10.54    5.18
  13   7 -12    8.56    5.65
  13  -7 -12   13.08    5.68
  13  -7 -11   32.62    9.26
  13   7 -11   34.62    8.53
  13   7 -11   30.41    8.67
  13  -7 -11   35.73    7.84
  13   7 -10  130.52   16.29
  13  -7 -10  118.05   14.78
  13  -7 -10  115.68   13.90
  13   7 -10  105.18   14.93
  13  -7  -9   32.77    8.12
  13   7  -9   14.74    5.91
  13   7  -9   24.59    6.58
  13  -7  -9   37.83    8.39
  13  -7  -8   25.96    6.81
  13   7  -8   29.88    7.54
  13   7  -8   14.55    5.98
  13  -7  -8   42.09    8.34
  13  -7  -7   27.44    6.03
  13   7  -7   30.84    8.62
  13   7  -7   39.99    9.59
  13  -7  -7   31.65    6.82
  13   7  -6   93.55   13.87
  13  -7  -6  107.64   13.56
  13  -7  -6   96.52   12.77
  13   7  -6  102.77   14.37
  13  -7  -5   34.36    7.69
  13   7  -5   23.79    5.76
  13   7  -5   23.30    6.99
  13  -7  -5   20.58    6.22
  13  -7  -4   68.69   10.17
  13   7  -4   49.23    9.78
  13  -7  -4   69.19   10.78
  13   7  -4   64.69   10.15
  13  -7  -3   36.76    7.68
  13   7  -3   28.80    6.97
  13   7  -3   26.57    7.75
  13  -7  -3   43.60    8.39
  13  -7  -2   51.71    9.79
  13   7  -2   46.92   10.04
  13   7  -2   62.48   10.61
  13  -7  -2   51.47    9.22
  13  -7  -1   16.08    4.81
  13   7  -1   34.46    8.03
  13   7  -1   23.62    6.69
  13  -7  -1   31.34    7.68
  13  -7   0    7.90    4.14
  13   7   0    5.85    4.94
  13  -7   0   18.11    6.51
  13   7   0    5.61    4.16
  13  -7   1   37.29    8.61
  13   7   1   24.39    6.89
  13  -7   1   26.64    6.05
  13   7   1   32.48    6.53
  13  -7   2   49.39    9.10
  13  -7   2   51.37   11.19
  13   7   2   68.92   11.39
  13   7   2   50.51   10.13
  13  -7   3   46.97    9.00
  13   7   3   35.01    8.61
  13   7   3   25.64    6.81
  13  -7   4   46.52    8.66
  13   7   4   65.73   10.64
  13   7   4   61.74   11.26
  13  -7   5   17.01    5.17
  13   7   5    9.55    4.68
  13  -7   6   94.79   12.43
  13   7   6  100.30   13.37
  13   7   6   96.90   13.76
  13   7   7   33.48    8.08
  13  -7   7   23.01    6.16
  13   7   7   31.89    8.06
  13   7   8   26.51    6.46
  13  -7   8   28.74    6.85
  13   7   8   13.55    5.81
  13   7   9   34.31    8.84
  13  -7   9   26.39    7.23
  13   7   9   21.90    5.33
  13   7  10  107.01   13.31
  13   7  10  108.27   14.31
  13  -7  10  116.94   14.33
  13   7  11   39.21    9.24
  13   7  11   36.18    9.08
  13  -7  11   58.46   10.53
  13  -7  12   21.26    6.75
  13   7  12   10.74    5.19
  13   7  12   28.34    7.37
  13  -7  13   10.03    3.36
  13   7  13   12.06    4.51
  13   7  13   12.01    4.93
  13  -7  14   22.53    5.73
  13   7  14   34.25    8.30
  13   7  14   22.62    6.99
  13  -7  15   22.19    6.50
  13   7  15   17.96    6.43
  13   7  15   24.44    6.89
  13  -8 -11   14.62    6.82
  13   8 -11   14.79    6.23
  13  -8 -11   18.10    6.21
  13  -8 -10    5.43    2.85
  13   8 -10   -0.18    3.29
  13  -8 -10    7.77    5.61
  13  -8  -9   12.69    4.24
  13   8  -9    6.11    3.16
  13   8  -9    3.38    3.63
  13  -8  -8   11.78    4.63
  13   8  -8   10.19    5.36
  13   8  -8   -1.98    5.72
  13  -8  -8   11.43    3.98
  13  -8  -7    9.89    5.75
  13   8  -7   17.27    6.23
  13   8  -7    9.91    6.66
  13  -8  -7    2.63    2.55
  13   8  -6   13.22    7.21
  13  -8  -6    7.68    4.44
  13   8  -6    7.32    6.38
  13  -8  -6    8.53    4.47
  13   8  -5   22.48    7.41
  13  -8  -5   14.71    5.75
  13   8  -5    0.35    5.57
  13  -8  -5   13.70    3.84
  13   8  -4    3.82    5.61
  13  -8  -4    0.87    3.38
  13   8  -4   -6.65    6.86
  13  -8  -4   -0.35    2.44
  13   8  -3    7.16    4.75
  13  -8  -3   13.80    5.89
  13   8  -3    6.37    2.58
  13  -8  -3   -2.17    3.46
  13   8  -2    7.22    5.17
  13  -8  -2    7.55    3.20
  13   8  -2   11.12    5.37
  13  -8  -2   13.16    5.70
  13   8  -1   16.62    7.80
  13  -8  -1   11.49    5.95
  13   8  -1    1.97    4.04
  13  -8  -1    2.88    3.26
  13   8   0    3.66    3.77
  13  -8   0    2.54    2.31
  13   8   0    4.97    7.38
  13  -8   0    7.33    3.28
  13   8   1    4.83    2.16
  13  -8   1    3.67    3.52
  13   8   1    1.22    3.20
  13  -8   2    6.24    2.39
  13   8   2    4.82    4.15
  13   8   3   10.33    5.49
  13  -8   3   13.37    4.11
  13   8   3   16.81    5.75
  13   8   4    6.48    4.69
  13  -8   4    1.49    3.16
 -13  -8   4   -1.80    2.53
  13   8   4   -2.53    3.62
  13   8   5   16.45    6.99
  13  -8   5   12.17    5.11
 -13  -8   5   15.54    5.31
  13   8   5   16.36    7.26
  13   8   6    7.14    6.05
  13  -8   6    9.66    6.34
  13   8   6    1.80    3.13
  13   8   7   -0.29    2.74
  13  -8   7    1.98    3.38
  13   8   8   15.01    5.53
  13  -8   8    7.74    4.35
  13   8   8   15.90    6.01
  13  -8   9    3.84    3.55
  13   8   9    8.52    2.60
  13   8   9    0.71    2.44
  13  -8  10    4.56    5.27
  13   8  10    2.39    5.50
  13   8  10   -2.18    3.50
  13  -8  11   25.27    7.81
  13   8  11   18.27    6.14
  13   8  11   14.02    5.64
  13   9  -3   22.86    8.06
  13  -9  -3   19.31    7.35
 -13  -9  -3   14.98    5.50
  13   9  -3    6.84    5.85
  13  -9  -3   14.86    7.04
  13   9  -2    2.64    5.24
  13  -9  -2    3.22    3.94
 -13  -9  -2   13.33    5.41
  13   9  -2    6.12    5.84
  13  -9  -2    3.55    3.35
  13   9  -1    1.25    3.05
  13  -9  -1   -3.15    3.33
 -13  -9  -1    3.37    4.05
  13   9  -1   -1.90    3.05
  13  -9  -1   -7.88    4.00
  13   9   0   36.68    8.03
  13  -9   0   29.11    7.93
 -13  -9   0   48.69    9.67
  13   9   0   25.17    8.71
  13   9   1    0.78    3.19
  13  -9   1    2.20    3.03
 -13  -9   1   -5.91    3.59
  13   9   1    0.99    4.54
  13   9   2   10.10    6.33
  13  -9   2    6.45    4.03
 -13  -9   2    3.97    3.67
  13   9   2    2.44    2.84
  13   9   3    9.33    3.73
  13  -9   3   13.49    5.53
 -13  -9   3   17.25    7.21
  13   9   3   16.95    4.95
  14   0 -22   46.46   10.01
  14   0 -21   90.55   13.20
  14   0 -20   19.66    6.63
  14   0 -19   12.79    4.62
  14   0 -18   -2.34    4.20
  14   0 -17    5.93    3.47
  14   0 -16  111.10   13.76
  14   0 -15   21.74    5.85
  14   0 -14   69.05   10.59
  14   0 -13  167.18   16.36
  14   0 -12  177.84   16.92
  14   0 -11   20.06    5.29
  14   0 -10  240.25   19.02
  14   0  -9   26.35    6.16
  14   0  -8   33.15    7.97
  14   0  -7  289.74   20.86
  14   0  -6  371.51   23.59
  14   0  -6  368.13   21.61
  14   0  -5  227.95   18.27
  14   0  -5  225.77   17.39
  14   0  -4  291.94   20.53
  14   0  -4  308.87   19.99
  14   0  -3  126.66   13.69
  14   0  -3  104.59   12.95
  14   0  -3  117.19   12.05
  14   0  -2   86.56   11.19
  14   0  -2  101.89   12.89
  14   0  -2   95.96   11.26
  14   0  -1  208.92   17.35
  14   0  -1  200.97   17.46
  14   0  -1  217.38   16.91
  14   0   0  177.36   15.79
  14   0   0  187.33   16.81
  14   0   0  153.81   14.41
  14   0   1  188.12   16.08
  14   0   1  209.97   17.37
  14   0   1  179.46   15.29
  14   0   2   89.97   11.55
  14   0   2   92.88   11.66
  14   0   2   93.01   11.26
  14   0   3  107.50   11.88
  14   0   3  104.14   12.75
  14   0   4  288.68   20.18
  14   0   4  271.53   20.41
  14   0   5  178.89   16.17
  14   0   5  226.33   18.60
  14   0   6  358.54   22.97
  14   0   6  375.62   24.67
  14   0   7  284.23   20.60
  14   0   7  294.48   21.75
  14   0   8   47.00    8.56
  14   0   8   44.57    8.14
  14   0   9   22.47    5.54
  14   0   9   24.86    6.58
  14   0  10  258.47   19.67
  14   0  10  256.61   19.91
  14   0  11   15.79    5.29
  14   0  12  242.83   19.23
  14   0  13  159.21   15.84
  14   0  14   35.97    7.93
  14   0  15   30.23    7.73
  14   0  16  138.39   15.46
  14   0  17    7.81    3.39
  14   0  18   -0.30    2.44
  14   0  19   18.67    6.53
  14   0  20   46.32   10.57
  14  -1 -22    1.83    2.98
  14   1 -22    8.38    6.52
  14  -1 -21    4.87    6.28
  14   1 -21   -0.89    3.71
  14  -1 -20   11.72    5.33
  14   1 -20    5.54    3.15
  14  -1 -19    8.52    5.54
  14   1 -19   11.55    5.25
  14  -1 -18   27.03    7.70
  14   1 -18   19.40    6.82
  14  -1 -17    0.54    2.70
  14   1 -17    1.32    4.35
  14  -1 -16   10.77    4.80
  14   1 -16    4.90    3.63
  14  -1 -15   32.25    7.09
  14   1 -15   23.75    7.01
  14  -1 -14    2.36    3.02
  14   1 -14    4.25    2.37
  14  -1 -13    3.65    2.75
  14   1 -13   -1.90    4.07
  14  -1 -12    7.19    4.20
  14   1 -12    2.16    2.71
  14  -1 -11   -0.12    3.08
  14   1 -11    0.28    3.58
  14  -1 -11    6.53    4.08
  14  -1 -10   11.73    5.26
  14   1 -10    9.22    4.40
  14  -1 -10   12.03    4.12
  14  -1  -9   56.42    9.54
  14   1  -9   34.63    7.63
  14  -1  -9   51.37    7.90
  14  -1  -8    8.07    5.06
  14   1  -8    7.44    4.07
  14  -1  -8    4.83    2.59
  14   1  -7   46.64    8.37
  14  -1  -7   62.18    9.63
  14  -1  -7   70.00    9.46
  14  -1  -6    3.61    3.90
  14   1  -6    4.20    1.70
  14  -1  -6    0.93    2.36
  14  -1  -5    2.83    2.48
  14   1  -5    2.72    4.12
  14   1  -5    0.77    2.51
  14  -1  -5    0.08    2.75
  14  -1  -4   28.13    6.48
  14   1  -4   34.04    7.73
  14   1  -4   33.84    7.61
  14  -1  -4   33.13    7.03
  14  -1  -3   15.65    5.63
  14   1  -3   15.30    5.61
  14   1  -3   13.83    4.28
  14  -1  -3   11.31    4.26
  14   1  -2   88.59   11.60
  14  -1  -2   76.73   10.31
  14   1  -2   93.79   12.37
  14  -1  -2   79.68   10.68
  14  -1  -2   77.24   10.23
  14   1  -1  109.37   12.66
  14  -1  -1  115.39   12.63
  14   1  -1   98.77   12.31
  14  -1  -1   84.60   11.64
  14  -1  -1   87.98   11.19
  14   1   0   84.66   10.94
  14  -1   0   88.79   11.32
  14   1   0  109.06   12.39
  14  -1   0   97.08   11.76
  14  -1   0   81.72   10.62
  14   1   1  100.55   12.14
  14  -1   1  111.62   12.71
  14   1   1  123.02   13.53
  14  -1   1  117.32   13.30
  14  -1   1  101.70   11.88
  14   1   2   85.43   11.67
  14  -1   2   70.83    9.58
  14   1   2   81.85   11.07
  14  -1   2  103.91   12.12
  14  -1   2   85.29   10.93
  14   1   3   13.74    4.73
  14   1   3   23.80    5.60
  14  -1   3   20.12    5.58
  14  -1   3   15.19    5.58
  14  -1   3   11.00    3.78
  14   1   4   25.41    6.01
  14  -1   4   15.59    4.90
  14   1   4   16.18    4.49
  14  -1   4   21.70    6.54
  14  -1   4   36.68    7.07
  14   1   5    1.22    1.67
  14  -1   5   -0.93    2.35
  14   1   5    1.41    2.92
  14  -1   5    1.70    3.08
  14  -1   5    4.42    5.00
  14   1   6    7.32    4.77
  14  -1   6    7.10    3.22
  14   1   6    4.66    3.19
  14  -1   6    4.40    4.95
  14  -1   6    3.57    3.03
  14   1   7   52.46    9.07
  14  -1   7   50.08    9.20
  14   1   7   56.02    9.84
  14  -1   7   57.99    9.76
  14  -1   7   61.94    9.26
  14   1   8    8.23    4.75
  14  -1   8   13.03    5.30
  14   1   8    8.00    2.88
  14  -1   8   10.13    3.69
  14  -1   8    2.06    1.63
  14  -1   9   46.31    8.43
  14   1   9   34.30    8.23
  14   1   9   44.59    8.34
  14  -1   9   30.43    7.41
  14  -1   9   43.86    7.75
  14   1  10   10.21    5.44
  14   1  10    5.61    2.80
  14  -1  10    5.04    2.23
  14  -1  10    9.80    4.55
  14   1  11   -0.73    4.76
  14   1  11   -0.52    2.23
  14  -1  11    4.05    3.90
  14   1  12    0.31    3.53
  14  -1  12    4.19    3.66
  14   1  12    0.68    3.31
  14  -1  13    4.05    2.59
  14   1  13    1.38    3.57
  14  -1  14   11.18    5.17
  14   1  14    4.94    4.34
  14  -1  15   33.99    7.81
  14   1  15   26.81    6.56
  14   1  16    4.95    3.49
  14   1  17    2.15    3.42
  14   1  18   21.71    6.48
  14   1  19   16.24    6.74
  14   1  20    0.44    3.51
  14   1  21   -2.74    2.94
  14   1  22    9.50    6.13
  14  -2 -22   42.83    8.89
  14   2 -22   19.44    7.69
  14   2 -21   49.87    9.88
  14  -2 -21   67.29   11.94
  14  -2 -20   46.57    9.69
  14   2 -20   59.68   11.43
  14  -2 -19    2.51    3.25
  14   2 -19    5.38    3.36
  14  -2 -18    3.31    3.59
  14   2 -18    5.14    6.55
  14  -2 -17   41.10    8.96
  14   2 -17   42.15    9.07
  14   2 -16  107.64   14.16
  14  -2 -16  138.24   15.56
  14   2 -15   63.50   10.45
  14  -2 -15   55.93    9.96
  14   2 -14   92.59   12.62
  14  -2 -14   98.21   12.41
  14  -2 -13   25.14    5.90
  14   2 -13   25.50    7.07
  14   2 -12   96.95   12.64
  14  -2 -12  116.34   14.07
  14  -2 -12   87.50   10.94
  14  -2 -11   24.21    5.51
  14  -2 -11   22.62    6.97
  14   2 -11   29.04    6.62
  14   2 -10  109.17   13.68
  14  -2 -10   88.83   12.21
  14  -2 -10   93.02   11.86
  14   2  -9  152.29   15.49
  14  -2  -9  180.29   16.64
  14  -2  -9  166.24   15.25
  14  -2  -8   44.10    7.69
  14  -2  -8   31.39    6.96
  14   2  -8   38.68    7.76
  14  -2  -7   40.21    7.92
  14  -2  -7   34.37    7.61
  14   2  -7   27.89    7.19
  14   2  -7   35.08    7.14
  14   2  -6  115.25   13.04
  14   2  -6  116.39   13.59
  14  -2  -6  129.31   13.56
  14  -2  -6  136.98   13.72
  14   2  -5  137.87   14.39
  14   2  -5  147.88   15.06
  14  -2  -5  148.58   14.88
  14  -2  -5  155.49   14.71
  14   2  -4  143.84   14.64
  14  -2  -4  159.55   15.28
  14   2  -4  143.37   15.13
  14  -2  -4  143.20   13.89
  14  -2  -3   16.60    4.76
  14  -2  -3   26.63    6.17
  14   2  -3   23.50    6.15
  14   2  -3   33.22    7.83
  14  -2  -2   24.77    5.72
  14  -2  -2   21.54    5.55
  14   2  -2   18.74    5.41
  14   2  -2   12.51    4.52
  14  -2  -1   24.47    5.67
  14  -2  -1   31.67    6.94
  14   2  -1   19.10    4.77
  14  -2  -1   20.75    6.75
  14   2   0  319.13   21.78
  14  -2   0  334.11   21.88
  14   2   0  299.07   21.63
  14  -2   0  353.38   23.36
  14  -2   0  332.24   21.55
  14  -2   1   21.97    5.62
  14  -2   1   35.49    6.46
  14   2   1   25.92    6.41
  14   2   1   34.97    7.68
  14  -2   1   43.87    8.19
  14  -2   2   25.20    6.32
  14  -2   2   16.91    6.35
  14   2   2   14.82    5.49
  14   2   2   12.72    4.95
  14  -2   2   13.84    4.39
  14   2   3   21.72    6.36
  14   2   3   26.51    6.39
  14  -2   3   22.95    6.32
  14  -2   3   20.90    6.29
  14  -2   3   22.22    5.46
  14   2   4  151.63   15.39
  14  -2   4  142.47   14.06
  14   2   4  153.64   15.93
  14  -2   4  138.42   14.18
  14  -2   4  130.88   14.75
  14   2   5  159.45   16.01
  14  -2   5  157.59   14.86
  14   2   5  167.87   16.66
  14  -2   5  158.79   15.67
  14  -2   5  154.87   14.51
  14   2   6  109.20   12.92
  14  -2   6  121.80   13.31
  14   2   6  122.74   13.74
  14  -2   6  122.25   13.66
  14  -2   6  128.24   13.66
  14   2   7   19.03    6.20
  14   2   7   18.75    5.73
  14  -2   7   20.62    6.29
  14  -2   7   18.02    5.62
  14   2   8   33.29    7.65
  14  -2   8   22.68    5.85
  14   2   8   30.27    7.50
  14  -2   8   32.28    7.11
  14  -2   8   42.46    8.03
  14   2   9  177.76   17.53
  14   2   9  165.48   16.26
  14  -2   9  213.86   18.23
  14  -2   9  201.39   17.26
  14   2  10   91.77   12.83
  14   2  10   74.76   11.22
  14  -2  10   90.25   11.98
  14  -2  10   96.06   11.59
  14   2  11   24.23    6.92
  14   2  11   30.85    7.93
  14  -2  11   32.26    7.42
  14   2  12   86.84   12.62
  14   2  12  119.45   14.42
  14  -2  12  109.81   13.03
  14   2  13   14.03    4.91
  14  -2  13   12.91    3.96
  14   2  14   80.05   11.77
  14  -2  14  130.87   14.08
  14   2  15   67.97   10.07
  14  -2  15   56.00    9.94
  14   2  16  107.06   14.50
  14   2  17   28.24    7.31
  14   2  18    8.17    5.47
  14   2  19   11.66    6.09
  14   2  20   34.03    8.08
  14   2  21   33.29    8.34
  14   2  22   19.77    5.85
  14  -3 -21   -3.45    4.96
  14   3 -21   -2.09    3.29
  14  -3 -20   16.17    5.52
  14   3 -20    6.87    2.60
  14  -3 -19    8.63    5.85
  14   3 -19    8.69    5.47
  14  -3 -18   10.13    5.20
  14   3 -18    9.60    3.62
  14  -3 -17    4.38    4.31
  14   3 -17    7.45    3.92
  14  -3 -16   21.03    5.09
  14   3 -16   17.29    6.28
  14  -3 -15   33.77    8.01
  14   3 -15   11.12    6.23
  14  -3 -14   14.90    6.64
  14   3 -14    9.01    3.94
  14  -3 -13   11.58    4.63
  14   3 -13    6.96    4.86
  14  -3 -12    5.51    3.89
  14  -3 -12    2.48    2.50
  14   3 -12    8.79    4.53
  14  -3 -11   21.11    5.72
  14  -3 -11   12.28    4.03
  14   3 -11   21.10    6.04
  14   3 -10   82.44   11.28
  14  -3 -10   79.61   10.88
  14  -3 -10   57.60   10.03
  14  -3  -9    8.19    4.89
  14  -3  -9   15.51    5.87
  14   3  -9    5.82    4.20
  14   3  -9    5.32    4.93
  14  -3  -8   -0.05    3.47
  14  -3  -8   -1.36    2.62
  14   3  -8   -2.10    3.86
  14   3  -8   -0.99    2.31
  14  -3  -7   10.50    3.97
  14  -3  -7   11.39    5.22
  14   3  -7    2.56    3.41
  14   3  -7    5.62    5.28
  14  -3  -6   17.61    5.38
  14  -3  -6   31.46    6.68
  14   3  -6   18.04    5.91
  14   3  -6   24.94    6.49
  14  -3  -5   28.05    6.83
  14  -3  -5   24.01    6.56
  14   3  -5   29.72    8.34
  14   3  -5   21.17    6.41
  14  -3  -4    6.60    2.25
  14  -3  -4    5.72    2.68
  14   3  -4    7.25    1.92
  14   3  -4    6.48    3.73
  14  -3  -3   26.46    6.23
  14  -3  -3   28.41    6.91
  14   3  -3   16.05    5.42
  14   3  -3   25.15    7.43
  14   3  -2  240.30   19.35
  14   3  -2  279.88   21.38
  14  -3  -2  253.08   19.11
  14  -3  -2  236.31   18.37
  14  -3  -1   31.55    6.92
  14  -3  -1   21.89    5.83
  14   3  -1   34.77    7.41
  14   3  -1   24.87    6.77
  14  -3  -1   37.48    7.53
  14   3   0  190.33   17.23
  14   3   0  205.89   18.52
  14  -3   0  170.64   16.04
  14  -3   0  201.37   17.17
  14  -3   0  205.35   17.16
  14  -3   1   28.28    6.66
  14  -3   1   33.38    7.39
  14   3   1   21.02    5.01
  14   3   1   36.68    7.81
  14  -3   1   29.01    6.94
  14   3   2  245.43   19.95
  14   3   2  259.74   20.40
  14  -3   2  215.90   17.79
  14  -3   2  216.15   18.35
  14  -3   2  285.08   20.19
  14  -3   3   22.28    7.58
  14  -3   3   24.49    5.63
  14   3   3   32.38    6.95
  14   3   3   33.02    7.87
  14  -3   3   18.08    6.13
  14  -3   4    4.71    3.60
  14  -3   4    4.32    2.24
  14   3   4    4.14    3.18
  14   3   4    4.39    1.89
  14  -3   4    7.42    3.43
  14  -3   5   29.94    6.75
  14  -3   5   18.06    5.27
  14   3   5   28.32    6.35
  14   3   5   20.62    6.53
  14  -3   5   34.34    7.30
  14  -3   6   27.17    5.56
  14   3   6   21.71    4.95
  14   3   6   15.81    5.35
  14  -3   6   16.28    5.66
  14  -3   7    1.91    2.96
  14   3   7    6.39    4.42
  14   3   7    7.78    4.24
  14  -3   8   -0.53    1.54
  14   3   8   -0.96    3.21
  14   3   8    0.66    2.18
  14   3   9    6.01    3.24
  14   3   9   11.50    3.93
  14  -3   9   10.08    3.70
  14   3  10   78.65   11.53
  14   3  10   57.71   10.22
  14  -3  10   90.87   11.51
  14   3  11   15.79    4.97
  14   3  11   17.97    6.30
  14  -3  11   17.94    5.72
  14   3  12    2.88    4.21
  14   3  12   12.76    6.14
  14  -3  12    8.29    3.48
  14   3  13   11.33    5.12
  14   3  13   15.80    5.41
  14  -3  13   14.20    4.50
  14   3  14   16.13    6.50
  14   3  14   13.29    5.34
  14  -3  14    9.22    3.62
  14   3  15   30.87    8.21
  14  -3  15   18.48    6.17
  14   3  16   19.59    6.85
  14  -3  16   16.77    6.40
  14   3  17    4.48    2.68
  14  -3  17    2.11    2.53
  14   3  18   13.83    5.91
  14  -3  18    9.04    4.79
  14   3  19   10.58    6.42
  14   3  20   15.35    5.62
  14   3  21    2.21    2.59
  14  -4 -20   90.67   13.59
  14   4 -20   77.65   14.48
  14  -4 -19    3.52    4.28
  14   4 -19    8.98    6.60
  14  -4 -18   24.78    7.91
  14   4 -18   14.28    6.36
  14  -4 -17   93.67   12.56
  14   4 -17  101.41   14.25
  14  -4 -16   64.23   10.83
  14   4 -16   48.63   10.16
  14  -4 -15   49.46    9.31
  14   4 -15   62.55   11.19
  14  -4 -14   44.36    9.11
  14   4 -14   62.78   10.83
  14  -4 -13   14.42    5.66
  14  -4 -13    7.58    4.42
  14   4 -13    6.68    3.83
  14  -4 -12   58.07   10.23
  14  -4 -12   80.31   11.55
  14   4 -12  101.75   13.80
  14   4 -12   77.23   11.17
  14  -4 -11  181.45   17.13
  14   4 -11  167.55   16.92
  14   4 -11  158.65   16.87
  14  -4 -11  153.44   15.30
  14  -4 -10   55.61    9.41
  14  -4 -10   39.58    8.23
  14   4 -10   35.27    7.78
  14   4 -10   34.19    6.77
  14  -4  -9  144.80   14.71
  14   4  -9  111.89   14.68
  14   4  -9  138.68   15.42
  14  -4  -9  128.42   14.06
  14  -4  -8   41.68    7.97
  14  -4  -8   53.15    9.57
  14   4  -8   41.43    8.31
  14   4  -8   61.80   10.80
  14  -4  -7    8.33    4.36
  14  -4  -7   16.69    5.10
  14   4  -7   12.97    5.54
  14   4  -7   11.08    5.19
  14  -4  -6  173.12   16.49
  14   4  -6  136.28   15.25
  14   4  -6  150.89   16.34
  14  -4  -6  138.27   14.22
  14  -4  -5   54.30    8.99
  14  -4  -5   49.39    8.64
  14   4  -5   60.64   10.03
  14   4  -5   44.23    8.17
  14  -4  -4   91.46   12.13
  14   4  -4  118.68   14.34
  14   4  -4   85.75   11.99
  14  -4  -4  111.32   12.49
  14  -4  -3   76.04   10.59
  14   4  -3   89.87   12.46
  14   4  -3   84.26   12.12
  14  -4  -3   64.19    9.22
  14  -4  -2   18.55    5.70
  14  -4  -2   11.51    4.58
  14   4  -2   15.98    6.02
  14  -4  -1   29.99    6.76
  14   4  -1   56.11    9.76
  14   4  -1   45.49    8.45
  14  -4  -1   34.90    8.69
  14  -4  -1   51.83    8.91
  14   4   0  774.47   36.07
  14   4   0  793.13   36.36
  14  -4   0  789.87   34.86
  14  -4   0  816.61   34.60
  14  -4   1   46.24    8.30
  14  -4   1   39.48    7.55
  14   4   1   38.79    7.65
  14   4   1   44.49    9.07
  14  -4   2   17.25    5.14
  14  -4   2   17.90    6.02
  14   4   2   22.72    6.31
  14   4   2   13.94    4.44
  14   4   3   69.46   10.67
  14   4   3   67.05   10.60
  14  -4   3   61.51    9.64
  14  -4   3   62.68    9.73
  14   4   4  101.41   13.28
  14   4   4  109.13   13.08
  14  -4   4  104.27   12.49
  14  -4   4  113.49   13.18
  14   4   5   49.58    9.35
  14  -4   5   54.85    9.20
  14   4   5   47.32    8.92
  14  -4   5   51.10    9.17
  14   4   6  158.71   16.49
  14   4   6  144.67   15.44
  14  -4   6  134.67   14.11
  14  -4   7   12.90    5.86
  14   4   7    7.85    3.85
  14   4   7    8.66    4.35
  14   4   8   79.27   12.27
  14   4   8   47.76    9.18
  14  -4   8   69.24   10.67
  14   4   9  111.64   13.88
  14   4   9  101.42   12.95
  14  -4   9  143.66   14.69
  14  -4  10   39.29    8.28
  14   4  10   42.53    8.11
  14   4  10   50.43   10.09
  14   4  11  164.30   16.53
  14  -4  11  159.74   15.82
  14   4  11  141.50   15.81
  14   4  12   88.90   12.51
  14  -4  12   74.20   11.17
  14   4  12   59.38   11.03
  14   4  13   14.56    6.08
  14   4  13   15.39    4.99
  14  -4  13   14.07    5.97
  14   4  14   41.34    9.21
  14   4  14   62.91   10.60
  14  -4  14   50.54    9.63
  14   4  15   38.00    8.57
  14   4  15   51.23   10.27
  14  -4  15   46.16    8.70
  14   4  16   57.64    9.94
  14  -4  16   62.30   10.69
  14   4  17   93.08   13.00
  14  -4  17   67.52   11.33
  14   4  18   10.98    4.74
  14  -4  18   10.93    5.20
  14   4  19    3.53    4.50
  14  -4  19    1.08    2.54
  14   4  20   59.52   10.14
  14  -4  20   77.25   12.75
  14   5 -18    3.39    4.28
  14  -5 -18    4.90    4.15
  14   5 -17    8.31    5.56
  14  -5 -17   10.28    5.60
  14   5 -17   -0.90    3.13
  14   5 -16   12.59    6.73
  14  -5 -16   19.82    5.58
  14   5 -16    7.58    4.94
  14   5 -15    3.28    3.95
  14  -5 -15   -3.94    4.08
  14   5 -15   -2.22    3.98
  14   5 -14   15.19    6.17
  14  -5 -14   16.97    6.33
  14   5 -14   12.68    6.09
  14  -5 -13   16.84    6.41
  14   5 -13    4.29    3.21
  14  -5 -13    1.74    2.49
  14   5 -13   14.15    6.38
  14  -5 -12   32.03    7.70
  14   5 -12   15.31    7.08
  14  -5 -12   28.64    6.96
  14   5 -12   17.78    6.68
  14  -5 -11   42.36    8.46
  14   5 -11   26.79    7.42
  14  -5 -11   25.48    7.94
  14   5 -11   41.04    8.85
  14  -5 -10   15.89    4.31
  14   5 -10   18.24    6.26
  14  -5 -10   15.01    5.58
  14   5 -10   16.93    7.13
  14  -5  -9   28.15    6.74
  14   5  -9   25.15    7.65
  14  -5  -9   34.54    7.24
  14   5  -9   23.70    7.59
  14  -5  -8   10.98    5.31
  14   5  -8    5.54    2.70
  14  -5  -8   10.16    5.09
  14   5  -8    3.19    2.11
  14  -5  -7   14.12    5.62
  14   5  -7   11.63    4.55
  14  -5  -7   23.88    6.41
  14   5  -7   22.25    7.14
  14  -5  -6   -3.03    3.81
  14   5  -6    2.82    3.56
  14  -5  -6    1.25    1.62
  14   5  -6    1.00    4.30
  14  -5  -5    7.04    3.89
  14   5  -5    4.07    3.31
  14  -5  -5   11.95    4.97
  14   5  -5    7.16    5.67
  14  -5  -4   17.93    4.45
  14   5  -4   25.32    6.19
  14  -5  -4   16.79    5.11
  14   5  -4   20.54    5.88
  14  -5  -3   20.12    5.79
  14   5  -3   20.44    5.89
  14  -5  -3   22.29    6.83
  14   5  -3   11.62    4.24
  14  -5  -2   21.88    6.43
  14   5  -2   20.56    5.87
  14  -5  -2   24.58    6.33
  14   5  -2   23.19    7.28
  14  -5  -1   71.45   10.96
  14  -5  -1   88.93   11.83
  14   5  -1   99.62   12.91
  14   5  -1  105.41   13.46
  14  -5   0  161.04   16.00
  14  -5   0  173.54   16.99
  14   5   0  176.29   17.35
  14   5   0  158.46   16.87
  14   5   1   77.18   11.51
  14   5   1   90.54   12.73
  14  -5   1  109.98   13.38
  14  -5   1   82.41   11.38
  14  -5   2   17.97    5.38
  14   5   2   19.02    5.79
  14  -5   2   16.62    5.88
  14   5   2   20.42    7.25
  14  -5   3   25.92    6.75
  14   5   3   19.21    5.75
  14  -5   3   20.66    5.09
  14   5   3   19.67    6.92
  14  -5   4   24.06    6.76
  14   5   4   19.78    6.03
  14  -5   4   18.80    6.28
  14   5   4   16.52    5.23
  14  -5   5    3.61    3.16
  14   5   5    0.87    3.18
  14   5   5    7.12    2.59
  14  -5   6    2.39    2.09
  14   5   6    5.58    4.27
  14   5   6   -2.90    4.66
  14  -5   7   13.59    4.98
  14   5   7   12.43    4.80
  14   5   7   13.50    6.67
  14  -5   8    3.80    1.68
  14   5   8   13.46    4.55
  14   5   8    8.09    4.78
  14  -5   9   23.49    6.38
  14   5   9   25.05    6.45
  14   5   9   22.35    7.10
  14  -5  10   19.15    6.21
  14   5  10   26.07    7.11
  14   5  10   18.06    5.81
  14  -5  11   26.29    6.97
  14   5  11   19.88    5.48
  14   5  11   37.62    7.24
  14  -5  12   18.36    6.02
  14   5  12   27.58    7.03
  14   5  12   31.68    7.52
  14  -5  13    5.54    4.11
  14   5  13    4.00    2.84
  14   5  13    7.56    4.33
  14  -5  14   20.98    6.31
  14   5  14   11.25    6.14
  14   5  14   15.32    4.54
  14  -5  15    1.20    2.39
  14   5  15    5.11    3.06
  14   5  15   -3.73    2.34
  14   5  16   21.86    7.40
  14  -5  16    8.84    4.26
  14   5  16    8.25    7.81
  14   5  17    4.12    2.45
  14  -5  17    6.56    5.26
  14   5  18    6.19    4.76
  14  -5  18   -1.53    2.69
  14  -6 -16   60.60   11.27
  14   6 -16   63.86   12.51
  14   6 -16   50.45   11.10
  14   6 -15    9.21    5.55
  14  -6 -15   15.25    5.65
  14   6 -15    2.32    4.06
  14   6 -14    0.98    3.45
  14   6 -14    8.03    4.78
  14  -6 -13   16.14    4.69
  14   6 -13    4.32    4.56
  14  -6 -13   12.32    5.26
  14   6 -13    8.19    4.20
  14  -6 -12   41.17    9.12
  14   6 -12   56.99   10.29
  14  -6 -12   35.88    7.84
  14   6 -12   52.44   10.81
  14  -6 -11   34.63    7.52
  14   6 -11   41.84    9.41
  14  -6 -11   44.86    8.93
  14   6 -11   26.52    6.94
  14  -6 -10  152.71   16.12
  14   6 -10  181.37   18.14
  14  -6 -10  186.95   17.82
  14   6 -10  135.85   16.90
  14  -6  -9   33.01    8.24
  14   6  -9   35.72    7.30
  14  -6  -9   46.03    8.97
  14   6  -9   48.27    9.99
  14   6  -8    7.96    4.38
  14  -6  -8    7.74    3.66
  14   6  -8   11.30    4.86
  14  -6  -7   31.92    8.20
  14   6  -7   31.55    7.81
  14  -6  -7   39.84    8.54
  14   6  -7   40.90    7.91
  14  -6  -6  224.87   18.98
  14   6  -6  214.60   19.93
  14  -6  -6  233.07   19.72
  14   6  -6  188.93   18.59
  14  -6  -5    7.08    4.30
  14   6  -5   12.29    5.79
  14  -6  -5   10.50    5.80
  14   6  -5    3.69    4.35
  14  -6  -4  120.40   13.94
  14   6  -4  111.15   14.34
  14  -6  -4  137.03   15.17
  14   6  -4  125.57   15.14
  14   6  -3   68.59   10.87
  14  -6  -3   42.99    8.66
  14  -6  -3   79.56   11.10
  14   6  -3   59.13   11.15
  14  -6  -2   54.74    8.90
  14  -6  -2   60.46   10.19
  14   6  -2   47.39    8.78
  14   6  -2   50.61   10.58
  14  -6  -1  114.45   13.28
  14   6  -1   87.19   12.35
  14  -6  -1   77.93   11.83
  14   6  -1   84.28   13.19
  14  -6   0  367.70   24.25
  14   6   0  413.30   27.37
  14  -6   0  312.64   23.07
  14   6   0  385.70   26.59
  14  -6   1   66.43   11.22
  14   6   1   68.97   11.70
  14  -6   1   85.33   12.00
  14   6   1   90.76   12.79
  14  -6   2   65.14   10.21
  14  -6   2   45.61    8.54
  14   6   2   51.15    9.94
  14   6   2   55.72    9.36
  14  -6   3   70.07   10.56
  14  -6   3   57.91   10.63
  14   6   3   44.19    8.69
  14   6   3   42.31    8.58
  14  -6   4  130.16   14.17
  14   6   4  113.52   14.04
  14   6   4  124.24   15.35
  14  -6   5    2.10    2.85
  14   6   5    5.32    3.40
  14   6   6  201.99   18.85
  14   6   6  219.75   20.04
  14  -6   6  223.71   19.20
  14  -6   7   38.79    8.26
  14   6   7   27.66    6.39
  14   6   7   46.09    9.96
  14  -6   8   23.10    7.43
  14   6   8   13.65    5.50
  14   6   8    0.23    3.80
  14  -6   9   45.99    8.65
  14   6   9   27.85    7.29
  14   6   9   31.77    8.49
  14   6  10  159.59   16.98
  14   6  10  188.02   19.33
  14  -6  10  156.38   16.09
  14   6  11   42.92    9.33
  14   6  11   55.92   11.23
  14  -6  11   51.71   10.26
  14  -6  12   37.07    7.65
  14   6  12   72.70   11.66
  14   6  12   74.53   12.14
  14   6  13    7.25    5.01
  14  -6  13    8.64    5.61
  14   6  13    8.90    4.16
  14   6  14    9.19    4.19
  14  -6  14   15.01    5.29
  14   6  14   15.90    6.74
  14  -6  15   14.94    6.48
  14   6  15   14.55    6.60
  14   6  15    5.62    6.06
  14   6  16   57.37   10.29
  14  -6  16   75.51   12.18
  14  -7 -13   16.90    6.09
  14   7 -13    4.99    4.65
  14  -7 -13   14.11    5.35
  14   7 -13   13.27    5.79
  14  -7 -12   14.99    6.53
  14   7 -12   14.27    7.27
  14  -7 -12   15.52    4.70
  14   7 -12   16.97    8.43
  14  -7 -11    9.09    4.51
  14   7 -11    3.79    3.96
  14  -7 -11    9.54    5.05
  14   7 -11   11.06    4.70
  14  -7 -10   -3.50    3.67
  14   7 -10   -2.66    5.71
  14  -7 -10   12.23    4.34
  14   7 -10    6.52    4.74
  14  -7  -9   -0.75    2.45
  14   7  -9    4.25    4.75
  14  -7  -9    1.60    2.54
  14   7  -9    7.58    6.22
  14  -7  -8   20.83    7.23
  14   7  -8   17.21    6.74
  14  -7  -8   25.25    7.31
  14   7  -8   17.80    6.87
  14  -7  -7    6.66    2.72
  14   7  -7    4.59    4.40
  14  -7  -7    6.67    4.93
  14   7  -7    6.02    3.67
  14  -7  -6   36.38    8.33
  14   7  -6   55.00   11.23
  14  -7  -6   50.56    9.24
  14   7  -6   46.42   10.56
  14  -7  -5   44.47    9.15
  14   7  -5   28.20    7.98
  14  -7  -5   27.27    7.19
  14   7  -5   24.22    8.09
  14  -7  -4    6.05    4.68
  14   7  -4    7.54    5.74
  14  -7  -4    6.12    4.09
  14   7  -4    2.39    2.79
  14  -7  -3   28.10    6.19
  14   7  -3   15.70    5.35
  14  -7  -3   26.29    6.22
  14   7  -3   27.76    7.50
  14  -7  -2   39.64    8.19
  14   7  -2   34.46    8.09
  14  -7  -2   24.11    7.44
  14   7  -2   29.08    6.58
  14  -7  -1    1.78    2.85
  14   7  -1    2.55    3.39
  14  -7  -1    1.69    2.22
  14   7  -1    0.78    2.37
  14  -7   0   58.35   10.17
  14  -7   0   70.76   10.99
  14   7   0   50.11    9.58
  14   7   0   82.26   12.93
  14  -7   1    7.09    4.26
  14   7   1   -2.89    2.95
  14  -7   1   -4.83    2.86
  14   7   1    1.13    4.05
  14  -7   2   38.95    8.11
  14   7   2   39.20    8.57
  14   7   2   50.83    9.18
  14  -7   3   39.83    7.84
  14   7   3   13.39    5.93
  14   7   3   30.26    8.54
  14  -7   4    5.30    4.45
  14   7   4    6.94    3.95
  14   7   4   11.77    4.05
  14  -7   5   26.07    6.44
  14   7   5   21.69    7.06
  14   7   5   40.68    9.24
  14  -7   6   66.79   10.79
  14   7   6   53.04   10.47
  14   7   6   45.04    9.48
  14   7   7    2.99    3.12
  14  -7   7    4.66    4.53
  14   7   7    5.89    4.53
  14   7   8   29.81    7.76
  14  -7   8   25.37    6.98
  14   7   8   11.70    5.65
  14   7   9    4.52    2.62
  14  -7   9   -0.02    2.73
  14   7   9    2.86    2.65
  14   7  10   15.18    6.99
  14  -7  10   13.30    5.41
  14   7  10   -0.95    4.04
  14   7  11   10.43    5.85
  14  -7  11   12.41    4.84
  14   7  11   13.10    6.45
  14  -7  12   18.76    7.14
  14   7  12   16.87    5.41
  14   7  12   22.50    7.07
  14  -7  13    7.09    3.39
  14   7  13   14.20    6.42
  14   7  13   17.63    6.58
  14  -8  -8   30.59    8.28
  14   8  -8   15.08    5.64
  14   8  -8   14.55    4.24
  14  -8  -8   17.81    6.33
  14  -8  -7    8.56    6.13
  14   8  -7   17.58    5.92
  14   8  -7    7.41    5.56
  14  -8  -7   21.71    7.79
  14  -8  -6   34.59    8.69
  14   8  -6   20.05    7.66
  14   8  -6   28.43    8.54
  14  -8  -6   28.73    7.53
  14  -8  -5    5.48    3.73
  14   8  -5    3.53    3.34
  14   8  -5    1.54    4.11
  14  -8  -5   -2.65    2.88
  14  -8  -4   39.51    8.64
  14   8  -4   50.05    9.98
  14   8  -4   68.81   12.58
  14  -8  -4   63.95   10.54
  14  -8  -3   17.79    4.63
  14   8  -3   18.03    6.04
  14   8  -3   17.60    6.26
  14  -8  -3   14.49    4.86
  14   8  -2   14.41    3.26
  14  -8  -2    7.96    4.05
  14   8  -2    4.92    3.67
  14  -8  -2    8.07    4.62
  14   8  -1   30.73    8.56
  14  -8  -1   19.62    8.06
  14  -8  -1   22.50    6.75
  14   8  -1   30.42    8.99
  14  -8   0   -2.42    3.63
  14  -8   0  -11.23    4.62
  14   8   0   -0.24    3.56
  14   8   1   25.40    7.47
  14  -8   1   32.09    6.74
  14   8   1   18.83    6.79
  14   8   2   13.68    4.74
  14  -8   2   14.04    5.24
  14   8   2    7.14    4.41
  14   8   3   16.91    6.09
  14  -8   3   25.24    6.54
  14   8   3   22.98    7.73
  14  -8   4   44.26    8.55
  14   8   4   64.72   11.08
  14   8   4   73.61   12.38
  14   8   5    3.97    3.27
  14  -8   5    8.32    5.06
  14   8   5    9.96    6.05
  14   8   6   25.88    6.89
  14  -8   6   34.80    9.03
  14   8   6   30.86    8.00
  14   8   7   11.71    6.38
  14  -8   7   10.04    5.85
  14   8   7   14.33    4.34
  14   8   8   23.39    7.03
  14  -8   8   15.90    4.97
  14   8   8   21.67    7.56
  15   0 -21    3.61    3.95
  15   0 -20   -0.22    3.67
  15   0 -19   -2.71    3.21
  15   0 -18    2.94    2.90
  15   0 -17    1.88    4.26
  15   0 -16    3.64    4.66
  15   0 -15   -0.67    3.68
  15   0 -14    1.05    2.35
  15   0 -13   -0.15    2.24
  15   0 -12    1.75    3.79
  15   0 -11    5.08    3.48
  15   0 -10    0.41    3.66
  15   0  -9   -3.13    1.99
  15   0  -8    6.70    4.03
  15   0  -7   -0.97    1.80
  15   0  -6    3.32    3.44
  15   0  -5    1.34    1.65
  15   0  -4   -1.27    3.75
  15   0  -4   -1.39    4.24
  15   0  -3    2.83    3.41
  15   0  -3   -0.42    2.43
  15   0  -2    0.01    2.37
  15   0  -2    1.02    2.77
  15   0  -1    3.77    3.93
  15   0  -1   -0.94    2.54
  15   0   0   -0.87    3.12
  15   0   0    3.07    4.60
  15   0   1    0.16    2.38
  15   0   1    4.02    2.10
  15   0   2    0.38    1.78
  15   0   2   -0.97    2.63
  15   0   3    1.03    3.54
  15   0   3    0.67    2.39
  15   0   4    0.62    3.44
  15   0   4    1.94    4.13
  15   0   5   -2.71    1.76
  15   0   5   -1.14    3.21
  15   0   6    3.67    3.08
  15   0   6   -1.02    3.51
  15   0   7    1.57    3.48
  15   0   7    1.28    1.91
  15   0   8    1.75    2.48
  15   0   8    2.14    2.92
  15   0   9   -1.61    2.09
  15   0   9    0.53    3.26
  15   0  10    4.51    4.94
  15   0  10    0.90    2.87
  15   0  11    4.92    3.05
  15   0  12    2.24    3.55
  15   0  13   -0.27    2.20
  15   0  14   -1.42    3.90
  15   0  15    3.98    4.35
  15   0  16    0.06    4.05
  15   0  17   -1.20    5.25
  15   0  18    2.48    3.12
  15   0  19    4.15    5.11
  15  -1 -21    1.51    3.47
  15   1 -21    3.44    4.49
  15  -1 -20   -1.58    4.78
  15   1 -20   -2.15    4.90
  15  -1 -19   23.72    6.24
  15   1 -19   22.46    7.45
  15  -1 -18   -0.53    3.52
  15   1 -18    3.26    3.72
  15   1 -17   61.21   11.31
  15  -1 -17   59.69   11.18
  15  -1 -16   38.72    8.57
  15   1 -16   43.82    8.77
  15  -1 -15    9.71    4.71
  15   1 -15    4.87    2.26
  15  -1 -14   18.38    4.90
  15   1 -14   32.92    8.23
  15   1 -13  296.51   23.06
  15  -1 -13  277.39   21.71
  15  -1 -12   54.08   10.01
  15   1 -12   52.61    9.41
  15  -1 -11   -1.15    3.02
  15   1 -11    3.43    1.87
  15  -1 -11   -0.14    2.75
  15  -1 -10   38.01    8.68
  15   1 -10   26.23    5.47
  15  -1 -10   23.58    6.33
  15  -1  -9   11.40    5.33
  15   1  -9    5.54    2.99
  15  -1  -9    7.63    4.23
  15   1  -8   54.83   10.25
  15  -1  -8   78.43   11.38
  15  -1  -8   50.17    8.62
  15   1  -7  152.03   15.78
  15  -1  -7  173.53   16.46
  15  -1  -7  170.92   15.92
  15   1  -6    9.31    2.20
  15   1  -6    4.33    3.68
  15  -1  -6    6.49    2.33
  15   1  -5   48.77    8.68
  15  -1  -5   80.75   10.90
  15   1  -5   54.03   10.22
  15  -1  -5   62.85    9.97
  15   1  -4   88.13   11.41
  15  -1  -4   71.00   10.40
  15   1  -4   78.47   11.69
  15  -1  -4   60.40    9.86
  15   1  -3   75.58   10.64
  15  -1  -3   94.59   11.65
  15   1  -3   93.25   12.61
  15  -1  -3  110.22   13.25
  15  -1  -3  105.39   12.44
  15   1  -2    5.61    1.87
  15   1  -2    7.70    4.46
  15  -1  -2   16.43    5.43
  15  -1  -2   17.92    4.75
  15  -1  -2   10.64    3.34
  15   1  -1    2.39    1.83
  15   1  -1    3.32    2.39
  15  -1  -1    5.49    4.11
  15  -1  -1    8.37    4.05
  15  -1  -1    0.87    2.77
  15   1   0   -0.05    1.69
  15   1   0   -2.08    3.67
  15  -1   0   -0.65    2.15
  15  -1   0    1.39    3.73
  15  -1   0    1.51    2.19
  15   1   1    1.68    3.61
  15   1   1    1.22    3.14
  15  -1   1    0.06    2.53
  15  -1   1    0.41    1.78
  15  -1   1    3.27    3.41
  15   1   2    9.06    5.17
  15   1   2   26.84    7.22
  15  -1   2   11.84    4.96
  15  -1   2   11.10    4.87
  15  -1   2    6.69    4.24
  15   1   3   78.16   11.49
  15  -1   3   96.65   11.80
  15   1   3   98.48   13.00
  15  -1   3   93.80   12.43
  15  -1   3   96.83   12.21
  15   1   4   89.72   11.92
  15  -1   4   67.98   10.28
  15   1   4   65.91   10.04
  15  -1   4   95.78   12.62
  15  -1   4   72.50    9.95
  15   1   5   69.21   10.66
  15  -1   5   62.89    9.73
  15   1   5   65.72   11.09
  15  -1   5   65.29    9.99
  15  -1   5   69.19   10.06
  15   1   6   12.45    3.98
  15  -1   6    5.87    3.78
  15   1   6   10.01    4.12
  15  -1   6    7.29    3.92
  15  -1   6    7.23    3.78
  15   1   7  165.61   16.52
  15  -1   7  187.96   17.22
  15   1   7  151.63   15.82
  15  -1   7  172.33   16.85
  15  -1   7  161.12   15.20
  15   1   8   61.63   10.21
  15  -1   8   62.96   10.49
  15   1   8   62.89   10.04
  15  -1   8   70.14   11.23
  15  -1   8   59.45    9.50
  15   1   9    8.21    2.95
  15   1   9   11.10    4.50
  15  -1   9    8.98    5.43
  15  -1   9   11.15    5.17
  15   1  10   27.12    7.40
  15   1  10   37.59    8.34
  15  -1  10   21.27    6.58
  15   1  11    2.31    3.64
  15   1  11    3.53    5.51
  15  -1  11    2.63    2.19
  15  -1  12   62.87   10.24
  15   1  12   40.85    8.49
  15  -1  13  259.88   21.52
  15   1  13  285.94   22.04
  15  -1  14   23.71    7.57
  15   1  14   26.80    7.48
  15   1  15   11.32    5.51
  15   1  16   45.44    8.48
  15   1  17   65.33   10.98
  15   1  18    3.97    3.14
  15   1  19   -1.16    3.23
  15   1  20    0.60    3.19
  15   1  21    4.20    4.73
  15  -2 -20    2.10    2.79
  15   2 -20   -2.07    4.72
  15  -2 -19    9.37    5.63
  15   2 -19   20.68    6.15
  15  -2 -18   27.12    7.77
  15   2 -18   12.07    5.77
  15  -2 -17   -2.50    2.71
  15   2 -17    2.04    3.29
  15  -2 -16   31.64    7.82
  15   2 -16   16.83    6.39
  15  -2 -15   42.38    8.95
  15   2 -15   29.61    7.83
  15  -2 -14   27.90    7.28
  15   2 -14   50.31    9.74
  15   2 -13   40.39    8.49
  15  -2 -13   55.96   10.47
  15  -2 -12    4.06    2.81
  15   2 -12    6.69    4.54
  15  -2 -11    9.93    4.32
  15   2 -11   12.60    5.21
  15  -2 -11    4.52    3.83
  15  -2 -10   29.18    8.15
  15   2 -10   29.29    7.67
  15  -2 -10   16.40    6.48
  15  -2  -9   12.51    4.24
  15   2  -9    8.98    4.95
  15  -2  -9   11.34    4.95
  15  -2  -8    5.83    4.22
  15   2  -8    7.11    4.33
  15   2  -8    9.31    3.80
  15  -2  -8    9.61    3.78
  15  -2  -7   32.34    7.31
  15   2  -7   19.15    5.72
  15   2  -7   23.98    6.11
  15  -2  -7   26.82    5.88
  15  -2  -6   12.66    3.66
  15  -2  -6   20.71    5.93
  15   2  -6   12.91    4.92
  15   2  -6   24.70    6.21
  15  -2  -5   14.95    4.72
  15  -2  -5   22.01    6.22
  15   2  -5   17.98    4.94
  15   2  -5   18.02    5.73
  15  -2  -4   19.18    4.55
  15  -2  -4    8.40    3.77
  15   2  -4   13.46    5.45
  15   2  -4   23.68    7.16
  15  -2  -3   -1.86    2.07
  15  -2  -3   -2.44    3.66
  15   2  -3    3.13    2.26
  15   2  -3   -0.38    1.68
  15  -2  -2    3.34    3.50
  15   2  -2    6.72    3.63
  15   2  -2    5.56    2.69
  15  -2  -2    6.77    5.28
  15  -2  -2    3.93    2.18
  15  -2  -1   -1.67    3.30
  15   2  -1    4.40    3.89
  15   2  -1    5.15    3.55
  15  -2  -1    6.77    4.83
  15  -2  -1    0.12    3.08
  15  -2   0    1.44    2.30
  15   2   0    4.61    3.22
  15   2   0    1.45    3.75
  15  -2   0    0.42    2.58
  15  -2   0    4.11    4.11
  15   2   1    1.78    2.66
  15   2   1    6.10    2.54
  15  -2   1    5.89    3.83
  15  -2   1    0.88    3.03
  15  -2   1   -1.27    3.62
  15   2   2    4.53    2.65
  15   2   2    0.21    2.90
  15  -2   2    0.83    1.87
  15  -2   2    5.16    4.37
  15  -2   2    5.77    4.39
  15   2   3    0.23    3.38
  15   2   3   -0.26    2.85
  15  -2   3   -1.38    2.59
  15  -2   3   -1.23    2.71
  15  -2   3   -1.70    2.54
  15   2   4   21.21    5.59
  15   2   4   15.93    5.78
  15  -2   4   13.04    5.60
  15  -2   4   19.28    5.39
  15  -2   4   18.43    6.48
  15   2   5   19.65    5.62
  15   2   5   17.30    6.02
  15  -2   5   26.21    7.57
  15  -2   5   23.72    6.35
  15  -2   5   28.78    7.50
  15   2   6   11.30    5.32
  15   2   6   12.03    4.95
  15  -2   6   10.03    5.05
  15  -2   6   11.88    5.54
  15  -2   6   22.00    5.68
  15   2   7   32.62    7.16
  15  -2   7   23.82    6.35
  15   2   7   29.93    7.69
  15  -2   7   22.86    6.76
  15  -2   7   25.57    6.35
  15   2   8    4.44    3.19
  15   2   8    4.67    4.27
  15  -2   8    6.03    2.81
  15  -2   8    9.78    5.02
  15   2   9   14.10    5.33
  15   2   9   10.58    4.58
  15  -2   9   18.49    8.50
  15  -2   9   10.22    4.04
  15   2  10   28.65    7.75
  15   2  10   25.98    6.23
  15  -2  10   27.32    7.25
  15   2  11    3.58    5.89
  15   2  11    0.84    3.75
  15  -2  11    7.55    5.15
  15   2  12    6.28    3.50
  15   2  12   -0.33    3.99
  15   2  13   53.67    9.50
  15  -2  13   44.13    8.73
  15   2  14   36.08    8.26
  15  -2  14   31.03    7.30
  15   2  15   40.11    8.82
  15   2  16   17.78    5.79
  15   2  17    4.17    4.55
  15   2  18    7.91    4.18
  15   2  19    3.41    3.41
  15   2  20    9.45    5.05
  15  -3 -19    7.26    4.35
  15   3 -19    5.81    4.29
  15  -3 -18   57.74   10.18
  15   3 -18   50.01    9.74
  15   3 -17   99.47   13.96
  15  -3 -17  100.98   13.32
  15  -3 -16   14.36    6.05
  15   3 -16   16.45    6.36
  15  -3 -15   11.30    4.95
  15   3 -15   13.20    5.59
  15  -3 -14   24.34    6.76
  15   3 -14   11.72    4.07
  15  -3 -13   14.79    4.87
  15   3 -13   19.24    6.75
  15   3 -12   88.47   12.26
  15  -3 -12  105.01   13.54
  15  -3 -11   38.29    8.23
  15  -3 -11   30.34    7.04
  15   3 -11   40.32    9.05
  15  -3 -10   13.67    6.81
  15  -3 -10    8.59    4.32
  15   3 -10   11.40    4.62
  15   3 -10    4.64    3.52
  15  -3  -9   35.49    7.28
  15  -3  -9   32.13    7.09
  15   3  -9   26.05    6.66
  15   3  -9   27.91    7.65
  15  -3  -8   26.97    6.94
  15   3  -8   24.43    6.50
  15   3  -8   28.76    6.79
  15  -3  -8   43.33    8.96
  15  -3  -7   33.98    7.48
  15  -3  -7   27.10    6.67
  15   3  -7   38.69    8.10
  15   3  -7   25.66    7.49
  15   3  -6   51.62    9.32
  15   3  -6   54.15    9.99
  15  -3  -6   60.71   10.56
  15  -3  -6   60.35    9.69
  15  -3  -5   39.33    7.91
  15   3  -5   27.54    6.54
  15   3  -5   53.57   10.03
  15  -3  -5   55.83    9.02
  15  -3  -4   33.52    7.27
  15   3  -4   44.26    8.94
  15   3  -4   31.82    9.02
  15  -3  -4   46.48    8.90
  15   3  -3  154.30   16.04
  15   3  -3  168.89   16.87
  15  -3  -3  164.94   15.80
  15  -3  -3  163.68   15.51
  15  -3  -2   30.83    6.96
  15   3  -2   47.61    8.93
  15  -3  -2   61.35    9.78
  15   3  -2   35.41    7.53
  15  -3  -2   34.62    8.17
  15   3  -1   51.28    9.64
  15  -3  -1   64.98   10.22
  15  -3  -1   54.92   10.57
  15   3  -1   43.82    8.11
  15  -3  -1   60.89    9.92
  15   3   0   84.98   11.87
  15   3   0   82.45   11.80
  15  -3   0  100.71   12.15
  15  -3   0  102.17   13.25
  15  -3   0  102.62   12.85
  15   3   1   37.40    8.02
  15  -3   1   49.09    9.05
  15   3   1   46.65    8.76
  15  -3   1   40.39    9.51
  15  -3   1   55.52    9.12
  15  -3   2   40.09    8.28
  15   3   2   45.46    8.89
  15  -3   2   52.38    9.62
  15   3   2   58.85   10.88
  15  -3   2   44.95    8.65
  15   3   3  150.05   15.48
  15  -3   3  172.49   16.42
  15   3   3  167.87   16.93
  15  -3   3  185.17   17.52
  15  -3   3  173.49   15.76
  15  -3   4   37.83    7.49
  15   3   4   50.63    9.34
  15   3   4   39.47    8.07
  15  -3   4   24.04    5.81
  15  -3   5   36.78    7.93
  15   3   5   35.79    8.04
  15   3   5   48.34    9.06
  15  -3   5   48.03    8.91
  15   3   6   58.04    9.94
  15  -3   6   61.79   10.32
  15   3   6   63.83   10.31
  15  -3   6   55.22    9.50
  15   3   7   24.93    7.47
  15   3   7   20.55    5.12
  15  -3   7   27.04    6.70
  15   3   8   23.36    6.22
  15   3   8   33.24    7.34
  15  -3   8   38.31    8.66
  15   3   9   23.56    5.85
  15   3   9   29.05    7.89
  15  -3   9   24.46    7.38
  15   3  10   15.23    5.94
  15   3  10    7.56    3.99
  15  -3  10    5.72    4.79
  15   3  11   61.81   10.98
  15   3  11   36.41    8.34
  15  -3  11   39.57    8.31
  15   3  12   95.79   12.87
  15  -3  12  124.92   14.30
  15   3  12  111.71   14.95
  15   3  13   15.03    5.16
  15   3  13    9.53    4.04
  15  -3  13    8.44    4.87
  15   3  14   23.75    7.38
  15  -3  14   27.89    7.83
  15   3  15   28.19    6.66
  15  -3  15   16.51    4.77
  15   3  16   11.97    4.32
  15  -3  16   10.24    4.77
  15   3  17  104.08   13.47
  15  -3  17  101.30   13.62
  15   3  18   62.03   11.10
  15   3  19   11.30    3.77
  15  -4 -18    9.27    5.09
  15   4 -18   15.27    7.11
  15  -4 -17   34.42    8.19
  15   4 -17   11.27    4.84
  15  -4 -16   40.07    8.68
  15   4 -16    7.91    4.61
  15  -4 -15   27.69    6.66
  15   4 -15   45.82    9.11
  15  -4 -14   50.09    9.55
  15   4 -14   52.30   10.45
  15   4 -14   60.58   11.70
  15  -4 -13   45.71    8.29
  15   4 -13   45.71    9.30
  15   4 -13   34.33    8.73
  15  -4 -12    4.56    2.74
  15  -4 -12    5.10    2.61
  15   4 -12    3.10    3.18
  15   4 -12    6.61    5.03
  15  -4 -11   56.94   10.19
  15  -4 -11   56.97    9.61
  15   4 -11   61.76   10.82
  15   4 -11   65.28   11.88
  15  -4 -10   25.31    6.82
  15  -4 -10   17.02    5.19
  15   4 -10   22.11    6.23
  15   4 -10   32.27    7.47
  15  -4  -9   31.76    7.15
  15  -4  -9   24.18    6.85
  15   4  -9   30.89    7.21
  15   4  -9   32.04    8.07
  15   4  -8   58.26   10.51
  15   4  -8   40.69    9.05
  15  -4  -8   66.69   10.39
  15  -4  -8   67.79   10.50
  15   4  -7   77.56   11.87
  15   4  -7   88.04   12.95
  15  -4  -7   58.42   10.86
  15  -4  -7   69.55   10.80
  15  -4  -6   24.22    6.97
  15  -4  -6   19.69    4.83
  15   4  -6   18.74    5.79
  15   4  -6   12.68    4.53
  15  -4  -5   44.08    8.40
  15  -4  -5   44.93    8.73
  15   4  -5   30.70    7.80
  15   4  -5   39.89    8.98
  15  -4  -4   11.77    4.36
  15  -4  -4   16.04    4.72
  15   4  -4   13.91    5.52
  15   4  -4   20.97    5.96
  15  -4  -3    8.52    3.37
  15  -4  -3   24.26    6.84
  15   4  -3    7.47    4.31
  15   4  -3   14.22    5.87
  15  -4  -2    4.24    3.15
  15  -4  -2   -0.13    2.66
  15   4  -2    0.10    2.19
  15   4  -2    4.53    3.31
  15  -4  -2    5.64    4.08
  15  -4  -1   12.28    4.58
  15  -4  -1   10.65    4.62
  15   4  -1   22.17    7.08
  15   4  -1   19.67    7.12
  15  -4   0   34.45    7.46
  15   4   0   54.30   10.14
  15  -4   0   41.71    7.96
  15   4   0   40.62    9.21
  15  -4   1   17.46    4.89
  15  -4   1   20.78    6.12
  15   4   1   11.73    5.00
  15   4   1   31.09    8.51
  15  -4   2    7.77    4.73
  15  -4   2    5.16    3.41
  15   4   2    6.70    3.16
  15   4   2    1.52    2.01
  15  -4   3   14.90    4.62
  15  -4   3   22.02    6.49
  15   4   3   16.39    4.68
  15   4   3   20.76    5.91
  15  -4   4   24.16    7.96
  15  -4   4   15.58    4.76
  15   4   4   16.05    5.16
  15   4   4   35.59    8.93
  15   4   5   40.32    8.89
  15  -4   5   56.60   11.22
  15   4   5   38.48    7.83
  15  -4   5   47.84    9.04
  15  -4   6   20.16    6.44
  15   4   6   26.19    6.95
  15   4   6   11.70    4.69
  15   4   7   59.75   10.89
  15   4   7   63.85   10.77
  15  -4   7   57.54    9.26
  15  -4   8   40.75    8.47
  15   4   8   59.30   10.92
  15   4   8   63.74   10.17
  15  -4   9   36.90    8.22
  15   4   9   44.19    9.23
  15   4   9   32.85    8.07
  15  -4  10   30.96    7.10
  15   4  10   27.12    7.34
  15   4  10   31.29    8.12
  15   4  11   50.10    9.87
  15   4  11   68.69   11.30
  15  -4  11   46.94    8.82
  15   4  12    1.81    3.27
  15   4  12    8.36    4.71
  15  -4  12    8.55    4.51
  15   4  13   62.19   11.30
  15   4  13   51.41    9.96
  15  -4  13   52.44    9.41
  15   4  14   24.78    6.53
  15   4  14   49.08    9.91
  15  -4  14   49.43    9.52
  15   4  15   39.79    8.52
  15  -4  15   37.96    8.01
  15   4  16   24.97    6.01
  15  -4  16   32.13    7.60
  15   4  17   16.66    5.49
  15  -4  17   24.99    7.65
  15   4  18    6.22    2.98
  15  -4  18   15.66    4.38
  15   5 -16   22.79    8.14
  15  -5 -16   12.84    6.06
  15   5 -16   20.26    7.93
  15   5 -15   43.81    9.36
  15  -5 -15   28.09    7.36
  15   5 -15   26.82    9.27
  15   5 -14   48.48   10.45
  15  -5 -14   42.93    9.27
  15   5 -14   30.31    7.92
  15   5 -13   58.63   11.25
  15  -5 -13   40.00    8.78
  15   5 -13   59.07   11.33
  15  -5 -12   18.59    5.83
  15   5 -12   22.01    6.94
  15  -5 -12   10.71    5.18
  15   5 -12   29.15    7.95
  15   5 -11    7.10    3.65
  15  -5 -11    7.70    5.65
  15   5 -11   11.20    5.69
  15  -5 -10   48.71    9.96
  15   5 -10   54.25    9.92
  15  -5 -10   42.57    7.77
  15   5 -10   43.39    9.50
  15  -5  -9  146.46   15.86
  15   5  -9  154.38   17.07
  15   5  -9  109.94   14.27
  15  -5  -9  122.70   14.95
  15  -5  -8   28.23    6.46
  15   5  -8   18.28    6.89
  15  -5  -8   24.05    7.49
  15   5  -8   31.48    7.97
  15  -5  -7   13.08    4.71
  15   5  -7   17.33    4.60
  15  -5  -7   21.64    6.20
  15  -5  -6   32.21    6.50
  15  -5  -6   45.05    8.20
  15   5  -6   40.35    8.83
  15  -5  -5   11.46    4.71
  15   5  -5   15.66    5.60
  15  -5  -5    6.20    2.71
  15   5  -5   15.46    5.01
  15  -5  -4   27.07    7.35
  15   5  -4   30.24    6.99
  15  -5  -4   40.27    8.20
  15   5  -4   31.25    7.45
  15  -5  -3  132.04   14.97
  15   5  -3  107.63   14.25
  15   5  -3  100.00   13.74
  15  -5  -3   91.09   12.30
  15  -5  -2   -1.03    2.84
  15   5  -2    3.34    2.99
  15  -5  -2    3.50    2.78
  15   5  -2    2.31    2.20
  15   5  -1  116.29   14.47
  15   5  -1  129.64   15.29
  15  -5  -1  134.83   15.38
  15  -5  -1  138.37   14.92
  15   5   0  141.71   15.91
  15   5   0  120.39   14.70
  15  -5   0  114.60   14.27
  15  -5   0  150.53   15.22
  15   5   1  101.65   13.91
  15   5   1  105.71   13.97
  15  -5   1  132.40   14.80
  15  -5   1  123.65   13.98
  15  -5   2    1.60    3.31
  15   5   2    0.80    2.02
  15  -5   2    0.01    3.16
  15   5   2   -3.04    2.60
  15   5   3  116.05   14.63
  15   5   3  106.21   14.30
  15  -5   3   90.61   12.54
  15  -5   3  123.09   14.11
  15  -5   4   42.74    7.51
  15   5   4   55.12   10.27
  15   5   4   43.02    8.66
  15  -5   5   16.66    5.96
  15   5   5    5.28    4.24
  15   5   5    7.11    3.55
  15  -5   6   44.69    8.33
  15   5   6   52.38   10.03
  15   5   6   48.53    9.33
  15  -5   7   21.22    6.60
  15   5   7   20.40    6.61
  15   5   7   30.75    9.09
  15  -5   8   21.97    6.16
  15   5   8   15.82    6.27
  15   5   8   16.61    5.62
  15   5   9  128.09   15.08
  15  -5   9  162.93   16.43
  15   5   9  115.25   14.70
  15  -5  10   42.73    8.75
  15   5  10   31.94    8.33
  15   5  10   52.58   10.11
  15  -5  11   15.75    4.98
  15   5  11   16.92    6.60
  15   5  11    5.26    2.50
  15  -5  12   17.20    5.88
  15   5  12   22.12    7.50
  15   5  12   12.07    6.11
  15  -5  13   50.46    9.53
  15   5  13   54.42   10.74
  15   5  13   57.16    9.79
  15   5  14   32.13    8.49
  15   5  14   37.21    8.18
  15  -5  14   45.32    9.61
  15   5  15   23.41    6.60
  15   5  15   37.49    8.71
  15  -5  15   20.64    6.69
  15   5  16   19.48    6.61
  15  -5  16    7.77    4.70
  15  -6 -14    3.49    1.97
  15   6 -14    0.43    3.01
  15   6 -13   -8.17    7.09
  15  -6 -13   -1.29    3.30
  15   6 -13   -2.16    3.61
  15  -6 -12    7.44    2.83
  15   6 -12    7.83    4.48
  15  -6 -12    4.04    2.65
  15  -6 -11   15.62    5.29
  15   6 -11   15.62    5.98
  15  -6 -11   11.22    4.05
  15   6 -11   13.02    4.83
  15  -6 -10   14.49    4.76
  15   6 -10   21.26    7.10
  15  -6 -10   20.90    6.35
  15   6 -10   37.84    9.69
  15  -6  -9   -0.03    3.68
  15   6  -9    7.49    5.39
  15  -6  -9   10.51    4.95
  15   6  -9    9.73    6.19
  15  -6  -8   10.10    4.56
  15   6  -8    5.26    3.20
  15  -6  -8    3.50    3.08
  15   6  -8    7.31    4.63
  15  -6  -7   24.42    7.28
  15   6  -7   13.63    6.19
  15  -6  -7    5.97    5.19
  15   6  -7   12.21    5.19
  15  -6  -6   13.53    5.70
  15   6  -6   20.95    7.47
  15  -6  -6   12.02    5.81
  15   6  -6    4.34    3.00
  15  -6  -5   20.48    5.73
  15   6  -5   11.62    5.85
  15  -6  -5   25.54    7.51
  15   6  -5   11.11    5.06
  15  -6  -4   45.36    8.69
  15  -6  -4   61.86   11.05
  15   6  -4   41.29    8.50
  15   6  -4   62.01   11.14
  15  -6  -3    1.79    3.16
  15   6  -3    3.00    4.26
  15  -6  -3    5.07    3.31
  15   6  -3   10.95    5.87
  15  -6  -2   40.05    7.73
  15   6  -2   54.11   10.14
  15  -6  -2   52.96    9.12
  15   6  -2   42.18    9.34
  15  -6  -1   70.27   10.89
  15  -6  -1   70.54   11.50
  15   6  -1   70.64   11.18
  15   6  -1   83.39   12.71
  15  -6   0   59.11   10.38
  15  -6   0   68.83   11.08
  15   6   0   49.36   10.02
  15   6   0   46.53    9.20
  15   6   1   57.58   10.32
  15   6   1   70.28   12.09
  15  -6   1   61.40   10.77
  15  -6   1   68.84   10.83
  15   6   2   57.53   10.94
  15  -6   2   47.09    8.39
  15  -6   2   53.48    9.44
  15   6   2   58.69   11.03
  15  -6   3    4.46    5.02
  15   6   3   -1.93    3.79
  15   6   3   -1.60    2.99
  15   6   4   46.95   10.11
  15  -6   4   70.90   11.17
  15   6   4   74.13   12.02
  15  -6   5    3.42    2.49
  15   6   5   16.42    5.43
  15   6   5   16.60    7.49
  15  -6   6    9.69    2.35
  15   6   6   16.56    6.77
  15   6   6    8.70    3.93
  15  -6   7    5.69    2.26
  15   6   7    7.22    4.86
  15   6   7   10.33    4.89
  15  -6   8    6.44    3.43
  15   6   8   -0.48    4.04
  15   6   8    6.26    5.31
  15  -6   9    2.20    4.01
  15   6   9   10.25    3.50
  15   6   9   11.64    5.97
  15  -6  10   35.09    7.12
  15   6  10   18.51    6.43
  15   6  10   20.58    5.74
  15  -6  11    9.61    3.32
  15   6  11   14.74    5.97
  15   6  11    6.48    4.11
  15  -6  12    6.35    4.34
  15   6  12   19.35    5.19
  15   6  12    8.55    3.63
  15  -6  13   -2.70    3.00
  15   6  13    1.06    2.93
  15   6  13   -3.89    3.60
  15   6  14    8.21    6.31
  15  -6  14   -0.18    4.06
  15   6  14    0.61    2.14
  15  -7 -10   31.98    8.63
  15   7 -10   40.76   10.18
  15  -7 -10   36.67    8.44
  15   7 -10   28.24    8.32
  15  -7  -9   47.66    9.10
  15  -7  -9   60.95   10.57
  15   7  -9   55.91   11.18
  15   7  -9   31.74    8.57
  15  -7  -8    9.31    5.92
  15   7  -8   -5.51    4.74
  15  -7  -8    2.97    3.63
  15   7  -8    3.81    4.95
  15  -7  -7   30.58    7.34
  15   7  -7   28.36    8.76
  15  -7  -7   30.40    7.98
  15   7  -7   30.53    8.01
  15  -7  -6    4.44    2.39
  15   7  -6    8.95    6.46
  15  -7  -6    0.21    2.03
  15   7  -6    3.21    5.78
  15  -7  -5    7.86    3.98
  15   7  -5   21.43    7.76
  15  -7  -5   11.24    5.51
  15   7  -5   11.09    5.97
  15  -7  -4   29.19    5.90
  15   7  -4   29.66    7.99
  15  -7  -4   18.36    7.34
  15   7  -4   24.09    6.10
  15  -7  -3   34.36    8.04
  15   7  -3   26.80    8.01
  15  -7  -3   33.52    8.10
  15   7  -3   23.22    7.77
  15  -7  -2   12.80    5.06
  15   7  -2    1.31    3.63
  15  -7  -2    3.66    3.64
  15   7  -2   17.05    4.67
  15  -7  -1   37.81    7.49
  15   7  -1   32.13    8.30
  15  -7  -1   32.12    7.69
  15   7  -1   46.86    9.71
  15  -7   0   45.07    8.80
  15   7   0   32.41    7.44
  15  -7   0   34.94    7.28
  15   7   0   26.93    7.72
  15  -7   1   33.60    7.13
  15   7   1   29.54    8.03
  15   7   1   47.96    9.20
  15  -7   2   20.30    7.36
  15   7   2   16.58    5.39
  15   7   2    5.15    5.10
  15  -7   3   32.05    7.39
  15   7   3   50.42   10.08
  15   7   3   33.95    9.22
  15  -7   4   27.87    6.78
  15   7   4   21.80    7.16
  15   7   4   10.85    6.27
  15  -7   5   13.06    6.33
  15   7   5   19.63    6.67
  15   7   5   10.60    5.68
  15  -7   6    9.87    4.22
  15   7   6   -2.45    4.30
  15   7   6   13.64    7.00
  15  -7   7   36.36    8.25
  15   7   7   30.38    7.51
  15   7   7   33.21    8.17
  15  -7   8    0.11    3.69
  15   7   8    0.52    5.31
  15   7   8    4.65    5.49
  15   7   9   43.29   10.10
  15   7   9   73.00   11.83
  15  -7   9   63.91   10.57
  15   7  10   36.60    9.17
  15  -7  10   29.83    7.83
  15   7  10   34.65    8.76
  15  -8  -2   40.85    9.13
  15   8  -2   42.49   10.07
  15  -8  -2   38.64    8.48
  15   8  -2   43.49    9.98
  15  -8  -1   36.61    7.84
  15   8  -1   14.53    5.32
  15  -8  -1   38.44   12.06
  15   8  -1   35.41    8.88
  15  -8   0   13.18    5.50
  15   8   0    8.44    4.04
  15   8   0    3.69    4.66
  15   8   1   29.68    8.61
  15  -8   1   23.85    6.91
  15   8   1   33.09    9.22
  15   8   2   52.06   10.34
  15  -8   2   53.49    9.67
  15   8   2   55.65   11.92
  16   0 -19  186.51   19.63
  16   0 -18   77.38   11.87
  16   0 -17  138.06   16.30
  16   0 -16    6.60    3.40
  16   0 -15   28.17    7.45
  16   0 -14   -0.87    3.76
  16   0 -13  388.70   26.53
  16   0 -12   11.17    5.16
  16   0 -11   37.14    7.56
  16   0 -10   28.07    7.69
  16   0  -9   82.98   11.67
  16   0  -8   14.94    5.06
  16   0  -7  265.44   20.82
  16   0  -6   20.34    6.36
  16   0  -5    1.92    2.46
  16   0  -5    2.24    4.03
  16   0  -4   45.18    8.87
  16   0  -4   40.77    8.25
  16   0  -3  241.28   19.82
  16   0  -3  248.76   20.41
  16   0  -2  179.48   17.10
  16   0  -2  187.05   17.92
  16   0  -1   38.61    8.50
  16   0  -1   31.30    6.84
  16   0   0   11.57    4.53
  16   0   0    1.06    1.93
  16   0   1   36.94    8.20
  16   0   1   44.01    9.71
  16   0   2  196.12   17.50
  16   0   2  184.38   17.66
  16   0   3  220.49   18.93
  16   0   3  230.23   19.60
  16   0   4   41.93    7.68
  16   0   4   58.45    9.73
  16   0   5    2.00    3.79
  16   0   5    4.37    3.54
  16   0   6   24.59    6.81
  16   0   6   10.94    4.34
  16   0   7  271.67   21.44
  16   0   7  264.08   22.03
  16   0   8   31.18    7.50
  16   0   8   10.92    4.85
  16   0   9   58.00   10.23
  16   0   9   69.19   11.09
  16   0  10   23.70    6.91
  16   0  11   39.90    8.88
  16   0  12   10.76    5.06
  16   0  13  390.26   27.02
  16   0  14    3.08    3.98
  16   0  15   18.95    6.76
  16   0  16    6.78    2.83
  16   0  17  114.44   16.37
  16  -1 -19    0.37    2.64
  16   1 -19   -0.31    4.94
  16  -1 -18    1.64    3.88
  16   1 -18    3.33    4.37
  16  -1 -17   11.80    6.19
  16   1 -17   16.77    6.86
  16  -1 -16    1.61    4.01
  16   1 -16    4.20    4.30
  16  -1 -15   10.01    4.83
  16   1 -15    2.10    3.40
  16  -1 -14   45.68    9.56
  16   1 -14   29.87    7.74
  16  -1 -13   20.30    6.27
  16   1 -13   17.08    6.97
  16  -1 -12    0.95    3.87
  16   1 -12   -1.44    1.95
  16  -1 -11    2.66    2.62
  16   1 -11    2.21    4.28
  16  -1 -10    4.16    3.01
  16   1 -10    2.03    2.96
  16  -1 -10    4.39    4.34
  16  -1  -9   15.36    5.55
  16   1  -9    9.57    4.41
  16  -1  -9    7.26    2.76
  16  -1  -8    2.11    2.87
  16   1  -8   -1.85    4.08
  16  -1  -8   -0.23    2.33
  16  -1  -7    2.61    3.76
  16   1  -7    4.94    3.79
  16   1  -7    0.93    2.40
  16  -1  -7   -2.36    3.93
  16   1  -6    9.07    3.99
  16   1  -6   11.61    5.32
  16  -1  -6    5.72    3.42
  16  -1  -6    2.89    3.54
  16   1  -5   34.27    7.42
  16   1  -5   40.18    8.81
  16  -1  -5   31.48    7.88
  16  -1  -5   31.38    7.52
  16   1  -4    0.85    1.94
  16  -1  -4   -0.06    2.63
  16  -1  -4    1.91    2.33
  16  -1  -4   -0.23    1.74
  16  -1  -3   63.67   10.10
  16   1  -3   41.50    8.25
  16   1  -3   47.55    8.62
  16  -1  -3   56.19    9.16
  16  -1  -3   41.56    7.91
  16   1  -2    5.46    3.20
  16   1  -2    2.30    2.45
  16  -1  -2    1.06    2.98
  16  -1  -2    7.38    4.24
  16  -1  -2    4.43    2.92
  16   1  -1   11.45    4.82
  16   1  -1   14.44    6.73
  16  -1  -1    8.86    4.37
  16  -1  -1    3.57    3.45
  16  -1  -1   11.23    5.71
  16   1   0    5.26    2.47
  16   1   0    4.45    4.62
  16  -1   0    3.94    2.89
  16  -1   0    1.66    2.73
  16  -1   0    2.69    2.18
  16   1   1    1.05    1.98
  16  -1   1   15.41    5.02
  16   1   1   11.73    4.85
  16  -1   1   10.01    4.50
  16  -1   1    9.92    4.79
  16   1   2    5.20    4.00
  16  -1   2    3.09    2.28
  16   1   2    3.98    4.68
  16  -1   2    5.13    4.31
  16  -1   2    4.64    4.39
  16   1   3   49.94    9.43
  16   1   3   46.95    9.81
  16  -1   3   42.95    8.53
  16  -1   3   42.40    8.18
  16  -1   3   55.09    9.33
  16   1   4    1.67    3.43
  16  -1   4   -0.21    3.22
  16   1   4   -1.49    3.34
  16  -1   4   -0.42    3.70
  16  -1   4    2.16    2.93
  16   1   5   24.98    6.43
  16  -1   5   26.82    6.03
  16   1   5   29.99    7.84
  16  -1   5   23.63    5.91
  16  -1   5   37.23    7.74
  16   1   6    5.47    4.93
  16  -1   6   11.64    4.71
  16   1   6    5.60    4.01
  16  -1   6    7.25    3.96
  16  -1   6   11.07    5.26
  16   1   7    1.84    3.26
  16  -1   7    3.93    3.68
  16   1   7    0.21    3.28
  16  -1   7    0.14    3.53
  16  -1   7    7.85    4.09
  16   1   8    4.58    4.23
  16  -1   8   -0.04    1.97
  16   1   8    4.61    4.10
  16  -1   8    1.79    2.45
  16   1   9   18.24    6.28
  16   1   9    5.80    4.46
  16  -1   9    7.59    4.43
  16   1  10    3.65    4.86
  16   1  10   -1.81    3.83
  16  -1  10    7.01    3.81
  16   1  11    2.45    2.15
  16  -1  11   -2.43    3.96
  16  -1  12   -5.11    5.35
  16   1  12    7.11    4.46
  16  -1  13   15.58    7.30
  16   1  13    3.87    3.42
  16   1  14   38.23    8.87
  16   1  15    8.88    5.08
  16   1  16   -5.00    4.93
  16   1  17   13.15    4.79
  16   1  18    0.32    2.55
  16   1  19   -2.27    4.36
  16  -2 -18    7.48    5.59
  16   2 -18    8.81    5.25
  16   2 -17  128.27   16.22
  16  -2 -17  125.91   15.57
  16  -2 -16   16.84    5.99
  16   2 -16   11.85    5.00
  16  -2 -15   10.85    5.10
  16   2 -15    5.90    4.53
  16  -2 -14    4.23    2.71
  16   2 -14    2.97    2.95
  16   2 -13  211.83   19.40
  16  -2 -13  179.29   17.72
  16  -2 -12   13.97    4.88
  16   2 -12   26.29    7.71
  16  -2 -11   23.28    6.07
  16   2 -11   36.14    8.03
  16   2 -10    5.53    2.79
  16  -2 -10    1.76    3.40
  16  -2  -9   28.63    8.19
  16   2  -9   32.66    8.35
  16   2  -9   38.53    8.98
  16  -2  -9   38.90    7.37
  16  -2  -8    4.38    3.26
  16   2  -8    8.39    4.64
  16   2  -8    6.68    3.22
  16  -2  -8    2.44    3.24
  16   2  -7   98.58   12.44
  16  -2  -7  144.99   15.63
  16   2  -7  121.91   14.56
  16  -2  -7  141.18   15.19
  16  -2  -6    6.26    3.82
  16   2  -6    1.41    3.61
  16   2  -6    7.50    4.35
  16  -2  -6    0.15    2.53
  16  -2  -5    9.93    5.37
  16   2  -5   25.78    6.71
  16   2  -5   37.68    8.51
  16  -2  -5   21.64    6.63
  16   2  -4    4.58    4.87
  16   2  -4    2.18    2.46
  16  -2  -4    6.92    3.82
  16   2  -3  154.02   15.65
  16  -2  -3  149.80   15.54
  16   2  -3  167.13   17.06
  16  -2  -3  176.92   17.93
  16  -2  -3  152.78   15.44
  16  -2  -2    2.76    3.33
  16   2  -2    5.63    4.37
  16   2  -2    5.14    3.81
  16  -2  -2   12.40    4.91
  16  -2  -2    5.02    3.83
  16  -2  -1   15.48    5.77
  16   2  -1   16.28    5.56
  16   2  -1   20.17    6.47
  16  -2  -1   19.67    6.69
  16  -2  -1   21.38    5.79
  16   2   0    3.76    2.44
  16   2   0    1.74    3.59
  16  -2   0   -0.20    2.88
  16  -2   0    1.26    2.39
  16  -2   0    3.23    3.86
  16   2   1   16.05    5.07
  16   2   1   26.21    6.72
  16  -2   1   18.77    4.90
  16  -2   1    8.59    5.56
  16  -2   1   28.40    7.59
  16   2   2    9.19    4.35
  16   2   2   12.77    5.47
  16  -2   2   11.49    4.80
  16  -2   2    9.42    3.89
  16  -2   2   11.10    4.77
  16   2   3  168.78   17.11
  16  -2   3  155.68   16.24
  16   2   3  188.57   18.04
  16  -2   3  155.55   16.35
  16  -2   3  179.14   16.70
  16   2   4    5.82    4.06
  16   2   4    2.03    3.85
  16  -2   4    8.86    4.66
  16  -2   4    4.00    2.28
  16  -2   4    7.09    5.09
  16   2   5   18.76    6.38
  16   2   5   27.20    7.88
  16  -2   5    8.47    4.34
  16  -2   5   24.30    6.81
  16  -2   5   22.72    6.36
  16   2   6    2.45    2.80
  16  -2   6    3.78    2.17
  16   2   6    1.79    1.84
  16  -2   6    3.14    3.37
  16  -2   6    8.82    4.57
  16   2   7  109.48   14.35
  16  -2   7  129.42   15.85
  16   2   7  134.72   15.41
  16  -2   7  127.58   15.50
  16  -2   7  103.04   12.50
  16   2   8    8.04    3.74
  16   2   8    1.80    2.51
  16  -2   8   -3.40    2.73
  16  -2   8    3.94    2.12
  16   2   9   45.30    9.04
  16   2   9   54.54   10.18
  16  -2   9   38.50    7.76
  16   2  10   12.90    6.52
  16   2  10   10.12    6.37
  16  -2  10   14.16    4.75
  16   2  11   39.46    8.51
  16   2  11   45.06    8.84
  16  -2  11   21.12    6.35
  16   2  12   20.41    4.66
  16  -2  12   22.34    7.26
  16   2  13  228.70   20.34
  16   2  14    9.84    5.04
  16   2  15    3.94    3.48
  16   2  16   16.08    6.58
  16   2  17  157.97   17.24
  16   2  18   13.65    5.93
  16  -3 -18   -3.16    3.34
  16   3 -18   -1.33    3.03
  16  -3 -17    2.96    2.91
  16   3 -17   -3.00    3.05
  16  -3 -16    3.19    2.85
  16   3 -16    0.39    4.10
  16  -3 -15    0.69    2.94
  16   3 -15    1.92    4.07
  16  -3 -14    2.19    2.67
  16   3 -14   -2.18    3.50
  16  -3 -13   11.98    3.61
  16   3 -13   14.37    4.90
  16  -3 -12   -0.89    3.12
  16   3 -12    2.46    3.70
  16   3 -12    0.27    3.90
  16  -3 -11   14.00    4.86
  16  -3 -11   20.38    5.27
  16   3 -11   12.45    5.06
  16   3 -11   25.21    7.38
  16  -3 -10    3.99    2.36
  16  -3 -10   -3.54    3.98
  16   3 -10    2.75    2.80
  16   3 -10    7.80    5.27
  16  -3  -9    7.21    3.78
  16  -3  -9   11.30    3.55
  16   3  -9    9.05    3.42
  16   3  -9   11.89    4.80
  16  -3  -8    7.20    2.38
  16  -3  -8    8.44    4.45
  16   3  -8    7.45    3.17
  16   3  -8   12.05    5.40
  16  -3  -7    8.70    2.58
  16  -3  -7    5.82    3.86
  16   3  -7   13.03    6.18
  16   3  -7    3.54    4.12
  16  -3  -6    0.84    3.13
  16  -3  -6    4.29    3.41
  16   3  -6    6.04    4.64
  16   3  -6    3.71    4.54
  16  -3  -5    5.79    3.36
  16  -3  -5    1.84    2.95
  16   3  -5    3.10    4.15
  16  -3  -4    6.23    3.31
  16  -3  -4   10.46    5.46
  16   3  -4    3.41    2.62
  16   3  -4    3.64    4.67
  16  -3  -3   -2.02    2.16
  16  -3  -3    2.10    2.17
  16   3  -3    4.05    4.70
  16   3  -3   -1.93    4.04
  16  -3  -3   -0.95    3.83
  16  -3  -2    1.84    2.70
  16  -3  -2    6.85    2.11
  16   3  -2    7.99    2.66
  16   3  -2    4.30    3.37
  16  -3  -2    8.78    4.95
  16  -3  -1    8.10    4.49
  16  -3  -1    1.98    1.75
  16   3  -1   -0.05    3.59
  16   3  -1    8.10    4.56
  16  -3  -1    1.09    2.89
  16  -3   0   -2.04    2.25
  16  -3   0    3.71    3.79
  16   3   0   -2.39    3.01
  16   3   0    3.21    5.37
  16  -3   0   -1.37    4.49
  16  -3   1    4.05    1.89
  16  -3   1    0.62    3.10
  16   3   1    6.21    4.69
  16   3   1    0.69    3.23
  16  -3   1   -2.06    4.76
  16  -3   2    6.31    4.91
  16  -3   2   14.18    5.54
  16   3   2    2.92    3.31
  16   3   2    0.20    2.60
  16  -3   2    5.61    7.85
  16  -3   3   -0.35    3.21
  16   3   3   -2.13    2.59
  16   3   3   -0.67    3.22
  16  -3   3    0.56    3.24
  16   3   4    5.74    4.30
  16   3   4    4.41    4.14
  16  -3   4    3.53    3.31
  16  -3   4    2.62    3.26
  16   3   5   -0.09    3.76
  16   3   5    7.60    4.63
  16  -3   5   11.15    4.94
  16  -3   5    9.36    6.17
  16   3   6    6.92    4.77
  16   3   6    7.76    4.03
  16  -3   6    7.07    4.01
  16   3   7    9.83    4.92
  16   3   7   11.57    5.18
  16  -3   7   10.21    3.48
  16   3   8   10.26    4.09
  16   3   8    3.62    3.73
  16  -3   8    3.81    3.53
  16   3   9    7.60    2.52
  16  -3   9    4.63    3.65
  16   3  10   -1.74    3.25
  16   3  10    5.13    4.22
  16  -3  10    7.87    4.56
  16   3  11    7.60    5.80
  16   3  11   19.56    6.11
  16  -3  11   12.43    4.34
  16   3  12    1.10    4.18
  16   3  12   -1.14    2.49
  16  -3  12    1.24    2.81
  16   3  13    4.46    4.55
  16  -3  13   12.91    3.11
  16   3  14    1.83    4.43
  16  -3  14    1.67    3.53
  16   3  15    4.78    2.63
  16  -3  15    1.65    3.66
  16   3  16    0.36    3.46
  16  -3  16    7.00    3.70
  16   3  17    2.18    3.67
  16   3  18    1.31    2.43
  16  -4 -16   10.56    3.95
  16   4 -16   15.15    7.94
  16   4 -16    0.05    5.14
  16   4 -15   20.91    6.53
  16   4 -15   11.11    3.89
  16  -4 -14   12.19    5.51
  16   4 -14    8.33    6.15
  16   4 -14   -0.12    4.58
  16   4 -13  203.94   19.56
  16   4 -13  227.27   21.74
  16  -4 -13  209.27   19.68
  16  -4 -12    0.24    3.42
  16   4 -12   12.89    7.11
  16   4 -12   21.05    6.56
  16  -4 -11   29.57    7.88
  16  -4 -11   19.81    6.34
  16   4 -11   43.00    8.59
  16   4 -11   44.36    9.35
  16  -4 -10    5.15    2.50
  16  -4 -10   23.30    6.32
  16   4 -10   16.78    6.26
  16   4 -10   19.91    7.55
  16   4  -9   69.65   11.57
  16   4  -9   77.17   12.24
  16  -4  -9   83.90   12.46
  16  -4  -9   81.37   11.74
  16  -4  -8    0.01    2.62
  16  -4  -8    5.08    4.12
  16   4  -8    2.03    4.04
  16   4  -8   -0.95    2.92
  16   4  -7   79.03   13.04
  16   4  -7   76.14   12.03
  16  -4  -7  106.90   13.55
  16  -4  -7   95.74   12.51
  16  -4  -6    2.62    2.33
  16  -4  -6    1.12    3.27
  16   4  -6    1.86    3.97
  16   4  -6    0.62    2.93
  16  -4  -5   51.38    8.55
  16   4  -5   54.85    9.92
  16   4  -5   49.74   10.09
  16  -4  -5   55.03   10.23
  16  -4  -4    7.32    3.61
  16  -4  -4    3.27    3.38
  16   4  -4    4.58    4.17
  16   4  -4    7.50    2.44
  16   4  -3  155.82   17.11
  16   4  -3  223.91   20.64
  16  -4  -3  188.63   17.75
  16  -4  -3  175.53   17.03
  16  -4  -2   21.36    5.69
  16   4  -2   17.25    6.52
  16   4  -2    9.26    4.65
  16  -4  -1   40.60    8.58
  16  -4  -1   46.02    8.62
  16   4  -1   40.89    8.68
  16   4  -1   37.03    8.01
  16  -4   0    1.05    2.50
  16  -4   0    4.29    4.89
  16   4   0    0.33    2.31
  16   4   0    2.50    2.20
  16  -4   1   27.21    7.35
  16  -4   1   37.68    8.17
  16   4   1   37.49    8.75
  16   4   1   22.73    6.57
  16  -4   2   11.12    4.21
  16  -4   2   13.11    5.52
  16   4   2    5.49    2.71
  16   4   2   14.36    5.07
  16   4   3  174.59   18.05
  16   4   3  177.44   18.16
  16  -4   3  181.24   17.17
  16  -4   3  188.74   17.43
  16  -4   4    7.66    2.42
  16  -4   4   -0.96    2.42
  16   4   4    4.39    3.11
  16   4   4    7.88    5.63
  16  -4   5   41.87    8.45
  16   4   5   43.62   10.01
  16   4   5   37.61    8.41
  16  -4   6    4.65    3.24
  16   4   6    3.44    2.52
  16   4   6    1.46    4.02
  16   4   7   82.53   12.60
  16   4   7   89.76   12.69
  16  -4   7   98.92   13.32
  16  -4   8    6.03    4.64
  16   4   8   -2.10    4.42
  16   4   8    0.52    4.27
  16   4   9   66.50   11.63
  16   4   9   85.93   12.34
  16  -4   9   68.69   10.75
  16   4  10    9.64    4.08
  16   4  10   11.14    5.02
  16  -4  10    6.79    3.66
  16   4  11   16.38    4.71
  16  -4  11   23.12    5.63
  16   4  12    1.61    4.09
  16   4  12   12.79    5.18
  16  -4  12    8.37    4.81
  16   4  13  188.60   18.32
  16  -4  13  191.83   17.83
  16   4  13  171.88   19.16
  16   4  14    5.80    3.79
  16  -4  14   11.19    3.44
  16   4  15   23.76    7.19
  16  -4  15   22.90    6.73
  16   4  16   11.72    5.96
  16  -4  16    4.88    3.41
  16  -5 -14   63.48   11.47
  16   5 -14   47.95    9.60
  16   5 -14   54.54   12.07
  16   5 -13    7.17    4.00
  16  -5 -13   -1.62    4.66
  16   5 -13   -2.92    3.01
  16   5 -12    3.30    4.11
  16  -5 -12   17.10    6.03
  16   5 -12   11.56    6.11
  16  -5 -11    6.36    5.35
  16   5 -11    2.25    4.04
  16  -5 -11    7.06    3.18
  16   5 -11   16.11    5.62
  16  -5 -10   24.70    7.29
  16   5 -10   32.47    7.64
  16  -5 -10   24.51    7.01
  16   5 -10   20.10    7.10
  16  -5  -9   -1.58    2.40
  16   5  -9   -4.87    4.76
  16  -5  -9   -2.56    2.21
  16   5  -9    3.98    4.05
  16  -5  -8    3.35    3.89
  16   5  -8    0.39    3.12
  16  -5  -8    0.72    2.01
  16   5  -8    1.32    4.23
  16  -5  -7    2.41    4.14
  16   5  -7    5.96    5.06
  16  -5  -7   -1.71    3.04
  16   5  -7    1.60    3.72
  16  -5  -6    1.37    3.18
  16   5  -6    2.77    3.25
  16  -5  -6   -0.62    2.11
  16   5  -6    3.89    2.71
  16  -5  -5   40.08    8.39
  16   5  -5   23.91    6.71
  16  -5  -5   42.76    8.04
  16   5  -5   28.88    7.54
  16  -5  -4   20.63    7.40
  16   5  -4   13.00    5.70
  16  -5  -4   22.58    7.05
  16   5  -4   16.85    6.23
  16  -5  -3    9.82    5.04
  16  -5  -3    8.52    4.71
  16   5  -3   16.76    5.11
  16   5  -3   12.18    5.51
  16  -5  -2   18.87    6.14
  16  -5  -2   21.43    5.74
  16   5  -2   16.50    4.52
  16   5  -2   20.29    6.86
  16  -5  -1   26.90    6.98
  16  -5  -1   20.59    6.85
  16   5  -1   19.30    5.39
  16   5  -1   24.13    8.07
  16  -5   0   -1.65    2.62
  16  -5   0   -1.47    3.14
  16   5   0    4.30    5.14
  16   5   0    0.21    2.70
  16  -5   1   21.83    7.66
  16  -5   1   26.86    7.71
  16   5   1   25.89    7.65
  16   5   1    9.08    5.82
  16  -5   2    9.31    2.32
  16   5   2   14.52    6.11
  16   5   2   11.88    3.84
  16  -5   3    8.79    4.45
  16   5   3    1.47    1.93
  16   5   3   10.34    4.95
  16  -5   4   20.84    7.72
  16   5   4   25.73    8.42
  16   5   4   19.39    5.66
  16  -5   5   38.13    8.11
  16   5   5   31.74    8.41
  16   5   5   42.73    8.47
  16  -5   6   -0.70    2.65
  16   5   6   -4.48    4.48
  16   5   6    4.38    5.43
  16  -5   7   -1.57    2.01
  16   5   7   -2.01    2.73
  16   5   7    4.26    3.07
  16  -5   8   -0.26    2.53
  16   5   8    1.58    3.63
  16   5   8   -0.20    2.51
  16  -5   9   -2.12    3.76
  16   5   9    1.19    4.73
  16   5   9   -0.18    3.25
  16  -5  10   23.41    5.96
  16   5  10   20.71    6.99
  16   5  10   28.82    6.58
  16  -5  11   14.40    5.57
  16   5  11    4.61    4.93
  16   5  11   13.77    4.44
  16  -5  12   21.91    6.04
  16   5  12   10.24    5.51
  16   5  12    9.79    5.94
  16   5  13    0.18    2.05
  16  -5  13    1.07    2.15
  16   5  14   51.58   10.87
  16   5  14   66.23   10.94
  16  -5  14   75.51   11.78
  16  -6 -11   45.14    9.11
  16   6 -11   35.63    8.28
  16  -6 -11   51.25    9.48
  16   6 -11   47.95   10.63
  16  -6 -10   10.26    4.65
  16   6 -10   20.77    8.16
  16  -6 -10   23.75    7.46
  16   6 -10   22.89    8.71
  16  -6  -9   90.63   12.90
  16   6  -9   90.05   13.89
  16   6  -9  108.30   14.10
  16  -6  -9  111.78   14.22
  16  -6  -8    3.02    3.03
  16   6  -8    3.81    5.52
  16  -6  -8    1.01    3.58
  16   6  -8    2.91    3.52
  16  -6  -7   92.48   13.13
  16   6  -7  102.51   14.71
  16   6  -7  113.06   15.33
  16  -6  -7  114.19   14.80
  16  -6  -6    6.37    4.87
  16   6  -6    4.57    3.07
  16  -6  -6   -0.52    2.36
  16   6  -6    8.26    4.86
  16  -6  -5   -0.53    3.20
  16   6  -5    3.52    4.91
  16  -6  -5   11.83    5.02
  16   6  -5    6.70    4.73
  16  -6  -4   19.91    5.67
  16   6  -4   16.10    6.12
  16  -6  -4   24.84    6.64
  16   6  -4   15.56    6.27
  16  -6  -3  104.84   14.01
  16   6  -3  131.85   15.67
  16   6  -3  107.63   15.38
  16  -6  -3  100.38   12.64
  16   6  -2   77.34   12.37
  16  -6  -2   62.42   10.11
  16   6  -2   70.44   12.21
  16  -6  -2   81.48   12.66
  16   6  -1   60.42   10.64
  16   6  -1   91.22   12.78
  16  -6  -1   94.46   13.64
  16  -6  -1   76.40   11.97
  16  -6   0    5.62    3.30
  16   6   0    0.05    3.18
  16  -6   0    4.61    3.95
  16   6   0   -2.49    2.54
  16   6   1   80.83   12.91
  16  -6   1   62.02   10.76
  16   6   1   80.55   12.01
  16  -6   1   90.77   13.14
  16   6   2   56.81   10.71
  16   6   2   91.83   13.56
  16  -6   2   61.23   11.24
  16   6   3   99.23   13.11
  16   6   3  119.73   14.57
  16  -6   3   93.52   12.63
  16  -6   4   26.15    6.45
  16   6   4   25.98    7.45
  16   6   4   22.60    6.66
  16  -6   5    4.73    2.49
  16   6   5    6.93    3.40
  16   6   5    8.06    5.57
  16  -6   6   11.57    5.06
  16   6   6   11.57    5.92
  16   6   6    5.70    4.35
  16   6   7  107.83   14.67
  16  -6   7   62.88   10.65
  16   6   7  110.89   14.71
  16  -6   8    3.21    4.19
  16   6   8    5.09    4.98
  16   6   8    2.81    3.17
  16   6   9  109.75   15.33
  16   6   9  104.32   14.87
  16  -6   9   98.19   13.25
  16   6  10    7.94    5.19
  16   6  10    8.96    3.16
  16  -6  11   36.95    8.52
  16   6  11   36.76    9.33
  16   6  11   52.64   10.72
  16  -7  -6    6.54    3.29
  16   7  -6    8.94    6.27
  16  -7  -6    5.22    2.90
  16   7  -6   10.59    5.62
  16  -7  -5   25.66    6.78
  16   7  -5   52.90   10.82
  16  -7  -5   58.00   10.06
  16   7  -5   41.63    8.92
  16  -7  -4    4.26    3.66
  16   7  -4   -2.35    2.46
  16  -7  -4    4.83    2.55
  16   7  -4   -1.25    2.75
  16  -7  -3   46.73    9.80
  16   7  -3   36.15    8.59
  16  -7  -3   31.62    8.66
  16   7  -3   25.69    7.95
  16  -7  -2    3.82    4.86
  16   7  -2    6.14    4.69
  16  -7  -2    0.02    3.24
  16   7  -2   -1.17    4.55
  16  -7  -1   -4.60    4.89
  16   7  -1   -1.08    2.87
  16  -7  -1   -0.03    3.37
  16   7  -1   -2.89    6.35
  16  -7   0    5.90    5.19
  16   7   0    3.86    3.63
  16   7   0    5.84    3.00
  16  -7   1   -0.03    3.97
  16   7   1   -1.21    3.32
  16   7   1    3.40    5.76
  16  -7   2    1.94    3.09
  16   7   2    5.32    5.34
  16   7   2    5.54    5.05
  16  -7   3   33.01    7.04
  16   7   3   39.30    9.93
  16   7   3   46.43    9.62
  16  -7   4    5.21    3.28
  16   7   4   -1.44    3.58
  16   7   4   -0.97    2.89
  16  -7   5   52.57   10.08
  16   7   5   34.21    8.34
  16   7   5   56.37   10.49
  16  -7   6    5.38    5.23
  16   7   6   -0.69    4.34
  16   7   6    8.29    3.84
  17   0 -17   -2.08    2.59
  17   0 -16   -0.66    3.34
  17   0 -15    3.50    4.92
  17   0 -14    1.29    2.29
  17   0 -13    1.79    2.10
  17   0 -12    1.25    3.74
  17   0 -11   -1.49    3.03
  17   0 -10    2.45    3.89
  17   0  -9    1.21    4.46
  17   0  -8   -0.85    2.83
  17   0  -7    0.83    2.00
  17   0  -7   -1.15    2.86
  17   0  -6    0.59    2.72
  17   0  -6    0.21    4.14
  17   0  -5    1.86    1.93
  17   0  -5    5.36    4.49
  17   0  -4    3.97    4.04
  17   0  -4    1.74    4.21
  17   0  -3   -0.27    2.24
  17   0  -3    1.41    2.07
  17   0  -2    0.92    4.04
  17   0  -2   -1.25    3.14
  17   0  -1   -1.87    2.51
  17   0  -1    2.49    3.06
  17   0   0    1.23    1.90
  17   0   0   -2.78    2.67
  17   0   1   -1.40    3.12
  17   0   1    0.22    4.19
  17   0   2   -0.50    2.24
  17   0   2    1.24    3.18
  17   0   3   -3.86    4.32
  17   0   3   -0.41    3.58
  17   0   4   -0.68    2.99
  17   0   4   -1.19    3.40
  17   0   5    2.10    3.31
  17   0   5   -0.26    3.42
  17   0   6   -1.84    2.36
  17   0   6   -2.50    3.30
  17   0   7   -5.47    4.02
  17   0   7    0.30    2.44
  17   0   8    2.15    2.66
  17   0   8    2.08    4.06
  17   0   9    1.87    4.22
  17   0  10   -1.61    2.99
  17   0  11    1.00    2.79
  17   0  12   -1.20    3.26
  17   0  13    1.99    4.35
  17   0  14   -3.06    6.48
  17   0  15   -4.15    3.51
  17   0  16   15.36    8.79
  17   1 -17  106.35   14.47
  17  -1 -17  104.08   14.08
  17   1 -16   70.11   11.81
  17  -1 -16   72.06   12.36
  17  -1 -15    2.86    3.73
  17   1 -15    1.71    3.16
  17  -1 -14   24.90    7.99
  17   1 -14   20.43    5.90
  17  -1 -13   21.21    6.16
  17   1 -13   26.21    7.27
  17  -1 -12   52.90   10.30
  17   1 -12   48.23   10.06
  17   1 -11   88.75   12.46
  17  -1 -11   61.91    9.89
  17   1 -10   40.19    7.98
  17  -1 -10   37.08    7.93
  17   1  -9   56.12   10.67
  17  -1  -9   40.53    9.52
  17  -1  -9   38.61    8.81
  17   1  -8   41.42    8.88
  17   1  -8   43.37    9.16
  17  -1  -8   35.44    8.29
  17  -1  -8   43.94    9.22
  17   1  -7   10.85    3.81
  17   1  -7   14.22    6.06
  17  -1  -7    4.03    2.85
  17  -1  -7   10.75    5.61
  17   1  -6   20.63    5.90
  17   1  -6   25.44    6.92
  17  -1  -6   30.20    7.22
  17  -1  -6   16.40    5.71
  17  -1  -6   17.80    6.12
  17   1  -5    8.69    3.99
  17   1  -5   17.00    6.55
  17  -1  -5    5.95    3.66
  17  -1  -5    7.68    5.03
  17   1  -4   94.15   12.93
  17  -1  -4   95.93   12.76
  17   1  -4  128.69   15.46
  17  -1  -4  107.74   14.01
  17  -1  -4  105.62   12.62
  17   1  -3  153.15   16.27
  17  -1  -3  149.89   15.72
  17   1  -3  158.80   17.28
  17  -1  -3  150.48   16.98
  17  -1  -3  146.75   15.10
  17   1  -2   60.05    9.98
  17  -1  -2   76.67   11.75
  17  -1  -2   80.43   12.23
  17   1  -2   55.82   10.04
  17  -1  -2   66.15   10.27
  17   1  -1   21.94    6.77
  17  -1  -1    8.46    2.47
  17   1  -1   26.61    7.04
  17  -1  -1   33.38    7.54
  17  -1  -1   15.35    5.81
  17   1   0  117.36   14.34
  17  -1   0   96.03   12.79
  17   1   0  148.65   16.27
  17  -1   0  125.80   15.38
  17  -1   0   95.27   12.37
  17   1   1   21.77    6.39
  17  -1   1   24.84    7.76
  17   1   1   12.20    5.62
  17  -1   1   10.56    5.40
  17  -1   1   22.02    6.69
  17   1   2   60.01   10.23
  17  -1   2   71.65   11.66
  17   1   2   59.75   10.78
  17  -1   2   67.50   11.66
  17  -1   2   67.07   10.85
  17   1   3  163.61   17.44
  17  -1   3  132.12   15.06
  17   1   3  165.50   17.28
  17  -1   3  158.42   17.01
  17  -1   3  182.79   16.89
  17   1   4   84.96   12.37
  17  -1   4   98.96   13.19
  17   1   4  103.31   14.03
  17  -1   4  103.49   13.72
  17  -1   4  106.28   13.43
  17   1   5    9.03    4.90
  17  -1   5   16.42    5.32
  17   1   5   18.87    5.94
  17  -1   5   10.19    6.65
  17  -1   5   14.01    6.05
  17   1   6   36.08    8.44
  17  -1   6   19.00    6.58
  17   1   6   20.35    6.68
  17  -1   6   32.78    8.37
  17   1   7   15.88    6.72
  17  -1   7   15.33    6.75
  17   1   7    4.80    3.66
  17  -1   7   12.08    4.01
  17   1   8   43.70    9.17
  17   1   8   37.41    9.00
  17  -1   8   37.98    8.32
  17   1   9   37.57    8.05
  17   1   9   43.85    9.42
  17  -1   9   37.29    8.32
  17   1  10   38.87   12.00
  17   1  10   45.30    9.99
  17  -1  10   36.09    9.01
  17   1  11   58.60   11.30
  17  -1  11   80.15   12.48
  17   1  12   44.09    9.75
  17   1  13   22.69    6.90
  17   1  14   19.90    5.49
  17   1  15    8.89    4.75
  17   1  16   65.23   11.77
  17   1  17   90.73   13.89
  17  -2 -16   12.91    6.36
  17   2 -16   10.60    5.78
  17  -2 -15   19.46    6.58
  17   2 -15   10.96    5.12
  17  -2 -14   15.26    5.19
  17   2 -14    9.61    3.93
  17  -2 -13   12.77    5.20
  17   2 -13   17.53    5.96
  17  -2 -12   11.71    4.36
  17   2 -12   12.67    5.06
  17  -2 -11   -0.51    2.66
  17   2 -11    2.12    3.27
  17   2 -11   -1.96    3.56
  17  -2 -10    6.00    4.59
  17   2 -10   11.92    4.78
  17  -2 -10    3.11    3.45
  17  -2  -9   15.16    4.95
  17   2  -9   21.39    6.19
  17   2  -9   16.68    6.91
  17  -2  -9   18.58    7.21
  17  -2  -8   24.23    6.01
  17   2  -8   35.24    8.24
  17   2  -8   40.98    9.28
  17  -2  -8   37.02    8.10
  17  -2  -7   21.30    6.16
  17   2  -7   11.48    4.34
  17   2  -7   17.95    6.31
  17  -2  -7   17.96    5.74
  17  -2  -6   18.56    4.81
  17   2  -6   14.54    4.93
  17   2  -6    5.96    3.65
  17  -2  -6   13.11    6.19
  17  -2  -5    3.31    2.30
  17   2  -5    8.99    5.18
  17   2  -5   10.56    5.20
  17  -2  -5    4.03    3.40
  17  -2  -5    5.79    3.68
  17  -2  -4    5.33    3.86
  17   2  -4   10.10    4.90
  17   2  -4    8.72    5.18
  17  -2  -4    8.48    3.30
  17  -2  -4    4.85    2.54
  17   2  -3    0.26    3.60
  17   2  -3    2.11    3.15
  17  -2  -3    6.78    6.98
  17  -2  -3   -1.02    3.15
  17  -2  -3    8.26    4.84
  17   2  -2   14.24    4.55
  17   2  -2    3.39    2.09
  17  -2  -2    3.33    2.66
  17  -2  -2    3.41    3.96
  17  -2  -2    8.74    4.23
  17   2  -1   -0.21    2.14
  17   2  -1    6.04    4.80
  17  -2  -1    6.99    5.61
  17  -2  -1    2.09    3.74
  17  -2  -1   12.66    5.27
  17   2   0   -0.75    2.02
  17   2   0    1.96    2.43
  17  -2   0   -2.20    4.83
  17  -2   0   -0.46    3.19
  17  -2   0    3.74    3.72
  17   2   1    7.26    4.53
  17   2   1    3.85    4.38
  17  -2   1   -1.41    3.84
  17  -2   1    5.59    3.69
  17  -2   1    8.16    3.93
  17   2   2   10.94    2.52
  17   2   2    9.75    5.26
  17  -2   2   10.07    6.21
  17  -2   2    6.80    4.97
  17  -2   2   16.66    6.10
  17   2   3    1.15    2.74
  17   2   3    3.56    4.31
  17  -2   3   10.52    5.40
  17  -2   3    2.07    3.61
  17  -2   3    5.55    4.56
  17   2   4   10.22    5.36
  17   2   4    4.29    2.26
  17  -2   4   11.42    5.24
  17  -2   4    0.76    3.00
  17  -2   4    3.85    2.35
  17   2   5    2.90    2.50
  17  -2   5    5.63    3.77
  17   2   5    4.59    2.97
  17  -2   5    0.56    3.71
  17  -2   5    4.58    2.09
  17   2   6   17.73    6.65
  17  -2   6   22.21    7.14
  17   2   6   14.24    5.52
  17  -2   6   17.07    8.68
  17  -2   6   12.38    5.31
  17   2   7   25.96    7.67
  17   2   7   11.96    5.46
  17  -2   7   18.08    4.73
  17   2   8   37.14    8.51
  17   2   8   30.62    8.43
  17  -2   8   33.29    7.00
  17   2   9   28.22    7.76
  17   2   9   18.78    6.40
  17  -2   9   20.24    5.87
  17   2  10   11.44    6.58
  17   2  10    6.21    4.20
  17  -2  10   17.28    6.54
  17   2  11   -1.59    3.63
  17  -2  11    2.02    2.08
  17   2  12   19.64    6.78
  17   2  13    8.86    5.28
  17   2  14    8.96    3.68
  17   2  15    0.42    4.58
  17   2  16    0.41    3.86
  17  -3 -15   39.35    9.05
  17   3 -15   38.94    8.39
  17  -3 -14   21.77    6.97
  17   3 -14   14.33    4.69
  17   3 -14   23.29    8.81
  17  -3 -13   39.47    7.76
  17   3 -13   33.01    8.57
  17   3 -13   48.42    9.77
  17  -3 -12    4.44    1.83
  17   3 -12    9.33    5.95
  17   3 -12   12.52    4.69
  17  -3 -11   11.20    3.76
  17   3 -11   19.15    6.98
  17   3 -11   23.13    6.21
  17   3 -10   71.30   12.05
  17   3 -10   68.33   11.98
  17  -3 -10   72.90   11.29
  17  -3 -10   55.34   10.79
  17  -3  -9   55.40    9.78
  17   3  -9   44.79    9.17
  17   3  -9   41.42    9.48
  17  -3  -9   32.67    8.33
  17  -3  -8   -0.53    2.33
  17  -3  -8    6.76    4.00
  17   3  -8    7.25    4.73
  17   3  -8    0.70    2.75
  17  -3  -7   38.54    8.78
  17  -3  -7   24.50    6.90
  17   3  -7   46.52    9.44
  17   3  -7   43.61    8.64
  17  -3  -6    1.76    2.47
  17  -3  -6   10.21    5.70
  17   3  -6    0.89    1.95
  17   3  -6    5.34    3.40
  17   3  -5   88.51   12.46
  17  -3  -5   91.85   13.48
  17   3  -5   78.08   11.88
  17  -3  -5   67.22   10.55
  17   3  -4   90.78   12.97
  17  -3  -4  109.70   13.51
  17   3  -4  116.85   14.83
  17  -3  -4  101.90   14.45
  17  -3  -4   82.02   11.67
  17  -3  -3   23.37    6.88
  17  -3  -3   17.05    5.77
  17   3  -3   16.07    5.82
  17   3  -3   13.65    5.64
  17  -3  -3   12.65    4.39
  17   3  -2  140.59   16.06
  17  -3  -2  145.20   15.96
  17   3  -2  140.81   16.15
  17  -3  -2  141.02   17.28
  17  -3  -2  114.12   14.13
  17   3  -1  201.19   19.33
  17  -3  -1  179.33   17.63
  17   3  -1  192.62   19.28
  17  -3  -1  220.02   20.24
  17  -3  -1  183.71   17.25
  17  -3   0    3.65    3.10
  17   3   0    8.40    4.56
  17   3   0    1.14    2.44
  17  -3   0    4.87    4.55
  17  -3   0    2.66    2.57
  17   3   1  215.45   19.63
  17  -3   1  225.61   19.87
  17   3   1  162.89   17.42
  17  -3   1  187.60   18.03
  17   3   2  134.65   15.86
  17  -3   2  117.99   14.93
  17   3   2  146.03   16.92
  17  -3   2  123.30   14.53
  17   3   3    5.92    3.64
  17   3   3   15.44    4.30
  17  -3   3   13.08    6.49
  17  -3   3    9.42    4.25
  17   3   4  104.30   14.48
  17  -3   4  123.68   15.44
  17   3   4  112.72   14.20
  17  -3   4  116.16   14.68
  17   3   5   74.72   11.94
  17  -3   5  101.73   15.67
  17   3   5   83.11   12.77
  17  -3   5   69.68   11.24
  17   3   6   10.65    4.77
  17   3   6    6.41    3.00
  17  -3   6    7.51    3.91
  17   3   7   49.47   10.27
  17   3   7   38.99    9.97
  17  -3   7   32.31    6.45
  17   3   8   -0.90    3.21
  17   3   8    9.55    5.53
  17  -3   8    3.98    4.74
  17   3   9   43.90   10.55
  17   3   9   30.78    8.30
  17  -3   9   37.02    8.03
  17   3  10   65.86   12.21
  17   3  10   68.29   11.24
  17  -3  10   83.24   11.83
  17   3  11   24.84    7.84
  17   3  11   10.30    4.50
  17  -3  11    8.24    6.15
  17   3  12   13.83    6.12
  17   3  12    6.28    5.11
  17  -3  12    9.03    5.18
  17   3  13   22.00    6.35
  17  -3  13   27.47    6.69
  17   3  14   36.24    9.12
  17  -3  14   15.33    5.91
  17   3  15   50.08    9.69
  17  -3  15   53.15    9.91
  17  -4 -14   50.98    9.41
  17   4 -14   41.94    9.13
  17   4 -14   49.71   10.62
  17   4 -13   66.79   11.72
  17   4 -13   66.86   11.11
  17  -4 -13   57.60   10.70
  17  -4 -12   14.25    5.77
  17   4 -12   -1.04    4.94
  17   4 -12   13.60    4.28
  17  -4 -11   25.59    7.02
  17   4 -11   30.68    8.67
  17   4 -11   26.74    8.80
  17  -4 -10    6.74    3.34
  17  -4 -10    8.92    5.11
  17   4 -10    7.40    3.94
  17   4 -10    6.54    3.38
  17  -4  -9    2.36    3.38
  17  -4  -9    5.19    3.49
  17   4  -9    9.95    2.80
  17   4  -9    0.78    2.84
  17  -4  -8    7.23    4.77
  17  -4  -8    4.15    4.84
  17   4  -8   13.27    5.86
  17   4  -8    2.78    3.31
  17  -4  -7    4.94    4.11
  17  -4  -7   -0.44    3.36
  17   4  -7   -0.82    3.48
  17   4  -7   -1.62    2.71
  17  -4  -6   32.84    7.52
  17  -4  -6   20.32    6.13
  17   4  -6   35.78    8.37
  17   4  -6   24.74    5.96
  17  -4  -5   60.80    9.92
  17  -4  -5   40.61    8.25
  17   4  -5   42.97    8.79
  17   4  -5   60.08   10.10
  17  -4  -4   10.49    4.95
  17  -4  -4    2.18    3.34
  17   4  -4   12.58    6.39
  17   4  -4    6.68    5.49
  17  -4  -3    5.76    3.96
  17  -4  -3   15.81    5.87
  17   4  -3   14.03    4.91
  17   4  -3    9.89    5.77
  17  -4  -2   38.09    8.87
  17  -4  -2   20.89    5.32
  17   4  -2   51.07   10.37
  17   4  -2   39.98    7.83
  17  -4  -1   27.51    7.62
  17  -4  -1   25.76    7.19
  17   4  -1   46.61    9.52
  17   4  -1   40.08    8.63
  17  -4   0   21.55    6.42
  17  -4   0   28.24    6.57
  17   4   0   39.55    8.86
  17   4   0   22.16    6.92
  17  -4   1   40.36    8.96
  17  -4   1   37.96    8.62
  17   4   1   38.96    8.91
  17   4   1   28.93    7.57
  17  -4   2   39.75    8.83
  17  -4   2   29.37    7.61
  17   4   2   36.41    8.63
  17   4   2   54.74   10.75
  17  -4   3   12.38    5.18
  17  -4   3   14.84    6.07
  17   4   3   21.45    6.62
  17   4   3   19.08    7.08
  17  -4   4   14.40    5.08
  17   4   4   15.73    7.10
  17   4   4   10.17    5.03
  17   4   5   56.00   10.03
  17   4   5   58.25   10.32
  17  -4   5   69.15   11.65
  17   4   6   25.23    7.80
  17   4   6   15.90    5.30
  17   4   7   -3.14    3.28
  17   4   7    1.06    4.11
  17  -4   7    3.46    1.95
  17   4   8   10.94    5.69
  17   4   8    4.33    2.87
  17  -4   8    5.66    4.84
  17   4   9   13.99    5.98
  17   4   9    9.13    5.65
  17  -4   9    3.07    3.41
  17   4  10   16.77    6.40
  17   4  10   13.32    5.97
  17  -4  10    6.25    3.55
  17   4  11   15.09    5.86
  17   4  11   17.76    5.32
  17  -4  11   25.01    6.68
  17   4  12   29.77    8.49
  17   4  12   26.23    6.65
  17  -4  12   11.56    6.25
  17   4  13   78.37   12.50
  17  -4  13   67.03   10.93
  17   4  13   88.46   15.54
  17   4  14   48.94   10.15
  17  -4  14   66.53   11.51
  17  -5 -11   20.43    4.26
  17  -5 -11   23.12    6.21
  17   5 -11   19.91    6.34
  17   5 -11   20.75    6.98
  17  -5 -10   78.31   11.90
  17   5 -10   80.78   11.93
  17   5 -10   81.10   12.36
  17  -5 -10   81.01   12.85
  17  -5  -9   18.49    7.07
  17  -5  -9   20.41    6.49
  17   5  -9   16.10    5.68
  17   5  -9   21.11    7.24
  17  -5  -8    4.99    3.86
  17  -5  -8   14.90    5.68
  17   5  -8    3.59    2.95
  17   5  -8   11.82    6.02
  17   5  -7   77.99   12.76
  17   5  -7   74.46   12.41
  17  -5  -7   64.98   10.83
  17  -5  -7   70.32   11.40
  17   5  -6   92.90   13.42
  17   5  -6   92.25   13.48
  17  -5  -6   86.53   12.82
  17  -5  -6   72.54   11.64
  17  -5  -5   24.34    6.73
  17  -5  -5   20.38    6.15
  17   5  -5   41.68    8.82
  17   5  -5   26.48    8.03
  17  -5  -4   10.40    5.13
  17  -5  -4   16.36    6.60
  17   5  -4    8.26    4.21
  17   5  -4   24.16    7.14
  17  -5  -3   27.45    7.54
  17  -5  -3   12.89    4.02
  17   5  -3   36.55    7.69
  17   5  -3   27.42    8.46
  17  -5  -2    9.03    3.73
  17  -5  -2   23.88    6.23
  17   5  -2   10.32    5.82
  17   5  -2   21.39    7.16
  17  -5  -1   37.15    8.45
  17  -5  -1   35.77    8.57
  17   5  -1   42.08    9.49
  17   5  -1   41.58    9.65
  17  -5   0   49.42    9.64
  17   5   0   39.57    9.71
  17   5   0   54.80   10.03
  17  -5   0   58.32   10.41
  17  -5   1   31.63    7.18
  17  -5   1   25.85    7.10
  17   5   1   39.46    9.27
  17   5   1   26.79    7.82
  17  -5   2   10.73    5.74
  17  -5   2   16.87    6.53
  17   5   2   11.36    5.53
  17   5   2   14.35    7.04
  17  -5   3   18.33    6.10
  17   5   3   21.33    6.68
  17   5   3   30.90    8.35
  17  -5   4   15.25    4.80
  17   5   4    2.60    3.37
  17   5   4    9.24    5.24
  17  -5   5   27.46    6.67
  17   5   5   18.41    5.84
  17   5   5   25.50    7.94
  17   5   6   88.67   13.52
  17   5   6  107.71   14.40
  17  -5   6  106.41   14.01
  17   5   7   82.50   13.20
  17  -5   7   49.78    9.53
  17   5   7   72.21   11.94
  17  -5   8   17.80    6.38
  17   5   8   10.67    3.45
  17   5   8   11.64    5.78
  17  -5   9   24.12    6.19
  17   5   9   13.33    6.28
  17   5   9   24.67    7.08
  17   5  10  102.04   13.85
  17  -5  10   93.24   12.94
  17   5  10   92.56   14.29
  17   5  11   18.74    7.89
  17   5  11   45.60    8.84
  17  -5  11   31.98    8.12
  17  -6  -7    8.68    7.59
  17   6  -7    6.78    3.39
  17  -6  -7   12.37    4.98
  17   6  -7    8.83    6.47
  17  -6  -6    9.69    5.30
  17   6  -6   21.27    7.64
  17  -6  -6    4.88    4.24
  17   6  -6   11.41    7.19
  17  -6  -5    6.19    3.76
  17   6  -5    4.17    3.75
  17  -6  -5    6.59    4.65
  17   6  -5   12.45    5.44
  17  -6  -4    5.54    3.82
  17   6  -4   15.54    5.66
  17  -6  -4   12.03    4.28
  17   6  -4    8.85    5.64
  17  -6  -3   21.66    5.82
  17   6  -3   29.82    8.22
  17  -6  -3    9.99    3.58
  17   6  -3   19.22    6.25
  17  -6  -2    7.88    4.20
  17   6  -2   10.83    4.83
  17  -6  -2   11.34    6.69
  17   6  -2    4.35    2.49
  17  -6  -1   -0.99    4.53
  17   6  -1   -3.00    3.42
  17  -6  -1    6.04    2.54
  17   6  -1    2.76    3.76
  17  -6   0    7.61    4.35
  17   6   0   11.10    6.55
  17  -6   0    3.73    3.01
  17   6   0    5.85    2.33
  17  -6   1    0.60    2.38
  17   6   1    8.13    6.31
  17   6   1    0.43    3.76
  17  -6   2    9.04    4.32
  17   6   2   12.65    6.23
  17   6   2    9.10    4.74
  17  -6   3   15.99    6.19
  17   6   3   21.05    6.13
  17   6   3   18.02    6.32
  17   6   4    4.98    2.83
  17   6   4   10.60    5.51
  17  -6   5    4.17    3.71
  17   6   5    9.07    2.90
  17  -6   6   10.99    5.78
  17   6   6    8.24    4.97
  17   6   6    6.41    3.30
  17  -6   7   14.01    6.39
  17   6   7    9.36    5.47
  17   6   7    3.14    4.68
  18   0 -14    1.83    3.42
  18   0 -13   93.57   13.39
  18   0 -12  120.69   15.05
  18   0 -11  618.41   33.97
  18   0 -10  113.17   15.24
  18   0  -9  110.84   14.32
  18   0  -8   47.04    9.68
  18   0  -8   31.48    7.60
  18   0  -7   32.58    8.06
  18   0  -7   22.29    6.54
  18   0  -6   11.98    4.10
  18   0  -6   15.71    5.39
  18   0  -5  179.67   18.25
  18   0  -5  221.21   21.10
  18   0  -4  289.66   22.73
  18   0  -4  267.36   22.60
  18   0  -3  198.90   18.85
  18   0  -3  207.07   20.56
  18   0  -2   85.59   12.46
  18   0  -2   57.64   11.10
  18   0  -1   76.31   11.75
  18   0  -1   93.46   12.85
  18   0   0  105.85   14.07
  18   0   0   84.28   12.45
  18   0   1   77.50   11.96
  18   0   1   72.65   11.83
  18   0   2   66.43   10.41
  18   0   2   90.86   13.52
  18   0   3  221.12   20.29
  18   0   3  203.68   19.23
  18   0   4  260.80   22.26
  18   0   4  271.83   22.68
  18   0   5  178.73   18.50
  18   0   5  204.19   19.73
  18   0   6   10.89    4.33
  18   0   6    4.08    4.91
  18   0   7   24.25    7.99
  18   0   7   23.17    7.28
  18   0   8   24.46    9.08
  18   0   8   40.29    9.42
  18   0   9  108.82   14.51
  18   0  10   84.19   12.53
  18   0  11  527.79   32.42
  18   0  12   97.86   14.42
  18   0  13   92.93   13.86
  18   0  14    4.73    4.90
  18   0  15   32.82    8.01
  18  -1 -15   75.04   12.64
  18   1 -15   42.10    9.16
  18   1 -14    4.35    2.55
  18  -1 -14    0.81    3.07
  18   1 -13   12.28    6.08
  18  -1 -13    8.60    4.50
  18   1 -12    1.32    2.66
  18  -1 -12   -0.96    4.36
  18   1 -11    5.68    3.71
  18  -1 -11    7.08    3.73
  18  -1 -10   80.35   11.77
  18   1 -10   60.17   10.69
  18   1 -10   58.78   10.37
  18   1  -9   -4.27    4.76
  18   1  -9    9.69    5.14
  18  -1  -9   12.95    6.77
  18   1  -8    3.34    4.37
  18   1  -8    7.07    4.11
  18  -1  -8    4.53    4.24
  18   1  -7    6.41    3.51
  18   1  -7    5.86    3.44
  18  -1  -7    8.11    4.48
  18  -1  -7    6.10    5.13
  18   1  -6   49.25    9.61
  18  -1  -6   71.98   12.03
  18   1  -6   58.07   10.53
  18  -1  -6   43.47    9.52
  18   1  -5   -4.07    4.06
  18   1  -5   -0.45    2.35
  18  -1  -5    5.40    3.58
  18  -1  -5    0.55    3.13
  18  -1  -5    7.19    5.54
  18   1  -4    0.87    2.02
  18   1  -4    0.99    2.86
  18  -1  -4   -0.68    2.97
  18  -1  -4    4.15    4.72
  18  -1  -4    0.13    3.32
  18   1  -3    1.52    2.17
  18   1  -3    3.18    2.62
  18  -1  -3    3.39    2.31
  18  -1  -3   -0.07    4.20
  18  -1  -3    1.60    4.44
  18   1  -2    2.71    4.26
  18  -1  -2   -1.35    4.37
  18   1  -2    3.63    3.95
  18  -1  -2   -2.08    2.69
  18  -1  -2    4.65    2.28
  18   1  -1    4.49    4.51
  18  -1  -1    6.04    2.75
  18   1  -1    6.42    2.92
  18  -1  -1    0.97    2.38
  18  -1  -1   10.53    5.73
  18   1   0   -1.01    2.56
  18  -1   0    3.52    2.59
  18   1   0    4.56    3.80
  18  -1   0    7.58    4.28
  18   1   1   11.30    5.37
  18  -1   1    1.18    3.08
  18   1   1   10.54    5.21
  18  -1   1   12.42    5.26
  18  -1   1   16.52    6.84
  18   1   2   -2.43    3.31
  18  -1   2    3.51    5.57
  18   1   2    2.39    2.83
  18  -1   2    4.19    3.69
  18   1   3    1.82    3.80
  18  -1   3   -0.24    2.48
  18   1   3   -2.00    3.64
  18  -1   3    0.02    2.85
  18   1   4   -1.26    3.93
  18  -1   4   -0.33    4.27
  18   1   4   -2.85    2.64
  18  -1   4   -1.12    5.39
  18   1   5    1.35    3.82
  18  -1   5    2.38    2.51
  18   1   5    3.54    5.52
  18  -1   5   -1.46    2.67
  18   1   6   46.04    9.88
  18  -1   6   60.24   10.80
  18   1   6   50.22   10.64
  18  -1   6   53.36   11.00
  18   1   7   13.03    4.80
  18   1   7    8.57    2.16
  18  -1   7   12.99    7.82
  18   1   8    1.54    2.46
  18   1   8    1.73    2.08
  18  -1   8    8.48    2.89
  18   1   9    5.32    2.97
  18   1   9    1.18    2.76
  18  -1   9    3.52    3.86
  18   1  10   70.16   11.75
  18   1  11   23.46    8.17
  18   1  12   15.17    6.93
  18   1  13   10.37    6.70
  18   1  14   -7.55    5.01
  18   1  15   59.02   11.49
  18  -2 -14   25.32    7.34
  18   2 -14    8.85    5.79
  18  -2 -13   17.31    7.76
  18   2 -13   31.68    7.98
  18   2 -13   25.31    7.24
  18  -2 -12    4.27    4.36
  18   2 -12   12.15    4.80
  18   2 -12    2.31    3.76
  18   2 -11   54.58   10.33
  18  -2 -11   81.08   12.13
  18   2 -11   63.50   11.05
  18   2 -10  108.66   14.38
  18  -2 -10  117.35   14.78
  18   2 -10   78.76   12.51
  18  -2  -9   -2.35    4.44
  18   2  -9   -0.21    4.75
  18   2  -9    1.38    2.57
  18  -2  -9   -0.32    4.21
  18  -2  -8    7.36    4.16
  18   2  -8    4.53    4.70
  18   2  -8   10.69    4.66
  18  -2  -8    2.86    5.37
  18  -2  -7    2.49    2.91
  18   2  -7    2.35    4.29
  18   2  -7    8.47    5.82
  18  -2  -7   11.06    5.73
  18   2  -6   70.90   11.54
  18  -2  -6   59.29   10.72
  18   2  -6   91.26   13.38
  18  -2  -6   63.40   11.42
  18  -2  -6   63.38   10.80
  18   2  -5  124.24   14.90
  18  -2  -5   72.12   11.96
  18   2  -5  104.98   13.35
  18  -2  -5   86.14   13.83
  18  -2  -5   93.23   12.83
  18   2  -4   97.17   14.01
  18  -2  -4  109.42   14.21
  18   2  -4   94.04   13.61
  18  -2  -4   85.41   13.00
  18  -2  -4   94.44   13.11
  18   2  -3   11.52    3.75
  18   2  -3   10.25    4.16
  18  -2  -3   13.46    5.60
  18  -2  -3    8.12    3.11
  18   2  -2   43.45    9.56
  18   2  -2   32.77    8.32
  18  -2  -2   38.30    8.21
  18  -2  -2   41.53    9.40
  18  -2  -2   36.11    9.41
  18   2  -1  137.79   16.29
  18  -2  -1  112.24   14.44
  18   2  -1  113.89   14.91
  18  -2  -1  108.69   14.46
  18  -2  -1  132.56   15.47
  18   2   0  153.62   16.96
  18  -2   0  141.97   16.44
  18   2   0  143.92   16.39
  18  -2   0  168.15   17.91
  18  -2   0  142.47   15.33
  18   2   1  115.33   14.75
  18  -2   1  115.64   14.04
  18   2   1  110.50   14.66
  18  -2   1  116.16   15.05
  18  -2   1  135.18   15.84
  18   2   2   47.23    9.44
  18   2   2   44.43    9.17
  18  -2   2   42.39    8.75
  18  -2   2   32.93    8.29
  18  -2   2   27.43    7.90
  18   2   3    7.94    4.62
  18  -2   3   17.29    6.97
  18   2   3   13.95    6.56
  18  -2   3    8.07    4.56
  18  -2   3    9.19    3.11
  18   2   4   88.32   13.34
  18  -2   4   83.56   12.10
  18   2   4   65.44   11.64
  18  -2   4  104.40   14.14
  18  -2   4   88.85   12.12
  18   2   5  112.75   14.36
  18  -2   5  102.47   14.04
  18   2   5   91.79   13.57
  18  -2   5   92.31   12.03
  18   2   6   69.04   11.73
  18   2   6   66.05   10.92
  18  -2   6   84.05   11.89
  18   2   7    6.49    2.64
  18   2   7    5.74    5.01
  18  -2   7    9.72    3.27
  18   2   8    3.18    4.54
  18   2   8    0.70    2.07
  18  -2   8    3.61    4.34
  18   2   9   -6.01    3.89
  18   2   9   -1.52    4.55
  18  -2   9    1.34    2.89
  18   2  10   63.06   11.63
  18   2  10   86.35   13.83
  18   2  11   63.25   11.21
  18   2  12   11.49    6.65
  18   2  13   27.10    7.91
  18   2  14   18.21    7.63
  18  -3 -13   52.92   10.44
  18   3 -13   40.87    9.38
  18   3 -13   55.19   11.08
  18   3 -12   39.24   10.08
  18  -3 -12   68.16   11.70
  18   3 -12   53.70    9.81
  18  -3 -11    3.92    5.25
  18   3 -11    2.98    5.10
  18   3 -11   -1.61    3.62
  18  -3 -10   14.16    5.70
  18   3 -10    0.22    4.09
  18   3 -10   12.04    5.62
  18  -3  -9    4.32    4.70
  18   3  -9    9.61    5.05
  18   3  -9    9.22    4.02
  18  -3  -9    8.97    4.82
  18  -3  -8   -0.84    4.06
  18   3  -8   -3.84    4.01
  18   3  -8   -0.82    3.80
  18  -3  -8   -2.95    3.56
  18  -3  -7    7.27    5.29
  18   3  -7    3.73    3.13
  18   3  -7   19.06    7.66
  18  -3  -7   12.69    4.10
  18   3  -6   93.92   13.19
  18  -3  -6  116.24   14.39
  18   3  -6  118.03   15.47
  18  -3  -6   96.80   13.07
  18  -3  -5    7.64    5.10
  18   3  -5    2.66    3.85
  18   3  -5   10.70    4.61
  18  -3  -5    6.20    5.43
  18  -3  -5    2.26    3.63
  18  -3  -4   29.95    8.14
  18   3  -4   20.96    5.91
  18   3  -4   33.25    9.02
  18  -3  -4   33.03    8.38
  18  -3  -4   17.39    7.06
  18  -3  -3    0.02    3.39
  18   3  -3    2.54    3.13
  18   3  -3   -2.38    4.76
  18  -3  -3    5.36    5.00
  18  -3  -3   -0.51    3.81
  18  -3  -2    3.28    4.03
  18   3  -2   -1.99    3.30
  18   3  -2    4.58    5.37
  18  -3  -2    3.26    3.46
  18  -3  -2    0.74    2.73
  18   3  -1    3.22    3.53
  18   3  -1   -0.05    3.39
  18  -3  -1   -3.21    4.15
  18  -3  -1    2.16    4.26
  18   3   0   13.84    6.81
  18   3   0    5.87    4.35
  18  -3   0    4.31    4.13
  18  -3   0   20.88    6.71
  18   3   1   -0.94    3.45
  18   3   1    0.49    1.93
  18  -3   1   -0.63    3.59
  18  -3   1    3.31    4.79
  18   3   2   -0.79    2.96
  18   3   2   -0.19    2.18
  18  -3   2    0.90    4.32
  18  -3   2   10.70    4.56
  18   3   3    3.07    3.68
  18   3   3   -1.84    3.95
  18  -3   3    2.31    3.24
  18  -3   3   -2.16    3.15
  18   3   4   24.97    7.62
  18   3   4   32.79    8.49
  18  -3   4   40.54    9.18
  18  -3   4   26.97    6.47
  18   3   5   -1.10    2.75
  18  -3   5    1.09    3.18
  18   3   6  120.29   15.85
  18   3   6   89.31   13.55
  18  -3   6  143.01   15.77
  18   3   7    5.69    6.16
  18   3   7    5.49    4.59
  18  -3   7   13.22    5.40
  18   3   8    2.74    2.58
  18  -3   8   -0.29    2.21
  18   3   9    0.78    4.62
  18   3   9    9.34    4.51
  18  -3   9    5.86    4.90
  18   3  10   15.95    6.56
  18   3  10    8.87    4.74
  18  -3  10    5.90    2.89
  18   3  11    2.20    2.71
  18   3  11    7.35    5.14
  18  -3  11   -2.46    2.88
  18   3  12   38.15    8.85
  18  -3  12   48.74    9.72
  18   3  13   54.63   10.86
  18  -3  13   56.33   10.46
  18   4 -10   83.82   13.35
  18   4 -10  101.63   14.93
  18  -4 -10   95.26   13.82
  18  -4 -10  104.61   14.98
  18  -4  -9   15.39    6.57
  18  -4  -9   20.86    6.59
  18   4  -9   15.51    6.13
  18   4  -9    0.09    4.14
  18  -4  -8   10.03    5.91
  18  -4  -8    8.55    4.41
  18   4  -8    6.62    6.24
  18   4  -8    2.13    3.14
  18   4  -7   92.65   13.41
  18   4  -7   84.89   13.41
  18  -4  -7   74.06   11.52
  18  -4  -7  109.29   14.64
  18   4  -6  171.21   18.48
  18   4  -6  202.73   20.98
  18  -4  -6  203.08   19.82
  18  -4  -6  191.68   18.76
  18   4  -5  114.96   15.18
  18   4  -5   85.36   13.56
  18  -4  -5   94.27   13.55
  18  -4  -5   93.23   12.84
  18  -4  -4    6.12    3.83
  18  -4  -4    4.81    4.74
  18   4  -4   13.46    4.60
  18   4  -4    9.67    4.63
  18  -4  -3   -1.75    3.36
  18  -4  -3    0.84    4.02
  18   4  -3    0.80    3.33
  18   4  -3   -1.75    2.61
  18  -4  -2    3.27    2.64
  18  -4  -2    5.46    3.38
  18   4  -2    8.93    4.56
  18   4  -2    7.74    4.44
  18   4  -1  107.73   14.51
  18  -4  -1  119.30   14.62
  18   4  -1  117.76   14.81
  18  -4  -1  119.78   14.89
  18   4   0  150.94   17.35
  18  -4   0  138.52   16.04
  18   4   0  150.20   17.23
  18  -4   0  183.63   17.96
  18   4   1  117.47   15.62
  18  -4   1  113.49   14.26
  18   4   1  116.75   15.33
  18  -4   1  114.27   14.30
  18  -4   2    0.29    3.10
  18   4   2   -4.53    5.52
  18   4   2    5.54    3.25
  18  -4   2    8.02    6.29
  18  -4   3   -1.95    3.44
  18   4   3   -2.02    4.93
  18   4   3    2.00    3.96
  18   4   4    2.02    4.82
  18   4   4    2.98    2.64
  18  -4   4    4.51    4.95
  18   4   5  102.56   14.50
  18   4   5  122.16   15.16
  18  -4   5  101.15   13.25
  18   4   6  188.37   19.08
  18   4   6  185.98   18.99
  18   4   7   87.85   13.97
  18   4   7   94.21   13.83
  18  -4   7   65.35   10.19
  18   4   8    1.22    2.63
  18   4   8    5.40    5.39
  18  -4   8   -0.06    2.66
  18   4   9   10.32    5.59
  18   4   9   13.63    6.82
  18  -4   9   10.31    5.16
  18   4  10   89.34   14.30
  18   4  10   75.15   12.13
  18  -4  10   82.68   12.41
  18  -5  -7    1.92    4.83
  18  -5  -7   -1.05    4.34
  18   5  -7    3.80    5.10
  18   5  -7   -1.41    3.13
  18  -5  -6    6.23    2.53
  18  -5  -6   12.53    5.14
  18   5  -6    7.11    2.91
  18  -5  -5    4.55    5.49
  18  -5  -5    1.23    2.21
  18   5  -5    0.79    3.78
  18   5  -5    3.54    5.16
  18  -5  -4   20.12    6.63
  18  -5  -4    8.86    4.80
  18   5  -4    3.62    3.31
  18   5  -4   22.79    6.74
  18  -5  -3    4.57    4.97
  18  -5  -3   -0.56    2.27
  18   5  -3   -0.42    2.37
  18  -5  -2    4.26    2.26
  18  -5  -2   12.70    6.27
  18   5  -2    7.65    5.36
  18   5  -2   16.47    5.88
  18  -5  -1    9.76    4.58
  18  -5  -1    4.06    3.30
  18   5  -1    8.52    4.43
  18   5  -1   13.47    6.67
  18  -5   0   -2.50    3.28
  18  -5   0    5.30    5.44
  18   5   0    7.32    5.49
  18   5   0   -1.74    4.10
  18  -5   1    6.56    5.28
  18  -5   1   -0.23    4.60
  18   5   1   10.09    6.46
  18   5   1    4.75    3.34
  18  -5   2   10.33    6.06
  18   5   2    5.80    3.56
  18   5   2    3.60    3.32
  18  -5   3    2.00    2.65
  18   5   3    3.86    2.51
  18   5   3    2.22    3.24
  18  -5   4   15.19    4.88
  18   5   4   17.70    5.33
  18   5   4    7.41    4.29
  18  -5   5    0.11    2.87
  18   5   5    1.50    3.60
  18   5   5   -2.93    4.50
  18  -5   6    4.89    3.84
  18   5   6    5.93    3.49
  18   5   6    4.64    3.19
  18  -5   7    6.16    3.90
  18   5   7   -3.20    3.13
  18   5   7    1.02    3.58
  19   0 -12    4.59    4.41
  19   0 -11    3.45    4.70
  19   0 -10   -1.35    2.30
  19   0 -10    1.85    3.84
  19   0  -9   -1.65    2.31
  19   0  -9   -1.27    4.66
  19   0  -8   -2.38    3.82
  19   0  -8    2.89    4.48
  19   0  -7    1.45    2.88
  19   0  -7   -1.52    3.28
  19   0  -6    1.96    4.10
  19   0  -6   -2.42    3.83
  19   0  -5   -1.44    3.12
  19   0  -5    5.80    3.18
  19   0  -4   -1.84    4.33
  19   0  -4   -0.32    3.24
  19   0  -3    0.08    2.47
  19   0  -3   -1.56    4.02
  19   0  -2   -0.94    4.76
  19   0  -2   -1.19    3.10
  19   0  -1   -0.81    4.00
  19   0  -1   -2.15    3.75
  19   0   0   -3.70    2.60
  19   0   0   -1.22    5.13
  19   0   1   -1.52    2.45
  19   0   1   -0.17    5.48
  19   0   2    1.06    4.87
  19   0   2    2.12    3.49
  19   0   3    0.02    4.94
  19   0   3    2.59    4.88
  19   0   4    0.75    3.69
  19   0   4   -0.69    3.28
  19   0   5    4.46    4.49
  19   0   5   -2.82    5.55
  19   0   6   -4.05    2.61
  19   0   6   -4.17    4.87
  19   0   7   -2.51    5.23
  19   0   7   -5.19    4.84
  19   0   8    2.75    5.04
  19   0   9    2.09    4.35
  19   0  10    2.38    4.62
  19   0  11    1.73    5.80
  19   0  12    0.78    4.77
  19   1 -11   64.58   11.74
  19  -1 -11   88.63   13.19
  19   1 -11   72.53   11.84
  19   1 -10  153.39   17.43
  19  -1 -10  147.01   17.24
  19   1 -10  186.80   19.87
  19   1  -9   45.65    9.66
  19   1  -9   28.95    8.79
  19  -1  -9   32.36    9.01
  19  -1  -9   33.40    8.02
  19   1  -8   19.47    6.17
  19   1  -8   15.90    6.06
  19  -1  -8   15.59    5.28
  19  -1  -8   12.33    5.49
  19   1  -7   41.80    8.76
  19   1  -7   49.03   11.76
  19  -1  -7   49.37   10.93
  19  -1  -7   43.35    9.59
  19   1  -6   69.81   11.65
  19  -1  -6   68.25   11.71
  19   1  -6  112.24   15.36
  19  -1  -6   95.49   14.77
  19   1  -5   91.67   13.02
  19  -1  -5  102.36   13.95
  19   1  -5   96.90   14.26
  19  -1  -5   93.62   13.53
  19   1  -4   44.24    8.98
  19  -1  -4   26.90    6.95
  19   1  -4   34.14    8.71
  19  -1  -4   29.22    7.28
  19  -1  -3    8.27    3.28
  19   1  -3   13.96    5.04
  19   1  -2   71.36   11.15
  19  -1  -2   82.17   12.74
  19   1  -2   70.23   11.33
  19  -1  -2   85.61   14.09
  19   1  -1  104.31   13.68
  19  -1  -1   99.99   13.97
  19   1  -1  118.19   14.80
  19  -1  -1  110.26   14.88
  19   1   0   33.90    8.41
  19  -1   0   34.82    8.36
  19   1   0   31.85    8.91
  19  -1   0   24.62    7.45
  19   1   1   91.11   13.79
  19  -1   1  110.46   14.51
  19   1   1  102.06   14.54
  19  -1   1   71.25   12.04
  19   1   2  105.62   13.97
  19  -1   2   79.11   12.36
  19   1   2   63.81   11.19
  19  -1   2   99.98   13.58
  19   1   3   26.55    7.76
  19  -1   3   26.07    8.62
  19   1   3   16.45    6.57
  19  -1   3   27.67    6.99
  19   1   4   24.09    6.75
  19  -1   4   46.95    9.85
  19   1   4   36.48    8.85
  19  -1   4   27.21    6.75
  19   1   5   92.09   13.52
  19  -1   5   82.95   12.15
  19   1   5   95.67   14.32
  19  -1   5   93.08   14.46
  19   1   6   71.93   13.16
  19  -1   6   87.55   14.33
  19   1   6   85.20   13.19
  19  -1   6   73.16   12.11
  19   1   7   50.39   10.56
  19   1   7   52.76   10.91
  19  -1   7   37.14    8.48
  19   1   8   28.23    8.65
  19   1   8    8.39    4.79
  19  -1   8   19.32    7.74
  19   1   9   23.47    7.54
  19   1  10  149.36   17.99
  19   1  11   37.26    8.58
  19   2 -11   15.42    4.90
  19   2 -11   22.26    6.79
  19  -2 -11   11.86    4.37
  19   2 -10    1.61    4.33
  19   2 -10    6.77    4.75
  19  -2 -10   15.95    6.81
  19   2  -9    5.43    2.76
  19   2  -9   -3.26    4.62
  19  -2  -9    5.07    4.51
  19   2  -8    6.92    2.74
  19   2  -8   14.17    7.30
  19  -2  -8    1.07    4.60
  19  -2  -8    3.99    2.67
  19  -2  -8   10.00    5.47
  19   2  -7   13.87    5.82
  19   2  -7   23.66    7.20
  19  -2  -7   23.89    8.52
  19  -2  -7   14.08    6.82
  19  -2  -7   14.54    4.91
  19   2  -6   34.12    8.13
  19   2  -6   40.04    9.76
  19  -2  -6   60.13   11.84
  19  -2  -6   46.30    9.21
  19  -2  -6   51.69    9.89
  19   2  -5   50.41   10.04
  19   2  -5   55.26   10.82
  19  -2  -5   48.62    9.72
  19  -2  -5   44.23    9.60
  19  -2  -5   35.45    8.81
  19   2  -4   17.74    7.53
  19   2  -4   34.60    7.57
  19  -2  -4   40.86    8.47
  19  -2  -4   37.48    9.08
  19  -2  -4   28.46    7.18
  19   2  -3   17.88    7.20
  19  -2  -3    7.84    3.04
  19  -2  -3   15.43    5.49
  19  -2  -3   12.31    6.60
  19   2  -2   15.45    6.79
  19   2  -2   17.95    7.32
  19  -2  -2    3.41    4.11
  19  -2  -2    7.05    2.91
  19  -2  -2   15.08    6.46
  19   2  -1    9.82    2.66
  19   2  -1   12.14    5.76
  19  -2  -1    9.63    5.90
  19  -2  -1   20.32    7.54
  19  -2  -1   17.49    6.59
  19   2   0   17.49    6.95
  19   2   0    8.47    6.13
  19  -2   0    7.00    4.21
  19  -2   0    3.03    4.21
  19  -2   0   11.05    2.92
  19   2   1   11.89    4.33
  19  -2   1   17.26    4.47
  19   2   1    5.54    5.16
  19  -2   1    3.24    3.22
  19  -2   1    8.28    3.84
  19   2   2    4.80    4.31
  19  -2   2   17.73    5.90
  19   2   2    7.15    4.96
  19  -2   2   13.38    6.12
  19  -2   2   14.48    6.34
  19   2   3   33.29    7.80
  19  -2   3   30.77    8.27
  19   2   3   17.47    6.34
  19  -2   3   27.81   11.17
  19  -2   3   16.72    6.21
  19   2   4   35.58    9.85
  19  -2   4   28.55    8.87
  19   2   4   27.87    7.91
  19  -2   4   24.54    5.87
  19   2   5   49.86    9.88
  19   2   5   48.78    9.51
  19  -2   5   40.87    8.78
  19   2   6   38.85    9.73
  19   2   6   47.03   10.46
  19  -2   6   28.03    7.66
  19   2   7   14.61    6.01
  19   2   7   16.73    7.70
  19  -2   7    8.73    3.97
  19   2   8    1.71    4.44
  19   2   8   -2.25    5.16
  19   2   9    7.80    6.86
  19   2   9    8.67    4.83
  19   2  10    1.70    3.66
  19   2  11   23.35    8.03
  19  -3  -9   34.29    8.60
  19   3  -9   29.73    6.65
  19   3  -9   20.64    7.12
  19  -3  -9   19.88    6.34
  19  -3  -8   36.87    8.30
  19   3  -8   49.45    9.90
  19   3  -8   49.09    9.75
  19  -3  -8   42.48    9.46
  19  -3  -7    7.46    3.98
  19   3  -7   15.36    4.48
  19   3  -7   16.56    6.77
  19  -3  -7   13.92    6.65
  19  -3  -7   18.77    6.03
  19  -3  -6   15.68    4.53
  19   3  -6   10.80    4.82
  19   3  -6    5.60    5.80
  19  -3  -6    8.88    3.88
  19  -3  -6   16.23    5.77
  19  -3  -5   30.37    7.69
  19   3  -5   36.74    8.55
  19   3  -5   26.76    7.37
  19  -3  -5   21.27    6.49
  19  -3  -5   25.64    6.03
  19  -3  -4    7.05    6.07
  19   3  -4   17.58    4.71
  19   3  -4   15.14    5.74
  19  -3  -4   14.90    5.60
  19  -3  -4   21.19    5.70
  19   3  -3   16.20    5.06
  19   3  -3   18.71    6.19
  19  -3  -3    8.70    4.83
  19  -3  -3    7.16    4.57
  19   3  -2   29.34    8.52
  19   3  -2   20.55    6.67
  19  -3  -2   25.78    7.07
  19  -3  -2   35.38    8.11
  19   3  -1   16.01    5.91
  19   3  -1   12.87    6.50
  19  -3  -1   10.61    6.35
  19  -3  -1   14.76    7.33
  19   3   0   11.93    5.96
  19   3   0    3.44    3.00
  19  -3   0    7.44    5.07
  19  -3   0   -2.23    3.70
  19   3   1   13.04    6.09
  19   3   1   11.33    5.81
  19  -3   1    8.05    4.06
  19  -3   1   18.31    6.28
  19   3   2   37.68    9.86
  19   3   2   32.33    8.47
  19  -3   2   31.43    7.98
  19  -3   2   41.70    9.13
  19   3   3   14.89    6.32
  19   3   3   11.91    5.26
  19  -3   3   16.55    5.02
  19  -3   3   14.52    4.04
  19   3   4    4.65    3.35
  19   3   4   20.90    6.27
  19  -3   4   18.28    6.52
  19   3   5   26.16    6.32
  19   3   5   29.54    7.47
  19  -3   5   36.90    8.84
  19   3   6   11.27    5.79
  19   3   6   11.30    5.96
  19  -3   6   15.05    6.61
  19   3   7   15.79    5.93
  19   3   7   13.19    6.04
  19  -3   7    8.70    2.69
  19   3   8   40.67    9.73
  19   3   8   37.20    8.70
  19  -3   8   48.95    9.59
  19   3   9   22.53    7.82
  19   3   9   21.40    7.07
  19  -3   9   26.72    6.69
  19  -4  -6    6.53    5.22
  19   4  -6   10.65    5.69
  19  -4  -6    2.67    3.12
  19  -4  -5   -2.17    2.75
  19   4  -5   -0.41    3.40
  19   4  -5    7.21    6.56
  19  -4  -5    1.92    4.63
  19  -4  -4   25.41    7.39
  19   4  -4   13.24    5.89
  19   4  -4    6.62    4.73
  19  -4  -4   29.00    8.36
  19  -4  -3    3.09    3.13
  19   4  -3   16.63    6.27
  19   4  -3   12.05    6.00
  19  -4  -3    5.32    4.37
  19  -4  -2   25.96    8.17
  19   4  -2   27.39    6.61
  19   4  -2    7.85    4.11
  19  -4  -2   17.48    7.16
  19  -4  -1   -2.58    4.57
  19   4  -1   16.44    6.69
  19   4  -1    9.97    4.90
  19  -4  -1   11.17    5.62
  19   4   0   10.32    4.40
  19   4   0   21.92    7.07
  19  -4   0   14.76    6.67
  19  -4   0   16.07    6.28
  19   4   1    5.73    4.68
  19   4   1    8.18    4.80
  19  -4   1    2.62    4.00
  19  -4   1    4.25    2.36
  19   4   2   13.81    4.89
  19  -4   2    3.97    4.35
  19   4   3   10.98    5.26
  19   4   3    6.12    4.77
  19  -4   3    6.22    4.85
  19   4   4   15.93    7.41
  19   4   4   27.90    7.37
  19  -4   4   14.23    4.94
  19   4   5    0.26    4.19
  19   4   5    2.16    2.87
  19   4   6    3.15    4.80
  19  -4   6   -3.01    3.45
  20   0  -7   24.65    6.15
  20   0  -7   29.95    8.72
  20   0  -6   -0.98    2.75
  20   0  -6    4.45    3.81
  20   0  -5  186.35   19.44
  20   0  -5  228.40   21.85
  20   0  -4  348.09   25.89
  20   0  -4  444.98   30.69
  20   0  -3   18.58    6.12
  20   0  -3   22.50    7.12
  20   0  -2  502.08   31.04
  20   0  -2  509.13   32.93
  20   0  -1  104.82   14.84
  20   0  -1   86.22   13.35
  20   0   0    3.20    2.67
  20   0   0   -3.91    5.13
  20   0   1   62.16   10.61
  20   0   1  112.76   14.98
  20   0   2  477.13   31.30
  20   0   2  468.50   31.39
  20   0   3    8.52    6.57
  20   0   3    6.48    5.36
  20   0   4  413.98   29.25
  20   0   4  470.54   31.26
  20   0   5  170.58   18.61
  20   0   5  159.12   17.87
  20   0   6    9.03    4.54
  20   0   6    2.11    3.13
  20   0   7   26.80    7.86
  20   1  -7    6.31    4.81
  20  -1  -7    3.31    4.19
  20   1  -7    6.87    5.21
  20  -1  -7    4.97    4.15
  20   1  -6    1.13    3.33
  20  -1  -6    0.53    2.53
  20   1  -6    0.33    3.26
  20  -1  -6    4.29    5.62
  20   1  -5    5.27    2.21
  20  -1  -5   12.72    6.23
  20   1  -5    7.78    5.86
  20  -1  -5    8.24    3.52
  20   1  -4    0.57    2.60
  20  -1  -4    4.49    4.02
  20   1  -4   -2.89    4.15
  20  -1  -4   -1.75    3.17
  20   1  -3   47.75    9.28
  20  -1  -3   40.85    8.58
  20   1  -3   42.64   10.09
  20  -1  -3   37.02    8.87
  20   1  -2   15.60    7.35
  20  -1  -2   16.92    5.78
  20   1  -2   10.62    4.30
  20  -1  -2   11.51    5.30
  20   1  -1    1.83    4.94
  20  -1  -1    4.12    5.54
  20   1  -1    1.60    3.09
  20  -1  -1   11.39    3.06
  20   1   0    2.40    4.03
  20  -1   0    1.11    4.66
  20   1   0    1.20    2.32
  20  -1   0    1.22    3.14
  20   1   1   10.11    6.46
  20  -1   1   19.55    6.96
  20   1   1   13.97    3.61
  20  -1   1   15.23    7.62
  20   1   2   15.20    6.38
  20  -1   2   19.08    7.07
  20   1   2   17.13    6.23
  20  -1   2   13.04    6.82
  20   1   3   37.97    9.48
  20  -1   3   51.07   10.65
  20   1   3   41.42   11.00
  20  -1   3   45.18    9.73
  20   1   4   -6.06    5.61
  20  -1   4   -0.52    2.93
  20   1   4   -3.89    3.70
  20  -1   4    0.49    4.59
  20   1   5    5.87    4.78
  20  -1   5    4.47    3.57
  20   1   5    9.45    4.91
  20  -1   5    2.44    5.74
  20   1   6    0.32    5.09
  20   1   6    1.98    4.70
  20  -1   6    4.55    3.56
  20   1   7    2.35    3.40
  20   1   7    4.08    3.64
  20   2  -5   10.60    5.08
  20   2  -5   13.61    6.43
  20  -2  -5   13.24    6.27
  20  -2  -5    8.39    5.65
  20  -2  -5    6.23    2.90
  20   2  -4   42.13    9.63
  20   2  -4   36.44    9.13
  20  -2  -4   48.30   10.92
  20  -2  -4   32.06    9.15
  20  -2  -4   39.65    9.87
  20   2  -3   24.90    8.10
  20   2  -3   22.32    6.09
  20  -2  -3   27.51    8.34
  20  -2  -3   15.36    4.01
  20  -2  -3   22.18    7.43
  20   2  -2  224.73   21.64
  20  -2  -2  163.89   18.43
  20   2  -2  210.13   20.77
  20  -2  -2  153.49   19.17
  20  -2  -2  165.19   17.36
  20   2  -1   14.40    5.75
  20  -2  -1   15.17    5.47
  20   2  -1    5.69    5.46
  20  -2  -1   13.09    3.01
  20   2   0    0.23    2.38
  20  -2   0    2.38    4.89
  20   2   0    1.59    4.05
  20  -2   0   -6.53    6.67
  20  -2   0   -1.49    3.36
  20   2   1   13.57    5.72
  20  -2   1    3.67    5.73
  20   2   1   18.04    6.94
  20  -2   1   15.62    6.21
  20   2   2  204.18   20.57
  20  -2   2  189.21   19.50
  20   2   2  181.88   19.87
  20  -2   2  182.37   18.90
  20   2   3   21.43    7.54
  20  -2   3   27.86    8.71
  20   2   3   14.90    6.08
  20  -2   3   17.85    5.50
  20   2   4   21.15    5.35
  20   2   4   37.19    8.94
  20  -2   4   41.03    9.18
  20   2   5    6.22    4.79
  20   2   5    9.72    6.13
   0   0   0    0.00    0.00
TITL 015_170K_SulfamerazineF1_ in Pna2(1)
REM Pna2(1) (#33, found as Pbn2(1) in ba-c setting)
CELL 0.68890  14.463755   8.183506  21.795251  90.0000  90.0000  90.0000
ZERR    8.00   0.000109   0.000073   0.000239   0.0000   0.0000   0.0000
LATT -1
SYMM -x,-y, z+1/2
SYMM  x+1/2,-y+1/2, z
SYMM -x+1/2, y+1/2, z+1/2
SFAC C H N O S
UNIT 88.00 96.00 32.00 16.00 8.00
TREF
HKLF 4
END
_computing_structure_solution     'SHELXT 2014/5 (Sheldrick, 2014)'
;
_shelx_hkl_checksum              75947
loop_
_space_group_symop_operation_xyz
'x, y, z'
'-x, -y, z+1/2'
'x+1/2, -y+1/2, z'
'-x+1/2, y+1/2, z+1/2'
loop_
_atom_site_label
_atom_site_type_symbol
_atom_site_fract_x
_atom_site_fract_y
_atom_site_fract_z
_atom_site_U_iso_or_equiv
_atom_site_adp_type
_atom_site_occupancy
_atom_site_site_symmetry_order
_atom_site_calc_flag
_atom_site_refinement_flags_posn
_atom_site_refinement_flags_adp
_atom_site_refinement_flags_occupancy
_atom_site_disorder_assembly
_atom_site_disorder_group
S1 S 0.35603(5) 0.50546(8) 0.65640(4) 0.02190(16) Uani 1 1 d . . . . .
S2 S 0.42188(5) 0.50187(8) 0.34677(4) 0.02127(16) Uani 1 1 d . . . . .
O1 O 0.31269(16) 0.6300(3) 0.69248(12) 0.0295(5) Uani 1 1 d . . . . .
O2 O 0.45342(15) 0.4780(3) 0.66291(12) 0.0277(5) Uani 1 1 d . . . . .
O3 O 0.32418(14) 0.5296(3) 0.34038(12) 0.0275(5) Uani 1 1 d . . . . .
O4 O 0.46432(16) 0.3748(3) 0.31132(11) 0.0280(5) Uani 1 1 d . . . . .
N1 N 0.1589(2) -0.1175(3) 0.68772(16) 0.0337(7) Uani 1 1 d . . . . .
N2 N 0.34658(18) 0.5530(3) 0.58290(14) 0.0250(6) Uani 1 1 d . . . . .
N3 N 0.18671(18) 0.5919(3) 0.58342(14) 0.0261(6) Uani 1 1 d . . . . .
N4 N 0.2727(2) 0.5681(4) 0.49033(14) 0.0366(7) Uani 1 1 d . . . . .
N5 N 0.6199(2) 1.1201(3) 0.30530(17) 0.0409(8) Uani 1 1 d . . . . .
H5A H 0.6764 1.1190 0.2930 0.053 Uiso 1 1 calc R U . . .
H5B H 0.5924 1.2117 0.3120 0.053 Uiso 1 1 calc R U . . .
N6 N 0.43157(19) 0.4584(4) 0.42021(14) 0.0262(6) Uani 1 1 d . . . . .
N7 N 0.59065(18) 0.4116(3) 0.41932(14) 0.0274(6) Uani 1 1 d . . . . .
N8 N 0.5053(2) 0.4342(4) 0.51266(15) 0.0374(7) Uani 1 1 d . . . . .
C1 C 0.2969(2) 0.3228(3) 0.66635(16) 0.0214(6) Uani 1 1 d . . . . .
C2 C 0.20701(19) 0.3209(4) 0.68991(15) 0.0218(6) Uani 1 1 d . . . . .
H2 H 0.1782 0.4182 0.7008 0.028 Uiso 1 1 calc R U . . .
C3 C 0.1614(2) 0.1749(4) 0.69697(16) 0.0224(6) Uani 1 1 d . . . . .
H3 H 0.1015 0.1742 0.7124 0.029 Uiso 1 1 calc R U . . .
C4 C 0.2042(2) 0.0265(4) 0.68124(15) 0.0234(6) Uani 1 1 d . . . . .
C5 C 0.2951(2) 0.0302(4) 0.65727(18) 0.0252(6) Uani 1 1 d . . . . .
H5 H 0.3243 -0.0668 0.6464 0.033 Uiso 1 1 calc R U . . .
C6 C 0.3405(2) 0.1771(3) 0.64990(17) 0.0253(6) Uani 1 1 d . . . . .
H6 H 0.4001 0.1791 0.6340 0.033 Uiso 1 1 calc R U . . .
C7 C 0.2639(2) 0.5717(4) 0.55120(15) 0.0242(6) Uani 1 1 d . . . . .
C8 C 0.1940(3) 0.5924(7) 0.4592(2) 0.0527(12) Uani 1 1 d . . . . .
H8 H 0.1960 0.5939 0.4166 0.069 Uiso 1 1 calc R U . . .
C9 C 0.1102(2) 0.6150(6) 0.4879(2) 0.0473(10) Uani 1 1 d . . . . .
H9 H 0.0565 0.6317 0.4653 0.062 Uiso 1 1 calc R U . . .
C10 C 0.1084(2) 0.6119(4) 0.55098(18) 0.0328(8) Uani 1 1 d . . . . .
C11 C 0.0219(2) 0.6325(5) 0.5871(2) 0.0425(9) Uani 1 1 d . . . . .
H11A H 0.0211 0.7392 0.6053 0.055 Uiso 1 1 calc R U . . .
H11B H 0.0195 0.5510 0.6188 0.055 Uiso 1 1 calc R U . . .
H11C H -0.0305 0.6204 0.5605 0.055 Uiso 1 1 calc R U . . .
C12 C 0.4807(2) 0.6830(3) 0.33398(15) 0.0216(6) Uani 1 1 d . . . . .
C13 C 0.4362(2) 0.8312(4) 0.3447(2) 0.0284(7) Uani 1 1 d . . . . .
H13 H 0.3754 0.8320 0.3585 0.037 Uiso 1 1 calc R U . . .
C14 C 0.4819(2) 0.9762(4) 0.33510(19) 0.0321(8) Uani 1 1 d . . . . .
H14 H 0.4518 1.0747 0.3425 0.042 Uiso 1 1 calc R U . . .
C15 C 0.5738(2) 0.9767(4) 0.31421(16) 0.0265(7) Uani 1 1 d . . . . .
C16 C 0.6183(2) 0.8274(3) 0.30342(16) 0.0241(6) Uani 1 1 d . . . . .
H16 H 0.6792 0.8262 0.2897 0.031 Uiso 1 1 calc R U . . .
C17 C 0.5719(2) 0.6818(4) 0.31306(17) 0.0228(6) Uani 1 1 d . . . . .
H17 H 0.6016 0.5829 0.3056 0.030 Uiso 1 1 calc R U . . .
C18 C 0.5139(2) 0.4335(4) 0.45142(16) 0.0255(6) Uani 1 1 d . . . . .
C19 C 0.5830(3) 0.4040(7) 0.5436(2) 0.0517(12) Uani 1 1 d . . . . .
H19 H 0.5808 0.4012 0.5862 0.067 Uiso 1 1 calc R U . . .
C20 C 0.6664(3) 0.3766(6) 0.5149(2) 0.0519(12) Uani 1 1 d . . . . .
H20 H 0.7196 0.3536 0.5373 0.068 Uiso 1 1 calc R U . . .
C21 C 0.6681(2) 0.3846(4) 0.45142(19) 0.0330(8) Uani 1 1 d . . . . .
C22 C 0.7547(2) 0.3626(6) 0.4149(2) 0.0468(10) Uani 1 1 d . . . . .
H22A H 0.7544 0.2566 0.3960 0.061 Uiso 1 1 calc R U . . .
H22B H 0.8074 0.3717 0.4415 0.061 Uiso 1 1 calc R U . . .
H22C H 0.7580 0.4452 0.3837 0.061 Uiso 1 1 calc R U . . .
H1N1 H 0.109(3) -0.120(5) 0.705(2) 0.042(11) Uiso 1 1 d . . . . .
H2N1 H 0.191(3) -0.203(6) 0.684(2) 0.050(13) Uiso 1 1 d . . . . .
H1N2 H 0.386(3) 0.523(5) 0.562(2) 0.033(11) Uiso 1 1 d . . . . .
H1N6 H 0.380(3) 0.497(5) 0.442(3) 0.055(15) Uiso 1 1 d . . . . .
loop_
_atom_site_aniso_label
_atom_site_aniso_U_11
_atom_site_aniso_U_22
_atom_site_aniso_U_33
_atom_site_aniso_U_23
_atom_site_aniso_U_13
_atom_site_aniso_U_12
S1 0.0204(3) 0.0235(3) 0.0218(4) 0.0019(3) -0.0012(3) -0.0016(2)
S2 0.0199(3) 0.0229(3) 0.0211(4) 0.0025(3) -0.0011(3) -0.0014(2)
O1 0.0342(12) 0.0254(10) 0.0289(13) -0.0037(9) 0.0005(10) -0.0017(9)
O2 0.0216(10) 0.0346(11) 0.0269(13) 0.0045(10) -0.0031(10) -0.0031(8)
O3 0.0199(10) 0.0366(11) 0.0258(13) 0.0055(10) -0.0045(10) -0.0021(8)
O4 0.0327(12) 0.0230(10) 0.0284(13) -0.0022(9) -0.0002(10) 0.0000(8)
N1 0.0287(14) 0.0249(13) 0.048(2) -0.0069(12) 0.0122(14) -0.0038(10)
N2 0.0180(11) 0.0330(13) 0.0240(15) 0.0064(11) 0.0008(11) -0.0002(10)
N3 0.0223(12) 0.0286(12) 0.0274(15) 0.0020(11) 0.0010(11) 0.0021(10)
N4 0.0253(13) 0.062(2) 0.0225(17) 0.0039(14) -0.0015(12) 0.0102(13)
N5 0.0334(15) 0.0253(13) 0.064(2) -0.0035(14) 0.0105(15) -0.0061(11)
N6 0.0215(12) 0.0360(14) 0.0211(15) 0.0070(12) 0.0019(11) 0.0012(10)
N7 0.0227(12) 0.0298(13) 0.0297(16) 0.0009(11) 0.0012(11) 0.0030(10)
N8 0.0277(14) 0.0586(19) 0.0259(17) 0.0031(14) -0.0033(13) 0.0108(13)
C1 0.0205(13) 0.0234(12) 0.0203(16) 0.0015(11) -0.0004(11) 0.0004(10)
C2 0.0205(12) 0.0255(13) 0.0195(15) -0.0003(11) -0.0015(12) 0.0029(10)
C3 0.0207(13) 0.0281(14) 0.0185(16) -0.0005(12) 0.0022(12) 0.0007(10)
C4 0.0250(14) 0.0241(13) 0.0211(16) -0.0022(11) -0.0002(12) -0.0009(10)
C5 0.0248(14) 0.0241(12) 0.0267(17) -0.0030(13) 0.0060(15) 0.0028(10)
C6 0.0206(12) 0.0256(13) 0.0297(18) 0.0015(13) 0.0051(13) 0.0010(10)
C7 0.0211(14) 0.0262(13) 0.0253(18) 0.0039(12) -0.0016(12) 0.0022(10)
C8 0.038(2) 0.094(4) 0.027(2) 0.001(2) -0.0037(17) 0.018(2)
C9 0.0249(16) 0.082(3) 0.035(2) -0.003(2) -0.0102(17) 0.0141(17)
C10 0.0231(15) 0.0371(17) 0.038(2) -0.0012(15) -0.0013(14) 0.0051(12)
C11 0.0243(16) 0.055(2) 0.048(2) -0.0038(19) 0.0033(16) 0.0087(15)
C12 0.0209(12) 0.0217(12) 0.0222(16) 0.0010(11) 0.0008(12) 0.0004(10)
C13 0.0231(14) 0.0251(14) 0.037(2) -0.0002(14) 0.0070(15) 0.0033(10)
C14 0.0289(15) 0.0210(13) 0.046(2) 0.0004(13) 0.0049(15) 0.0031(11)
C15 0.0278(15) 0.0254(13) 0.0264(18) -0.0009(12) 0.0020(13) -0.0025(11)
C16 0.0217(13) 0.0249(13) 0.0258(17) -0.0039(12) 0.0028(12) -0.0013(10)
C17 0.0242(14) 0.0207(12) 0.0235(17) -0.0015(11) 0.0022(13) 0.0016(10)
C18 0.0226(13) 0.0279(14) 0.0259(18) 0.0033(12) -0.0004(12) 0.0016(11)
C19 0.034(2) 0.093(4) 0.028(2) 0.000(2) -0.0063(17) 0.020(2)
C20 0.0296(17) 0.087(3) 0.040(3) -0.007(2) -0.0105(18) 0.0241(19)
C21 0.0231(15) 0.0373(17) 0.039(2) -0.0044(15) -0.0021(14) 0.0063(12)
C22 0.0245(16) 0.060(2) 0.056(3) -0.006(2) 0.0022(17) 0.0077(16)
loop_
_atom_type_symbol
_atom_type_description
_atom_type_scat_dispersion_real
_atom_type_scat_dispersion_imag
_atom_type_scat_source
C C 0.0033 0.0016 'International Tables Vol C Tables 4.2.6.8 and 6.1.1.4'
H H 0.0000 0.0000 'International Tables Vol C Tables 4.2.6.8 and 6.1.1.4'
N N 0.0061 0.0033 'International Tables Vol C Tables 4.2.6.8 and 6.1.1.4'
O O 0.0106 0.0060 'International Tables Vol C Tables 4.2.6.8 and 6.1.1.4'
S S 0.1246 0.1234 'International Tables Vol C Tables 4.2.6.8 and 6.1.1.4'
loop_
_geom_angle_atom_site_label_1
_geom_angle_atom_site_label_2
_geom_angle_atom_site_label_3
_geom_angle
_geom_angle_site_symmetry_1
_geom_angle_site_symmetry_3
O1 S1 O2 119.18(15) . .
O1 S1 N2 109.18(15) . .
O2 S1 N2 102.36(15) . .
O1 S1 C1 109.20(15) . .
O2 S1 C1 109.65(13) . .
N2 S1 C1 106.43(16) . .
O4 S2 O3 118.88(15) . .
O4 S2 N6 109.32(15) . .
O3 S2 N6 102.23(15) . .
O4 S2 C12 108.92(15) . .
O3 S2 C12 109.40(13) . .
N6 S2 C12 107.44(15) . .
C4 N1 H1N1 120(3) . .
C4 N1 H2N1 116(3) . .
H1N1 N1 H2N1 121(4) . .
C7 N2 S1 125.3(2) . .
C7 N2 H1N2 113(3) . .
S1 N2 H1N2 116(3) . .
C7 N3 C10 116.4(3) . .
C7 N4 C8 114.8(3) . .
C15 N5 H5A 120.0 . .
C15 N5 H5B 120.0 . .
H5A N5 H5B 120.0 . .
C18 N6 S2 125.6(2) . .
C18 N6 H1N6 119(3) . .
S2 N6 H1N6 110(3) . .
C18 N7 C21 116.6(3) . .
C19 N8 C18 115.2(3) . .
C6 C1 C2 120.3(3) . .
C6 C1 S1 118.8(2) . .
C2 C1 S1 120.9(2) . .
C3 C2 C1 119.8(3) . .
C3 C2 H2 120.1 . .
C1 C2 H2 120.1 . .
C2 C3 C4 120.9(3) . .
C2 C3 H3 119.6 . .
C4 C3 H3 119.6 . .
N1 C4 C3 120.8(3) . .
N1 C4 C5 120.4(3) . .
C3 C4 C5 118.7(3) . .
C6 C5 C4 120.3(3) . .
C6 C5 H5 119.9 . .
C4 C5 H5 119.9 . .
C5 C6 C1 120.0(3) . .
C5 C6 H6 120.0 . .
C1 C6 H6 120.0 . .
N3 C7 N4 127.5(3) . .
N3 C7 N2 118.3(3) . .
N4 C7 N2 114.2(3) . .
N4 C8 C9 122.6(4) . .
N4 C8 H8 118.7 . .
C9 C8 H8 118.7 . .
C10 C9 C8 117.9(3) . .
C10 C9 H9 121.0 . .
C8 C9 H9 121.0 . .
N3 C10 C9 120.7(3) . .
N3 C10 C11 116.3(3) . .
C9 C10 C11 122.9(3) . .
C10 C11 H11A 109.5 . .
C10 C11 H11B 109.5 . .
H11A C11 H11B 109.5 . .
C10 C11 H11C 109.5 . .
H11A C11 H11C 109.5 . .
H11B C11 H11C 109.5 . .
C13 C12 C17 119.9(3) . .
C13 C12 S2 119.5(2) . .
C17 C12 S2 120.7(2) . .
C14 C13 C12 120.3(3) . .
C14 C13 H13 119.9 . .
C12 C13 H13 119.9 . .
C13 C14 C15 120.4(3) . .
C13 C14 H14 119.8 . .
C15 C14 H14 119.8 . .
N5 C15 C16 120.1(3) . .
N5 C15 C14 120.7(3) . .
C16 C15 C14 119.1(3) . .
C17 C16 C15 120.2(3) . .
C17 C16 H16 119.9 . .
C15 C16 H16 119.9 . .
C16 C17 C12 120.1(3) . .
C16 C17 H17 120.0 . .
C12 C17 H17 120.0 . .
N7 C18 N8 127.1(3) . .
N7 C18 N6 118.7(3) . .
N8 C18 N6 114.1(3) . .
N8 C19 C20 122.6(4) . .
N8 C19 H19 118.7 . .
C20 C19 H19 118.7 . .
C19 C20 C21 117.5(4) . .
C19 C20 H20 121.3 . .
C21 C20 H20 121.3 . .
N7 C21 C20 121.0(3) . .
N7 C21 C22 116.3(4) . .
C20 C21 C22 122.8(3) . .
C21 C22 H22A 109.5 . .
C21 C22 H22B 109.5 . .
H22A C22 H22B 109.5 . .
C21 C22 H22C 109.5 . .
H22A C22 H22C 109.5 . .
H22B C22 H22C 109.5 . .
loop_
_geom_bond_atom_site_label_1
_geom_bond_atom_site_label_2
_geom_bond_distance
_geom_bond_site_symmetry_2
S1 O1 1.432(2) .
S1 O2 1.434(2) .
S1 N2 1.654(3) .
S1 C1 1.736(3) .
S2 O4 1.434(2) .
S2 O3 1.438(2) .
S2 N6 1.646(3) .
S2 C12 1.732(3) .
N1 C4 1.356(4) .
N1 H1N1 0.81(4) .
N1 H2N1 0.84(5) .
N2 C7 1.390(4) .
N2 H1N2 0.77(5) .
N3 C7 1.329(4) .
N3 C10 1.346(4) .
N4 C7 1.333(4) .
N4 C8 1.340(5) .
N5 C15 1.364(4) .
N5 H5A 0.8600 .
N5 H5B 0.8600 .
N6 C18 1.386(4) .
N6 H1N6 0.93(5) .
N7 C18 1.325(4) .
N7 C21 1.339(4) .
N8 C19 1.333(5) .
N8 C18 1.340(5) .
C1 C6 1.395(4) .
C1 C2 1.398(4) .
C2 C3 1.373(4) .
C2 H2 0.9300 .
C3 C4 1.405(4) .
C3 H3 0.9300 .
C4 C5 1.415(4) .
C5 C6 1.379(4) .
C5 H5 0.9300 .
C6 H6 0.9300 .
C8 C9 1.376(6) .
C8 H8 0.9300 .
C9 C10 1.376(6) .
C9 H9 0.9300 .
C10 C11 1.487(5) .
C11 H11A 0.9600 .
C11 H11B 0.9600 .
C11 H11C 0.9600 .
C12 C13 1.392(4) .
C12 C17 1.396(4) .
C13 C14 1.374(4) .
C13 H13 0.9300 .
C14 C15 1.405(4) .
C14 H14 0.9300 .
C15 C16 1.401(4) .
C16 C17 1.383(4) .
C16 H16 0.9300 .
C17 H17 0.9300 .
C19 C20 1.377(6) .
C19 H19 0.9300 .
C20 C21 1.385(6) .
C20 H20 0.9300 .
C21 C22 1.496(5) .
C22 H22A 0.9600 .
C22 H22B 0.9600 .
C22 H22C 0.9600 .
loop_
_geom_hbond_atom_site_label_D
_geom_hbond_atom_site_label_H
_geom_hbond_atom_site_label_A
_geom_hbond_distance_DH
_geom_hbond_distance_HA
_geom_hbond_distance_DA
_geom_hbond_angle_DHA
_geom_hbond_site_symmetry_A
N2 H1N2 N8 0.77(5) 2.16(5) 2.926(4) 174(5) .
N6 H1N6 N4 0.93(5) 1.97(5) 2.903(4) 177(5) .
loop_
_geom_torsion_atom_site_label_1
_geom_torsion_atom_site_label_2
_geom_torsion_atom_site_label_3
_geom_torsion_atom_site_label_4
_geom_torsion
_geom_torsion_site_symmetry_1
_geom_torsion_site_symmetry_2
_geom_torsion_site_symmetry_3
_geom_torsion_site_symmetry_4
O1 S1 N2 C7 -61.1(3) . . . .
O2 S1 N2 C7 171.7(3) . . . .
C1 S1 N2 C7 56.6(3) . . . .
O4 S2 N6 C18 58.4(3) . . . .
O3 S2 N6 C18 -174.8(3) . . . .
C12 S2 N6 C18 -59.7(3) . . . .
O1 S1 C1 C6 -162.3(3) . . . .
O2 S1 C1 C6 -30.1(3) . . . .
N2 S1 C1 C6 79.9(3) . . . .
O1 S1 C1 C2 18.2(3) . . . .
O2 S1 C1 C2 150.5(3) . . . .
N2 S1 C1 C2 -99.5(3) . . . .
C6 C1 C2 C3 0.1(5) . . . .
S1 C1 C2 C3 179.5(3) . . . .
C1 C2 C3 C4 0.5(5) . . . .
C2 C3 C4 N1 -179.4(3) . . . .
C2 C3 C4 C5 -0.7(5) . . . .
N1 C4 C5 C6 179.0(3) . . . .
C3 C4 C5 C6 0.3(5) . . . .
C4 C5 C6 C1 0.3(5) . . . .
C2 C1 C6 C5 -0.5(5) . . . .
S1 C1 C6 C5 -179.9(3) . . . .
C10 N3 C7 N4 -0.4(5) . . . .
C10 N3 C7 N2 179.1(3) . . . .
C8 N4 C7 N3 1.9(6) . . . .
C8 N4 C7 N2 -177.5(4) . . . .
S1 N2 C7 N3 16.9(4) . . . .
S1 N2 C7 N4 -163.6(3) . . . .
C7 N4 C8 C9 -1.6(7) . . . .
N4 C8 C9 C10 -0.1(8) . . . .
C7 N3 C10 C9 -1.5(5) . . . .
C7 N3 C10 C11 179.3(3) . . . .
C8 C9 C10 N3 1.8(7) . . . .
C8 C9 C10 C11 -179.1(4) . . . .
O4 S2 C12 C13 157.5(3) . . . .
O3 S2 C12 C13 26.0(3) . . . .
N6 S2 C12 C13 -84.2(3) . . . .
O4 S2 C12 C17 -22.5(3) . . . .
O3 S2 C12 C17 -154.0(3) . . . .
N6 S2 C12 C17 95.8(3) . . . .
C17 C12 C13 C14 -0.3(5) . . . .
S2 C12 C13 C14 179.7(3) . . . .
C12 C13 C14 C15 0.2(6) . . . .
C13 C14 C15 N5 -179.2(4) . . . .
C13 C14 C15 C16 -0.1(6) . . . .
N5 C15 C16 C17 179.3(3) . . . .
C14 C15 C16 C17 0.2(5) . . . .
C15 C16 C17 C12 -0.4(5) . . . .
C13 C12 C17 C16 0.4(5) . . . .
S2 C12 C17 C16 -179.6(3) . . . .
C21 N7 C18 N8 1.2(5) . . . .
C21 N7 C18 N6 -178.6(3) . . . .
C19 N8 C18 N7 -2.4(6) . . . .
C19 N8 C18 N6 177.4(4) . . . .
S2 N6 C18 N7 -13.6(4) . . . .
S2 N6 C18 N8 166.6(3) . . . .
C18 N8 C19 C20 1.0(7) . . . .
N8 C19 C20 C21 1.2(8) . . . .
C18 N7 C21 C20 1.4(5) . . . .
C18 N7 C21 C22 -179.1(3) . . . .
C19 C20 C21 N7 -2.5(7) . . . .
C19 C20 C21 C22 178.0(4) . . . .
