#------------------------------------------------------------------------------
#$Date: 2018-01-06 04:34:25 +0200 (Sat, 06 Jan 2018) $
#$Revision: 204889 $
#$URL: file:///home/coder/svn-repositories/cod/cif/1/54/78/1547834.cif $
#------------------------------------------------------------------------------
#
# This file is available in the Crystallography Open Database (COD),
# http://www.crystallography.net/
#
# All data on this site have been placed in the public domain by the
# contributors.
#
data_1547834
loop_
_publ_author_name
'Gharpure, Santosh J.'
'Anuradha, Dandela'
_publ_section_title
;
 Synthesis of Benzo[1,4]heterocycles using Palladium Catalyzed Heck
 Reaction to Vinylogous Carbonates/Carbamates: Unexpected Formation of
 Indoles via Carbopalladation Intercepted by Nucleopalladation.
;
_journal_issue                   22
_journal_name_full               'Organic letters'
_journal_page_first              6136
_journal_page_last               6139
_journal_paper_doi               10.1021/acs.orglett.7b03016
_journal_volume                  19
_journal_year                    2017
_chemical_formula_moiety         'C24 H29 N O5 S'
_chemical_formula_sum            'C24 H29 N O5 S'
_chemical_formula_weight         443.54
_space_group_crystal_system      monoclinic
_space_group_IT_number           14
_space_group_name_Hall           '-P 2yn'
_space_group_name_H-M_alt        'P 1 21/n 1'
_symmetry_space_group_name_Hall  '-P 2yn'
_symmetry_space_group_name_H-M   'P 1 21/n 1'
_atom_sites_solution_hydrogens   geom
_atom_sites_solution_primary     dual
_audit_creation_date             2017-09-26
_audit_creation_method
;
Olex2 1.2-ac3
(compiled 2016.08.26 svn.r3337 for Rigaku Oxford Diffraction, GUI svn.r5221)
;
_cell_angle_alpha                90
_cell_angle_beta                 113.393(7)
_cell_angle_gamma                90
_cell_formula_units_Z            4
_cell_length_a                   11.5447(7)
_cell_length_b                   17.0612(9)
_cell_length_c                   12.4930(8)
_cell_measurement_reflns_used    8197
_cell_measurement_temperature    293(2)
_cell_measurement_theta_max      30.9350
_cell_measurement_theta_min      2.1460
_cell_volume                     2258.4(3)
_computing_cell_refinement       'CrysAlisPro 1.171.39.7b (Rigaku OD, 2015)'
_computing_data_collection       'CrysAlisPro 1.171.39.7b (Rigaku OD, 2015)'
_computing_data_reduction        'CrysAlisPro 1.171.39.7b (Rigaku OD, 2015)'
_computing_molecular_graphics    'Olex2 (Dolomanov et al., 2009)'
_computing_publication_material  'Olex2 (Dolomanov et al., 2009)'
_computing_structure_refinement  'ShelXL (Sheldrick, 2015)'
_computing_structure_solution    'ShelXT (Sheldrick, 2015)'
_diffrn_ambient_temperature      293(2)
_diffrn_detector                 'CCD plate'
_diffrn_measured_fraction_theta_full 0.999
_diffrn_measured_fraction_theta_max 0.999
_diffrn_measurement_details
;
List of Runs (angles in degrees, time in seconds):

  # Type    Start    End  Width  t~exp~   \w     \q     \k     \f   Frames
--------------------------------------------------------------------------
  1  \w   -110.00  25.00   0.50   10.00    --  -20.00   0.00 -36.00  270
  2  \w   -110.00  10.00   0.50   10.00    --  -20.00 -72.00 -36.00  240
  3  \w    -71.00  19.00   0.50   10.00    --  -20.00 -72.00 108.00  180
  4  \w    -35.00  19.00   0.50   10.00    --  -20.00 -72.00-180.00  108
  5  \w    -59.00 -39.50   0.50   10.00    --  -20.00  72.00 108.00   39
;
_diffrn_measurement_device       'abstract diffractometer'
_diffrn_measurement_device_type
'dtrek-CrysAlisPro-abstract goniometer imported rigaku-d*trek images'
_diffrn_measurement_method       '\w scans'
_diffrn_orient_matrix_type
'CrysAlisPro convention (1999,Acta A55,543-557)'
_diffrn_orient_matrix_UB_11      0.0294626000
_diffrn_orient_matrix_UB_12      -0.0320832000
_diffrn_orient_matrix_UB_13      0.0368421000
_diffrn_orient_matrix_UB_21      -0.0069061000
_diffrn_orient_matrix_UB_22      0.0193194000
_diffrn_orient_matrix_UB_23      0.0474674000
_diffrn_orient_matrix_UB_31      -0.0596211000
_diffrn_orient_matrix_UB_32      -0.0181034000
_diffrn_orient_matrix_UB_33      -0.0148151000
_diffrn_radiation_monochromator  graphite
_diffrn_radiation_probe          x-ray
_diffrn_radiation_type           MoK\a
_diffrn_radiation_wavelength     0.71073
_diffrn_reflns_av_R_equivalents  0.1040
_diffrn_reflns_av_unetI/netI     0.0696
_diffrn_reflns_Laue_measured_fraction_full 0.999
_diffrn_reflns_Laue_measured_fraction_max 0.999
_diffrn_reflns_limit_h_max       13
_diffrn_reflns_limit_h_min       -13
_diffrn_reflns_limit_k_max       20
_diffrn_reflns_limit_k_min       -18
_diffrn_reflns_limit_l_max       14
_diffrn_reflns_limit_l_min       -14
_diffrn_reflns_number            17412
_diffrn_reflns_point_group_measured_fraction_full 0.999
_diffrn_reflns_point_group_measured_fraction_max 0.999
_diffrn_reflns_theta_full        24.999
_diffrn_reflns_theta_max         24.999
_diffrn_reflns_theta_min         2.034
_diffrn_source                   'fine-focus sealed X-ray tube'
_diffrn_source_type              'Enhance (Mo) X-ray Source'
_exptl_absorpt_coefficient_mu    0.179
_exptl_absorpt_correction_T_max  1.00000
_exptl_absorpt_correction_T_min  0.82855
_exptl_absorpt_correction_type   multi-scan
_exptl_absorpt_process_details
;
CrysAlisPro 1.171.39.7b (Rigaku Oxford Diffraction, 2015)
Empirical absorption correction using spherical harmonics,
 implemented in SCALE3 ABSPACK scaling algorithm.
;
_exptl_crystal_colour            colourless
_exptl_crystal_colour_primary    colourless
_exptl_crystal_density_diffrn    1.304
_exptl_crystal_description       block
_exptl_crystal_F_000             944
_exptl_crystal_size_max          0.4
_exptl_crystal_size_mid          0.12
_exptl_crystal_size_min          0.1
_refine_diff_density_max         0.475
_refine_diff_density_min         -0.649
_refine_diff_density_rms         0.126
_refine_ls_extinction_method     none
_refine_ls_goodness_of_fit_ref   1.072
_refine_ls_hydrogen_treatment    constr
_refine_ls_matrix_type           full
_refine_ls_number_parameters     282
_refine_ls_number_reflns         3979
_refine_ls_number_restraints     0
_refine_ls_restrained_S_all      1.072
_refine_ls_R_factor_all          0.0749
_refine_ls_R_factor_gt           0.0576
_refine_ls_shift/su_max          0.000
_refine_ls_shift/su_mean         0.000
_refine_ls_structure_factor_coef Fsqd
_refine_ls_weighting_details
'w=1/[\s^2^(Fo^2^)+(0.0764P)^2^+1.3577P] where P=(Fo^2^+2Fc^2^)/3'
_refine_ls_weighting_scheme      calc
_refine_ls_wR_factor_gt          0.1417
_refine_ls_wR_factor_ref         0.1548
_reflns_Friedel_coverage         0.000
_reflns_number_gt                3257
_reflns_number_total             3979
_reflns_threshold_expression     'I > 2\s(I)'
_iucr_refine_instructions_details
;

    sjg-anu-4-37_a_mo.res created by SHELXL-2014/7

TITL sjg-anu-4-37_a_mo_a.res in P2(1)/n
REM Old TITL SJG-ANU-4-37_A_Mo in P2(1)/n
REM SHELXT solution in P2(1)/n
REM R1 0.194, Rweak 0.024, Alpha 0.040, Orientation as input
REM Formula found by SHELXT: C24 N2 O5 Cl
CELL 0.71073 11.5447 17.0612 12.493 90 113.393 90
ZERR 4 0.0007 0.0009 0.0008 0 0.007 0
LATT 1
SYMM 0.5-X,0.5+Y,0.5-Z
SFAC C H N O S
UNIT 96 116 4 20 4
 
L.S. 100
PLAN  20
BOND $H
list 4
MORE -1
CONF
fmap 2
acta 52
OMIT -3 50
OMIT -1 1 1
REM <olex2.extras>
REM <HklSrc "%.\\SJG-ANU-4-37_A_Mo.hkl">
REM </olex2.extras>
 
WGHT    0.076400    1.357700
FVAR       3.81691
S1    5    0.268928    0.375149    0.387248    11.00000    0.01610    0.01987 =
         0.01445    0.00294    0.00525    0.00175
O1    4    0.322655    0.448454    0.375617    11.00000    0.02296    0.02303 =
         0.02492    0.00705    0.01184    0.00008
O5    4    0.326954    0.256179    0.662768    11.00000    0.02117    0.02308 =
         0.01962   -0.00356    0.01121   -0.00250
O3    4    0.612079    0.373080    0.412862    11.00000    0.02776    0.02310 =
         0.02237    0.00087    0.01334    0.00209
O2    4    0.199898    0.329680    0.284724    11.00000    0.02041    0.02938 =
         0.01371   -0.00216    0.00178    0.00182
O4    4    0.716417    0.260789    0.479529    11.00000    0.03226    0.03525 =
         0.03814    0.01128    0.02213    0.01186
N1    3    0.384009    0.318860    0.472460    11.00000    0.01479    0.01494 =
         0.01351    0.00013    0.00294    0.00028
C24   1    0.351483    0.235097    0.480618    11.00000    0.01446    0.01722 =
         0.01677   -0.00184    0.00534   -0.00060
AFIX  13
H24   2    0.259542    0.230644    0.440893    11.00000   -1.20000
AFIX   0
C16   1    0.653158    0.314532    0.489437    11.00000    0.01600    0.02659 =
         0.02027   -0.00041    0.00656   -0.00589
C6    1    0.199342    0.453042    0.542342    11.00000    0.01822    0.01706 =
         0.02089    0.00227    0.00673    0.00168
AFIX  43
H6    2    0.262697    0.488602    0.548387    11.00000   -1.20000
AFIX   0
C14   1    0.392238    0.321388    0.720824    11.00000    0.02048    0.01592 =
         0.01714    0.00058    0.00631    0.00240
C4    1    0.072440    0.340300    0.449959    11.00000    0.01620    0.01961 =
         0.01876    0.00217    0.00277    0.00092
AFIX  43
H4    2    0.051316    0.300396    0.394766    11.00000   -1.20000
AFIX   0
C10   1    0.523222    0.434370    0.749471    11.00000    0.02726    0.02361 =
         0.01975    0.00122    0.00657    0.00015
AFIX  43
H10   2    0.572983    0.466875    0.725421    11.00000   -1.20000
AFIX   0
C3    1    0.007568    0.348900    0.520864    11.00000    0.01249    0.02561 =
         0.02662    0.00909    0.00417    0.00182
AFIX  43
H3    2   -0.058245    0.314728    0.512468    11.00000   -1.20000
AFIX   0
C2    1    0.038422    0.407715    0.604938    11.00000    0.01950    0.02858 =
         0.02134    0.00880    0.00885    0.00794
C13   1    0.374459    0.339757    0.821660    11.00000    0.03182    0.02326 =
         0.01877    0.00169    0.01271    0.00582
AFIX  43
H13   2    0.323546    0.308074    0.845464    11.00000   -1.20000
AFIX   0
C8    1    0.487525    0.358256    0.569591    11.00000    0.01817    0.02237 =
         0.01230   -0.00149    0.00441   -0.00193
AFIX  13
H8    2    0.490230    0.411620    0.541651    11.00000   -1.20000
AFIX   0
C7    1    0.133806    0.460260    0.612835    11.00000    0.02328    0.02413 =
         0.01907    0.00073    0.00611    0.00586
AFIX  43
H7    2    0.153538    0.500941    0.666712    11.00000   -1.20000
AFIX   0
C9    1    0.466323    0.368632    0.681811    11.00000    0.01736    0.01798 =
         0.01604    0.00150    0.00362    0.00440
C19   1    0.386724    0.207941    0.605327    11.00000    0.01775    0.02083 =
         0.01695   -0.00023    0.00798    0.00006
AFIX  13
H19   2    0.478527    0.210582    0.647841    11.00000   -1.20000
AFIX   0
C5    1    0.169976    0.391983    0.461796    11.00000    0.01708    0.02088 =
         0.01524    0.00471    0.00473    0.00380
C20   1    0.342353    0.124493    0.607467    11.00000    0.02599    0.02236 =
         0.02206    0.00362    0.01053   -0.00008
AFIX  23
H20A  2    0.250946    0.122648    0.570487    11.00000   -1.20000
H20B  2    0.367946    0.107442    0.687674    11.00000   -1.20000
AFIX   0
C15   1    0.616766    0.323466    0.591719    11.00000    0.01590    0.03531 =
         0.01719   -0.00078    0.00402   -0.00531
AFIX  23
H15A  2    0.680009    0.355978    0.649274    11.00000   -1.20000
H15B  2    0.621138    0.272111    0.626431    11.00000   -1.20000
AFIX   0
C23   1    0.408378    0.180939    0.416289    11.00000    0.02200    0.02244 =
         0.02139   -0.00125    0.00989    0.00156
AFIX  23
H23A  2    0.382526    0.198271    0.336181    11.00000   -1.20000
H23B  2    0.499756    0.183170    0.453404    11.00000   -1.20000
AFIX   0
C17   1    0.640158    0.367479    0.309013    11.00000    0.03027    0.02747 =
         0.02359    0.00081    0.01469   -0.00085
AFIX  23
H17A  2    0.725588    0.348260    0.330884    11.00000   -1.20000
H17B  2    0.635094    0.419192    0.275179    11.00000   -1.20000
AFIX   0
C22   1    0.363999    0.096707    0.418468    11.00000    0.02944    0.02282 =
         0.02944   -0.00380    0.01413   -0.00003
AFIX  23
H22A  2    0.273308    0.093816    0.375371    11.00000   -1.20000
H22B  2    0.403326    0.062417    0.380713    11.00000   -1.20000
AFIX   0
C11   1    0.507801    0.452356    0.850381    11.00000    0.04680    0.02412 =
         0.02074   -0.00509    0.01126   -0.00126
AFIX  43
H11   2    0.547748    0.495990    0.894068    11.00000   -1.20000
AFIX   0
C21   1    0.397845    0.069098    0.543779    11.00000    0.03201    0.01881 =
         0.02940    0.00009    0.01247    0.00125
AFIX  23
H21A  2    0.488896    0.067279    0.584857    11.00000   -1.20000
H21B  2    0.365242    0.016611    0.543045    11.00000   -1.20000
AFIX   0
C18   1    0.550073    0.313689    0.220330    11.00000    0.06541    0.05112 =
         0.02883   -0.00671    0.02134   -0.02293
AFIX 137
H18A  2    0.567227    0.313887    0.151171    11.00000   -1.50000
H18B  2    0.465173    0.331152    0.201468    11.00000   -1.50000
H18C  2    0.559991    0.261496    0.251422    11.00000   -1.50000
AFIX   0
C1    1   -0.027995    0.414370    0.686597    11.00000    0.03577    0.04072 =
         0.03466    0.00918    0.02165    0.00988
AFIX 137
H1A   2   -0.100838    0.380910    0.660053    11.00000   -1.50000
H1B   2   -0.053867    0.467668    0.688296    11.00000   -1.50000
H1C   2    0.028333    0.398777    0.763559    11.00000   -1.50000
AFIX   0
C12   1    0.432288    0.405065    0.886796    11.00000    0.05092    0.02932 =
         0.02055   -0.00171    0.01825    0.00517
AFIX  43
H12   2    0.420687    0.417205    0.954442    11.00000   -1.20000
AFIX   0
HKLF 4
 
REM  sjg-anu-4-37_a_mo_a.res in P2(1)/n
REM R1 =  0.0576 for    3257 Fo > 4sig(Fo)  and  0.0749 for all    3979 data
REM    282 parameters refined using      0 restraints
 
END  
     
WGHT      0.0764      1.3525 

REM Highest difference peak  0.475,  deepest hole -0.649,  1-sigma level  0.126
Q1    1   0.2987  0.2240  0.7054  11.00000  0.05    0.48
Q2    1   0.2650  0.1341  0.6607  11.00000  0.05    0.44
Q3    1   0.4018  0.2353  0.7807  11.00000  0.05    0.43
Q4    1   0.2571  0.3504  0.9356  11.00000  0.05    0.42
Q5    1   0.3971  0.1603  0.7828  11.00000  0.05    0.41
Q6    1   0.1583  0.1337  0.6005  11.00000  0.05    0.40
Q7    1   0.2741  0.1037  0.6794  11.00000  0.05    0.39
Q8    1   0.3363  0.3965  0.9584  11.00000  0.05    0.38
Q9    1   0.6783  0.2009  0.5597  11.00000  0.05    0.37
Q10   1   0.2213  0.3800  0.4369  11.00000  0.05    0.37
Q11   1   0.0681  0.2325  0.3811  11.00000  0.05    0.35
Q12   1  -0.0541  0.2835  0.3314  11.00000  0.05    0.35
Q13   1   0.2396  0.4217  0.9206  11.00000  0.05    0.33
Q14   1   0.3766  0.1207  0.7441  11.00000  0.05    0.33
Q15   1   0.3284  0.4591  0.9618  11.00000  0.05    0.32
Q16   1   0.1416  0.4140  0.8840  11.00000  0.05    0.31
Q17   1   0.3368  0.2608  0.7957  11.00000  0.05    0.30
Q18   1   0.4410  0.0869  0.8040  11.00000  0.05    0.30
Q19   1   0.6795  0.1622  0.4373  11.00000  0.05    0.30
Q20   1   0.5846  0.5114  0.7179  11.00000  0.05    0.29

  REM The information below was added by Olex2.
  REM
  REM R1 = 0.0576 for 3257 Fo > 4sig(Fo) and 0.0749 for all 17414 data
  REM n/a parameters refined using n/a restraints
  REM Highest difference peak 0.48, deepest hole -0.65
  REM Mean Shift 0, Max Shift 0.000.
  
  REM +++ Tabular Listing of Refinement Information +++
  REM R1_all = 0.0749
  REM R1_gt = 0.0576
  REM wR_ref = 0.1548
  REM GOOF = 1.072
  REM Shift_max = 0.000
  REM Shift_mean = 0
  REM Reflections_all = 17414
  REM Reflections_gt = 3257
  REM Parameters = n/a
  REM Hole = -0.65
  REM Peak = 0.48
  REM Flack = n/a
  
  
;
_cod_data_source_file            sjg-anu-8.cif
_cod_data_source_block           sjg-anu-4-37_a_mo
_cod_depositor_comments
'Adding full bibliography for 1547825--1547834.cif.'
_cod_database_code               1547834
_shelx_space_group_comment
;
The symmetry employed for this shelxl refinement is uniquely defined
by the following loop, which should always be used as a source of
symmetry information in preference to the above space-group names.
They are only intended as comments.
;
_reflns_odcompleteness_completeness 93.23
_reflns_odcompleteness_iscentric 1
_reflns_odcompleteness_theta     31.00
_olex2_refinement_description
;
1. Fixed Uiso
 At 1.2 times of:
  All C(H) groups, All C(H,H) groups
 At 1.5 times of:
  All C(H,H,H) groups
2.a Ternary CH refined with riding coordinates:
 C24(H24), C8(H8), C19(H19)
2.b Secondary CH2 refined with riding coordinates:
 C20(H20A,H20B), C15(H15A,H15B), C23(H23A,H23B), C17(H17A,H17B), C22(H22A,
 H22B), C21(H21A,H21B)
2.c Aromatic/amide H refined with riding coordinates:
 C6(H6), C4(H4), C10(H10), C3(H3), C13(H13), C7(H7), C11(H11), C12(H12)
2.d Idealised Me refined as rotating group:
 C18(H18A,H18B,H18C), C1(H1A,H1B,H1C)
;
_shelx_shelxl_version_number     2014/7
_olex2_submission_special_instructions 'No special instructions were received'
_oxdiff_exptl_absorpt_empirical_details
;
Empirical correction (ABSPACK) includes:
- Absorption correction using spherical harmonics
- Frame scaling
- Detector area scaling
;
_oxdiff_exptl_absorpt_empirical_full_max 2.131
_oxdiff_exptl_absorpt_empirical_full_min 0.469
loop_
_space_group_symop_operation_xyz
'x, y, z'
'-x+1/2, y+1/2, -z+1/2'
'-x, -y, -z'
'x-1/2, -y-1/2, z-1/2'
loop_
_atom_site_label
_atom_site_type_symbol
_atom_site_fract_x
_atom_site_fract_y
_atom_site_fract_z
_atom_site_U_iso_or_equiv
_atom_site_adp_type
_atom_site_occupancy
_atom_site_site_symmetry_order
_atom_site_calc_flag
_atom_site_refinement_flags_posn
S1 S 0.26893(5) 0.37515(4) 0.38725(5) 0.0171(2) Uani 1 1 d .
O1 O 0.32265(16) 0.44845(11) 0.37562(16) 0.0229(4) Uani 1 1 d .
O5 O 0.32695(16) 0.25618(10) 0.66277(16) 0.0203(4) Uani 1 1 d .
O3 O 0.61208(17) 0.37308(10) 0.41286(16) 0.0233(4) Uani 1 1 d .
O2 O 0.19990(16) 0.32968(11) 0.28472(15) 0.0227(4) Uani 1 1 d .
O4 O 0.71642(18) 0.26079(12) 0.47953(19) 0.0327(5) Uani 1 1 d .
N1 N 0.38401(18) 0.31886(12) 0.47246(18) 0.0153(5) Uani 1 1 d .
C24 C 0.3515(2) 0.23510(14) 0.4806(2) 0.0164(5) Uani 1 1 d .
H24 H 0.2595 0.2306 0.4409 0.020 Uiso 1 1 calc R
C16 C 0.6532(2) 0.31453(16) 0.4894(2) 0.0212(6) Uani 1 1 d .
C6 C 0.1993(2) 0.45304(15) 0.5423(2) 0.0190(6) Uani 1 1 d .
H6 H 0.2627 0.4886 0.5484 0.023 Uiso 1 1 calc R
C14 C 0.3922(2) 0.32139(14) 0.7208(2) 0.0182(6) Uani 1 1 d .
C4 C 0.0724(2) 0.34030(15) 0.4500(2) 0.0195(6) Uani 1 1 d .
H4 H 0.0513 0.3004 0.3948 0.023 Uiso 1 1 calc R
C10 C 0.5232(2) 0.43437(16) 0.7495(2) 0.0244(6) Uani 1 1 d .
H10 H 0.5730 0.4669 0.7254 0.029 Uiso 1 1 calc R
C3 C 0.0076(2) 0.34890(16) 0.5209(2) 0.0227(6) Uani 1 1 d .
H3 H -0.0582 0.3147 0.5125 0.027 Uiso 1 1 calc R
C2 C 0.0384(2) 0.40771(16) 0.6049(2) 0.0229(6) Uani 1 1 d .
C13 C 0.3745(3) 0.33976(16) 0.8217(2) 0.0238(6) Uani 1 1 d .
H13 H 0.3235 0.3081 0.8455 0.029 Uiso 1 1 calc R
C8 C 0.4875(2) 0.35826(15) 0.5696(2) 0.0181(6) Uani 1 1 d .
H8 H 0.4902 0.4116 0.5417 0.022 Uiso 1 1 calc R
C7 C 0.1338(2) 0.46026(16) 0.6128(2) 0.0229(6) Uani 1 1 d .
H7 H 0.1535 0.5009 0.6667 0.027 Uiso 1 1 calc R
C9 C 0.4663(2) 0.36863(14) 0.6818(2) 0.0181(6) Uani 1 1 d .
C19 C 0.3867(2) 0.20794(15) 0.6053(2) 0.0182(6) Uani 1 1 d .
H19 H 0.4785 0.2106 0.6478 0.022 Uiso 1 1 calc R
C5 C 0.1700(2) 0.39198(15) 0.4618(2) 0.0183(6) Uani 1 1 d .
C20 C 0.3424(3) 0.12449(15) 0.6075(2) 0.0232(6) Uani 1 1 d .
H20A H 0.2509 0.1226 0.5705 0.028 Uiso 1 1 calc R
H20B H 0.3679 0.1074 0.6877 0.028 Uiso 1 1 calc R
C15 C 0.6168(2) 0.32347(17) 0.5917(2) 0.0236(6) Uani 1 1 d .
H15A H 0.6800 0.3560 0.6493 0.028 Uiso 1 1 calc R
H15B H 0.6211 0.2721 0.6264 0.028 Uiso 1 1 calc R
C23 C 0.4084(2) 0.18094(15) 0.4163(2) 0.0215(6) Uani 1 1 d .
H23A H 0.3825 0.1983 0.3362 0.026 Uiso 1 1 calc R
H23B H 0.4998 0.1832 0.4534 0.026 Uiso 1 1 calc R
C17 C 0.6402(3) 0.36748(17) 0.3090(2) 0.0259(6) Uani 1 1 d .
H17A H 0.7256 0.3483 0.3309 0.031 Uiso 1 1 calc R
H17B H 0.6351 0.4192 0.2752 0.031 Uiso 1 1 calc R
C22 C 0.3640(3) 0.09671(16) 0.4185(3) 0.0265(6) Uani 1 1 d .
H22A H 0.2733 0.0938 0.3754 0.032 Uiso 1 1 calc R
H22B H 0.4033 0.0624 0.3807 0.032 Uiso 1 1 calc R
C11 C 0.5078(3) 0.45236(17) 0.8504(3) 0.0312(7) Uani 1 1 d .
H11 H 0.5477 0.4960 0.8941 0.037 Uiso 1 1 calc R
C21 C 0.3978(3) 0.06910(16) 0.5438(2) 0.0267(6) Uani 1 1 d .
H21A H 0.4889 0.0673 0.5849 0.032 Uiso 1 1 calc R
H21B H 0.3652 0.0166 0.5430 0.032 Uiso 1 1 calc R
C18 C 0.5501(4) 0.3137(2) 0.2203(3) 0.0476(9) Uani 1 1 d .
H18A H 0.5672 0.3139 0.1512 0.071 Uiso 1 1 calc GR
H18B H 0.4652 0.3312 0.2015 0.071 Uiso 1 1 calc GR
H18C H 0.5600 0.2615 0.2514 0.071 Uiso 1 1 calc GR
C1 C -0.0280(3) 0.41437(19) 0.6866(3) 0.0346(7) Uani 1 1 d .
H1A H -0.1008 0.3809 0.6601 0.052 Uiso 1 1 calc GR
H1B H -0.0539 0.4677 0.6883 0.052 Uiso 1 1 calc GR
H1C H 0.0283 0.3988 0.7636 0.052 Uiso 1 1 calc GR
C12 C 0.4323(3) 0.40506(18) 0.8868(3) 0.0323(7) Uani 1 1 d .
H12 H 0.4207 0.4172 0.9544 0.039 Uiso 1 1 calc R
loop_
_atom_site_aniso_label
_atom_site_aniso_U_11
_atom_site_aniso_U_22
_atom_site_aniso_U_33
_atom_site_aniso_U_23
_atom_site_aniso_U_13
_atom_site_aniso_U_12
S1 0.0161(3) 0.0199(4) 0.0144(4) 0.0029(2) 0.0052(3) 0.0017(2)
O1 0.0230(9) 0.0230(10) 0.0249(11) 0.0070(8) 0.0118(8) 0.0001(7)
O5 0.0212(9) 0.0231(10) 0.0196(10) -0.0036(8) 0.0112(8) -0.0025(7)
O3 0.0278(10) 0.0231(11) 0.0224(10) 0.0009(8) 0.0133(8) 0.0021(7)
O2 0.0204(9) 0.0294(11) 0.0137(9) -0.0022(8) 0.0018(8) 0.0018(7)
O4 0.0323(11) 0.0352(12) 0.0381(13) 0.0113(10) 0.0221(10) 0.0119(9)
N1 0.0148(10) 0.0149(11) 0.0135(11) 0.0001(8) 0.0029(8) 0.0003(8)
C24 0.0145(12) 0.0172(13) 0.0168(13) -0.0018(10) 0.0053(10) -0.0006(9)
C16 0.0160(13) 0.0266(15) 0.0203(14) -0.0004(11) 0.0066(11) -0.0059(11)
C6 0.0182(12) 0.0171(13) 0.0209(14) 0.0023(11) 0.0067(11) 0.0017(10)
C14 0.0205(13) 0.0159(13) 0.0171(14) 0.0006(10) 0.0063(11) 0.0024(10)
C4 0.0162(13) 0.0196(14) 0.0188(14) 0.0022(11) 0.0028(11) 0.0009(10)
C10 0.0273(14) 0.0236(15) 0.0197(15) 0.0012(12) 0.0066(11) 0.0002(11)
C3 0.0125(12) 0.0256(15) 0.0266(15) 0.0091(12) 0.0042(11) 0.0018(10)
C2 0.0195(13) 0.0286(15) 0.0213(15) 0.0088(12) 0.0089(11) 0.0079(11)
C13 0.0318(15) 0.0233(15) 0.0188(14) 0.0017(11) 0.0127(12) 0.0058(11)
C8 0.0182(13) 0.0224(14) 0.0123(13) -0.0015(10) 0.0044(11) -0.0019(10)
C7 0.0233(13) 0.0241(15) 0.0191(14) 0.0007(11) 0.0061(11) 0.0059(11)
C9 0.0174(12) 0.0180(14) 0.0160(13) 0.0015(10) 0.0036(11) 0.0044(10)
C19 0.0178(12) 0.0208(14) 0.0169(14) -0.0002(11) 0.0080(10) 0.0001(10)
C5 0.0171(12) 0.0209(14) 0.0152(13) 0.0047(11) 0.0047(10) 0.0038(10)
C20 0.0260(14) 0.0224(15) 0.0221(15) 0.0036(11) 0.0105(12) -0.0001(11)
C15 0.0159(13) 0.0353(16) 0.0172(14) -0.0008(12) 0.0040(11) -0.0053(11)
C23 0.0220(13) 0.0224(15) 0.0214(15) -0.0013(11) 0.0099(11) 0.0016(10)
C17 0.0303(15) 0.0275(16) 0.0236(15) 0.0008(12) 0.0147(13) -0.0009(11)
C22 0.0294(15) 0.0228(15) 0.0294(16) -0.0038(12) 0.0141(12) 0.0000(11)
C11 0.0468(18) 0.0241(16) 0.0207(15) -0.0051(12) 0.0113(13) -0.0013(13)
C21 0.0320(15) 0.0188(14) 0.0294(16) 0.0001(12) 0.0125(13) 0.0013(11)
C18 0.065(2) 0.051(2) 0.0288(18) -0.0067(16) 0.0213(17) -0.0229(18)
C1 0.0358(17) 0.0407(19) 0.0347(18) 0.0092(15) 0.0216(14) 0.0099(14)
C12 0.0509(19) 0.0293(17) 0.0206(15) -0.0017(12) 0.0183(14) 0.0052(13)
loop_
_atom_type_symbol
_atom_type_description
_atom_type_scat_dispersion_real
_atom_type_scat_dispersion_imag
_atom_type_scat_source
C C 0.0033 0.0016 'International Tables Vol C Tables 4.2.6.8 and 6.1.1.4'
H H 0.0000 0.0000 'International Tables Vol C Tables 4.2.6.8 and 6.1.1.4'
N N 0.0061 0.0033 'International Tables Vol C Tables 4.2.6.8 and 6.1.1.4'
O O 0.0106 0.0060 'International Tables Vol C Tables 4.2.6.8 and 6.1.1.4'
S S 0.1246 0.1234 'International Tables Vol C Tables 4.2.6.8 and 6.1.1.4'
loop_
_geom_angle_atom_site_label_1
_geom_angle_atom_site_label_2
_geom_angle_atom_site_label_3
_geom_angle
O1 S1 O2 119.42(11)
O1 S1 N1 107.80(10)
O1 S1 C5 108.06(12)
O2 S1 N1 106.35(11)
O2 S1 C5 108.22(11)
N1 S1 C5 106.28(11)
C14 O5 C19 117.07(18)
C16 O3 C17 116.6(2)
C24 N1 S1 116.35(15)
C8 N1 S1 116.54(16)
C8 N1 C24 121.41(19)
N1 C24 H24 106.9
N1 C24 C19 113.0(2)
N1 C24 C23 111.7(2)
C19 C24 H24 106.9
C19 C24 C23 111.0(2)
C23 C24 H24 106.9
O3 C16 C15 113.2(2)
O4 C16 O3 123.5(3)
O4 C16 C15 123.2(3)
C7 C6 H6 120.3
C7 C6 C5 119.4(2)
C5 C6 H6 120.3
O5 C14 C13 114.4(2)
O5 C14 C9 124.4(2)
C13 C14 C9 121.2(2)
C3 C4 H4 120.4
C3 C4 C5 119.2(3)
C5 C4 H4 120.4
C9 C10 H10 119.0
C11 C10 H10 119.0
C11 C10 C9 122.1(3)
C4 C3 H3 119.3
C4 C3 C2 121.4(2)
C2 C3 H3 119.3
C3 C2 C1 121.3(3)
C7 C2 C3 118.4(2)
C7 C2 C1 120.3(3)
C14 C13 H13 119.9
C12 C13 C14 120.2(3)
C12 C13 H13 119.9
N1 C8 H8 105.0
N1 C8 C9 115.7(2)
N1 C8 C15 112.6(2)
C9 C8 H8 105.0
C15 C8 H8 105.0
C15 C8 C9 112.4(2)
C6 C7 C2 121.2(3)
C6 C7 H7 119.4
C2 C7 H7 119.4
C14 C9 C10 117.2(2)
C14 C9 C8 126.7(2)
C10 C9 C8 116.1(2)
O5 C19 C24 110.6(2)
O5 C19 H19 109.5
O5 C19 C20 107.2(2)
C24 C19 H19 109.5
C20 C19 C24 110.5(2)
C20 C19 H19 109.5
C6 C5 S1 118.75(19)
C4 C5 S1 120.5(2)
C4 C5 C6 120.3(2)
C19 C20 H20A 109.5
C19 C20 H20B 109.5
C19 C20 C21 110.9(2)
H20A C20 H20B 108.1
C21 C20 H20A 109.5
C21 C20 H20B 109.5
C16 C15 C8 118.0(2)
C16 C15 H15A 107.8
C16 C15 H15B 107.8
C8 C15 H15A 107.8
C8 C15 H15B 107.8
H15A C15 H15B 107.2
C24 C23 H23A 109.7
C24 C23 H23B 109.7
H23A C23 H23B 108.2
C22 C23 C24 109.9(2)
C22 C23 H23A 109.7
C22 C23 H23B 109.7
O3 C17 H17A 109.4
O3 C17 H17B 109.4
O3 C17 C18 111.4(2)
H17A C17 H17B 108.0
C18 C17 H17A 109.4
C18 C17 H17B 109.4
C23 C22 H22A 109.5
C23 C22 H22B 109.5
H22A C22 H22B 108.1
C21 C22 C23 110.9(2)
C21 C22 H22A 109.5
C21 C22 H22B 109.5
C10 C11 H11 120.1
C10 C11 C12 119.8(3)
C12 C11 H11 120.1
C20 C21 H21A 109.5
C20 C21 H21B 109.5
C22 C21 C20 110.6(2)
C22 C21 H21A 109.5
C22 C21 H21B 109.5
H21A C21 H21B 108.1
C17 C18 H18A 109.5
C17 C18 H18B 109.5
C17 C18 H18C 109.5
H18A C18 H18B 109.5
H18A C18 H18C 109.5
H18B C18 H18C 109.5
C2 C1 H1A 109.5
C2 C1 H1B 109.5
C2 C1 H1C 109.5
H1A C1 H1B 109.5
H1A C1 H1C 109.5
H1B C1 H1C 109.5
C13 C12 C11 119.6(3)
C13 C12 H12 120.2
C11 C12 H12 120.2
loop_
_geom_bond_atom_site_label_1
_geom_bond_atom_site_label_2
_geom_bond_distance
S1 O1 1.4288(19)
S1 O2 1.4377(18)
S1 N1 1.642(2)
S1 C5 1.761(3)
O5 C14 1.378(3)
O5 C19 1.436(3)
O3 C16 1.333(3)
O3 C17 1.460(3)
O4 C16 1.209(3)
N1 C24 1.491(3)
N1 C8 1.484(3)
C24 H24 0.9800
C24 C19 1.518(4)
C24 C23 1.533(3)
C16 C15 1.503(4)
C6 H6 0.9300
C6 C7 1.376(4)
C6 C5 1.393(4)
C14 C13 1.390(4)
C14 C9 1.396(4)
C4 H4 0.9300
C4 C3 1.376(4)
C4 C5 1.391(4)
C10 H10 0.9300
C10 C9 1.401(4)
C10 C11 1.376(4)
C3 H3 0.9300
C3 C2 1.393(4)
C2 C7 1.393(4)
C2 C1 1.504(4)
C13 H13 0.9300
C13 C12 1.385(4)
C8 H8 0.9800
C8 C9 1.526(4)
C8 C15 1.526(4)
C7 H7 0.9300
C19 H19 0.9800
C19 C20 1.517(4)
C20 H20A 0.9700
C20 H20B 0.9700
C20 C21 1.530(4)
C15 H15A 0.9700
C15 H15B 0.9700
C23 H23A 0.9700
C23 H23B 0.9700
C23 C22 1.530(4)
C17 H17A 0.9700
C17 H17B 0.9700
C17 C18 1.495(4)
C22 H22A 0.9700
C22 H22B 0.9700
C22 C21 1.530(4)
C11 H11 0.9300
C11 C12 1.390(4)
C21 H21A 0.9700
C21 H21B 0.9700
C18 H18A 0.9600
C18 H18B 0.9600
C18 H18C 0.9600
C1 H1A 0.9600
C1 H1B 0.9600
C1 H1C 0.9600
C12 H12 0.9300
loop_
_geom_torsion_atom_site_label_1
_geom_torsion_atom_site_label_2
_geom_torsion_atom_site_label_3
_geom_torsion_atom_site_label_4
_geom_torsion
S1 N1 C24 C19 -126.32(19)
S1 N1 C24 C23 107.7(2)
S1 N1 C8 C9 86.5(2)
S1 N1 C8 C15 -142.41(19)
O1 S1 N1 C24 -170.41(17)
O1 S1 N1 C8 35.8(2)
O1 S1 C5 C6 -30.1(2)
O1 S1 C5 C4 156.7(2)
O5 C14 C13 C12 -178.4(2)
O5 C14 C9 C10 178.0(2)
O5 C14 C9 C8 0.9(4)
O5 C19 C20 C21 177.9(2)
O3 C16 C15 C8 36.8(3)
O2 S1 N1 C24 -41.2(2)
O2 S1 N1 C8 164.94(17)
O2 S1 C5 C6 -160.75(19)
O2 S1 C5 C4 26.1(2)
O4 C16 C15 C8 -145.2(3)
N1 S1 C5 C6 85.4(2)
N1 S1 C5 C4 -87.8(2)
N1 C24 C19 O5 57.1(3)
N1 C24 C19 C20 175.65(19)
N1 C24 C23 C22 -175.4(2)
N1 C8 C9 C14 27.5(4)
N1 C8 C9 C10 -149.6(2)
N1 C8 C15 C16 50.8(3)
C24 N1 C8 C9 -65.9(3)
C24 N1 C8 C15 65.2(3)
C24 C19 C20 C21 57.3(3)
C24 C23 C22 C21 -56.6(3)
C16 O3 C17 C18 79.9(3)
C14 O5 C19 C24 -90.1(2)
C14 O5 C19 C20 149.4(2)
C14 C13 C12 C11 0.3(4)
C4 C3 C2 C7 2.6(4)
C4 C3 C2 C1 -176.7(2)
C10 C11 C12 C13 0.7(4)
C3 C4 C5 S1 171.31(19)
C3 C4 C5 C6 -1.7(4)
C3 C2 C7 C6 -2.2(4)
C13 C14 C9 C10 1.0(4)
C13 C14 C9 C8 -176.1(2)
C8 N1 C24 C19 26.1(3)
C8 N1 C24 C23 -99.8(2)
C7 C6 C5 S1 -171.03(19)
C7 C6 C5 C4 2.1(4)
C9 C14 C13 C12 -1.2(4)
C9 C10 C11 C12 -0.9(4)
C9 C8 C15 C16 -176.4(2)
C19 O5 C14 C13 -145.4(2)
C19 O5 C14 C9 37.4(3)
C19 C24 C23 C22 57.5(3)
C19 C20 C21 C22 -56.6(3)
C5 S1 N1 C24 73.93(19)
C5 S1 N1 C8 -79.89(19)
C5 C6 C7 C2 -0.1(4)
C5 C4 C3 C2 -0.7(4)
C15 C8 C9 C14 -103.7(3)
C15 C8 C9 C10 79.2(3)
C23 C24 C19 O5 -176.57(19)
C23 C24 C19 C20 -58.0(3)
C23 C22 C21 C20 56.4(3)
C17 O3 C16 O4 3.9(4)
C17 O3 C16 C15 -178.1(2)
C11 C10 C9 C14 0.1(4)
C11 C10 C9 C8 177.5(2)
C1 C2 C7 C6 177.1(2)
loop_
_refln_index_h
_refln_index_k
_refln_index_l
_refln_F_squared_meas
_refln_F_squared_sigma
_refln_scale_group_code
0 0 -2 194 410 1
0 0 2 33028 1739 1
0 0 2 102733 2185 1
0 0 -2 113097 2404 1
0 0 -4 55018 2166 1
0 0 4 53738 2215 1
0 0 4 50517 1994 1
0 0 -4 54370 2138 1
0 0 -4 53268 1681 1
0 0 -6 12208 1445 1
0 0 6 9656 1344 1
0 0 -6 11516 1141 1
0 0 8 5137 727 1
0 0 -8 5550 779 1
0 0 -8 5356 640 1
0 0 -10 25814 2418 1
0 0 10 24041 1219 1
0 0 10 25572 2489 1
0 0 12 4720 946 1
0 0 -12 3173 795 1
0 1 -1 11616 120 1
0 -1 -1 104864 1319 1
0 1 -1 227805 1809 1
0 -1 1 224084 1737 1
0 1 2 20249 556 1
0 -1 -2 2761 35 1
0 -1 2 18342 558 1
0 -1 2 19857 441 1
0 -1 -2 2602 49 1
0 -1 2 19609 604 1
0 1 2 20836 556 1
0 1 -2 20051 613 1
0 1 -2 2364 31 1
0 1 3 3305 550 1
0 -1 3 3013 372 1
0 1 -3 3290 571 1
0 -1 3 3362 576 1
0 -1 3 2686 520 1
0 -1 -3 2922 485 1
0 -1 -3 2813 453 1
0 1 -3 3292 574 1
0 1 3 2912 438 1
0 1 3 3155 502 1
0 1 4 63941 2001 1
0 1 4 60515 1777 1
0 -1 -4 67415 1974 1
0 -1 4 63874 1960 1
0 1 4 64151 1723 1
0 1 -4 67927 2069 1
0 -1 4 63650 2001 1
0 1 -4 68091 2170 1
0 -1 -4 64582 1671 1
0 1 -5 1489 578 1
0 -1 5 796 448 1
0 -1 5 996 320 1
0 1 5 870 499 1
0 1 5 893 454 1
0 1 -5 1489 597 1
0 -1 -5 1333 450 1
0 -1 -5 1386 546 1
0 1 -5 1806 540 1
0 -1 5 1200 516 1
0 1 6 7141 918 1
0 1 -6 5556 572 1
0 1 -6 6630 818 1
0 -1 6 5422 471 1
0 -1 6 6546 815 1
0 -1 -6 5962 623 1
0 -1 -6 5091 697 1
0 1 -6 5371 718 1
0 -1 -7 785 191 1
0 -1 -7 1401 231 1
0 1 -7 951 151 1
0 -1 7 1408 169 1
0 -1 7 1026 234 1
0 1 -7 1004 197 1
0 1 7 667 133 1
0 -1 -8 1401 436 1
0 -1 8 1711 357 1
0 -1 8 1798 595 1
0 1 8 1023 506 1
0 1 -8 1785 475 1
0 -1 -8 1016 482 1
0 1 -8 1849 629 1
0 -1 9 11511 883 1
0 1 -9 13629 1699 1
0 1 -9 10949 1198 1
0 -1 -9 10572 1461 1
0 -1 -9 10977 1175 1
0 1 9 10427 1484 1
0 -1 9 11199 1519 1
0 1 -10 12304 1750 1
0 -1 -10 10805 1642 1
0 -1 10 8731 1484 1
0 1 10 11472 1723 1
0 1 10 10790 881 1
0 -1 11 28 105 1
0 1 11 15 207 1
0 1 -11 102 293 1
0 -1 -11 78 352 1
0 1 12 7199 1478 1
0 -1 -12 6510 1412 1
0 -1 12 4181 1108 1
0 1 -12 8827 1569 1
0 -1 13 7445 1479 1
0 -1 -13 10836 1876 1
0 1 13 10154 1876 1
0 1 -13 11651 1842 1
0 -2 0 126108 1395 1
0 -2 0 127709 1886 1
0 -2 1 1715 35 1
0 -2 1 1519 42 1
0 2 1 1859 16 1
0 -2 -1 1476 41 1
0 2 -1 1980 20 1
0 2 -1 1980 31 1
0 2 2 14643 741 1
0 2 -2 12984 547 1
0 2 -2 1634 178 1
0 -2 -2 115 52 1
0 2 -2 975 155 1
0 2 -2 12407 666 1
0 -2 2 13381 732 1
0 -2 3 11457 1063 1
0 -2 -3 11278 1348 1
0 -2 3 13657 1551 1
0 2 -3 11987 1526 1
0 -2 3 9215 1242 1
0 -2 -3 10583 1250 1
0 2 3 11863 1370 1
0 -2 4 58766 2170 1
0 2 -4 61991 2353 1
0 -2 4 70769 2548 1
0 2 -4 69235 2436 1
0 2 4 65865 2096 1
0 -2 -4 67101 2164 1
0 2 4 63035 2097 1
0 -2 -4 64559 2193 1
0 -2 4 64224 1708 1
0 -2 5 3536 935 1
0 2 -5 4097 1019 1
0 -2 5 3148 601 1
0 -2 5 3008 809 1
0 2 5 3964 878 1
0 -2 -5 2567 732 1
0 2 5 3370 898 1
0 -2 -5 2798 735 1
0 2 -5 3552 889 1
0 2 5 3153 762 1
0 -2 -6 20659 1673 1
0 2 6 21395 1828 1
0 2 -6 19075 1696 1
0 -2 6 17022 1472 1
0 -2 -6 21164 1437 1
0 -2 6 20167 1092 1
0 2 -6 18933 1585 1
0 2 7 6928 1099 1
0 -2 -7 6555 822 1
0 -2 7 5368 892 1
0 2 -7 5873 909 1
0 -2 7 5277 561 1
0 2 -7 5693 733 1
0 -2 -7 5001 859 1
0 2 8 1121 405 1
0 -2 8 1354 453 1
0 2 -8 1362 445 1
0 -2 -8 679 360 1
0 -2 -8 747 262 1
0 2 -8 1001 322 1
0 -2 9 4517 738 1
0 -2 -9 3246 583 1
0 2 -9 4979 790 1
0 2 -9 3631 473 1
0 -2 -9 3751 599 1
0 2 9 4123 694 1
0 -2 10 3610 849 1
0 -2 -10 5805 1079 1
0 2 10 3295 874 1
0 2 -10 5833 1126 1
0 2 -11 28035 2439 1
0 -2 11 28147 2385 1
0 -2 -11 30723 2556 1
0 2 11 29508 2580 1
0 -2 -12 3094 891 1
0 2 12 3444 1025 1
0 2 -12 1491 560 1
0 -2 12 3852 911 1
0 -2 -13 2444 870 1
0 -2 13 1815 741 1
0 2 13 2231 970 1
0 2 -13 2239 783 1
0 -3 1 195396 2478 1
0 3 1 177688 1593 1
0 3 -1 89673 1961 1
0 -3 -1 196817 2889 1
0 -3 1 195387 2574 1
0 3 1 5152 259 1
0 -3 2 80325 1668 1
0 3 2 96169 2248 1
0 3 -2 9633 283 1
0 3 -2 83518 1691 1
0 3 -2 79397 1439 1
0 3 3 23478 1191 1
0 -3 -3 22596 1172 1
0 3 -3 19812 1088 1
0 3 -3 24190 962 1
0 3 -3 24287 1066 1
0 3 -3 22770 1153 1
0 3 -4 11850 1380 1
0 -3 4 12935 1536 1
0 3 4 12405 1423 1
0 3 -4 11912 1504 1
0 -3 -4 10947 1261 1
0 -3 -4 13386 1473 1
0 -3 -5 23206 1532 1
0 3 5 21505 1452 1
0 3 -5 22447 1647 1
0 -3 5 20402 1434 1
0 3 -5 24290 1589 1
0 -3 -6 78964 3050 1
0 3 6 83216 3431 1
0 3 -6 83757 3504 1
0 3 6 76411 2818 1
0 -3 6 77251 3027 1
0 -3 -7 2003 468 1
0 -3 7 1474 386 1
0 -3 -7 2407 504 1
0 3 -7 1386 341 1
0 3 7 1817 449 1
0 3 7 2329 457 1
0 -3 -8 13502 1369 1
0 3 -8 10932 1167 1
0 3 8 14274 1500 1
0 -3 -8 13996 1352 1
0 3 8 15785 1410 1
0 -3 8 13031 1279 1
0 3 -9 1554 553 1
0 3 -9 2266 544 1
0 3 9 2899 873 1
0 -3 9 2639 735 1
0 -3 -9 1473 624 1
0 -3 10 88 110 1
0 3 -10 3 163 1
0 3 10 5 321 1
0 -3 -10 101 314 1
0 3 11 338 474 1
0 3 -11 78 252 1
0 -3 11 2 50 1
0 -3 -11 120 156 1
0 -3 -12 1456 577 1
0 3 -12 929 534 1
0 -3 12 876 412 1
0 3 12 715 355 1
0 3 -13 488 456 1
0 3 13 725 704 1
0 -3 -13 531 463 1
0 4 0 455667 6184 1
0 -4 0 452962 5990 1
0 4 1 75567 2211 1
0 4 -1 74368 1999 1
0 -4 -1 84091 2320 1
0 -4 1 79065 1973 1
0 -4 1 72709 842 1
0 4 1 67378 1028 1
0 4 -1 71223 1571 1
0 4 2 119 291 1
0 -4 2 135 252 1
0 -4 2 32 316 1
0 4 -2 391 170 1
0 4 -2 28 302 1
0 -4 -3 2767 697 1
0 4 3 3609 789 1
0 4 -3 4308 674 1
0 -4 3 2986 691 1
0 4 -3 3850 697 1
0 4 -3 3726 721 1
0 4 -4 46665 2181 1
0 4 4 47413 2136 1
0 4 -4 51947 2026 1
0 -4 -4 49676 1968 1
0 -4 4 53764 2415 1
0 4 -4 52075 2244 1
0 4 -4 52339 1820 1
0 -4 -4 53023 2279 1
0 4 5 5049 671 1
0 4 -5 4548 591 1
0 -4 -5 3699 500 1
0 4 -5 5294 511 1
0 -4 -5 5600 671 1
0 4 -5 5643 746 1
0 4 -6 57417 2863 1
0 -4 -6 57652 2750 1
0 -4 -6 57671 2791 1
0 4 -6 55512 2106 1
0 4 -6 52032 2891 1
0 4 6 56054 2705 1
0 4 7 855 421 1
0 -4 -7 523 232 1
0 4 -7 786 227 1
0 4 -7 1173 356 1
0 4 7 625 245 1
0 -4 -7 1384 403 1
0 -4 -8 4849 1037 1
0 4 8 5238 1165 1
0 4 -8 4370 985 1
0 4 8 4542 949 1
0 4 -8 4158 670 1
0 4 9 3416 936 1
0 4 -9 2992 604 1
0 4 9 3214 966 1
0 4 -9 2989 866 1
0 -4 -9 3917 1058 1
0 4 -9 4810 1064 1
0 -4 -10 21841 2221 1
0 4 -10 20371 2051 1
0 4 10 23248 2586 1
0 4 -10 20305 1388 1
0 4 -11 3703 654 1
0 4 11 3326 1027 1
0 4 -11 3630 1047 1
0 -4 -11 4028 1094 1
0 -4 -12 970 538 1
0 4 -12 1416 426 1
0 4 12 507 434 1
0 -4 -13 51 279 1
0 4 -13 148 296 1
0 4 13 0 277 1
0 -5 -1 2839 60 1
0 -5 -1 2048 192 1
0 5 1 1902 182 1
0 5 1 2229 64 1
0 5 -1 2133 179 1
0 5 -1 2354 78 1
0 -5 1 2248 48 1
0 -5 1 2576 107 1
0 -5 1 2969 57 1
0 -5 2 45898 1687 1
0 5 -2 45783 1600 1
0 5 2 42159 1098 1
0 5 -2 51260 1972 1
0 -5 -2 115 111 1
0 5 2 46204 1981 1
0 -5 2 6339 637 1
0 5 -3 48064 1990 1
0 5 3 50718 2557 1
0 -5 -3 48797 2324 1
0 5 -3 50438 2078 1
0 5 -3 47069 1936 1
0 -5 3 47340 2207 1
0 5 -4 92 24 1
0 5 4 1 51 1
0 5 -4 48 12 1
0 5 -4 32 116 1
0 -5 -5 11328 880 1
0 5 -5 13087 1025 1
0 -5 -5 12149 1003 1
0 5 5 12714 1046 1
0 5 -5 11539 1004 1
0 5 -5 12324 815 1
0 -5 -6 1293 378 1
0 5 -6 2170 512 1
0 5 -6 2093 369 1
0 -5 -6 1928 421 1
0 5 6 2262 547 1
0 5 7 723 175 1
0 5 -7 879 194 1
0 -5 -7 761 178 1
0 5 -7 787 97 1
0 5 -8 1684 420 1
0 5 -8 1308 499 1
0 5 8 583 350 1
0 -5 -8 1231 456 1
0 5 -9 40 167 1
0 -5 -9 33 191 1
0 5 -9 35 101 1
0 5 9 2 188 1
0 5 9 64 357 1
0 5 -10 280 176 1
0 -5 -10 85 190 1
0 5 10 82 262 1
0 5 -10 351 321 1
0 5 10 576 494 1
0 5 -11 1829 407 1
0 5 -11 2251 653 1
0 -5 -11 2923 845 1
0 5 11 3554 955 1
0 -5 -12 2380 820 1
0 5 -12 2405 901 1
0 5 12 2190 806 1
0 -5 -13 5547 1347 1
0 5 -13 5372 1319 1
0 5 13 5181 1474 1
0 -6 0 814 24 1
0 6 0 188 139 1
0 6 0 282 73 1
0 6 0 238 184 1
0 -6 0 382 166 1
0 -6 0 311 68 1
0 -6 -1 33451 2051 1
0 -6 -1 31462 1371 1
0 6 1 28984 1291 1
0 6 -1 27330 1313 1
0 -6 1 32448 1862 1
0 6 1 30173 907 1
0 -6 1 28750 660 1
0 6 1 31950 2010 1
0 6 -1 30010 1890 1
0 -6 2 4844 390 1
0 -6 -2 286 58 1
0 6 2 4509 471 1
0 -6 2 6530 909 1
0 -6 -2 4699 597 1
0 6 2 4675 887 1
0 -6 2 132 44 1
0 6 -2 5466 844 1
0 6 -2 5038 717 1
0 -6 -3 24320 1972 1
0 -6 3 25548 1741 1
0 6 -3 26601 1823 1
0 6 3 23657 1250 1
0 6 3 26859 2244 1
0 -6 -4 22568 1747 1
0 6 -4 22835 1592 1
0 6 4 18754 1167 1
0 6 -4 22294 1478 1
0 6 -4 20935 1482 1
0 6 4 23990 1822 1
0 6 5 191 67 1
0 6 -5 191 48 1
0 6 -5 191 40 1
0 6 -5 677 193 1
0 6 -6 1371 198 1
0 6 -6 1389 249 1
0 6 6 1250 321 1
0 -6 -6 1928 342 1
0 -6 -7 14464 1430 1
0 6 -7 13922 1502 1
0 6 7 17274 1680 1
0 6 -7 15079 1217 1
0 6 8 8997 1104 1
0 6 -8 6948 742 1
0 6 -8 6571 932 1
0 -6 -8 6930 935 1
0 6 9 7 156 1
0 6 9 169 269 1
0 6 -9 74 217 1
0 -6 -9 87 170 1
0 6 -9 10 147 1
0 6 -10 4960 1065 1
0 -6 -10 4917 1093 1
0 6 10 3700 963 1
0 6 -10 2649 578 1
0 6 10 3229 867 1
0 6 11 1366 556 1
0 -6 -11 2855 790 1
0 6 -11 1957 385 1
0 6 -11 1872 577 1
0 6 -12 37 341 1
0 -6 -12 350 213 1
0 6 12 10 396 1
0 -6 -13 312 353 1
0 6 13 650 601 1
0 6 -13 2 326 1
0 7 -1 94313 3187 1
0 7 1 97299 3419 1
0 7 1 91466 2162 1
0 7 -1 86471 2301 1
0 7 1 83229 1432 1
0 -7 1 94174 3105 1
0 -7 1 86596 1030 1
0 7 -1 86129 1297 1
0 -7 -1 90640 2252 1
0 -7 -1 91282 3208 1
0 7 2 661 164 1
0 -7 -2 665 98 1
0 -7 -2 660 151 1
0 -7 2 855 58 1
0 7 2 699 70 1
0 7 -2 809 57 1
0 -7 2 719 104 1
0 -7 2 697 36 1
0 7 -2 679 200 1
0 -7 3 430 213 1
0 7 3 741 214 1
0 7 3 229 238 1
0 7 -3 444 221 1
0 7 -4 61873 2313 1
0 7 4 58137 2670 1
0 7 -5 7114 910 1
0 7 5 7562 1108 1
0 7 -5 6952 924 1
0 -7 -6 166 215 1
0 7 -6 46 80 1
0 7 6 30 234 1
0 7 -6 366 267 1
0 7 -7 9836 1340 1
0 7 -7 7663 934 1
0 7 7 9789 1463 1
0 -7 -7 8083 1108 1
0 -7 -8 12329 1301 1
0 7 -8 15313 1187 1
0 7 -8 15831 1530 1
0 7 8 15151 1527 1
0 7 -9 268 120 1
0 7 -9 525 332 1
0 7 9 830 376 1
0 -7 -10 11713 1799 1
0 7 10 9996 1824 1
0 7 -10 12038 1377 1
0 7 10 12771 1850 1
0 7 -10 12035 1788 1
0 7 -11 108 231 1
0 -7 -11 565 509 1
0 7 -11 236 188 1
0 7 11 167 349 1
0 7 11 880 736 1
0 7 12 3495 1265 1
0 7 -12 5053 1284 1
0 -7 -12 3798 1156 1
0 8 0 260 89 1
0 8 0 285 51 1
0 8 0 611 104 1
0 -8 0 155 142 1
0 8 -1 1946 287 1
0 -8 1 1691 109 1
0 -8 1 2469 392 1
0 8 -1 1605 142 1
0 -8 -1 2134 291 1
0 8 1 2020 179 1
0 8 1 1451 204 1
0 8 -1 1732 356 1
0 8 1 1888 388 1
0 -8 2 6482 408 1
0 8 -2 6700 839 1
0 8 2 6109 1099 1
0 8 2 5427 517 1
0 -8 -2 6220 746 1
0 -8 3 1103 287 1
0 8 3 1002 361 1
0 8 -3 1410 644 1
0 8 3 777 586 1
0 8 -3 737 451 1
0 8 -4 45094 2406 1
0 8 -4 42794 2240 1
0 8 4 47871 2989 1
0 8 -5 1741 604 1
0 8 -5 830 408 1
0 8 5 757 458 1
0 8 -6 650 206 1
0 8 -6 1614 381 1
0 8 6 692 284 1
0 8 -7 1902 411 1
0 -8 -7 2103 494 1
0 8 7 2419 637 1
0 8 -7 1651 481 1
0 8 8 566 379 1
0 -8 -8 261 301 1
0 8 -8 1385 574 1
0 8 -8 736 387 1
0 8 -9 505 224 1
0 8 9 263 214 1
0 8 -9 453 176 1
0 -8 -9 128 115 1
0 8 -10 4317 824 1
0 -8 -10 3420 838 1
0 8 -10 6274 1231 1
0 8 10 4430 1400 1
0 8 10 4368 1005 1
0 8 -11 9 98 1
0 -8 -11 1098 703 1
0 8 -11 681 462 1
0 8 11 806 625 1
0 8 11 125 186 1
0 8 12 663 499 1
0 8 -12 83 307 1
0 -8 -12 569 468 1
0 9 1 7428 1388 1
0 9 -1 4320 454 1
0 9 -1 6181 908 1
0 9 1 3963 712 1
0 -9 1 4731 371 1
0 9 -1 6628 1316 1
0 9 1 5159 545 1
0 9 2 3662 838 1
0 -9 2 2765 233 1
0 9 -2 3302 734 1
0 9 2 2993 374 1
0 9 -2 2890 527 1
0 9 -3 9024 1156 1
0 9 -3 8987 951 1
0 9 3 8129 1219 1
0 -9 3 9667 504 1
0 9 3 8076 641 1
0 9 -4 34 76 1
0 9 -4 479 151 1
0 9 4 426 176 1
0 -9 4 233 78 1
0 9 -5 867 227 1
0 9 -5 608 73 1
0 9 5 356 227 1
0 9 6 1488 494 1
0 9 -6 1269 406 1
0 9 -6 1195 407 1
0 9 7 1414 757 1
0 9 -7 1364 644 1
0 9 -7 1029 570 1
0 -9 -7 864 532 1
0 9 -8 7006 1119 1
0 -9 -8 6661 1123 1
0 9 8 9599 1605 1
0 9 -8 7658 1244 1
0 -9 -9 4400 842 1
0 9 -9 7595 1058 1
0 9 9 6810 1171 1
0 9 -9 7290 1121 1
0 9 10 2594 687 1
0 9 -10 3663 822 1
0 -9 -10 3844 838 1
0 9 -10 4896 867 1
0 9 11 3499 1046 1
0 9 -11 2382 788 1
0 9 11 2878 897 1
0 -9 -11 2869 808 1
0 -9 -12 1567 689 1
0 9 12 3889 1430 1
0 9 -12 1822 726 1
0 10 0 29327 1331 1
0 10 0 29284 824 1
0 10 -1 21290 1397 1
0 10 1 21055 906 1
0 -10 1 18499 607 1
0 10 -1 23557 2028 1
0 10 1 20545 1291 1
0 10 -2 286 351 1
0 10 -2 175 237 1
0 10 2 266 345 1
0 -10 2 121 81 1
0 10 2 154 137 1
0 10 3 27278 1218 1
0 10 3 30115 2508 1
0 -10 3 32632 904 1
0 10 -3 33180 2369 1
0 10 -3 31961 1894 1
0 10 -4 363 291 1
0 10 -4 1016 496 1
0 10 4 341 364 1
0 -10 4 528 175 1
0 10 5 2744 702 1
0 -10 5 3178 390 1
0 10 -5 2612 597 1
0 10 -5 2611 620 1
0 10 -6 16079 1754 1
0 10 6 14217 1975 1
0 10 -6 13282 1621 1
0 10 -7 56594 3191 1
0 10 7 57663 3699 1
0 -10 -7 53522 2909 1
0 10 -7 58265 3093 1
0 10 8 614 252 1
0 10 -8 606 243 1
0 10 -8 319 148 1
0 -10 -8 111 65 1
0 10 -9 6181 1164 1
0 10 9 5991 1303 1
0 10 -9 7612 1172 1
0 -10 -9 5745 1130 1
0 10 -10 10607 1544 1
0 10 10 7277 1370 1
0 10 -10 8868 1228 1
0 -10 -10 8497 1372 1
0 10 11 2784 920 1
0 -10 -11 2824 766 1
0 10 -11 2959 891 1
0 10 11 4029 1024 1
0 11 1 21315 1002 1
0 11 1 23447 2268 1
0 11 -1 23338 2138 1
0 11 1 20673 1412 1
0 11 -1 22756 1546 1
0 11 2 2893 289 1
0 11 2 4091 743 1
0 11 -2 2523 513 1
0 11 -2 2695 423 1
0 -11 2 2437 141 1
0 11 3 13213 1686 1
0 11 -3 13664 1582 1
0 11 -3 13265 1200 1
0 -11 3 12716 495 1
0 11 -4 4113 700 1
0 11 4 4401 922 1
0 11 -4 4412 647 1
0 -11 4 4254 298 1
0 11 -5 31153 2115 1
0 11 5 32694 2899 1
0 11 -5 32198 2491 1
0 -11 5 31177 1212 1
0 11 -6 2455 625 1
0 11 -6 2710 708 1
0 -11 6 1791 337 1
0 11 6 1564 697 1
0 11 -7 864 495 1
0 11 -7 315 322 1
0 11 7 481 440 1
0 -11 -8 56 158 1
0 11 -8 56 105 1
0 11 -8 56 158 1
0 11 -9 71 292 1
0 -11 -9 506 441 1
0 11 -9 20 336 1
0 11 9 429 380 1
0 11 -10 49 182 1
0 11 -10 42 350 1
0 11 10 48 341 1
0 -11 -10 78 268 1
0 11 -11 1214 540 1
0 -11 -11 894 340 1
0 11 11 1442 647 1
0 12 0 840 276 1
0 12 0 667 145 1
0 12 0 1130 489 1
0 12 1 4 49 1
0 12 -1 74 195 1
0 12 -1 62 94 1
0 12 1 10 94 1
0 12 2 538 169 1
0 -12 2 393 73 1
0 12 -2 524 340 1
0 12 2 630 369 1
0 12 -2 526 213 1
0 -12 3 4666 210 1
0 12 -3 5530 637 1
0 12 -3 7141 1001 1
0 12 3 6166 986 1
0 12 -4 57895 2763 1
0 -12 4 59833 1245 1
0 12 -4 63155 3557 1
0 -12 5 2197 361 1
0 12 -5 1833 617 1
0 12 -5 2477 790 1
0 12 5 1410 802 1
0 -12 6 6995 620 1
0 12 -6 7025 1207 1
0 12 6 8049 1496 1
0 12 -6 6553 1031 1
0 12 -7 13761 1636 1
0 12 -7 10398 1362 1
0 -12 7 10190 841 1
0 12 7 11359 1666 1
0 12 8 8987 1622 1
0 12 -8 8312 1294 1
0 -12 -8 7419 1224 1
0 12 -8 8896 1392 1
0 12 -9 6377 1062 1
0 -12 -9 6486 1110 1
0 12 -9 5977 1051 1
0 12 9 7213 1444 1
0 12 -10 2300 819 1
0 12 -10 3194 797 1
0 12 10 4174 1131 1
0 -12 -10 3172 908 1
0 13 -1 7726 836 1
0 13 1 8238 587 1
0 13 1 9969 1442 1
0 13 -1 6993 1157 1
0 13 2 2989 956 1
0 13 -2 2050 608 1
0 13 -2 2654 898 1
0 13 2 1433 364 1
0 13 -3 171 196 1
0 13 -3 659 346 1
0 -13 4 12438 422 1
0 13 -4 14562 1672 1
0 13 -4 13795 1235 1
0 13 -5 3437 780 1
0 13 5 3209 872 1
0 13 -5 3685 689 1
0 -13 5 2696 259 1
0 13 -6 20223 2053 1
0 13 6 25490 2615 1
0 -13 6 22096 991 1
0 13 -6 24159 1954 1
0 13 -7 136 259 1
0 -13 7 322 216 1
0 13 -7 504 474 1
0 13 7 494 627 1
0 13 8 1380 691 1
0 13 -8 4146 978 1
0 -13 -8 3365 886 1
0 13 -8 4768 1090 1
0 13 -9 3688 1020 1
0 13 9 3724 1304 1
0 13 -9 3077 882 1
0 -13 -9 4249 1048 1
0 13 10 64 304 1
0 13 -10 14 276 1
0 13 -10 102 263 1
0 -13 -10 112 323 1
0 14 0 24195 1800 1
0 14 0 19420 958 1
0 14 0 23117 2637 1
0 14 -1 21885 1568 1
0 14 1 20292 2225 1
0 14 -1 25398 2466 1
0 14 1 22028 1049 1
0 14 2 3059 1062 1
0 14 -2 1660 785 1
0 14 -2 1361 521 1
0 14 3 36096 3091 1
0 14 -3 36665 2826 1
0 14 -3 41011 2340 1
0 14 -4 214 176 1
0 14 -4 23 210 1
0 14 4 23 194 1
0 14 5 5020 1294 1
0 14 -5 6486 1035 1
0 14 -5 6636 1354 1
0 14 -6 107 147 1
0 14 -6 0 166 1
0 14 6 47 406 1
0 14 -7 14163 1665 1
0 14 7 21038 2566 1
0 14 -7 18951 2188 1
0 14 -8 147 96 1
0 14 8 472 374 1
0 14 -8 696 412 1
0 -14 -8 921 384 1
0 -14 -9 771 432 1
0 14 -9 517 285 1
0 14 9 1030 681 1
0 14 -9 271 285 1
0 15 -1 421 633 1
0 15 1 377 578 1
0 15 -1 143 97 1
0 15 -2 11236 1177 1
0 15 2 12781 1872 1
0 15 -2 11939 1749 1
0 15 -3 3769 705 1
0 15 -3 4919 1097 1
0 15 3 6620 1414 1
0 15 -4 9265 1190 1
0 15 4 10059 1809 1
0 15 -4 8916 1433 1
0 15 -5 2113 843 1
0 15 -5 1275 542 1
0 15 5 1237 669 1
0 15 -6 2504 876 1
0 15 6 684 470 1
0 15 -6 2477 627 1
0 15 -7 772 586 1
0 15 7 579 377 1
0 15 -7 170 161 1
0 15 -8 10 266 1
0 15 8 561 602 1
0 15 -8 264 401 1
0 15 -9 216 358 1
0 -15 -9 7 96 1
0 15 -9 7 302 1
0 15 9 107 152 1
0 16 0 30788 1937 1
0 16 0 31621 2963 1
0 16 -1 711 527 1
0 16 1 1002 562 1
0 16 -1 1131 396 1
0 16 -2 175 364 1
0 16 2 98 405 1
0 16 -2 4 48 1
0 16 -3 88 360 1
0 16 -3 1451 400 1
0 16 3 273 230 1
0 16 4 210 487 1
0 16 -4 1052 453 1
0 16 -4 1724 711 1
0 16 -5 213 62 1
0 16 -5 1359 565 1
0 16 5 2310 1106 1
0 16 -6 967 546 1
0 16 -6 518 253 1
0 16 6 947 642 1
0 16 -7 684 604 1
0 16 7 1481 748 1
0 16 -7 469 257 1
0 16 -8 4484 1043 1
0 16 -8 3171 1012 1
0 16 8 4317 1331 1
0 17 -1 4377 785 1
0 17 -1 5260 1294 1
0 17 1 5146 1317 1
0 17 -2 492 227 1
0 17 2 1015 347 1
0 17 -2 369 312 1
0 17 3 1402 748 1
0 17 -3 2099 565 1
0 17 -3 1672 818 1
0 17 -4 4039 934 1
0 17 -4 1577 757 1
0 17 5 1904 841 1
0 17 -5 866 549 1
0 17 -5 1873 612 1
0 17 6 3645 1120 1
0 17 -6 2477 730 1
0 17 -6 3846 831 1
0 17 -7 26 79 1
0 17 7 140 307 1
0 18 0 19 367 1
0 18 -1 6527 1456 1
0 18 -1 4336 787 1
0 18 1 4413 1217 1
0 18 -2 47 344 1
0 18 -2 5 46 1
0 18 -3 19998 2545 1
0 18 -3 16832 1621 1
0 18 3 22259 3045 1
0 18 -4 729 418 1
0 18 -4 780 357 1
0 18 4 707 642 1
0 18 -5 79 229 1
0 18 -5 350 477 1
0 18 5 6 285 1
0 18 -6 955 624 1
0 18 6 587 645 1
0 18 -6 790 516 1
0 19 -1 1796 867 1
0 19 1 3148 1287 1
0 19 -1 2691 761 1
0 19 -2 6784 1524 1
0 19 2 5031 1428 1
0 19 -2 5700 1017 1
0 19 -3 10072 1320 1
0 19 3 11904 2489 1
0 19 -3 10644 1911 1
0 19 -4 600 196 1
0 19 -4 148 147 1
0 20 0 5256 1381 1
0 20 -1 3913 1328 1
0 20 1 3572 1325 1
0 20 -1 3126 773 1
0 20 -2 1009 589 1
0 20 2 1069 816 1
0 20 -2 837 439 1
-1 0 13 190 426 1
1 0 -13 221 439 1
-1 0 11 28377 1553 1
-1 0 11 28607 2325 1
1 0 -11 25191 2353 1
-1 0 9 2267 425 1
1 0 -9 1979 388 1
-1 0 7 76972 3001 1
1 0 -7 81171 2936 1
1 0 -7 85114 3422 1
-1 0 5 10401 602 1
1 0 -5 11450 693 1
-1 0 5 12828 694 1
1 0 -5 12031 684 1
1 0 -3 37473 1834 1
-1 0 3 41536 1711 1
-1 0 3 40397 1940 1
1 0 -1 2529 4 1
-1 0 1 43029 877 1
1 0 1 198782 2073 1
-1 0 -1 3894 94 1
-1 0 -1 238922 3253 1
1 0 3 27 634 1
-1 0 -3 12 634 1
-1 0 -3 26 275 1
-1 0 -3 7 530 1
1 0 3 2 548 1
1 0 5 17453 724 1
-1 0 -5 17473 1027 1
-1 0 -5 15981 1721 1
1 0 5 15886 1497 1
1 0 5 15642 1682 1
-1 0 -5 19408 1684 1
1 0 7 5659 1032 1
-1 0 -7 6560 676 1
1 0 9 595 88 1
-1 0 -9 201 99 1
-1 0 -9 722 296 1
1 0 11 51 230 1
-1 0 -11 16 127 1
1 0 13 6055 1378 1
-1 0 -13 5063 1158 1
-1 1 14 349 377 1
1 1 -14 38 286 1
1 -1 -14 170 422 1
1 -1 -13 13236 2089 1
1 1 -13 11365 1920 1
-1 1 13 10648 1777 1
-1 -1 13 10133 1615 1
1 1 -12 8263 1549 1
-1 -1 12 6384 1229 1
-1 1 12 11205 1826 1
1 -1 -12 7871 1563 1
-1 -1 11 22792 2164 1
-1 1 11 24080 2339 1
-1 -1 11 23632 1543 1
1 1 -11 22341 2373 1
1 -1 -11 23574 2371 1
-1 1 10 7966 1420 1
-1 -1 10 9514 1492 1
1 -1 -10 7963 1455 1
1 1 -10 7801 1493 1
-1 -1 10 9920 1086 1
1 -1 -9 3313 831 1
-1 -1 9 2780 727 1
-1 1 9 2797 742 1
1 1 -9 2701 685 1
1 1 -9 4062 953 1
1 1 -8 510 333 1
1 -1 -8 666 367 1
1 -1 -8 415 362 1
1 1 -8 976 503 1
-1 -1 8 535 348 1
-1 1 8 425 342 1
-1 -1 7 4562 636 1
1 1 -7 3269 515 1
1 -1 -7 6038 789 1
1 1 -7 4831 589 1
1 -1 -7 4395 565 1
-1 1 7 4466 658 1
-1 -1 6 8906 1054 1
1 -1 -6 8572 1160 1
-1 1 6 9791 1155 1
1 -1 -6 9018 1065 1
1 1 -6 7068 1007 1
-1 1 5 43564 1747 1
1 -1 -5 40836 1672 1
1 1 -5 43371 1641 1
-1 1 5 45627 1836 1
-1 -1 5 45556 1748 1
1 1 -5 47792 1991 1
-1 -1 5 42635 1843 1
1 -1 -5 45945 1838 1
-1 1 4 592 741 1
1 1 -4 257 491 1
-1 -1 4 150 449 1
1 1 -4 115 501 1
1 -1 -4 83 471 1
1 -1 -4 100 482 1
-1 1 4 111 463 1
-1 -1 4 145 470 1
1 1 -3 30301 1391 1
-1 1 3 30580 1477 1
-1 1 3 31807 1076 1
1 -1 -3 28518 1295 1
-1 -1 3 29374 1091 1
-1 -1 3 31253 1429 1
1 1 -3 31182 1186 1
1 1 -2 968 156 1
1 -1 -2 2265 727 1
-1 1 2 3801 36 1
1 1 -2 3272 40 1
-1 1 2 2295 481 1
1 -1 -2 3505 14 1
-1 -1 2 3803 6 1
-1 -1 2 2873 710 1
1 1 -1 3964 12 1
1 -1 -1 3963 4 1
1 -1 0 9 15 1
1 -1 0 9134 438 1
-1 1 0 0 16 1
-1 1 0 11038 440 1
1 -1 0 10608 415 1
-1 1 0 3 11 1
1 -1 1 3472 21 1
-1 1 -1 82341 1594 1
1 -1 1 68052 1126 1
-1 -1 -1 44248 692 1
1 1 1 69355 884 1
-1 -1 -1 4189 39 1
-1 1 -1 3711 26 1
1 1 1 58079 795 1
1 1 2 233391 2718 1
1 1 2 227253 2154 1
-1 1 -2 235496 3652 1
1 -1 2 215281 3311 1
1 -1 2 219588 3020 1
-1 1 -2 238563 2905 1
-1 -1 -2 221755 2036 1
1 1 2 225927 3883 1
1 -1 3 23724 1362 1
-1 -1 -3 20377 866 1
-1 1 -3 19172 1217 1
1 1 3 21516 1485 1
-1 1 -3 21956 1532 1
-1 -1 -3 24572 1328 1
1 1 3 19632 862 1
1 1 3 21526 1182 1
1 -1 3 21163 1481 1
-1 1 -4 722 54 1
-1 -1 -4 630 105 1
1 -1 4 1012 52 1
-1 1 -4 590 80 1
1 1 4 543 214 1
1 1 4 509 121 1
-1 1 -4 728 118 1
1 -1 4 777 139 1
-1 -1 -4 442 111 1
1 1 4 640 119 1
-1 -1 -5 134 92 1
1 1 5 465 95 1
1 1 5 418 28 1
-1 1 -5 575 98 1
-1 1 -5 384 74 1
-1 1 -5 322 69 1
-1 -1 -5 511 49 1
1 -1 5 789 217 1
-1 1 -6 10592 1206 1
-1 -1 -6 11355 936 1
1 -1 6 10572 1359 1
1 1 6 9449 1308 1
-1 -1 -6 9814 1151 1
-1 1 -6 9450 744 1
-1 -1 -7 1110 251 1
1 1 7 1166 402 1
-1 1 -7 1209 316 1
1 -1 7 445 145 1
-1 -1 -7 975 191 1
-1 1 -7 989 164 1
1 1 7 676 89 1
1 -1 8 4517 790 1
-1 1 -8 4831 499 1
-1 -1 -8 3464 621 1
1 1 8 5316 895 1
-1 1 -8 3610 666 1
1 1 8 3701 260 1
-1 -1 -8 4682 531 1
1 -1 9 10862 1593 1
-1 1 -9 10037 1437 1
-1 -1 -9 10534 990 1
-1 -1 -9 11114 1531 1
-1 1 -9 10781 944 1
1 1 9 11383 1643 1
1 -1 10 9141 1636 1
-1 -1 -10 13170 1896 1
1 1 10 11823 1880 1
-1 1 -10 13766 1890 1
-1 1 -11 93 272 1
1 1 11 437 472 1
-1 -1 -11 323 340 1
1 -1 11 112 424 1
1 1 12 4 294 1
-1 1 -12 4 174 1
-1 -1 -12 104 160 1
1 -1 12 346 447 1
-1 -1 -13 619 518 1
-1 1 -13 586 459 1
1 1 13 15 121 1
1 -1 13 433 470 1
1 2 -13 766 653 1
-1 2 13 391 403 1
1 -2 -13 658 583 1
-1 -2 13 230 526 1
1 2 -12 83979 4603 1
1 -2 -12 81171 4422 1
-1 2 12 80302 4399 1
-1 -2 12 70589 3733 1
1 2 -11 5586 1159 1
1 -2 -11 4015 1013 1
-1 -2 11 4824 725 1
-1 -2 11 5745 1127 1
-1 2 11 4612 1007 1
-1 -2 10 6725 1070 1
-1 -2 10 6446 792 1
-1 2 10 5651 1060 1
1 -2 -10 5769 1092 1
1 2 -10 4672 955 1
-1 -2 9 30 80 1
1 2 -9 30 209 1
-1 2 9 30 226 1
1 -2 -9 30 31 1
-1 -2 9 30 184 1
1 2 -8 1990 351 1
1 2 -8 1703 335 1
-1 -2 8 1718 237 1
-1 2 8 1681 418 1
-1 -2 8 1027 209 1
1 -2 -8 2134 394 1
1 -2 -8 1652 365 1
-1 -2 7 5307 680 1
-1 -2 7 6676 873 1
1 -2 -7 5477 815 1
1 2 -7 4753 851 1
1 -2 -7 5405 875 1
-1 2 7 6105 948 1
1 2 -7 6025 912 1
1 2 -7 5588 804 1
-1 2 6 33094 1617 1
-1 -2 6 27230 1347 1
1 -2 -6 31992 1612 1
1 2 -6 34287 1623 1
1 -2 -6 31619 1607 1
1 2 -6 38416 1922 1
1 -2 -5 17283 1225 1
-1 -2 5 16493 1315 1
1 2 -5 16976 1166 1
-1 2 5 15213 1137 1
1 -2 -5 15303 1104 1
1 2 -5 15496 1199 1
-1 -2 5 12834 911 1
1 2 -4 1563 380 1
-1 2 4 1989 372 1
-1 -2 4 2652 561 1
-1 -2 4 2041 381 1
-1 2 4 1873 457 1
1 -2 -4 1585 436 1
1 -2 -4 1781 435 1
1 2 -4 2371 518 1
-1 2 3 0 101 1
1 -2 -3 256 21 1
1 2 -3 7 144 1
-1 2 3 7 107 1
-1 -2 3 19 169 1
1 2 -3 21 131 1
-1 -2 2 3390 38 1
1 2 -2 27473 678 1
-1 -2 2 46530 1026 1
-1 -2 2 69317 702 1
1 -2 -2 102541 1898 1
-1 2 2 18256 632 1
-1 2 2 85582 1050 1
1 -2 -2 3390 22 1
-1 -2 1 113 16 1
-1 -2 1 214 36 1
1 -2 -1 35890 864 1
1 -2 -1 236 34 1
-1 2 1 257 41 1
1 2 -1 330 39 1
-1 2 1 40220 800 1
1 -2 -1 37615 1235 1
1 2 -1 41696 1194 1
1 2 0 18709 1318 1
1 -2 0 18000 1157 1
1 -2 0 17866 1432 1
-1 2 0 18972 1036 1
-1 2 0 10750 28 1
-1 -2 0 19188 1371 1
-1 2 0 10248 32 1
1 -2 1 164426 2177 1
-1 2 -1 202987 3223 1
-1 2 -1 134 154 1
-1 2 -1 168833 2249 1
1 -2 1 163552 2614 1
1 2 1 160131 2469 1
-1 -2 -2 18770 1126 1
-1 2 -2 17217 903 1
-1 -2 -2 16152 1123 1
-1 2 -2 18351 1580 1
1 -2 2 16508 833 1
-1 2 -2 17978 1318 1
1 -2 2 15829 1295 1
1 2 2 15774 1148 1
1 -2 2 13762 1310 1
-1 2 -3 16465 1100 1
-1 2 -3 18629 1026 1
1 2 3 18099 835 1
-1 -2 -3 18672 830 1
-1 2 -3 18658 605 1
-1 2 -3 19580 723 1
1 2 3 17922 877 1
1 -2 3 16718 1051 1
1 -2 3 19951 1127 1
-1 -2 -3 18922 919 1
-1 2 -4 1297 397 1
-1 2 -4 1607 520 1
-1 -2 -4 1774 461 1
1 2 4 1535 407 1
-1 -2 -4 1721 367 1
1 -2 4 2074 542 1
-1 2 -4 1869 271 1
1 2 4 1732 371 1
1 2 4 1718 501 1
1 -2 4 1891 488 1
-1 -2 -5 39597 1552 1
-1 2 -5 37778 2313 1
1 2 5 36187 1465 1
-1 -2 -5 40337 1992 1
-1 2 -5 31760 1627 1
1 -2 5 34387 2020 1
1 2 5 38290 1808 1
1 2 5 40756 2399 1
-1 -2 -6 15999 1635 1
-1 2 -6 16743 1637 1
1 2 6 20214 2120 1
1 2 6 19943 1500 1
-1 -2 -6 17915 1325 1
-1 2 -6 15919 1099 1
1 -2 6 17862 1845 1
-1 -2 -7 2940 470 1
-1 2 -7 3677 462 1
1 2 7 3249 803 1
-1 2 -7 2219 576 1
1 -2 7 2356 627 1
-1 -2 -7 3201 646 1
1 2 8 18108 1782 1
-1 -2 -8 18081 1582 1
-1 2 -8 17551 1023 1
-1 2 -8 15174 1383 1
-1 -2 -8 18826 1225 1
1 -2 8 18873 1713 1
-1 2 -9 569 265 1
1 -2 9 1659 520 1
-1 -2 -9 1390 462 1
1 2 9 1581 524 1
1 2 9 1022 137 1
-1 2 -9 1136 269 1
-1 -2 -9 1892 379 1
-1 2 -10 4027 916 1
-1 -2 -10 5051 1122 1
1 2 10 2861 858 1
1 -2 10 4265 1014 1
-1 2 -10 3484 460 1
1 -2 11 529 202 1
1 2 11 5 292 1
-1 -2 -11 583 350 1
-1 2 -11 100 117 1
-1 2 -12 375 301 1
1 -2 12 772 465 1
-1 -2 -12 204 260 1
1 2 12 356 126 1
1 -2 13 241 348 1
-1 2 -13 1074 607 1
1 2 13 695 691 1
-1 -2 -13 324 318 1
-1 3 13 8892 1688 1
1 -3 -13 9912 1749 1
1 3 -13 11621 1857 1
-1 -3 12 4309 978 1
1 3 -12 3137 862 1
-1 3 12 4000 1028 1
1 -3 -12 2362 847 1
1 3 -11 5082 1188 1
1 -3 -11 4894 1145 1
-1 3 11 5427 1212 1
-1 -3 11 3954 908 1
1 3 -10 22113 2212 1
-1 -3 10 21822 1509 1
1 -3 -10 22781 2269 1
-1 3 10 26826 2546 1
-1 -3 10 19077 1813 1
1 -3 -9 50117 3170 1
-1 3 9 45980 3140 1
1 3 -9 47456 3059 1
-1 -3 9 47410 2650 1
-1 -3 9 48997 2251 1
1 3 -8 13554 1460 1
-1 -3 8 12356 1209 1
-1 3 8 13624 1463 1
-1 -3 8 13811 1120 1
1 -3 -8 15679 1571 1
-1 3 8 16867 1658 1
1 3 -7 17859 1819 1
1 -3 -7 16442 1675 1
1 -3 -7 17885 1751 1
-1 -3 7 15209 1451 1
1 3 -7 20613 1988 1
-1 -3 7 16645 1373 1
-1 3 7 22587 2069 1
-1 3 7 16760 1719 1
1 -3 -6 162 182 1
-1 -3 6 47 155 1
-1 3 6 123 208 1
1 3 -6 39 170 1
1 -3 -6 181 217 1
1 3 -6 89 200 1
-1 -3 6 33 132 1
-1 -3 5 62 172 1
-1 3 5 18 191 1
-1 3 5 46 105 1
1 3 -5 22 162 1
1 -3 -5 97 102 1
1 3 -5 94 85 1
-1 -3 5 25 122 1
1 -3 -5 163 28 1
-1 -3 4 7939 519 1
-1 3 4 8269 448 1
-1 3 4 8492 634 1
1 3 -4 7915 565 1
1 3 -4 7888 517 1
-1 -3 4 5637 472 1
1 -3 -4 9150 671 1
1 -3 -4 8011 540 1
-1 3 3 4175 288 1
1 -3 -3 202 41 1
1 3 -3 3760 365 1
-1 -3 3 4251 385 1
-1 3 3 3981 435 1
-1 -3 3 201 17 1
-1 -3 2 17391 324 1
1 -3 -2 17535 503 1
-1 -3 2 19929 804 1
1 3 -2 19096 720 1
-1 3 2 18245 861 1
1 -3 -2 20920 989 1
-1 3 2 18490 528 1
1 3 -2 18376 727 1
1 3 -1 113199 1372 1
1 -3 -1 99280 1006 1
1 -3 -1 111197 1998 1
-1 3 1 9066 150 1
-1 3 1 112066 1164 1
1 -3 -1 95013 1288 1
1 3 -1 113707 1792 1
-1 -3 1 111439 1715 1
-1 3 0 2 19 1
1 -3 0 39194 1404 1
1 3 0 412 145 1
1 -3 0 37989 842 1
-1 3 0 25482 1145 1
1 -3 0 39526 1111 1
-1 -3 0 40089 1328 1
-1 -3 0 15866 591 1
-1 3 0 38123 858 1
1 3 0 37975 781 1
1 -3 1 165360 2295 1
-1 3 -1 168704 2236 1
1 -3 1 167048 2210 1
1 3 1 164642 2412 1
-1 3 -1 168944 2255 1
-1 -3 -2 137174 2593 1
-1 3 -2 137709 2945 1
-1 3 -2 136407 2196 1
1 -3 2 140022 2111 1
1 -3 2 133623 2746 1
1 3 2 129541 2612 1
-1 3 -2 129858 2532 1
-1 3 -3 50118 1382 1
-1 3 -3 43451 1689 1
1 3 3 50306 1868 1
-1 3 -3 44511 1973 1
1 -3 3 50316 1963 1
-1 -3 -3 45514 1510 1
-1 -3 -3 44632 1570 1
-1 3 -4 626 110 1
1 -3 4 574 22 1
1 -3 4 914 164 1
-1 -3 -4 656 96 1
-1 3 -4 734 76 1
-1 -3 -4 629 113 1
1 3 4 747 75 1
-1 3 -4 826 81 1
-1 3 -4 1106 150 1
1 3 5 98147 2642 1
-1 3 -5 91987 3004 1
-1 3 -5 82611 3197 1
-1 3 -5 99520 1922 1
1 -3 5 84249 2965 1
-1 -3 -5 99364 2646 1
1 3 5 87573 3188 1
-1 -3 -5 87788 2646 1
-1 -3 -6 2178 575 1
1 -3 6 566 378 1
1 3 6 1595 549 1
-1 3 -6 1752 323 1
-1 3 -6 1335 460 1
-1 -3 -6 1731 399 1
1 3 6 1341 378 1
-1 3 -7 2003 223 1
-1 3 -7 1935 338 1
-1 -3 -7 2549 440 1
1 -3 7 1945 373 1
-1 -3 -7 1318 257 1
-1 3 -7 1763 164 1
1 3 7 1539 396 1
1 3 7 1546 245 1
-1 -3 -8 338 236 1
1 -3 8 311 240 1
-1 3 -8 94 261 1
-1 -3 -8 311 274 1
1 3 8 552 513 1
-1 3 -8 144 123 1
-1 3 -8 312 184 1
1 3 9 21 162 1
-1 -3 -9 185 216 1
-1 3 -9 135 119 1
-1 3 -9 567 382 1
-1 -3 -9 380 249 1
-1 3 -9 21 132 1
1 -3 9 24 112 1
-1 -3 -10 622 459 1
1 -3 10 1157 571 1
-1 3 -10 1420 619 1
1 3 10 1041 666 1
-1 3 -10 737 244 1
-1 -3 -11 119 140 1
1 3 11 271 431 1
1 -3 11 234 315 1
-1 3 -11 79 224 1
1 -3 12 2178 845 1
1 3 12 1152 648 1
-1 -3 -12 1998 787 1
-1 3 -12 2331 830 1
-1 -3 -13 7276 1527 1
-1 3 -13 8176 1553 1
1 3 13 4516 1269 1
1 -3 13 6922 1540 1
1 4 -13 1172 564 1
1 -4 -13 1546 757 1
-1 4 13 1456 686 1
1 -4 -12 3408 974 1
1 4 -12 2766 980 1
-1 4 12 4940 1256 1
-1 4 11 12613 1695 1
1 -4 -11 11131 1502 1
1 4 -11 11507 1462 1
1 4 -10 569 340 1
-1 4 10 1126 579 1
1 -4 -10 1613 618 1
1 4 -9 6122 847 1
1 -4 -9 6009 909 1
-1 4 9 5826 939 1
-1 4 9 4888 833 1
-1 4 8 45412 2656 1
1 -4 -8 44462 2506 1
-1 4 8 45660 2623 1
1 4 -8 40056 2318 1
-1 -4 8 46007 2027 1
1 4 -7 19706 1572 1
1 4 -7 18511 1594 1
-1 4 7 18300 1595 1
1 -4 -7 20014 1626 1
-1 -4 7 18373 1299 1
-1 4 6 749 445 1
1 -4 -6 938 437 1
1 -4 -6 405 388 1
-1 -4 6 848 385 1
1 4 -6 542 389 1
1 4 -6 960 450 1
-1 4 5 15405 1057 1
1 4 -5 15127 975 1
1 -4 -5 15379 1081 1
-1 -4 5 15643 878 1
1 4 -5 15469 961 1
1 -4 -5 14354 905 1
-1 4 4 22715 1064 1
1 4 -4 21246 1256 1
1 4 -4 24526 1473 1
-1 4 4 28183 1808 1
-1 -4 4 24234 1369 1
1 -4 -4 26024 1793 1
1 -4 -3 2951 119 1
1 4 -3 3214 906 1
-1 -4 3 2600 21 1
1 4 -3 31 549 1
1 4 -3 3139 866 1
-1 4 3 2955 664 1
-1 4 3 3036 1024 1
-1 -4 3 3061 886 1
1 4 -2 18084 951 1
1 4 -2 18454 912 1
1 4 -2 19429 841 1
1 -4 -2 19094 1099 1
-1 4 2 19667 1108 1
1 -4 -2 18159 606 1
-1 4 2 19725 650 1
-1 -4 1 9445 819 1
1 4 -1 13546 1123 1
-1 4 1 13970 1339 1
-1 -4 1 11097 1060 1
1 -4 -1 13760 1285 1
1 -4 -1 12565 659 1
1 4 -1 12018 1098 1
-1 4 1 12634 853 1
1 -4 -1 11589 845 1
1 4 -1 11630 798 1
-1 4 1 12085 694 1
-1 4 0 14513 750 1
-1 4 0 15173 1301 1
1 4 0 13721 746 1
-1 -4 0 14977 1207 1
-1 -4 0 14567 813 1
1 4 0 17859 1372 1
-1 4 0 13500 934 1
1 -4 0 14158 717 1
1 -4 0 13381 963 1
1 -4 0 14719 1290 1
-1 4 -1 15825 1186 1
-1 -4 -1 15845 799 1
1 -4 1 16780 1226 1
1 -4 1 18865 1278 1
1 -4 1 16319 817 1
-1 4 -1 15834 1063 1
1 4 1 14844 1251 1
-1 4 -2 379094 5120 1
-1 -4 -2 383732 5299 1
1 -4 2 379818 5393 1
-1 4 -2 375373 4739 1
1 4 2 368868 5505 1
1 -4 2 380937 4510 1
-1 4 -3 54440 2786 1
-1 4 -3 64158 2202 1
-1 -4 -3 57037 2158 1
1 4 3 62178 2693 1
1 -4 3 60900 2027 1
1 -4 3 59346 2715 1
-1 -4 -3 64658 2657 1
-1 4 -3 58773 2542 1
-1 4 -4 29771 1736 1
-1 -4 -4 27481 1508 1
-1 4 -4 25999 1890 1
-1 4 -4 28696 1330 1
-1 4 -4 26080 1362 1
-1 -4 -4 25527 1490 1
1 4 4 25962 1569 1
-1 4 -5 14189 1008 1
-1 4 -5 15031 1512 1
-1 -4 -5 13965 1343 1
-1 4 -5 14836 1182 1
-1 -4 -5 13061 1265 1
1 4 5 14583 1368 1
-1 4 -6 456 373 1
-1 -4 -6 324 284 1
1 4 6 464 344 1
-1 -4 -6 321 307 1
1 4 6 704 487 1
1 -4 6 462 421 1
-1 4 -6 346 233 1
-1 4 -7 4908 815 1
-1 -4 -7 6009 926 1
1 4 7 5602 937 1
-1 -4 -7 4936 716 1
1 4 7 4171 642 1
1 -4 7 4847 836 1
-1 4 -7 4812 521 1
1 -4 8 58 234 1
-1 4 -8 58 180 1
-1 -4 -8 15 200 1
1 4 8 73 277 1
1 4 8 42 179 1
-1 4 -8 43 107 1
-1 4 -8 0 31 1
-1 4 -9 4907 805 1
1 -4 9 5429 879 1
-1 4 -9 4944 582 1
-1 4 -9 4655 483 1
-1 -4 -9 6727 1003 1
1 4 10 2624 836 1
1 -4 10 1350 497 1
-1 -4 -10 2416 761 1
-1 4 -10 3135 813 1
-1 4 -10 2073 368 1
-1 -4 -11 742 493 1
1 4 11 922 540 1
-1 4 -11 45 231 1
1 4 12 1135 585 1
-1 -4 -12 2512 857 1
-1 4 -12 1239 533 1
-1 5 13 2719 1017 1
1 -5 -13 3742 1166 1
1 5 -13 3614 1003 1
1 -5 -12 3220 1098 1
1 5 -12 3905 1079 1
-1 5 12 4068 1265 1
1 5 -12 2327 640 1
-1 5 11 300 363 1
1 -5 -11 174 251 1
1 5 -11 323 449 1
1 5 -11 217 251 1
1 5 -10 7682 1096 1
-1 5 10 9301 1774 1
1 -5 -10 5611 1342 1
1 5 -10 6482 1390 1
-1 5 10 5838 1411 1
-1 5 9 3738 886 1
-1 5 9 2666 761 1
1 -5 -9 3581 839 1
1 5 -9 3949 875 1
1 -5 -8 2721 778 1
1 5 -8 3336 929 1
-1 5 8 3058 843 1
-1 5 7 2564 600 1
1 5 -7 2503 644 1
1 -5 -7 2112 526 1
1 5 -6 15850 1481 1
1 5 -6 14959 1467 1
-1 5 6 14332 1526 1
1 5 -6 13170 1159 1
1 -5 -6 12758 1319 1
1 5 -5 71 135 1
1 5 -5 1 118 1
-1 5 5 5 107 1
1 5 -5 20 93 1
1 -5 -5 64 104 1
-1 5 4 545 420 1
1 5 -4 623 599 1
-1 5 4 767 713 1
1 5 -4 694 620 1
1 -5 -4 1000 771 1
1 5 -4 440 526 1
-1 5 3 19252 806 1
1 -5 -3 113 89 1
1 5 -3 20591 1153 1
-1 5 3 20311 1399 1
1 5 -3 21411 1202 1
1 5 -3 3312 504 1
-1 -5 3 547 175 1
1 5 -2 11405 534 1
-1 5 2 11496 339 1
1 5 -2 10343 475 1
1 -5 -2 10962 320 1
-1 -5 2 11486 529 1
1 5 -2 11225 445 1
1 -5 -2 13021 660 1
-1 5 2 11743 658 1
-1 -5 2 12853 529 1
1 5 -1 4427 526 1
-1 5 1 4472 536 1
-1 5 1 3567 382 1
1 5 -1 3376 664 1
-1 5 1 4589 797 1
-1 -5 1 4193 577 1
1 -5 -1 3742 374 1
1 -5 -1 4819 820 1
1 -5 -1 3945 536 1
-1 -5 1 3989 676 1
-1 5 0 5860 522 1
1 -5 0 5361 525 1
-1 5 0 6616 723 1
-1 5 0 6687 437 1
1 -5 0 5490 358 1
1 5 0 6270 702 1
1 -5 0 6045 713 1
-1 -5 0 5991 455 1
-1 -5 0 6390 698 1
1 5 0 4893 392 1
1 -5 1 9248 574 1
1 -5 1 9778 1011 1
1 -5 1 11473 1008 1
-1 5 -1 9226 827 1
1 5 1 9708 1076 1
-1 5 -1 11156 1041 1
-1 -5 -1 10260 695 1
1 -5 2 5028 265 1
1 5 2 5481 327 1
-1 5 -2 4727 267 1
-1 5 -2 5064 257 1
1 -5 2 5011 271 1
-1 -5 -2 5063 301 1
-1 5 -3 2584 422 1
-1 5 -3 2730 396 1
1 -5 3 2565 386 1
1 5 3 2684 475 1
1 -5 3 2600 476 1
-1 5 -3 2392 447 1
-1 -5 -3 2420 436 1
-1 5 -4 27439 1530 1
-1 -5 -4 31509 1516 1
1 5 4 30389 1538 1
-1 5 -4 29443 1256 1
-1 5 -4 27571 1149 1
-1 -5 -4 25828 1173 1
-1 5 -4 29049 1405 1
-1 -5 -5 262 209 1
1 5 5 333 259 1
-1 5 -5 70 171 1
-1 5 -5 119 93 1
-1 -5 -5 334 267 1
-1 5 -5 216 171 1
-1 5 -6 279 249 1
1 5 6 518 326 1
-1 5 -6 422 231 1
-1 -5 -6 185 237 1
-1 -5 -6 271 248 1
-1 5 -7 3131 496 1
-1 5 -7 4133 804 1
1 5 7 3409 664 1
-1 -5 -7 4188 706 1
1 5 7 4003 844 1
-1 -5 -7 4607 779 1
1 5 8 795 466 1
1 5 8 990 624 1
-1 5 -8 647 490 1
-1 5 -8 1179 412 1
-1 -5 -8 1283 671 1
-1 5 -9 30014 1579 1
1 5 9 34968 3006 1
1 5 9 32886 2322 1
-1 -5 -9 32996 2595 1
-1 5 -9 32535 2588 1
-1 -5 -10 7301 1481 1
-1 5 -10 4669 755 1
-1 5 -10 6211 1350 1
-1 5 -11 1786 715 1
1 5 11 2512 965 1
-1 -5 -11 2610 778 1
-1 5 -12 834 549 1
1 5 12 1031 680 1
-1 -5 -12 698 476 1
1 -6 -13 3 293 1
-1 6 13 400 316 1
1 6 -13 19 300 1
1 6 -12 2014 497 1
1 -6 -12 1303 639 1
1 6 -12 989 498 1
-1 6 12 1217 726 1
-1 6 11 3893 1290 1
1 6 -11 3497 1015 1
1 -6 -11 1986 896 1
-1 6 11 3647 1154 1
1 6 -11 1648 595 1
1 -6 -10 1972 549 1
1 6 -10 2589 576 1
-1 6 10 1121 477 1
-1 6 10 1148 487 1
1 6 -10 1333 523 1
1 6 -9 3241 774 1
-1 6 9 4425 1124 1
1 6 -9 3763 1031 1
1 -6 -9 2908 921 1
1 -6 -8 36176 2222 1
1 6 -8 40101 2044 1
1 6 -8 41809 2517 1
-1 6 8 40363 2521 1
1 6 -7 395 184 1
1 6 -7 14 66 1
-1 6 7 203 219 1
1 6 -6 10 121 1
-1 6 6 158 78 1
1 6 -6 184 177 1
1 -6 -6 184 152 1
1 6 -6 4 185 1
1 6 -5 5238 824 1
1 6 -5 5783 921 1
1 6 -5 4985 824 1
-1 6 5 5252 1013 1
1 -6 -4 5789 824 1
-1 6 4 4853 735 1
1 6 -4 5218 708 1
1 6 -4 4319 597 1
1 6 -4 5293 655 1
-1 6 4 5799 514 1
1 6 -3 15 258 1
1 -6 -3 255 91 1
-1 -6 3 0 228 1
-1 6 3 17 120 1
1 6 -3 1 192 1
1 6 -3 576 26 1
-1 6 3 4 268 1
-1 -6 2 18642 1422 1
1 6 -2 15282 1434 1
-1 -6 2 16445 1485 1
-1 6 2 17235 899 1
1 -6 -2 15750 909 1
1 6 -2 15795 1175 1
1 6 -2 18271 1537 1
1 -6 -2 19136 1748 1
-1 -6 1 6152 611 1
1 6 -1 5751 419 1
-1 6 1 7239 736 1
1 -6 -1 6326 679 1
-1 6 1 6028 349 1
-1 -6 1 6665 524 1
1 -6 -1 5607 305 1
1 6 -1 7019 705 1
-1 6 1 6222 464 1
-1 -6 0 443 635 1
1 6 0 343 250 1
1 -6 0 584 692 1
1 -6 0 323 313 1
-1 6 0 779 558 1
1 6 0 511 427 1
-1 6 0 425 670 1
1 -6 0 274 501 1
-1 -6 0 304 419 1
-1 6 0 599 388 1
1 6 0 693 721 1
-1 -6 -1 622 198 1
-1 6 -1 970 131 1
1 -6 1 1086 96 1
-1 6 -1 1732 290 1
1 6 1 1838 280 1
1 -6 1 1484 227 1
1 -6 1 1938 283 1
-1 -6 -1 1387 151 1
-1 6 -2 2734 630 1
1 -6 2 2688 465 1
-1 6 -2 3328 782 1
1 -6 2 2423 717 1
-1 -6 -2 2064 697 1
1 6 2 2997 833 1
-1 -6 -2 2711 514 1
1 -6 2 2741 692 1
-1 6 -3 6434 563 1
1 6 3 6086 623 1
-1 -6 -3 4295 474 1
-1 6 -3 5911 554 1
1 -6 3 5867 512 1
-1 6 -4 11 69 1
-1 -6 -4 141 198 1
1 6 4 90 223 1
-1 6 -4 82 129 1
-1 6 -5 24803 1505 1
-1 6 -5 22178 1534 1
-1 6 -5 22400 1301 1
-1 -6 -5 21657 1584 1
1 6 5 21399 1560 1
-1 -6 -5 19829 1311 1
-1 6 -6 118 315 1
-1 -6 -6 172 295 1
-1 6 -6 359 318 1
1 6 6 199 357 1
-1 6 -6 29 149 1
-1 6 -7 1553 555 1
-1 -6 -7 2699 696 1
1 6 7 2491 729 1
-1 6 -7 2139 564 1
1 6 8 426 413 1
-1 -6 -8 194 274 1
1 6 8 377 399 1
-1 6 -8 690 472 1
-1 6 -8 913 383 1
1 6 9 510 191 1
-1 6 -9 1374 432 1
-1 -6 -9 1696 488 1
1 6 9 1900 472 1
-1 6 -9 1944 375 1
-1 6 -10 2136 638 1
1 6 10 3409 834 1
-1 -6 -10 2576 787 1
-1 6 -10 2277 462 1
1 6 10 2654 869 1
-1 6 -11 268 96 1
1 6 11 1263 822 1
-1 -6 -11 1862 555 1
-1 -6 -12 2 165 1
-1 6 -12 2 261 1
1 6 12 2 238 1
1 7 -13 146 196 1
-1 7 13 213 498 1
1 -7 -13 13 153 1
1 -7 -12 2321 829 1
1 7 -12 2836 671 1
-1 7 12 3110 953 1
1 7 -12 3309 983 1
-1 7 11 12512 1785 1
1 -7 -11 14939 1866 1
1 7 -11 17328 2027 1
1 7 -11 14710 1441 1
1 7 -10 18126 1932 1
-1 7 10 14963 1813 1
1 7 -10 19920 1612 1
1 -7 -10 18138 1920 1
-1 7 10 18139 2038 1
1 -7 -9 1388 617 1
1 7 -9 2114 606 1
1 7 -9 1442 626 1
-1 7 9 1845 748 1
1 7 -8 18211 1515 1
1 7 -8 16168 1708 1
1 -7 -8 16675 1696 1
-1 7 8 15800 1795 1
1 7 -7 17748 1855 1
1 -7 -7 16548 1738 1
1 7 -7 16850 1577 1
-1 7 7 18832 2095 1
1 7 -6 1122 396 1
-1 7 6 2167 621 1
1 7 -6 2492 603 1
1 7 -5 11134 935 1
-1 7 5 11729 1151 1
1 7 -5 12600 1035 1
1 7 -4 7299 891 1
-1 7 4 8595 1152 1
1 7 -4 8403 921 1
-1 7 3 100 193 1
-1 -7 3 36 107 1
1 7 -3 49 164 1
1 7 -3 154 213 1
-1 7 3 1 51 1
1 -7 -2 11680 662 1
1 7 -2 10432 807 1
1 -7 -2 11862 1193 1
-1 -7 2 13708 1049 1
-1 -7 2 14110 1191 1
-1 7 2 13847 1360 1
-1 7 2 11486 653 1
1 7 -2 12855 1143 1
1 7 -2 14335 1365 1
-1 -7 1 3198 850 1
1 7 -1 2440 681 1
-1 -7 1 2512 910 1
1 -7 -1 2027 443 1
-1 7 1 2260 516 1
-1 7 1 1400 854 1
1 -7 -1 1883 953 1
-1 7 1 1863 628 1
1 7 -1 2345 915 1
1 7 0 22881 585 1
-1 7 0 25104 923 1
-1 7 0 24792 1686 1
1 7 0 23198 1030 1
1 -7 0 22982 1621 1
-1 -7 0 25365 1188 1
-1 7 0 23351 1188 1
-1 -7 0 26273 1656 1
1 -7 0 22973 774 1
1 7 0 26084 1707 1
1 -7 1 4304 325 1
-1 -7 -1 4566 231 1
-1 -7 -1 1356 51 1
1 -7 1 4343 161 1
-1 7 -1 4539 337 1
1 7 1 3551 131 1
1 -7 1 5334 346 1
-1 7 -1 4011 224 1
1 7 1 3882 264 1
-1 7 -2 2746 542 1
-1 -7 -2 1910 316 1
-1 -7 -2 1882 454 1
1 -7 2 1974 264 1
1 7 2 2344 561 1
-1 7 -2 2591 444 1
1 -7 2 1536 387 1
-1 7 -3 10630 1081 1
-1 7 -3 8089 967 1
1 7 3 9674 1177 1
1 -7 3 8716 945 1
-1 -7 -3 8146 1065 1
1 -7 4 27137 1593 1
-1 7 -4 29919 1765 1
1 7 4 32318 2261 1
-1 7 -4 32293 1982 1
-1 7 -5 3471 463 1
-1 7 -5 5056 567 1
-1 -7 -5 5196 582 1
1 7 5 4171 645 1
-1 -7 -6 271 296 1
1 7 6 0 216 1
-1 7 -6 2 26 1
-1 7 -6 0 135 1
-1 7 -7 1343 663 1
-1 7 -7 1579 569 1
-1 -7 -7 1474 650 1
1 7 7 1780 779 1
1 7 8 10781 1344 1
-1 7 -8 11480 1092 1
-1 7 -8 11185 1438 1
-1 -7 -8 9694 1233 1
1 7 9 3579 722 1
-1 7 -9 4072 618 1
-1 -7 -9 4106 846 1
-1 7 -9 3658 798 1
1 7 9 4057 952 1
-1 -7 -10 552 414 1
-1 7 -10 596 425 1
1 7 10 396 425 1
-1 7 -10 391 262 1
1 7 10 1306 763 1
-1 -7 -11 1388 439 1
1 7 11 1825 693 1
-1 7 -11 2172 783 1
-1 -7 -12 158 214 1
-1 7 -12 622 419 1
1 7 12 0 402 1
-1 8 12 2936 1290 1
1 -8 -12 1187 745 1
-1 8 12 566 598 1
1 8 -12 2373 868 1
1 8 -11 14982 1458 1
-1 8 11 13767 1844 1
-1 8 11 14856 1909 1
1 -8 -11 11855 1573 1
1 8 -11 16677 1934 1
-1 8 10 1 160 1
1 8 -10 50 270 1
1 8 -10 165 216 1
1 -8 -10 1 220 1
1 -8 -9 1456 456 1
1 8 -9 632 293 1
-1 8 9 344 162 1
1 8 -9 1197 394 1
1 8 -8 9247 962 1
1 -8 -8 12617 1305 1
-1 8 8 10507 1321 1
1 8 -8 9375 1164 1
1 -8 -7 7142 1036 1
1 8 -7 9045 1230 1
1 8 -7 6137 902 1
-1 8 7 9929 1558 1
1 8 -6 10 142 1
-1 8 6 78 434 1
1 8 -6 19 257 1
-1 8 5 3636 900 1
1 8 -5 3513 716 1
1 8 -5 2799 665 1
1 8 -4 5260 814 1
1 8 -4 6325 975 1
-1 8 4 5904 1072 1
1 8 -3 22568 1212 1
1 8 -3 28617 1819 1
-1 8 3 23841 1843 1
-1 8 3 25709 999 1
1 8 -2 11729 801 1
1 8 -2 11277 1023 1
-1 8 2 12407 1224 1
1 -8 -2 11615 612 1
-1 -8 2 12524 942 1
-1 8 2 11398 599 1
-1 -8 1 4232 519 1
1 -8 -1 3585 278 1
1 8 -1 3701 401 1
-1 8 1 3387 385 1
-1 8 1 3847 325 1
1 8 -1 3785 572 1
-1 8 1 3779 612 1
-1 -8 0 61760 1852 1
1 8 0 57411 1591 1
1 8 0 58956 946 1
1 -8 0 53298 1040 1
-1 8 0 60140 2535 1
1 8 0 59745 2517 1
-1 8 0 60926 1380 1
-1 8 0 59390 1810 1
-1 -8 -1 11699 792 1
-1 8 -1 10335 848 1
1 -8 1 11710 544 1
1 8 1 11002 504 1
1 8 1 11345 1116 1
-1 8 -1 11590 1116 1
1 8 2 819 268 1
-1 8 -2 1201 435 1
1 -8 2 1131 464 1
1 -8 2 1109 269 1
1 8 2 836 478 1
-1 8 -2 1088 491 1
-1 -8 -2 1015 342 1
-1 -8 -3 43343 1800 1
-1 8 -3 40985 2119 1
1 -8 3 43890 2382 1
1 -8 3 42885 1519 1
1 8 3 46326 2817 1
-1 8 -3 47152 2600 1
-1 8 -4 198 235 1
-1 8 -4 255 284 1
1 8 4 561 385 1
1 8 5 252 190 1
-1 8 -5 429 205 1
-1 8 -5 26 37 1
-1 -8 -6 0 184 1
1 8 6 31 192 1
-1 8 -6 48 89 1
-1 8 -6 46 106 1
-1 8 -7 1839 495 1
1 8 7 3239 829 1
-1 -8 -7 2958 676 1
-1 8 -7 2502 669 1
-1 8 -8 7891 1057 1
-1 -8 -8 12068 1581 1
1 8 8 11771 1683 1
-1 8 -8 9987 1474 1
1 8 9 5680 1004 1
-1 8 -9 6875 1103 1
1 8 9 4041 976 1
-1 -8 -9 4290 810 1
-1 8 -9 6043 791 1
-1 -8 -10 1257 633 1
-1 8 -10 1152 532 1
1 8 10 514 524 1
-1 8 -10 1085 395 1
1 8 10 1634 613 1
-1 -8 -11 1628 713 1
1 8 11 1823 624 1
1 8 11 1958 832 1
-1 8 -11 2264 742 1
1 8 12 973 743 1
-1 8 -12 525 514 1
-1 -8 -12 385 320 1
-1 9 12 153 308 1
1 9 -12 233 273 1
1 -9 -12 251 473 1
-1 9 11 2912 900 1
1 -9 -11 3813 993 1
1 9 -11 3532 969 1
1 9 -11 3214 736 1
1 9 -10 2030 868 1
1 -9 -10 2928 989 1
1 9 -10 1841 684 1
-1 9 10 2000 943 1
1 9 -9 8 135 1
1 9 -9 60 198 1
1 -9 -9 8 213 1
-1 9 9 343 354 1
1 -9 -8 10991 1263 1
1 9 -8 9200 1062 1
1 9 -8 11080 1296 1
-1 9 8 11813 1513 1
1 9 -7 31713 2135 1
-1 9 7 38933 2896 1
1 9 -7 33947 2155 1
1 9 -6 14097 1457 1
-1 9 6 13984 1733 1
1 9 -6 13312 1406 1
1 9 -5 23129 1782 1
1 9 -5 23073 1904 1
-1 -9 4 3998 217 1
1 9 -4 4712 552 1
1 9 -4 4218 660 1
-1 9 4 5462 779 1
1 9 -3 6781 1003 1
1 9 -3 6715 774 1
-1 9 3 6345 565 1
1 9 -2 5697 482 1
-1 9 2 3950 538 1
1 -9 -2 5785 396 1
1 9 -2 5980 664 1
-1 9 2 5089 349 1
1 9 -1 13833 1485 1
1 -9 -1 11339 636 1
-1 9 1 10991 709 1
-1 9 1 12453 994 1
-1 9 1 10618 1350 1
1 9 -1 11777 939 1
1 9 0 8969 439 1
-1 9 0 8894 579 1
1 9 0 9752 1219 1
1 -9 0 9124 505 1
-1 -9 0 9237 859 1
-1 9 0 9158 1176 1
1 9 0 9390 775 1
-1 9 0 10522 893 1
-1 9 -1 266 307 1
1 9 1 138 89 1
1 -9 1 141 94 1
-1 9 -1 36 113 1
-1 -9 -1 17 7 1
1 9 1 326 302 1
-1 9 -2 7187 1218 1
1 9 2 7665 1378 1
-1 9 -2 5266 870 1
1 -9 2 7168 613 1
1 9 2 6765 662 1
1 -9 3 2798 343 1
1 9 3 3327 745 1
-1 9 -3 2426 511 1
1 9 3 2317 365 1
-1 9 -3 3316 694 1
-1 9 -4 4385 576 1
1 -9 4 4565 409 1
-1 9 -4 5239 707 1
1 9 4 4729 755 1
-1 9 -5 2376 643 1
1 9 5 2849 800 1
-1 9 -5 2695 697 1
1 9 6 8644 1293 1
-1 9 -6 10322 1322 1
-1 -9 -6 9422 1131 1
-1 9 -6 9578 1148 1
-1 9 -7 198 169 1
1 9 7 790 347 1
-1 9 -7 28 101 1
-1 -9 -7 273 170 1
-1 9 -8 184 331 1
1 9 8 189 426 1
-1 -9 -8 95 269 1
-1 9 -8 15 94 1
-1 9 -9 7227 976 1
1 9 9 10117 1460 1
-1 9 -9 6216 1102 1
-1 -9 -9 7020 1163 1
-1 -9 -10 955 567 1
-1 9 -10 1967 772 1
1 9 10 536 553 1
1 9 10 1002 587 1
-1 -9 -11 3818 1040 1
-1 9 -11 2926 878 1
1 9 11 3249 1141 1
1 9 11 3260 905 1
1 -10 -12 165 297 1
-1 10 12 0 177 1
1 10 -12 0 242 1
-1 10 12 106 170 1
-1 10 11 438 551 1
1 10 -11 1265 576 1
1 -10 -11 1384 718 1
1 10 -11 958 572 1
1 10 -10 0 304 1
1 10 -10 242 282 1
-1 10 10 0 412 1
1 -10 -10 2 130 1
1 -10 -9 281 461 1
-1 10 9 68 302 1
1 10 -9 164 304 1
1 10 -9 310 352 1
1 10 -8 45858 2797 1
1 10 -8 43113 2704 1
-1 10 8 50872 3755 1
1 -10 -8 43788 2806 1
1 10 -7 16097 1601 1
-1 10 7 17321 1981 1
1 10 -7 19507 1779 1
1 10 -6 110 174 1
1 10 -6 253 318 1
-1 10 6 375 353 1
1 10 -5 3784 858 1
1 10 -5 4193 987 1
-1 10 5 3831 1018 1
-1 -10 5 3188 379 1
1 10 -4 35524 2440 1
1 10 -4 32655 1904 1
-1 10 4 41158 2976 1
-1 -10 4 26229 584 1
-1 -10 4 21084 499 1
1 10 -3 13253 1314 1
1 10 -3 13936 1711 1
-1 10 3 11935 970 1
1 10 -2 680 209 1
-1 10 2 320 172 1
1 10 -2 245 103 1
-1 10 2 525 131 1
-1 10 1 1306 577 1
1 10 -1 2110 716 1
1 10 -1 1389 415 1
-1 10 1 1837 469 1
1 -10 -1 1484 292 1
-1 10 1 1294 295 1
-1 10 0 848 317 1
-1 10 0 559 108 1
-1 10 0 458 165 1
1 10 0 424 116 1
1 10 0 396 189 1
1 10 0 582 80 1
1 -10 0 454 68 1
1 -10 1 461 175 1
1 10 1 267 146 1
-1 10 -1 309 288 1
-1 10 -1 435 429 1
1 10 1 410 398 1
-1 10 -2 11091 1066 1
-1 10 -2 11775 1397 1
1 -10 2 12271 670 1
1 10 2 11481 735 1
1 10 2 12120 1523 1
1 10 3 265 286 1
1 -10 3 590 82 1
-1 10 -3 721 132 1
-1 10 -3 1004 209 1
1 -10 4 10695 782 1
1 10 4 11549 1609 1
-1 10 -4 12441 1474 1
-1 10 -4 11162 1205 1
1 -10 5 480 237 1
1 10 5 448 385 1
-1 10 -5 359 323 1
-1 10 -5 475 344 1
-1 -10 -6 10673 1254 1
-1 10 -6 9744 1293 1
1 10 6 11902 1678 1
-1 10 -6 9375 1334 1
-1 10 -7 7482 1031 1
-1 -10 -7 5106 863 1
1 10 7 6154 1087 1
-1 10 -7 7736 1137 1
-1 10 -8 6189 1040 1
-1 -10 -8 4384 923 1
-1 10 -8 6087 1162 1
-1 10 -9 21 124 1
-1 10 -9 45 221 1
1 10 9 429 516 1
-1 -10 -9 18 220 1
1 10 10 174 171 1
-1 10 -10 121 46 1
1 10 10 151 316 1
-1 -10 -10 317 304 1
-1 10 -11 491 406 1
1 10 11 296 252 1
1 10 11 182 70 1
-1 -10 -11 536 495 1
1 11 -11 10507 1511 1
1 -11 -11 8815 1508 1
1 11 -11 10805 1610 1
-1 11 11 12563 1927 1
1 11 -10 183 210 1
-1 11 10 127 240 1
1 -11 -10 704 414 1
1 11 -10 128 197 1
1 -11 -9 8918 1434 1
1 11 -9 9969 1514 1
1 11 -9 11643 1698 1
-1 11 9 6799 1465 1
-1 11 8 32051 3199 1
1 -11 -8 34330 2562 1
1 11 -8 30963 2521 1
1 11 -8 36425 2896 1
1 11 -7 118 294 1
1 11 -7 104 177 1
1 11 -6 41279 2719 1
1 11 -6 39449 2702 1
-1 11 6 35015 2847 1
-1 11 5 28472 2403 1
1 11 -5 24046 1677 1
1 11 -5 29502 2146 1
-1 -11 5 20018 586 1
-1 -11 5 21936 661 1
-1 11 4 12634 1569 1
1 11 -4 11231 1053 1
1 11 -4 11568 1336 1
-1 11 3 1 141 1
1 11 -3 31 53 1
1 11 -3 171 263 1
-1 11 2 1603 468 1
-1 11 2 826 147 1
1 11 -2 991 268 1
1 11 -2 668 251 1
-1 11 1 177 61 1
1 -11 -1 132 159 1
-1 11 1 38 140 1
-1 11 1 50 347 1
1 11 -1 23 247 1
1 11 -1 19 182 1
1 11 0 6852 740 1
1 11 0 7241 1180 1
1 -11 0 6354 458 1
-1 11 0 5474 489 1
1 11 0 6474 421 1
-1 11 0 5853 741 1
-1 11 0 6076 1068 1
-1 11 -1 20200 1804 1
1 11 1 20303 1816 1
-1 11 -1 20761 1371 1
1 -11 1 19828 695 1
1 11 1 18249 710 1
1 11 2 7368 1338 1
-1 11 -2 7375 1035 1
1 -11 2 7088 534 1
-1 11 -2 5848 1144 1
1 11 2 6435 577 1
-1 11 -3 187 159 1
1 -11 3 306 118 1
-1 11 -3 243 72 1
1 11 3 59 191 1
-1 11 -4 14960 1499 1
1 -11 4 17362 975 1
1 11 4 19113 2189 1
-1 11 -4 17694 1888 1
-1 11 -5 2649 507 1
1 -11 5 3628 398 1
-1 11 -5 5036 827 1
1 11 5 3190 841 1
-1 11 -6 23640 2066 1
1 -11 6 19156 1221 1
-1 11 -6 18148 1709 1
1 11 6 22259 2273 1
1 11 7 0 120 1
-1 -11 -7 237 341 1
-1 11 -7 61 201 1
-1 11 -7 167 326 1
-1 -11 -8 5 177 1
-1 11 -8 151 269 1
-1 11 -8 593 273 1
1 11 8 5 68 1
-1 11 -9 2616 826 1
-1 -11 -9 3140 895 1
1 11 9 3239 1103 1
-1 11 -9 2896 705 1
-1 11 -10 1452 500 1
-1 -11 -10 1477 539 1
1 11 10 388 432 1
1 12 -11 6418 1302 1
1 12 -11 8258 1344 1
1 -12 -11 6735 1326 1
-1 12 11 7702 1550 1
1 -12 -10 302 385 1
1 12 -10 409 380 1
1 12 -10 222 331 1
-1 12 10 717 658 1
-1 12 9 10072 1743 1
1 -12 -9 7473 1242 1
1 12 -9 12034 1592 1
1 12 -9 12194 1613 1
1 12 -8 750 581 1
-1 12 8 1086 708 1
1 12 -8 243 318 1
-1 -12 7 4559 520 1
-1 12 7 4439 1151 1
1 12 -7 5373 1057 1
1 12 -7 5425 1095 1
1 12 -6 2365 472 1
1 12 -6 2201 467 1
-1 -12 6 2540 218 1
-1 -12 6 2174 174 1
-1 12 6 3762 773 1
1 12 -5 20142 2005 1
-1 12 5 17043 2112 1
1 12 -5 18482 1601 1
1 12 -4 5067 904 1
-1 12 4 5702 1176 1
1 12 -4 7374 885 1
1 12 -3 4530 954 1
-1 12 3 5700 1261 1
1 12 -3 3481 641 1
1 12 -2 3704 701 1
-1 12 2 3473 527 1
1 12 -2 4945 1138 1
-1 12 2 3590 1024 1
1 12 -1 5742 1076 1
1 12 -1 6583 764 1
-1 12 1 6492 571 1
-1 12 1 3442 862 1
-1 12 1 6395 802 1
1 12 0 722 397 1
-1 12 0 602 281 1
-1 12 0 819 673 1
1 12 0 896 678 1
1 -12 0 775 252 1
-1 12 0 816 466 1
1 12 0 993 261 1
-1 12 -1 666 267 1
-1 12 -1 96 170 1
1 12 1 998 511 1
1 12 1 834 187 1
1 -12 1 565 130 1
1 12 2 405 414 1
-1 12 -2 85 206 1
1 -12 2 55 87 1
1 12 2 59 111 1
-1 12 -2 8 284 1
-1 12 -3 11710 1180 1
-1 12 -3 10649 1436 1
1 -12 3 12482 682 1
1 12 3 11223 1586 1
-1 12 -4 8870 1201 1
1 -12 4 10055 619 1
-1 12 -4 9377 1063 1
-1 12 -5 7992 1278 1
1 12 5 8514 1571 1
1 -12 5 6253 596 1
-1 12 -5 4874 880 1
-1 12 -6 180 375 1
1 -12 6 98 201 1
1 12 6 137 388 1
-1 12 -6 11 199 1
1 -12 7 5 139 1
-1 -12 -7 105 161 1
1 12 7 31 162 1
-1 12 -7 7 91 1
-1 12 -8 1691 545 1
-1 12 -8 849 332 1
-1 -12 -8 1802 496 1
1 12 8 2727 793 1
1 12 9 1033 663 1
-1 12 -9 700 358 1
-1 12 -9 638 325 1
-1 -12 -9 1673 662 1
1 12 10 51 297 1
-1 12 -10 157 292 1
-1 -12 -10 589 376 1
1 13 -10 6947 1375 1
1 13 -10 5473 1130 1
1 -13 -10 6118 1325 1
-1 13 10 8758 1852 1
-1 13 9 8201 1567 1
1 13 -9 6227 1150 1
1 -13 -9 3343 859 1
1 13 -9 5459 1123 1
1 13 -8 216 340 1
1 13 -8 82 384 1
-1 13 8 1 96 1
-1 13 7 7987 1360 1
1 13 -7 6748 965 1
1 13 -7 6537 1054 1
1 13 -6 519 283 1
-1 13 6 909 515 1
1 13 -6 485 292 1
1 13 -5 8781 1504 1
-1 13 5 10067 1819 1
1 13 -5 6825 1085 1
1 13 -4 8401 1260 1
1 13 -4 5673 754 1
-1 13 4 7475 1332 1
1 13 -3 881 584 1
1 13 -3 329 248 1
-1 13 3 629 368 1
-1 13 2 14503 1832 1
1 13 -2 13312 1670 1
-1 13 2 11820 831 1
1 13 -2 14638 1226 1
1 13 -1 5299 1276 1
1 13 -1 6167 890 1
-1 13 1 6562 1419 1
-1 13 1 5990 661 1
-1 13 1 5859 916 1
1 13 0 4898 396 1
1 13 0 4865 681 1
-1 13 0 5074 513 1
-1 13 0 4686 748 1
1 13 0 6423 1202 1
-1 13 0 5098 1069 1
1 -13 0 5770 486 1
-1 13 -1 1193 493 1
1 -13 1 1532 288 1
1 13 1 1523 791 1
1 13 1 886 260 1
-1 13 -1 1642 767 1
1 13 2 1564 531 1
-1 13 -2 1108 319 1
1 -13 2 1020 143 1
1 13 2 870 177 1
-1 13 -2 999 391 1
-1 13 -3 660 246 1
1 13 3 686 396 1
-1 13 -3 640 281 1
1 -13 3 1190 188 1
1 -13 4 919 238 1
-1 13 -4 66 168 1
-1 13 -4 189 217 1
1 13 4 804 589 1
1 -13 5 20372 1081 1
-1 13 -5 18507 1822 1
-1 13 -5 19868 2146 1
1 13 6 13212 1945 1
-1 13 -6 13348 1646 1
-1 13 -6 12376 1463 1
1 -13 6 13185 922 1
1 13 7 4856 1111 1
-1 13 -7 3378 750 1
-1 -13 -7 3609 700 1
-1 13 -7 3709 704 1
1 -13 7 4954 585 1
-1 -13 -8 391 237 1
-1 13 -8 533 382 1
1 13 8 689 510 1
-1 13 -8 20 212 1
1 -13 8 95 64 1
-1 -13 -9 2784 696 1
1 13 9 3126 996 1
-1 13 -9 2538 658 1
-1 13 -9 3683 910 1
1 14 -10 1 96 1
1 -14 -10 1 290 1
1 14 -10 293 351 1
1 -14 -9 364 486 1
1 14 -9 41 64 1
-1 14 9 430 736 1
1 14 -9 584 577 1
1 14 -8 5422 1076 1
-1 14 8 5953 1522 1
1 14 -8 7535 1410 1
1 14 -7 415 313 1
1 14 -7 7 104 1
-1 14 7 223 334 1
1 14 -6 104 184 1
1 14 -6 187 370 1
-1 14 6 4 234 1
-1 14 5 7217 1601 1
1 14 -5 5703 1006 1
1 14 -5 6966 1413 1
1 14 -4 14205 1384 1
-1 14 4 18176 2357 1
1 14 -4 14173 1851 1
1 14 -3 8707 1214 1
1 14 -3 7429 1541 1
1 14 -2 1063 473 1
-1 14 2 1372 618 1
1 14 -2 1594 394 1
-1 14 1 138 151 1
-1 14 1 192 430 1
-1 14 1 92 188 1
1 14 -1 62 224 1
1 14 -1 44 103 1
1 14 0 4591 656 1
-1 14 0 4572 690 1
-1 14 0 5941 1114 1
1 14 0 3138 282 1
1 14 0 4071 889 1
-1 14 0 3871 414 1
1 14 1 634 481 1
-1 14 -1 294 384 1
-1 14 -1 357 253 1
1 -14 1 265 137 1
1 14 1 189 146 1
1 14 2 21726 2323 1
-1 14 -2 20755 2167 1
-1 14 -2 18761 1574 1
1 -14 2 15357 620 1
-1 14 -3 1 177 1
-1 14 -3 65 177 1
1 -14 3 0 50 1
1 14 4 290 497 1
-1 14 -4 670 405 1
1 -14 4 252 91 1
-1 14 -4 13 94 1
1 14 5 46 376 1
-1 14 -5 223 288 1
-1 14 -5 37 270 1
1 -14 5 184 140 1
1 14 6 830 547 1
-1 14 -6 1184 457 1
-1 14 -6 661 308 1
-1 14 -7 489 387 1
-1 14 -7 136 332 1
1 14 7 839 618 1
-1 -14 -8 8208 1333 1
1 14 8 6288 1450 1
-1 14 -8 7845 1339 1
-1 14 -8 6338 1161 1
-1 -14 -9 2898 881 1
-1 14 -9 2592 837 1
-1 14 -9 3379 937 1
1 14 9 3851 1293 1
1 15 -9 1834 675 1
1 -15 -9 2202 747 1
-1 15 9 1042 398 1
1 15 -9 1372 665 1
1 15 -8 537 314 1
-1 15 8 283 261 1
1 15 -8 239 297 1
1 15 -7 484 307 1
1 15 -7 846 549 1
-1 15 7 585 504 1
1 15 -6 15806 1609 1
-1 15 6 16360 2299 1
1 15 -6 13167 1800 1
1 15 -5 8498 1426 1
-1 15 5 8552 1587 1
1 15 -5 6374 917 1
-1 15 4 10538 2068 1
1 15 -4 8495 1332 1
1 15 -4 8536 1734 1
1 15 -3 26496 1905 1
1 15 -3 31900 2909 1
1 15 -2 6029 972 1
1 15 -2 6940 1472 1
-1 15 2 6085 1525 1
-1 15 1 7891 1409 1
1 15 -1 9042 1010 1
1 15 -1 10135 1528 1
1 15 0 5893 814 1
1 15 0 7934 1495 1
-1 15 0 6448 915 1
-1 15 0 7896 1443 1
-1 15 -1 9597 1579 1
1 15 1 8747 1539 1
-1 15 -1 7777 983 1
-1 15 -2 6080 1446 1
1 -15 2 3039 339 1
1 15 2 6120 1468 1
-1 15 -2 4749 936 1
-1 15 -3 1 176 1
1 15 3 197 376 1
1 -15 3 330 83 1
-1 15 -4 1652 785 1
1 15 4 826 728 1
-1 15 -4 1959 713 1
1 15 5 62 205 1
-1 15 -5 82 229 1
-1 15 -5 188 270 1
1 15 6 2372 840 1
-1 15 -6 2778 675 1
-1 15 -6 3482 906 1
1 15 7 11 237 1
-1 15 -7 11 195 1
-1 15 -7 11 265 1
-1 15 -8 186 199 1
1 15 8 2 213 1
-1 -15 -8 37 212 1
-1 15 -8 371 228 1
-1 16 8 2881 1112 1
1 16 -8 2746 1007 1
1 16 -8 2710 831 1
1 16 -7 8490 1295 1
-1 16 7 6274 1477 1
1 16 -7 6783 1432 1
1 16 -6 1792 716 1
-1 16 6 876 498 1
1 16 -6 500 318 1
-1 16 5 3822 1245 1
1 16 -5 2858 981 1
1 16 -5 1748 579 1
1 16 -4 216 379 1
-1 16 4 510 499 1
1 16 -4 138 269 1
1 16 -3 1705 590 1
1 16 -3 1335 362 1
-1 16 3 1035 592 1
1 16 -2 293 217 1
-1 16 2 1148 552 1
1 16 -2 443 205 1
1 16 -1 30617 2963 1
1 16 -1 27576 1858 1
-1 16 1 30568 3023 1
-1 16 0 10087 1907 1
-1 16 0 8441 1202 1
1 16 0 8868 1849 1
1 16 0 9551 1219 1
-1 16 -1 19549 1715 1
-1 16 -1 16930 2281 1
1 16 1 17279 2364 1
-1 16 -2 2170 500 1
1 16 2 1548 640 1
-1 16 -2 2498 803 1
-1 16 -3 6922 1018 1
-1 16 -3 7678 1369 1
1 16 3 7391 1430 1
-1 16 -4 428 324 1
1 16 4 1275 695 1
-1 16 -4 533 467 1
-1 16 -5 1797 865 1
-1 16 -5 3135 824 1
-1 16 -6 1917 667 1
1 16 6 3371 1190 1
-1 16 -6 3455 1122 1
-1 16 -7 8931 1611 1
-1 16 -7 8004 1310 1
1 16 7 7863 1715 1
1 17 -7 405 286 1
-1 17 7 489 132 1
1 17 -7 18 277 1
1 17 -6 2638 690 1
1 17 -6 3139 979 1
-1 17 6 3459 1107 1
-1 17 5 313 352 1
1 17 -5 1028 590 1
1 17 -5 995 522 1
1 17 -4 873 383 1
-1 17 4 730 578 1
1 17 -4 647 653 1
1 17 -3 5182 1201 1
-1 17 3 6530 1535 1
1 17 -3 3260 671 1
1 17 -2 1470 404 1
-1 17 2 1415 763 1
1 17 -2 2487 836 1
1 17 -1 1536 503 1
1 17 -1 760 185 1
-1 17 1 1244 494 1
-1 17 0 8891 1733 1
1 17 0 8532 1685 1
-1 17 0 9962 1244 1
-1 17 -1 71 284 1
-1 17 -1 93 191 1
1 17 1 93 283 1
1 17 2 6452 1423 1
-1 17 -2 5514 903 1
-1 17 -2 4725 1231 1
-1 17 -3 2421 675 1
1 17 3 2584 840 1
-1 17 -3 3013 955 1
-1 17 -4 1044 751 1
-1 17 -4 712 331 1
-1 17 -5 1235 574 1
-1 17 -5 1344 742 1
1 17 5 1534 906 1
-1 17 -6 2041 655 1
-1 17 -6 2965 992 1
-1 18 6 3919 1237 1
1 18 -6 3404 834 1
1 18 -6 2342 847 1
1 18 -5 582 279 1
1 18 -5 929 633 1
-1 18 5 688 580 1
1 18 -4 11861 1438 1
-1 18 4 15133 2477 1
1 18 -4 16396 2328 1
1 18 -3 540 630 1
1 18 -3 45 105 1
-1 18 3 300 563 1
-1 18 2 442 560 1
1 18 -2 228 246 1
1 18 -2 73 240 1
-1 18 1 272 73 1
1 18 -1 280 238 1
1 18 -1 477 517 1
-1 18 0 211 320 1
-1 18 0 814 672 1
1 18 0 139 352 1
-1 18 -1 10198 1960 1
-1 18 -1 7883 1195 1
1 18 1 7579 1680 1
-1 18 -2 17120 2495 1
-1 18 -2 16633 1713 1
1 18 2 13320 2259 1
-1 18 -3 117 214 1
1 18 3 980 820 1
-1 18 -3 336 389 1
-1 18 -4 541 353 1
-1 18 -4 81 87 1
1 18 4 297 515 1
-1 18 -5 806 462 1
1 18 5 2187 978 1
-1 18 -5 779 639 1
-1 19 5 1828 742 1
1 19 -5 1057 470 1
1 19 -5 1506 819 1
1 19 -4 4249 926 1
1 19 -4 3758 1267 1
-1 19 4 3461 1224 1
1 19 -3 493 246 1
1 19 -3 458 518 1
-1 19 3 204 247 1
-1 19 2 1661 972 1
1 19 -2 729 808 1
1 19 -2 221 311 1
1 19 -1 4174 797 1
-1 19 1 4307 1287 1
1 19 -1 4648 1381 1
-1 19 0 8284 1779 1
1 19 0 4902 1344 1
-1 19 0 6544 1071 1
-1 19 -1 22 148 1
1 19 1 1 240 1
-1 19 -1 311 293 1
-1 19 -2 1382 466 1
-1 19 -2 29 350 1
1 19 2 1681 541 1
1 19 3 716 544 1
-1 19 -3 146 278 1
-1 19 -3 386 313 1
-1 19 -4 10 233 1
1 19 4 10 356 1
-1 19 -4 420 374 1
1 20 -2 155 44 1
-1 20 2 718 868 1
1 20 -2 217 549 1
1 20 -1 16602 2559 1
-1 20 1 15962 2732 1
-1 20 0 1235 911 1
1 20 0 1654 987 1
-1 20 -1 2260 663 1
-1 20 -1 2470 1081 1
1 20 1 2588 1154 1
-2 0 14 2860 773 1
2 0 -14 1677 785 1
-2 0 12 23047 2080 1
2 0 -12 25336 2509 1
-2 0 10 703 378 1
2 0 -10 224 197 1
2 0 -8 19240 1525 1
-2 0 8 19824 1314 1
2 0 -6 107898 3289 1
-2 0 6 116517 2733 1
2 0 -6 110319 3307 1
2 0 -4 75735 1854 1
-2 0 4 1697 450 1
-2 0 4 80904 1784 1
2 0 -4 6068 1082 1
2 0 -4 68886 2202 1
2 0 -2 13002 917 1
-2 0 2 11589 818 1
-2 0 0 21234 176 1
2 0 0 9644 65 1
-2 0 0 9644 9 1
2 0 0 10129 28 1
2 0 0 22322 213 1
-2 0 -2 71294 3025 1
2 0 2 65433 2761 1
2 0 4 2102 377 1
-2 0 -4 2379 391 1
2 0 4 2194 471 1
-2 0 -4 1812 325 1
-2 0 -6 15935 770 1
2 0 6 19060 2071 1
-2 0 -6 19739 1784 1
-2 0 -8 8784 1096 1
-2 0 -8 7145 441 1
2 0 8 7615 1157 1
-2 0 -10 8481 1368 1
2 0 10 8314 1583 1
-2 0 -12 1216 580 1
2 0 12 2087 711 1
-2 -1 14 3269 864 1
-2 1 14 2021 738 1
2 1 -14 3481 1064 1
2 -1 -14 4146 1133 1
-2 1 13 2504 913 1
-2 -1 13 1867 766 1
2 1 -13 3302 1020 1
2 -1 -13 2397 938 1
-2 -1 12 7641 1387 1
2 -1 -12 11281 1771 1
-2 -1 12 9021 1141 1
-2 1 12 10600 1606 1
2 1 -12 9586 1678 1
2 1 -11 20253 2299 1
2 -1 -11 21063 2251 1
-2 1 11 19223 1987 1
-2 -1 11 19489 1842 1
2 1 -10 13944 1810 1
-2 -1 10 13468 1529 1
2 -1 -10 16057 1951 1
-2 1 10 14418 1652 1
-2 -1 9 617 283 1
2 1 -9 488 242 1
2 -1 -9 822 263 1
-2 1 9 101 143 1
-2 1 8 3027 591 1
-2 -1 8 3112 563 1
2 -1 -8 3398 669 1
2 1 -8 2226 584 1
-2 -1 7 40466 2130 1
-2 1 7 46117 2466 1
2 -1 -7 43504 2606 1
2 -1 -7 41117 2521 1
2 1 -7 45254 2648 1
-2 -1 6 49248 1582 1
-2 -1 6 49866 1837 1
2 1 -6 54760 2654 1
2 1 -6 43216 2085 1
2 -1 -6 40455 1922 1
-2 1 6 48586 1871 1
2 -1 -6 46320 2193 1
2 -1 -5 1549 231 1
-2 1 5 600 19 1
2 1 -5 2049 236 1
2 -1 -5 2520 311 1
-2 -1 5 2148 187 1
-2 -1 5 380 52 1
-2 -1 5 2531 201 1
-2 -1 4 33410 1140 1
2 -1 -4 37091 1490 1
-2 1 4 36014 1360 1
2 1 -4 42559 2075 1
-2 -1 4 38946 1320 1
2 -1 -4 240 249 1
-2 -1 4 907 93 1
2 -1 -4 38697 1905 1
2 1 -3 74138 2135 1
-2 -1 3 54 104 1
2 -1 -3 62456 2227 1
-2 -1 3 52 59 1
-2 1 3 85651 2965 1
-2 1 3 67669 1455 1
2 1 -3 62540 1315 1
2 -1 -3 62027 1402 1
2 -1 -3 66766 1850 1
2 1 -2 73894 998 1
-2 1 2 16808 799 1
-2 -1 2 8942 285 1
2 -1 -2 80211 1829 1
-2 1 2 83456 1242 1
2 1 -2 75195 1168 1
2 -1 -2 2289 39 1
-2 1 1 7910 159 1
2 -1 -1 5248 26 1
-2 1 1 72006 1021 1
2 1 -1 69203 1055 1
2 -1 -1 64819 1259 1
2 1 -1 26128 464 1
2 -1 -1 64682 799 1
-2 1 0 57970 1478 1
2 -1 0 61792 1185 1
2 1 0 8035 681 1
-2 1 0 37804 1432 1
-2 1 0 60915 1086 1
2 -1 0 599 169 1
2 -1 0 48458 1278 1
-2 1 -1 12026 288 1
-2 1 -1 12351 451 1
-2 -1 -1 11552 243 1
2 -1 1 12068 424 1
2 -1 1 11881 319 1
2 1 1 10515 208 1
-2 1 -1 14821 362 1
-2 -1 -1 10905 396 1
2 -1 1 11196 215 1
2 1 1 11340 246 1
2 1 1 12379 445 1
-2 1 -2 88203 1942 1
2 1 2 81115 1287 1
-2 -1 -2 91439 1880 1
2 -1 2 98270 2131 1
-2 1 -2 112206 2847 1
-2 -1 -2 95038 2697 1
2 -1 2 112137 2897 1
2 1 2 93757 1865 1
2 1 2 95953 2777 1
-2 -1 -3 2300 332 1
2 1 3 1630 158 1
2 1 3 1989 418 1
-2 1 -3 2368 528 1
2 -1 3 2635 542 1
-2 1 -3 2430 342 1
2 1 3 2056 301 1
-2 -1 -3 1972 160 1
2 -1 3 2112 342 1
2 -1 4 21702 1270 1
-2 1 -4 18681 1376 1
-2 1 -4 19889 1095 1
2 1 4 17378 579 1
-2 -1 -4 18956 593 1
2 1 4 18704 1041 1
-2 -1 -4 19454 1113 1
2 1 4 22601 1554 1
2 -1 4 19370 1356 1
2 1 5 21949 1663 1
-2 1 -5 17764 1143 1
-2 -1 -5 21697 1414 1
-2 -1 -5 19940 737 1
2 -1 5 21286 1691 1
-2 -1 -6 139 142 1
-2 1 -6 44 81 1
2 1 6 11 160 1
2 -1 6 74 99 1
-2 -1 -6 251 106 1
-2 1 -7 990 86 1
-2 -1 -7 684 97 1
2 1 7 834 234 1
-2 1 -7 1054 176 1
-2 -1 -7 1334 388 1
-2 1 -7 969 88 1
2 -1 7 1035 337 1
-2 1 -8 5562 326 1
2 1 8 8364 1246 1
-2 -1 -8 7164 561 1
2 -1 8 5536 1054 1
-2 -1 -8 6086 968 1
-2 1 -8 5701 847 1
-2 1 -8 6711 408 1
-2 1 -9 26942 2209 1
-2 -1 -9 29907 2444 1
2 -1 9 28146 2702 1
2 1 9 32743 2919 1
-2 1 -10 9421 1496 1
-2 -1 -10 7525 1379 1
2 1 10 5854 1459 1
2 -1 10 6553 1408 1
-2 1 -11 514 492 1
2 1 11 418 441 1
-2 -1 -11 53 235 1
2 -1 11 264 383 1
-2 -1 -12 3020 900 1
2 1 12 4255 1267 1
2 -1 12 2613 859 1
-2 1 -12 4494 1113 1
2 -2 -14 1594 689 1
2 2 -14 1541 821 1
-2 2 14 981 545 1
2 2 -13 5988 1244 1
2 -2 -13 6233 1328 1
-2 2 13 4584 1045 1
-2 -2 13 5528 1046 1
2 -2 -12 888 576 1
-2 -2 12 997 392 1
-2 2 12 1320 511 1
-2 -2 12 1160 383 1
2 2 -12 1671 636 1
-2 -2 11 2140 460 1
2 -2 -11 1197 313 1
2 2 -11 1110 257 1
-2 2 11 1981 414 1
-2 -2 11 1105 305 1
-2 -2 10 1637 407 1
-2 -2 10 1720 493 1
2 2 -10 2081 623 1
-2 2 10 2046 596 1
2 -2 -10 1808 621 1
2 2 -9 166 330 1
-2 -2 9 53 215 1
2 -2 -9 450 501 1
-2 2 9 4 244 1
2 -2 -8 388 193 1
2 2 -8 421 165 1
-2 -2 8 124 61 1
-2 2 8 383 200 1
2 -2 -7 665 310 1
2 2 -7 484 263 1
2 2 -7 463 319 1
-2 -2 7 844 306 1
-2 2 7 639 275 1
-2 -2 6 134 81 1
2 -2 -6 149 80 1
2 2 -6 215 97 1
2 -2 -6 110 117 1
-2 -2 6 246 86 1
-2 2 6 260 173 1
2 2 -6 36 98 1
2 2 -5 22804 1520 1
2 2 -5 18424 1601 1
2 -2 -5 17983 1742 1
2 -2 -5 17855 1553 1
-2 -2 5 14374 945 1
-2 2 5 16597 1159 1
-2 2 5 19613 1988 1
2 -2 -4 504 121 1
2 2 -4 391 103 1
-2 -2 4 398 96 1
-2 -2 4 55 55 1
-2 2 4 309 80 1
2 -2 -4 95 130 1
2 -2 -4 428 107 1
2 2 -4 400 122 1
-2 2 4 261 112 1
2 2 -3 42106 1955 1
-2 -2 3 38085 1204 1
2 -2 -3 46197 2536 1
-2 2 3 34527 1432 1
-2 2 3 39039 2334 1
2 -2 -3 34004 1428 1
2 2 -3 38540 1219 1
-2 2 2 13192 563 1
-2 -2 2 13864 636 1
2 -2 -2 13994 914 1
2 2 -2 14252 638 1
2 2 -2 12219 406 1
-2 -2 2 13380 463 1
2 -2 -2 12391 537 1
-2 -2 1 4985 146 1
-2 2 1 6302 214 1
-2 2 1 5844 186 1
2 2 -1 6572 182 1
2 -2 -1 6769 322 1
-2 2 1 5913 274 1
2 -2 -1 5599 182 1
2 -2 0 26803 957 1
-2 2 0 27712 989 1
-2 2 0 25289 1127 1
-2 2 0 28972 918 1
-2 -2 0 28893 942 1
2 -2 0 29442 855 1
2 2 0 27367 881 1
2 -2 0 27124 833 1
-2 2 0 27866 814 1
-2 -2 -2 65200 1549 1
2 2 2 64559 1707 1
2 -2 2 73088 1382 1
-2 -2 -2 74754 1879 1
-2 2 -2 69926 1342 1
-2 2 -2 76725 2204 1
2 2 2 84132 1854 1
2 2 2 83667 2854 1
2 -2 2 65865 2107 1
2 -2 2 85829 2876 1
-2 2 -2 98984 3178 1
-2 2 -3 38699 2620 1
-2 2 -3 36382 2058 1
2 2 3 43896 2822 1
-2 -2 -3 36643 1920 1
2 2 3 28508 1484 1
2 -2 3 36233 2253 1
2 2 3 37545 1834 1
2 -2 3 38346 2631 1
-2 -2 -3 32976 1424 1
2 2 4 10363 945 1
2 2 4 11126 760 1
-2 -2 -4 11925 730 1
-2 -2 -4 11456 1013 1
2 2 4 13967 1442 1
-2 2 -4 12560 1117 1
2 -2 4 10214 1160 1
-2 2 -4 12850 1506 1
-2 2 -4 12095 647 1
2 -2 4 13332 1244 1
-2 -2 -5 29325 1566 1
-2 -2 -5 30619 1097 1
2 2 5 26355 1027 1
-2 2 -5 29765 1624 1
2 -2 5 25258 1715 1
-2 2 -6 27796 850 1
-2 -2 -6 29302 1963 1
-2 2 -6 25229 1856 1
2 -2 6 25282 2134 1
2 2 6 27928 2419 1
2 2 6 33176 1648 1
-2 -2 -6 30655 1337 1
-2 2 -6 25858 816 1
-2 -2 -7 47806 1730 1
-2 -2 -7 49378 2739 1
-2 2 -7 48052 1133 1
2 -2 7 39000 2763 1
-2 2 -7 42676 1091 1
2 2 7 49505 3303 1
-2 2 -7 51651 2821 1
-2 -2 -8 4816 582 1
-2 -2 -8 4864 982 1
-2 2 -8 4517 384 1
2 2 8 3800 946 1
2 -2 8 3634 917 1
-2 2 -8 4337 895 1
-2 -2 -9 7 104 1
-2 2 -9 92 395 1
2 -2 9 65 303 1
2 2 9 148 448 1
2 2 10 1215 575 1
-2 -2 -10 1175 533 1
2 -2 10 1157 637 1
-2 2 -10 1233 531 1
-2 -2 -11 29011 2605 1
-2 2 -11 28658 2585 1
2 2 11 29286 2918 1
2 -2 11 32795 2975 1
-2 -2 -12 1404 715 1
2 -2 12 1703 668 1
-2 2 -12 735 428 1
-2 3 14 389 313 1
2 3 -14 736 491 1
2 -3 -14 920 529 1
2 -3 -13 3237 1074 1
2 3 -13 5195 1287 1
-2 3 13 3778 1025 1
-2 -3 12 1184 495 1
2 -3 -12 395 289 1
2 3 -12 584 467 1
-2 3 12 732 516 1
2 -3 -11 894 517 1
-2 3 11 577 429 1
-2 -3 11 0 167 1
2 3 -11 874 449 1
-2 3 10 1 248 1
2 -3 -10 1 278 1
-2 -3 10 22 148 1
2 3 -10 31 201 1
2 -3 -9 11565 1502 1
2 3 -9 11338 1521 1
-2 3 9 13288 1658 1
-2 -3 9 10674 1175 1
2 -3 -8 1333 328 1
-2 -3 8 600 224 1
-2 3 8 695 276 1
-2 3 8 549 164 1
2 3 -8 557 225 1
2 3 -8 390 106 1
2 3 -7 6827 1056 1
2 3 -7 6971 913 1
2 -3 -7 5244 910 1
2 -3 -6 14163 1520 1
2 3 -6 17103 1276 1
-2 3 6 15514 1560 1
2 3 -6 15265 1476 1
2 -3 -6 14018 1345 1
-2 -3 6 15562 979 1
2 -3 -5 9586 1007 1
-2 3 5 10998 822 1
2 3 -5 12283 1174 1
2 -3 -5 12080 1295 1
2 3 -5 11895 917 1
-2 3 5 10909 1199 1
-2 -3 5 11146 681 1
2 3 -4 15411 1086 1
-2 3 4 17653 1133 1
2 3 -4 17944 1538 1
2 -3 -4 17812 1215 1
-2 3 4 18901 1821 1
-2 -3 4 17213 915 1
2 -3 -3 27026 1652 1
-2 -3 3 27263 1349 1
2 3 -3 29351 1351 1
-2 -3 3 27822 764 1
-2 3 3 26787 1631 1
-2 3 3 27503 1022 1
2 -3 -3 27021 1010 1
2 3 -3 26054 768 1
-2 3 2 77723 2030 1
-2 -3 2 72385 1385 1
2 3 -2 68777 1252 1
-2 3 2 66411 1148 1
2 3 -2 68730 782 1
-2 -3 2 73093 1717 1
2 -3 -2 66967 1105 1
-2 -3 2 71176 861 1
2 -3 -2 68376 1793 1
-2 3 1 79037 1433 1
-2 -3 1 80984 1214 1
-2 3 1 83186 1425 1
2 3 -1 86797 1205 1
-2 3 1 82656 2093 1
2 -3 -1 80453 1483 1
2 -3 -1 76612 2022 1
2 3 -1 80683 1779 1
2 3 -1 80092 1092 1
2 -3 -1 84861 1448 1
-2 -3 1 84498 1897 1
-2 3 0 2380 369 1
2 -3 0 2076 259 1
2 -3 0 1938 281 1
-2 -3 0 2298 168 1
2 -3 0 2199 383 1
-2 3 0 2219 294 1
2 3 0 2150 329 1
-2 -3 0 1895 306 1
2 3 0 2211 329 1
-2 3 0 2053 291 1
-2 -3 -1 247637 3684 1
-2 3 -1 243720 3637 1
2 -3 1 248250 3660 1
-2 3 -1 250777 3726 1
2 -3 1 235028 3782 1
2 -3 1 247033 3522 1
2 3 1 304934 4778 1
-2 3 -1 289467 5146 1
2 3 1 248983 3529 1
-2 -3 -1 258876 2629 1
2 -3 2 50142 1137 1
-2 -3 -2 46328 1211 1
-2 3 -2 48100 1409 1
-2 3 -2 49045 1159 1
2 3 2 47782 1373 1
2 3 2 48785 1120 1
-2 -3 -2 46317 1110 1
2 -3 2 46494 1500 1
-2 3 -3 7430 850 1
2 3 3 7459 539 1
-2 3 -3 8301 578 1
2 3 3 7843 756 1
2 -3 3 8189 991 1
-2 -3 -3 6069 612 1
-2 -3 -3 7372 718 1
-2 3 -3 9521 1182 1
2 -3 3 7111 782 1
2 3 4 472 170 1
2 -3 4 208 192 1
-2 -3 -4 236 172 1
-2 -3 -4 501 86 1
2 3 4 385 105 1
-2 3 -4 374 67 1
-2 3 -4 279 86 1
2 3 4 272 82 1
-2 3 -4 850 68 1
2 -3 5 3275 648 1
-2 -3 -5 3859 453 1
-2 -3 -5 4499 636 1
2 3 5 4735 549 1
2 3 5 3768 278 1
-2 3 -5 4049 624 1
2 3 5 4454 815 1
-2 3 -5 4050 327 1
2 -3 6 2568 693 1
-2 -3 -6 2560 614 1
-2 -3 -6 2891 476 1
2 3 6 2523 481 1
-2 3 -6 2066 548 1
-2 3 -6 2380 316 1
2 3 6 2099 673 1
-2 3 -6 2491 329 1
-2 3 -7 8238 510 1
-2 -3 -7 8432 751 1
-2 -3 -7 9345 1127 1
2 -3 7 8826 1217 1
-2 3 -7 7753 504 1
2 3 7 9387 853 1
-2 3 -7 7927 1039 1
2 3 7 10407 1543 1
-2 -3 -8 6585 634 1
2 3 8 6034 1074 1
-2 -3 -8 8031 1050 1
-2 3 -8 6721 421 1
-2 3 -8 8994 1134 1
2 -3 8 5645 946 1
-2 3 -8 6911 429 1
2 -3 9 28476 2577 1
2 3 9 26732 2674 1
-2 -3 -9 26174 2323 1
-2 3 -9 29527 2429 1
-2 -3 -10 1045 424 1
-2 3 -10 657 264 1
2 3 10 1803 539 1
2 -3 10 989 245 1
-2 3 -11 1 110 1
2 -3 11 1 86 1
2 3 11 123 276 1
-2 -3 -11 1 233 1
-2 -3 -12 3255 944 1
-2 3 -12 3329 890 1
2 -3 12 5315 1290 1
2 3 12 6572 1630 1
2 -4 -14 2930 886 1
2 4 -14 2016 776 1
-2 4 14 1910 770 1
2 -4 -13 1276 618 1
-2 4 13 1982 715 1
2 4 -13 1753 685 1
2 4 -12 5125 984 1
2 -4 -12 3937 942 1
-2 4 12 4961 1005 1
2 -4 -11 7551 1237 1
-2 4 11 8996 1411 1
2 4 -11 5776 1012 1
-2 -4 11 6240 854 1
-2 4 10 7492 1309 1
2 -4 -10 7799 1252 1
2 4 -10 8697 1300 1
-2 -4 10 7003 916 1
2 -4 -9 4156 706 1
2 4 -9 4014 762 1
-2 4 9 3846 663 1
-2 -4 9 4611 656 1
-2 4 9 4970 878 1
2 -4 -8 9506 1029 1
2 4 -8 8309 913 1
2 4 -8 9130 1043 1
-2 -4 8 8280 826 1
2 -4 -7 1984 526 1
2 4 -7 2568 550 1
-2 -4 7 3401 618 1
-2 4 7 2193 591 1
2 4 -7 2525 607 1
2 4 -6 37 131 1
2 -4 -6 78 104 1
-2 -4 6 77 158 1
2 4 -6 5 195 1
-2 4 6 394 41 1
-2 -4 6 1 128 1
-2 -4 5 30655 964 1
-2 4 5 30567 1832 1
2 -4 -5 31125 1878 1
2 4 -5 32042 1394 1
2 4 -5 26553 1373 1
-2 -4 5 33086 1644 1
-2 -4 5 25481 1578 1
-2 4 4 20782 1616 1
-2 -4 4 23303 769 1
2 4 -4 24140 1403 1
2 -4 -4 21931 1087 1
-2 -4 4 25929 1532 1
-2 -4 4 25327 1518 1
-2 4 4 21940 1044 1
2 4 -3 26250 1067 1
-2 -4 3 29206 1298 1
-2 -4 3 29839 1237 1
-2 -4 3 29061 612 1
-2 4 3 26345 861 1
2 -4 -3 25310 836 1
2 -4 -3 27601 1449 1
-2 4 3 30406 1592 1
2 4 -2 11714 225 1
-2 -4 2 10985 543 1
-2 4 2 11369 392 1
2 -4 -2 12922 716 1
2 4 -2 11790 541 1
2 -4 -2 10584 352 1
-2 -4 2 11200 241 1
2 -4 -2 10981 428 1
-2 -4 2 12388 483 1
2 4 -2 11873 442 1
-2 4 2 11777 653 1
2 4 -1 52015 1907 1
2 -4 -1 51463 1624 1
2 4 -1 53234 2017 1
-2 -4 1 55078 1384 1
-2 4 1 52856 2162 1
2 -4 -1 52787 1401 1
2 -4 -1 52890 2260 1
-2 -4 1 50245 1866 1
-2 4 1 48261 1357 1
-2 4 1 50970 1548 1
2 4 -1 49574 1023 1
2 4 -1 47958 1167 1
-2 4 0 48656 1075 1
-2 -4 0 47239 708 1
2 -4 0 46697 894 1
2 -4 0 48706 1124 1
2 -4 0 45794 1287 1
2 4 0 44672 1185 1
-2 4 0 50945 1389 1
-2 4 0 47668 962 1
2 4 0 47333 1215 1
2 -4 1 23826 1112 1
2 -4 1 26275 1439 1
2 -4 1 24772 1380 1
-2 4 -1 22495 1208 1
2 4 1 23132 1379 1
2 4 1 23989 1263 1
-2 -4 -1 22305 1305 1
-2 4 -1 24593 1402 1
2 -4 2 43130 1345 1
2 4 2 43025 1575 1
-2 4 -2 40894 1289 1
-2 4 -2 44092 1865 1
-2 4 -2 37352 1370 1
2 -4 2 36640 1455 1
-2 -4 -2 38282 1348 1
-2 -4 -2 38546 1100 1
2 4 2 39332 1188 1
-2 -4 -3 8121 834 1
-2 4 -3 8001 976 1
-2 4 -3 9607 855 1
2 -4 3 8835 1110 1
2 -4 3 8721 744 1
2 4 3 8045 971 1
-2 4 -3 11132 1397 1
-2 -4 -3 10912 1118 1
-2 -4 -4 33293 1673 1
-2 4 -4 33291 1945 1
-2 4 -4 34290 1328 1
2 4 4 39367 2019 1
-2 -4 -4 34922 1681 1
-2 -4 -5 4310 510 1
-2 4 -5 5360 526 1
2 4 5 5007 801 1
-2 -4 -5 5110 655 1
2 -4 5 3969 668 1
-2 4 -5 4538 644 1
-2 4 -5 5617 483 1
2 4 5 5054 594 1
-2 -4 -6 45372 2615 1
-2 -4 -6 42935 2071 1
-2 4 -6 45604 1588 1
2 -4 6 42053 2785 1
2 4 6 47188 2344 1
-2 4 -6 46466 2719 1
2 4 6 43941 3143 1
-2 -4 -7 7565 879 1
2 4 7 8256 938 1
-2 4 -7 11923 972 1
2 -4 7 6557 1115 1
2 4 7 7073 484 1
-2 4 -7 8773 1216 1
-2 4 -7 8937 688 1
2 4 7 9619 1472 1
-2 -4 -7 10045 1275 1
2 -4 8 10629 1348 1
-2 -4 -8 14463 1467 1
-2 4 -8 11339 1305 1
-2 4 -8 11805 694 1
-2 4 -8 12410 715 1
2 4 8 13753 1147 1
-2 -4 -8 12191 1011 1
2 -4 9 629 340 1
-2 4 -9 649 129 1
-2 4 -9 302 177 1
-2 -4 -9 717 363 1
2 4 10 926 659 1
-2 4 -10 756 371 1
2 -4 10 350 206 1
-2 -4 -10 833 454 1
2 4 11 9218 1786 1
-2 4 -11 8517 1546 1
-2 -4 -11 9980 1687 1
-2 4 -12 3930 1071 1
-2 -4 -12 3486 1007 1
2 4 12 3838 1157 1
-2 5 13 596 420 1
2 -5 -13 977 572 1
2 5 -13 928 451 1
2 5 -13 1418 719 1
2 -5 -12 150 246 1
-2 5 12 682 525 1
2 5 -12 2 146 1
2 5 -11 796 560 1
-2 5 11 1171 652 1
2 -5 -11 1252 669 1
-2 -5 10 766 365 1
-2 5 10 1439 552 1
2 -5 -10 661 399 1
2 5 -10 1587 545 1
-2 5 10 528 365 1
-2 5 9 4 248 1
2 5 -9 30 90 1
2 -5 -9 36 282 1
-2 -5 9 2 75 1
2 -5 -8 170 172 1
2 5 -8 430 289 1
2 5 -8 418 247 1
-2 5 8 401 314 1
-2 -5 8 679 269 1
-2 -5 7 4725 936 1
-2 5 7 3190 958 1
-2 -5 7 4764 680 1
2 5 -7 4095 972 1
2 5 -7 4490 938 1
2 -5 -7 4236 976 1
2 -5 -6 210 192 1
-2 -5 6 672 302 1
2 5 -6 307 258 1
2 5 -6 527 261 1
-2 5 6 455 304 1
2 5 -5 13356 840 1
2 5 -5 14915 1038 1
-2 -5 5 15146 1040 1
-2 5 5 14893 1237 1
-2 -5 5 13753 560 1
-2 5 4 7445 1150 1
-2 -5 4 6751 898 1
2 -5 -4 7095 690 1
2 5 -4 7926 919 1
-2 -5 4 8923 1049 1
-2 -5 4 7327 445 1
-2 5 4 7489 685 1
-2 5 3 86158 3028 1
-2 -5 3 86036 2437 1
-2 -5 3 86001 2591 1
2 5 -3 86715 2288 1
-2 -5 3 81449 1045 1
-2 5 3 80480 1796 1
2 5 -3 84958 2524 1
2 -5 -3 81776 1758 1
-2 5 2 18277 768 1
2 -5 -2 18695 927 1
2 5 -2 20303 1238 1
2 -5 -2 19487 1338 1
-2 5 2 18166 1253 1
-2 -5 2 19207 1104 1
-2 -5 2 19485 955 1
2 5 -2 17298 828 1
2 -5 -2 18403 730 1
2 5 -2 18816 1115 1
-2 -5 1 2051 862 1
2 -5 -1 919 491 1
2 5 -1 1304 791 1
2 5 -1 1155 481 1
-2 5 1 1778 936 1
2 5 -1 1260 376 1
-2 5 1 750 489 1
2 5 -1 1636 843 1
2 -5 -1 990 616 1
-2 5 1 1215 632 1
2 -5 -1 1398 884 1
-2 -5 1 1548 600 1
-2 5 0 22374 1119 1
2 -5 0 23787 1465 1
-2 5 0 24066 1000 1
2 -5 0 22663 1192 1
2 5 0 22344 761 1
-2 -5 0 23884 833 1
2 5 0 24278 1465 1
2 5 0 24618 1379 1
2 -5 0 20959 896 1
2 -5 1 338 565 1
2 -5 1 464 610 1
-2 -5 -1 367 350 1
-2 5 -1 258 553 1
2 -5 1 324 415 1
2 5 1 352 527 1
2 5 1 334 593 1
-2 -5 -1 415 585 1
-2 5 -1 494 540 1
2 -5 2 67303 2225 1
2 5 2 66568 2458 1
-2 5 -2 59389 2041 1
-2 -5 -2 61413 2186 1
-2 5 -2 64827 2691 1
-2 5 -2 60522 2086 1
2 -5 2 62393 2362 1
2 -5 3 13788 968 1
-2 -5 -3 15932 1328 1
2 5 3 14202 1235 1
-2 -5 -3 12530 947 1
-2 5 -3 14833 1244 1
-2 5 -3 14536 1054 1
-2 -5 -4 11065 965 1
2 5 4 13185 1240 1
-2 -5 -4 12298 1119 1
-2 5 -4 11820 897 1
-2 5 -4 12844 1192 1
2 5 5 13538 1034 1
-2 -5 -5 13953 1000 1
-2 -5 -5 13072 969 1
-2 5 -5 15613 889 1
-2 5 -5 13883 1141 1
-2 5 -5 15684 970 1
-2 5 -6 482 181 1
-2 5 -6 0 103 1
-2 -5 -6 779 300 1
-2 5 -6 547 186 1
2 5 6 805 319 1
2 5 6 227 206 1
-2 -5 -6 156 72 1
2 5 7 3922 841 1
-2 -5 -7 2884 730 1
2 5 7 2666 1000 1
-2 5 -7 3000 553 1
-2 5 -7 2433 842 1
-2 -5 -7 2408 805 1
-2 -5 -8 3795 833 1
-2 -5 -8 2814 568 1
2 5 8 2483 313 1
2 5 8 2870 623 1
2 5 8 2934 865 1
-2 5 -8 3099 518 1
-2 5 -8 3044 727 1
-2 5 -8 2398 391 1
-2 -5 -9 5223 1095 1
-2 5 -9 3771 518 1
2 5 9 4604 1376 1
2 5 9 4678 951 1
-2 5 -9 5265 1127 1
-2 -5 -10 0 93 1
-2 5 -10 29 117 1
2 5 10 242 697 1
-2 5 -11 783 629 1
2 5 11 361 392 1
-2 -5 -11 1149 572 1
-2 5 -12 0 222 1
2 5 12 380 408 1
-2 -5 -12 469 415 1
2 -6 -13 65 389 1
2 6 -13 251 320 1
2 6 -13 433 394 1
-2 6 13 233 317 1
2 6 -12 1191 515 1
2 -6 -12 2010 878 1
2 6 -12 1170 613 1
-2 6 12 939 646 1
2 -6 -11 13141 1526 1
2 6 -11 14351 1670 1
2 6 -11 12359 1208 1
-2 6 11 12992 1615 1
2 -6 -10 10550 1449 1
-2 6 10 12254 1863 1
2 6 -10 10392 1470 1
2 6 -9 287 391 1
2 -6 -9 19 201 1
-2 6 9 318 477 1
2 -6 -8 6153 852 1
2 6 -8 5969 844 1
-2 6 8 6722 974 1
2 6 -7 515 274 1
-2 6 7 884 381 1
-2 -6 7 846 337 1
2 -6 -7 619 356 1
2 6 -7 1096 408 1
-2 -6 7 496 163 1
2 6 -6 9181 851 1
-2 -6 6 9433 540 1
-2 -6 6 9167 878 1
2 6 -6 8860 830 1
-2 6 6 9331 1086 1
2 6 -6 9913 953 1
-2 6 5 197 408 1
2 6 -5 230 324 1
-2 -6 5 108 306 1
-2 -6 5 201 170 1
2 6 -5 157 295 1
2 6 -4 640 217 1
2 6 -4 250 102 1
-2 -6 4 244 174 1
-2 6 4 511 117 1
-2 6 4 727 341 1
2 -6 -4 458 108 1
-2 -6 4 351 56 1
2 -6 -3 87554 2609 1
-2 -6 3 81494 1105 1
2 6 -3 94266 3267 1
2 -6 -3 91405 2207 1
2 -6 -3 92703 3872 1
-2 -6 3 100328 3143 1
-2 6 3 86068 2275 1
-2 6 3 97221 3836 1
2 6 -3 89469 2745 1
-2 -6 2 86385 2527 1
2 6 -2 77093 2811 1
-2 6 2 78518 3246 1
-2 6 2 72638 1892 1
2 6 -2 71429 2026 1
2 6 -2 84076 3080 1
2 -6 -2 72547 1761 1
2 -6 -2 79070 3256 1
2 -6 -2 71515 2223 1
2 -6 -1 16265 875 1
2 -6 -1 18352 1245 1
2 6 -1 16192 1390 1
-2 6 1 18173 1692 1
2 -6 -1 18245 1645 1
2 6 -1 18470 1027 1
-2 -6 1 18364 1467 1
2 6 -1 17204 1444 1
-2 -6 1 20312 1172 1
-2 6 1 17258 942 1
-2 6 1 18085 1168 1
2 -6 0 9500 1245 1
-2 -6 0 8492 745 1
2 6 0 9055 1141 1
2 6 0 9966 1303 1
-2 6 0 8900 1276 1
2 -6 0 9023 786 1
-2 6 0 9633 827 1
2 -6 0 9428 1053 1
2 6 0 8302 676 1
-2 6 0 8092 934 1
2 6 1 25045 1757 1
2 -6 1 24898 1610 1
2 -6 1 26860 1765 1
2 -6 1 22886 1097 1
-2 6 -1 26266 1735 1
-2 6 -1 23639 1359 1
-2 -6 -1 26167 1713 1
-2 -6 -1 25327 1047 1
-2 -6 -2 26533 1744 1
2 -6 2 28728 1348 1
-2 6 -2 30539 1798 1
-2 6 -2 27572 1580 1
2 6 2 32395 2034 1
2 -6 2 35373 2066 1
2 6 3 13876 1511 1
2 -6 3 13664 1206 1
-2 -6 -3 14068 1527 1
-2 6 -3 13947 1321 1
-2 6 -3 13686 1422 1
2 -6 4 3594 451 1
-2 -6 -4 3437 548 1
2 6 4 3807 619 1
-2 6 -4 2654 404 1
-2 -6 -4 3341 464 1
-2 6 -4 3003 506 1
-2 -6 -5 500 339 1
-2 6 -5 604 317 1
-2 -6 -5 395 275 1
-2 6 -5 523 294 1
2 6 5 535 359 1
-2 6 -5 681 391 1
-2 6 -6 729 153 1
-2 6 -6 1772 295 1
-2 -6 -6 1344 285 1
-2 6 -6 1087 226 1
-2 -6 -6 849 213 1
2 6 6 1520 334 1
-2 -6 -7 4915 935 1
2 6 7 5039 1090 1
-2 6 -7 4576 927 1
2 6 7 4672 921 1
-2 6 -7 6057 714 1
-2 -6 -8 11441 1521 1
2 6 8 11846 1361 1
-2 6 -8 13761 1121 1
2 6 8 9759 1717 1
-2 6 -8 11887 1637 1
-2 -6 -9 2604 823 1
2 6 9 2562 938 1
-2 6 -9 2389 484 1
-2 6 -9 3023 982 1
2 6 9 3228 781 1
-2 6 -10 1312 620 1
-2 -6 -10 1287 499 1
2 6 10 1152 732 1
-2 6 -11 5648 1201 1
-2 -6 -11 5413 1130 1
2 6 11 5552 1353 1
-2 6 -12 0 45 1
-2 -6 -12 640 489 1
2 6 12 798 624 1
-2 7 13 4166 1242 1
2 7 -13 4119 1066 1
2 -7 -13 4742 1302 1
2 7 -12 7403 1199 1
2 -7 -12 6468 1494 1
2 7 -12 7535 1523 1
-2 7 12 8224 1680 1
2 7 -11 74 129 1
-2 7 11 3 66 1
2 7 -11 153 233 1
2 -7 -11 280 321 1
-2 7 11 335 380 1
2 7 -10 1700 727 1
2 7 -10 1694 852 1
2 -7 -10 1167 726 1
-2 7 10 962 714 1
2 7 -9 2251 630 1
2 7 -9 2676 615 1
2 -7 -9 2135 657 1
-2 7 9 2832 805 1
2 -7 -8 8587 1309 1
2 7 -8 9477 1221 1
-2 7 8 8691 1480 1
2 7 -8 10344 1429 1
2 7 -7 768 273 1
-2 7 7 1218 464 1
2 7 -7 457 191 1
2 7 -7 335 137 1
-2 -7 7 605 162 1
-2 7 6 391 407 1
-2 -7 6 291 138 1
2 7 -6 92 225 1
2 7 -6 263 258 1
2 7 -6 477 333 1
-2 -7 5 607 128 1
2 7 -5 875 336 1
-2 7 5 182 204 1
2 7 -5 646 252 1
2 -7 -4 12017 650 1
-2 7 4 11524 989 1
2 7 -4 11463 834 1
2 7 -4 11822 758 1
-2 -7 4 11041 302 1
-2 -7 3 2333 489 1
2 7 -3 3177 502 1
-2 7 3 2889 664 1
2 -7 -3 2925 372 1
2 7 -3 3862 652 1
-2 7 3 2824 377 1
2 7 -2 12017 816 1
-2 -7 2 11067 677 1
-2 7 2 11112 528 1
2 -7 -2 10677 461 1
2 7 -2 11200 584 1
-2 7 2 11194 914 1
2 7 -1 154 105 1
2 -7 -1 178 235 1
2 -7 -1 173 101 1
-2 7 1 188 114 1
2 7 -1 381 212 1
-2 -7 1 342 167 1
-2 7 1 253 179 1
2 7 -1 268 222 1
-2 -7 1 144 161 1
2 -7 -1 279 194 1
-2 7 1 474 321 1
2 -7 0 7594 566 1
2 7 0 7829 949 1
2 -7 0 8015 1023 1
-2 7 0 8713 1059 1
-2 7 0 7294 594 1
2 7 0 6786 522 1
-2 7 0 8061 766 1
-2 -7 0 7422 621 1
2 7 0 7953 886 1
-2 -7 -1 43783 2214 1
2 7 1 52216 2532 1
-2 -7 -1 50255 1554 1
2 -7 1 48628 2350 1
2 -7 1 45445 1431 1
-2 7 -1 48814 2359 1
-2 -7 -2 16918 1145 1
-2 7 -2 15754 948 1
-2 7 -2 18059 1148 1
2 -7 2 15704 727 1
2 7 2 17952 1232 1
-2 -7 -2 16478 709 1
2 -7 2 20026 1354 1
2 7 3 19386 1602 1
-2 7 -3 19345 1432 1
-2 7 -3 17645 1327 1
2 -7 3 20126 1365 1
2 -7 3 17149 1053 1
-2 7 -4 42144 2041 1
-2 7 -4 42961 1880 1
2 7 4 44250 2294 1
2 -7 4 42849 1800 1
-2 -7 -4 38650 1692 1
-2 -7 -5 8674 1016 1
-2 7 -5 8881 1144 1
-2 7 -5 8227 903 1
2 7 5 8783 1217 1
-2 -7 -6 772 309 1
2 7 6 711 350 1
-2 7 -6 923 318 1
-2 7 -6 687 353 1
-2 -7 -7 814 354 1
-2 7 -7 659 344 1
2 7 7 707 348 1
-2 7 -7 1118 389 1
-2 -7 -8 78 260 1
-2 7 -8 8 254 1
-2 7 -8 13 156 1
2 7 8 108 305 1
2 7 8 200 458 1
-2 7 -9 11831 1004 1
-2 7 -9 12814 1653 1
2 7 9 12747 1425 1
2 7 9 13877 2152 1
-2 -7 -9 11926 1594 1
-2 -7 -10 180 161 1
2 7 10 484 152 1
-2 7 -10 257 147 1
2 7 11 243 348 1
-2 7 -11 120 156 1
-2 -7 -11 765 427 1
2 -8 -13 5 285 1
2 8 -13 665 274 1
-2 8 13 387 541 1
2 8 -12 181 165 1
2 -8 -12 295 364 1
2 8 -12 192 267 1
-2 8 12 64 428 1
-2 8 12 525 728 1
2 8 -11 2389 576 1
2 8 -11 3019 595 1
2 -8 -11 3639 784 1
-2 8 11 1600 434 1
2 8 -10 987 458 1
-2 8 10 2361 859 1
2 -8 -10 1780 643 1
2 8 -10 1931 599 1
2 8 -9 2428 793 1
2 -8 -9 3052 915 1
-2 8 9 3431 1084 1
2 8 -9 3120 931 1
2 8 -8 15496 1415 1
2 -8 -8 14029 1463 1
-2 8 8 14423 1679 1
2 8 -8 14320 1477 1
2 8 -7 1913 612 1
-2 8 7 1134 568 1
-2 -8 7 1202 257 1
2 8 -7 439 337 1
2 8 -6 4323 855 1
-2 8 6 4723 1133 1
2 8 -6 5646 963 1
-2 -8 6 4068 419 1
2 8 -5 11152 1305 1
-2 8 5 12495 1684 1
-2 -8 5 11979 549 1
2 8 -5 11596 1230 1
2 8 -4 560 299 1
2 -8 -4 606 234 1
2 8 -4 247 158 1
-2 8 4 187 248 1
-2 -8 4 352 76 1
-2 -8 3 1893 239 1
2 -8 -3 1033 97 1
-2 8 3 881 179 1
2 8 -3 800 128 1
-2 8 3 1496 151 1
2 8 -3 1822 205 1
2 8 -2 78610 3329 1
2 8 -2 65204 2093 1
-2 8 2 65974 1966 1
-2 8 2 84291 3872 1
-2 -8 2 75260 2677 1
2 -8 -2 69897 1749 1
2 8 -1 18022 1454 1
-2 8 1 15563 1448 1
-2 8 1 14513 971 1
-2 8 1 13990 747 1
2 8 -1 12410 332 1
2 8 -1 14645 843 1
-2 -8 1 15752 996 1
2 -8 -1 14961 704 1
-2 8 0 80278 3550 1
-2 8 0 76297 2616 1
-2 -8 0 81086 2406 1
-2 8 0 73628 2064 1
2 -8 0 75228 1903 1
2 8 0 81790 3522 1
2 8 0 70897 1963 1
-2 8 -1 1091 410 1
-2 8 -1 845 453 1
2 -8 1 1007 287 1
2 8 1 584 431 1
-2 -8 -1 1309 351 1
-2 -8 -2 42588 1478 1
-2 8 -2 39123 1839 1
2 -8 2 41923 1392 1
-2 8 -2 47723 2369 1
2 -8 2 45990 2366 1
2 8 2 39781 2287 1
-2 8 -3 13356 1495 1
-2 8 -3 11975 1299 1
-2 -8 -3 10677 957 1
2 8 3 12189 1579 1
2 -8 3 9331 1191 1
2 -8 3 10342 950 1
2 8 4 13758 1543 1
-2 8 -4 15666 1461 1
-2 8 -4 15260 1396 1
2 -8 4 14412 1304 1
-2 8 -5 894 250 1
-2 -8 -5 533 145 1
-2 8 -5 675 193 1
-2 -8 -6 392 326 1
-2 8 -6 210 203 1
2 8 6 150 231 1
-2 -8 -7 1033 369 1
-2 8 -7 599 209 1
-2 8 -7 770 309 1
2 8 7 1155 449 1
-2 -8 -8 8142 1058 1
-2 8 -8 8192 895 1
2 8 8 12418 1543 1
2 8 8 8409 1452 1
-2 8 -8 8913 1220 1
-2 -8 -9 2955 713 1
-2 8 -9 2025 543 1
-2 8 -9 3517 526 1
2 8 9 1803 609 1
2 8 9 2366 743 1
-2 -8 -10 7173 1301 1
2 8 10 6357 1534 1
-2 8 -10 8246 1360 1
2 8 10 7379 1132 1
-2 -8 -11 505 390 1
2 8 11 240 429 1
-2 8 -11 208 76 1
2 -9 -12 7695 1440 1
2 9 -12 9258 1538 1
-2 9 12 6333 1320 1
2 9 -12 7795 1170 1
2 9 -11 597 293 1
2 -9 -11 924 472 1
-2 9 11 515 472 1
2 9 -11 1196 573 1
2 9 -10 764 355 1
2 -9 -10 128 218 1
2 9 -10 1215 378 1
-2 9 10 30 331 1
2 -9 -9 10234 1518 1
2 9 -9 12279 1699 1
2 9 -9 10055 1372 1
-2 9 9 12612 1895 1
2 9 -8 1233 404 1
2 -9 -8 1349 424 1
2 9 -8 938 326 1
-2 9 8 931 505 1
2 9 -7 9465 1377 1
-2 -9 7 7435 646 1
2 9 -7 9031 1355 1
-2 9 7 9914 1846 1
-2 9 6 3592 930 1
2 9 -6 3422 676 1
2 9 -6 2771 662 1
-2 -9 6 3113 302 1
-2 9 5 15 212 1
2 9 -5 5 198 1
-2 -9 5 14 45 1
2 9 -5 28 142 1
2 9 -4 12191 1178 1
2 9 -4 11353 1326 1
-2 9 4 9712 1425 1
-2 9 3 65037 3351 1
2 9 -3 56644 2142 1
2 -9 -3 55513 1707 1
-2 9 3 48824 1695 1
2 9 -3 62957 3009 1
2 9 -2 1962 339 1
-2 9 2 1596 274 1
2 9 -2 2554 612 1
-2 -9 2 1487 352 1
-2 9 2 2557 610 1
2 -9 -2 1574 243 1
-2 9 1 497 60 1
-2 9 1 1204 211 1
-2 -9 1 499 53 1
2 9 -1 798 84 1
-2 9 1 497 37 1
2 9 -1 1175 175 1
2 9 -1 1180 59 1
2 -9 -1 890 58 1
2 9 0 10065 1246 1
-2 9 0 10644 767 1
-2 9 0 10336 953 1
-2 -9 0 12101 944 1
-2 9 0 10207 1281 1
2 9 0 10231 753 1
2 -9 0 10554 665 1
2 9 0 9910 496 1
-2 9 -1 1140 180 1
-2 9 -1 849 112 1
2 -9 1 1093 91 1
-2 -9 -1 1257 157 1
-2 9 -2 15907 1580 1
-2 -9 -2 14018 1000 1
2 -9 2 14266 885 1
-2 9 -2 12387 1134 1
2 9 2 16645 1681 1
-2 9 -3 3971 706 1
2 9 3 4139 806 1
2 -9 3 4060 476 1
-2 9 -3 3672 615 1
2 9 4 6196 1111 1
-2 9 -4 6785 1041 1
-2 9 -4 5946 904 1
2 -9 4 6010 733 1
-2 9 -5 8220 963 1
2 9 5 9257 1303 1
-2 9 -5 7574 873 1
-2 -9 -5 8128 843 1
-2 -9 -6 12359 1283 1
-2 9 -6 13212 1307 1
-2 9 -6 14150 1496 1
2 9 6 12005 1505 1
-2 9 -7 19 156 1
-2 9 -7 29 262 1
2 9 7 2 238 1
-2 -9 -7 13 219 1
-2 9 -8 3605 653 1
-2 9 -8 3126 830 1
2 9 8 4792 1060 1
-2 -9 -8 3425 793 1
-2 -9 -9 918 432 1
2 9 9 432 279 1
-2 9 -9 608 331 1
2 9 9 944 534 1
-2 9 -10 926 541 1
-2 -9 -10 1673 662 1
2 9 10 1422 576 1
2 9 10 383 342 1
-2 -9 -11 509 451 1
-2 9 -11 870 614 1
2 9 11 374 594 1
-2 10 12 7896 1711 1
2 -10 -12 4730 1229 1
2 10 -12 7807 1551 1
2 10 -12 4227 989 1
2 10 -11 5700 1020 1
2 -10 -11 5615 1162 1
-2 10 11 7979 1540 1
2 10 -11 6642 1206 1
2 10 -10 551 332 1
-2 10 10 808 426 1
2 10 -10 269 245 1
2 -10 -10 277 316 1
2 10 -9 1765 649 1
2 10 -9 2059 652 1
2 -10 -9 1825 710 1
-2 10 9 1995 829 1
2 10 -8 92 348 1
2 10 -8 382 492 1
-2 10 8 61 259 1
2 10 -7 2016 593 1
-2 10 7 1108 567 1
2 10 -7 1107 427 1
-2 -10 7 1347 232 1
-2 10 6 1501 801 1
2 10 -6 2906 865 1
2 10 -6 1692 719 1
-2 -10 6 2539 314 1
2 10 -5 4660 813 1
-2 -10 5 3689 189 1
2 10 -5 6027 888 1
-2 -10 5 3125 198 1
-2 10 5 5878 1069 1
2 10 -4 3731 546 1
2 10 -4 4511 803 1
-2 10 4 4340 872 1
2 10 -3 11073 1058 1
2 10 -3 14418 1757 1
-2 10 3 11161 1591 1
2 -10 -3 10717 854 1
2 10 -2 215 352 1
2 -10 -2 185 175 1
-2 10 2 43 132 1
2 10 -2 222 263 1
-2 10 1 91 122 1
-2 10 1 6 186 1
2 10 -1 9 32 1
2 10 -1 205 300 1
2 -10 -1 9 76 1
2 10 0 4061 573 1
2 10 0 3509 197 1
-2 10 0 3704 324 1
2 -10 0 3551 268 1
-2 10 0 4864 671 1
2 10 0 3112 297 1
-2 10 0 3854 425 1
2 10 1 2214 318 1
-2 10 -1 2910 572 1
-2 10 -1 2570 731 1
2 -10 1 2409 370 1
2 10 1 2693 743 1
-2 10 -2 1709 502 1
-2 10 -2 1147 573 1
2 10 2 2495 771 1
2 -10 2 2079 371 1
-2 10 -3 25378 1799 1
-2 10 -3 23487 1998 1
2 10 3 27800 2352 1
2 -10 3 24583 1231 1
-2 10 -4 2943 560 1
2 -10 4 2630 360 1
2 10 4 1804 540 1
-2 10 -4 2889 509 1
2 10 5 258 148 1
2 -10 5 74 81 1
-2 10 -5 0 181 1
-2 10 -5 0 127 1
-2 -10 -6 857 251 1
-2 10 -6 852 296 1
2 10 6 1661 376 1
-2 10 -6 834 262 1
-2 -10 -7 522 335 1
-2 10 -7 456 270 1
-2 10 -7 322 275 1
2 10 7 856 550 1
-2 -10 -8 1086 592 1
2 10 8 1601 691 1
-2 10 -8 1653 670 1
-2 10 -8 829 469 1
-2 10 -9 2294 743 1
-2 -10 -9 1124 424 1
2 10 9 1474 566 1
2 10 9 304 188 1
-2 10 -10 10005 1650 1
-2 -10 -10 11323 1769 1
2 10 10 6427 1243 1
2 10 10 4860 1311 1
2 11 -12 33 44 1
2 -11 -12 123 202 1
2 11 -12 125 362 1
-2 11 12 10 326 1
2 -11 -11 2742 815 1
2 11 -11 3894 919 1
-2 11 11 2921 1026 1
2 11 -11 2160 637 1
2 11 -10 1165 576 1
2 -11 -10 1726 801 1
2 11 -10 1590 693 1
-2 11 10 1804 908 1
2 11 -9 468 193 1
-2 11 9 387 76 1
2 11 -9 977 406 1
2 -11 -9 897 395 1
2 11 -8 1563 662 1
2 11 -8 2097 711 1
-2 11 8 2098 905 1
2 11 -7 47455 2737 1
-2 -11 7 40448 1067 1
2 11 -7 43118 2750 1
2 11 -6 31358 2477 1
-2 -11 6 23164 788 1
2 11 -6 32965 2337 1
-2 11 6 30354 2775 1
-2 -11 6 22856 648 1
2 11 -5 6930 1290 1
-2 11 5 5950 1274 1
2 11 -5 4343 801 1
2 11 -4 959 611 1
-2 11 4 928 689 1
2 11 -4 1020 458 1
2 -11 -3 11205 865 1
2 11 -3 10474 1346 1
2 11 -3 10247 939 1
-2 11 2 2360 561 1
2 11 -2 2227 333 1
2 11 -2 2121 485 1
-2 11 2 2852 340 1
2 -11 -2 2852 307 1
2 11 -1 485 190 1
2 11 -1 345 133 1
-2 11 1 420 93 1
-2 11 1 521 183 1
-2 11 1 781 296 1
2 -11 -1 385 58 1
2 11 0 1346 174 1
-2 11 0 1257 505 1
-2 11 0 1616 306 1
2 11 0 1620 321 1
2 11 0 724 392 1
-2 11 0 1495 392 1
2 -11 0 1407 227 1
2 11 1 29081 2493 1
-2 11 -1 27498 2381 1
2 -11 1 23259 1092 1
-2 11 -1 24443 1744 1
2 11 1 22610 968 1
2 11 2 2384 515 1
-2 11 -2 3368 548 1
-2 11 -2 3135 584 1
2 -11 2 3593 362 1
2 11 2 3550 352 1
-2 11 -3 1253 393 1
2 -11 3 1107 241 1
-2 11 -3 1878 531 1
2 11 3 1550 592 1
-2 11 -4 270 75 1
2 11 4 255 270 1
-2 11 -4 380 67 1
2 -11 4 660 154 1
-2 11 -5 6416 1146 1
-2 11 -5 4566 920 1
2 -11 5 5879 739 1
-2 -11 -6 359 281 1
2 11 6 1 165 1
-2 11 -6 89 272 1
2 -11 6 58 107 1
-2 11 -6 1 122 1
2 11 7 649 475 1
-2 11 -7 112 220 1
-2 -11 -7 174 280 1
-2 11 -7 438 388 1
2 11 8 3063 887 1
-2 -11 -8 2050 517 1
-2 11 -8 3726 879 1
-2 11 -8 3262 667 1
-2 -11 -9 1651 590 1
2 11 9 1606 562 1
-2 11 -9 2076 705 1
2 11 10 607 481 1
-2 11 -10 618 378 1
2 11 10 1166 525 1
-2 -11 -10 1499 546 1
2 -12 -11 2113 918 1
2 12 -11 326 436 1
2 12 -11 703 544 1
-2 12 11 972 697 1
-2 12 10 0 404 1
2 -12 -10 9 237 1
2 12 -10 0 198 1
2 12 -10 0 178 1
2 12 -9 829 564 1
2 12 -9 1799 758 1
-2 12 9 2326 1091 1
2 -12 -9 2317 884 1
2 12 -8 1224 593 1
-2 12 8 951 620 1
2 12 -8 976 392 1
2 12 -7 160 312 1
-2 12 7 12 234 1
2 12 -7 49 202 1
-2 -12 7 2 13 1
2 12 -6 14639 1464 1
2 12 -6 16779 2045 1
-2 12 6 14802 1980 1
2 12 -5 16755 2035 1
-2 12 5 16326 2235 1
2 12 -5 14856 1474 1
2 12 -4 1639 579 1
2 12 -4 2671 571 1
-2 12 4 3066 846 1
2 12 -3 8746 1545 1
2 12 -3 9112 1125 1
-2 12 3 8057 1625 1
2 12 -2 14453 1183 1
2 -12 -2 12238 824 1
2 12 -2 15401 1753 1
-2 12 1 2328 349 1
-2 12 1 1641 340 1
2 12 -1 1731 329 1
-2 12 1 1374 490 1
2 12 -1 2479 644 1
2 -12 -1 2310 286 1
2 12 0 16753 1941 1
2 12 0 15629 1114 1
-2 12 0 16859 1894 1
-2 12 0 13522 918 1
2 -12 0 14887 802 1
-2 12 0 13299 1184 1
2 12 0 15255 630 1
-2 12 -1 334 32 1
2 12 1 420 73 1
2 -12 1 243 47 1
-2 12 -1 79 301 1
2 12 1 106 141 1
-2 12 -2 1323 384 1
2 12 2 1204 530 1
-2 12 -2 989 440 1
2 -12 2 925 200 1
2 12 2 847 205 1
2 12 3 185 208 1
-2 12 -3 537 186 1
-2 12 -3 1108 364 1
2 -12 3 423 88 1
-2 12 -4 18494 1908 1
2 12 4 20224 2240 1
-2 12 -4 20051 1740 1
2 -12 4 21236 1186 1
2 -12 5 11332 857 1
-2 12 -5 11757 1415 1
2 12 5 14010 1871 1
-2 12 -5 10361 1201 1
-2 12 -6 4561 917 1
-2 12 -6 2852 770 1
2 -12 6 4131 639 1
2 12 6 4960 1197 1
-2 -12 -6 4964 897 1
-2 12 -7 468 443 1
2 12 7 285 157 1
2 -12 7 177 155 1
-2 12 -7 2 44 1
-2 -12 -7 199 178 1
-2 -12 -8 15301 1679 1
-2 12 -8 14327 1627 1
-2 12 -8 14414 1756 1
2 -12 8 13181 1294 1
2 12 8 11802 1757 1
2 12 9 12 132 1
-2 12 -9 637 488 1
-2 -12 -9 294 362 1
-2 13 11 3874 1218 1
2 -13 -11 4481 1152 1
2 13 -11 4879 1194 1
2 13 -11 3533 993 1
2 -13 -10 53 308 1
2 13 -10 17 228 1
2 13 -10 216 258 1
-2 13 9 126 370 1
2 13 -9 256 412 1
2 13 -9 522 456 1
-2 13 8 4364 1151 1
2 13 -8 2191 622 1
2 13 -8 4725 1069 1
2 13 -7 14 281 1
-2 13 7 88 392 1
2 13 -7 115 362 1
2 13 -6 9794 1160 1
2 13 -6 11029 1517 1
-2 13 6 9243 1557 1
-2 13 5 153 227 1
2 13 -5 223 256 1
2 13 -5 283 193 1
2 13 -4 88 77 1
2 13 -4 75 97 1
2 13 -3 4231 1012 1
-2 13 3 4942 1188 1
2 13 -3 4773 762 1
2 13 -2 9336 1582 1
2 13 -2 11798 1189 1
2 -13 -2 9542 828 1
2 13 -1 4720 604 1
-2 13 1 5133 1018 1
-2 13 1 4533 662 1
2 -13 -1 5253 460 1
2 13 -1 5127 1025 1
-2 13 1 4798 511 1
2 -13 0 1008 213 1
-2 13 0 917 340 1
2 13 0 697 443 1
2 13 0 1362 357 1
-2 13 0 1084 646 1
-2 13 0 783 241 1
2 13 0 538 129 1
2 13 1 25397 973 1
2 13 1 28793 2506 1
-2 13 -1 25222 1715 1
-2 13 -1 25849 2354 1
2 -13 1 25063 994 1
-2 13 -2 2454 669 1
2 -13 2 1899 370 1
2 13 2 2211 841 1
-2 13 -2 1576 755 1
2 13 2 1449 339 1
-2 13 -3 755 438 1
-2 13 -3 1218 457 1
2 -13 3 1408 289 1
-2 13 -4 3211 793 1
2 -13 4 2765 479 1
2 13 4 2737 1016 1
-2 13 -4 2303 839 1
-2 13 -5 8293 1109 1
-2 13 -5 8683 1270 1
2 13 5 9300 1596 1
2 -13 5 8519 792 1
-2 13 -6 3979 830 1
-2 -13 -6 2969 667 1
-2 13 -6 2739 700 1
2 13 6 3120 899 1
2 -13 6 3803 542 1
2 13 7 100 383 1
-2 13 -7 238 347 1
-2 13 -7 196 426 1
-2 -13 -7 34 193 1
2 -13 7 24 147 1
2 13 8 4025 1077 1
-2 -13 -8 3625 861 1
-2 13 -8 3164 823 1
2 -13 8 3299 653 1
-2 13 -8 4871 1073 1
-2 -13 -9 2260 761 1
-2 13 -9 3377 909 1
2 13 9 3315 1175 1
2 14 -10 0 196 1
2 14 -10 351 319 1
2 -14 -10 143 332 1
2 14 -9 538 416 1
-2 14 9 775 499 1
-2 14 8 50 524 1
2 14 -8 49 234 1
2 14 -8 241 102 1
-2 14 7 1871 786 1
2 14 -7 3385 788 1
2 14 -7 2358 768 1
2 14 -6 1417 332 1
-2 14 6 724 69 1
2 14 -6 1371 505 1
2 14 -5 2966 942 1
-2 14 5 2534 903 1
2 14 -5 2787 686 1
2 14 -4 3134 680 1
2 14 -4 3262 936 1
-2 14 4 3175 1021 1
2 14 -3 5977 778 1
-2 14 3 4833 1077 1
2 14 -3 6824 1200 1
2 14 -2 2363 606 1
2 14 -2 2588 438 1
-2 14 1 13139 1897 1
2 14 -1 11491 1653 1
-2 14 1 10556 1124 1
2 14 -1 12323 1100 1
2 -14 -1 11381 762 1
-2 14 0 11787 1040 1
2 -14 0 12700 859 1
2 14 0 14035 2050 1
-2 14 0 12938 1454 1
2 14 0 10317 631 1
2 -14 1 1221 214 1
-2 14 -1 1452 690 1
-2 14 -1 1191 391 1
2 14 1 1278 535 1
2 14 2 15510 2141 1
-2 14 -2 13304 1888 1
2 -14 2 16120 915 1
-2 14 -2 14631 1576 1
2 14 3 7121 1321 1
-2 14 -3 5184 1025 1
2 -14 3 6217 524 1
-2 14 -3 6312 937 1
-2 14 -4 18640 2052 1
2 14 4 18633 2233 1
-2 14 -4 21471 1831 1
2 -14 4 20731 1091 1
2 14 5 10329 1949 1
-2 14 -5 5275 961 1
2 -14 5 6950 696 1
-2 14 -5 8337 1452 1
-2 14 -6 553 437 1
2 14 6 133 298 1
2 -14 6 416 251 1
-2 14 -6 683 659 1
-2 14 -7 6306 1225 1
-2 14 -7 4783 1018 1
2 14 7 4544 1180 1
-2 -14 -7 4609 946 1
-2 14 -8 2614 815 1
-2 -14 -8 2375 760 1
2 14 8 2327 861 1
-2 14 -8 3144 881 1
2 15 -9 38 136 1
-2 15 9 56 426 1
2 15 -9 8 479 1
2 15 -8 416 150 1
2 15 -8 104 65 1
2 15 -7 11 249 1
2 15 -7 1 177 1
-2 15 7 5 315 1
-2 15 6 922 542 1
2 15 -6 1840 697 1
2 15 -6 1193 444 1
2 15 -5 15553 2136 1
-2 15 5 15572 2341 1
2 15 -5 13409 1456 1
-2 15 4 601 493 1
2 15 -4 951 426 1
2 15 -4 110 46 1
-2 15 3 2632 917 1
2 15 -3 1590 415 1
2 15 -3 2464 802 1
2 15 -2 663 316 1
-2 15 2 1398 810 1
2 15 -2 840 580 1
-2 15 1 1498 319 1
-2 15 1 2046 626 1
2 -15 -1 1157 157 1
2 15 -1 619 167 1
2 15 -1 1440 458 1
-2 15 0 71 209 1
2 -15 0 60 91 1
-2 15 0 8 172 1
2 15 0 2 260 1
2 15 1 4139 1289 1
-2 15 -1 4040 1260 1
-2 15 -1 2117 708 1
2 -15 1 3286 437 1
-2 15 -2 988 389 1
2 15 2 1218 658 1
2 -15 2 1373 222 1
-2 15 -2 1361 652 1
-2 15 -3 781 505 1
-2 15 -3 612 362 1
2 15 3 631 814 1
2 -15 3 543 162 1
-2 15 -4 286 215 1
-2 15 -4 492 290 1
2 15 4 886 638 1
2 -15 4 626 173 1
2 15 5 1249 748 1
-2 15 -5 951 447 1
-2 15 -5 945 468 1
-2 15 -6 2946 711 1
-2 15 -6 2320 790 1
2 15 6 4714 1290 1
-2 -15 -7 2133 640 1
2 15 7 2352 819 1
-2 15 -7 1345 578 1
-2 15 -7 1535 520 1
-2 -15 -8 5584 1072 1
-2 15 -8 4184 961 1
-2 15 -8 4965 1102 1
2 15 8 3731 1057 1
2 16 -9 469 170 1
-2 16 9 929 608 1
2 16 -9 581 449 1
2 16 -8 2995 817 1
2 16 -8 3411 998 1
-2 16 8 3229 1181 1
2 16 -7 322 170 1
2 16 -7 787 443 1
-2 16 7 156 368 1
2 16 -6 8 95 1
2 16 -6 146 294 1
-2 16 6 8 351 1
2 16 -5 281 159 1
2 16 -5 1512 568 1
-2 16 5 1032 568 1
2 16 -4 14622 1444 1
2 16 -4 16156 2176 1
-2 16 4 16555 2372 1
2 16 -3 3658 974 1
-2 16 3 3408 895 1
2 16 -3 2034 444 1
2 16 -2 17009 1390 1
-2 16 2 20269 2597 1
2 16 -2 22930 2507 1
-2 16 1 649 274 1
2 16 -1 2319 870 1
-2 16 1 1171 438 1
2 16 -1 1435 377 1
2 16 0 14065 1925 1
-2 16 0 15285 2043 1
-2 16 0 13066 1298 1
2 -16 0 11772 740 1
-2 16 -1 1715 788 1
-2 16 -1 826 411 1
2 16 1 846 666 1
2 -16 1 1027 256 1
2 16 2 344 260 1
-2 16 -2 22 142 1
-2 16 -2 22 92 1
-2 16 -3 1256 611 1
-2 16 -3 1722 815 1
2 16 3 1690 900 1
2 16 4 6459 1500 1
-2 16 -4 3617 1028 1
-2 16 -4 5797 1035 1
-2 16 -5 20 300 1
2 16 5 272 101 1
-2 16 -5 20 48 1
-2 16 -6 8 177 1
-2 16 -6 74 227 1
2 16 6 504 376 1
-2 16 -7 3518 857 1
-2 16 -7 2636 864 1
-2 -16 -7 2990 830 1
2 16 7 3189 1046 1
2 17 -8 481 273 1
2 17 -8 2 329 1
2 17 -7 1 104 1
-2 17 7 1 431 1
2 17 -7 89 341 1
2 17 -6 388 278 1
-2 17 6 279 250 1
2 17 -6 189 240 1
2 17 -5 538 342 1
2 17 -5 6 169 1
-2 17 5 6 168 1
2 17 -4 290 348 1
2 17 -4 783 735 1
-2 17 4 588 628 1
2 17 -3 2520 944 1
-2 17 3 3508 1103 1
2 17 -3 2817 614 1
2 17 -2 7687 1645 1
2 17 -2 11314 1336 1
-2 17 2 11895 2279 1
2 17 -1 16066 2222 1
2 17 -1 14894 1356 1
-2 17 1 20280 2770 1
-2 17 0 940 384 1
2 17 0 337 481 1
-2 17 0 880 604 1
-2 17 -1 12564 2011 1
-2 17 -1 10011 1296 1
2 17 1 8767 1680 1
-2 17 -2 812 463 1
-2 17 -2 778 755 1
2 17 2 893 762 1
2 17 3 160 323 1
-2 17 -3 446 283 1
-2 17 -3 3 127 1
2 17 4 40 155 1
-2 17 -4 40 123 1
-2 17 -4 40 221 1
-2 17 -5 1267 634 1
-2 17 -5 2205 699 1
2 17 5 1762 826 1
-2 17 -6 70 331 1
-2 17 -6 149 168 1
2 18 -6 255 308 1
-2 18 6 13 535 1
2 18 -6 61 291 1
2 18 -5 341 281 1
2 18 -5 302 184 1
-2 18 5 8 446 1
-2 18 4 1271 591 1
2 18 -4 1239 545 1
2 18 -4 592 290 1
2 18 -3 441 329 1
-2 18 3 551 618 1
2 18 -3 308 532 1
-2 18 2 832 520 1
2 18 -2 777 266 1
2 18 -2 318 370 1
-2 18 1 3421 1154 1
2 18 -1 2552 600 1
2 18 -1 2381 931 1
-2 18 0 1575 614 1
2 18 0 2150 1018 1
-2 18 0 2564 1114 1
-2 18 -1 1112 463 1
-2 18 -1 1503 714 1
2 18 1 2784 953 1
-2 18 -2 507 556 1
-2 18 -2 814 456 1
2 18 2 790 575 1
-2 18 -3 4648 894 1
2 18 3 4240 1241 1
-2 18 -3 5259 1294 1
-2 18 -4 1267 754 1
-2 18 -4 2121 685 1
2 18 4 1730 811 1
-2 18 -5 338 309 1
2 18 5 1454 831 1
-2 18 -5 376 426 1
2 19 -5 1219 733 1
-2 19 5 2085 1027 1
2 19 -5 1346 523 1
2 19 -4 324 355 1
-2 19 4 1077 687 1
2 19 -4 227 270 1
2 19 -3 204 273 1
2 19 -3 65 368 1
-2 19 3 108 268 1
2 19 -2 4416 805 1
-2 19 2 4370 1389 1
2 19 -2 3490 1100 1
-2 19 1 7599 2002 1
2 19 -1 3691 1322 1
-2 19 0 0 98 1
2 19 0 848 689 1
-2 19 0 1407 774 1
-2 19 -1 658 527 1
2 19 1 1138 555 1
-2 19 -1 26 76 1
2 19 2 874 526 1
-2 19 -2 361 353 1
-2 19 -2 686 442 1
-2 19 -3 765 406 1
-2 19 -3 592 566 1
2 19 3 546 581 1
-2 20 2 1661 840 1
2 20 -2 2170 597 1
2 20 -2 1132 560 1
-2 20 1 409 751 1
2 20 -1 1359 688 1
2 20 0 3232 1027 1
-2 20 0 2135 1175 1
3 0 -13 1042 678 1
-3 0 13 834 551 1
3 0 -11 61966 3495 1
-3 0 11 64773 2976 1
-3 0 9 7276 764 1
3 0 -9 8264 1016 1
3 0 -7 12931 1302 1
-3 0 7 9400 771 1
3 0 -5 8744 912 1
-3 0 5 61288 1165 1
3 0 -5 62996 1511 1
3 0 -5 64768 1995 1
-3 0 5 18455 713 1
3 0 -3 11196 267 1
3 0 -3 10901 230 1
3 0 -1 931664 7399 1
-3 0 -1 38331 1852 1
3 0 1 39750 1031 1
-3 0 -1 43149 1048 1
3 0 3 22403 1691 1
-3 0 -3 21306 1607 1
-3 0 -5 4334 517 1
3 0 5 7090 988 1
-3 0 -7 93980 3629 1
3 0 7 106119 5024 1
3 0 9 35320 3381 1
-3 0 -9 33645 2661 1
3 0 11 5468 1321 1
-3 0 -11 3923 887 1
3 -1 -14 129 229 1
3 1 -14 518 472 1
-3 -1 13 2506 697 1
-3 1 13 4961 1094 1
3 1 -13 4205 1192 1
-3 -1 13 4962 1005 1
3 -1 -13 5457 1330 1
-3 1 12 1056 551 1
3 -1 -12 1257 700 1
3 1 -12 1404 747 1
-3 -1 12 1192 507 1
-3 -1 11 662 328 1
-3 1 11 1094 464 1
3 -1 -11 185 259 1
3 1 -11 1301 737 1
-3 -1 10 10851 1255 1
-3 1 10 13060 1495 1
3 -1 -10 11685 1729 1
3 1 -10 12298 1769 1
3 1 -9 64 282 1
-3 1 9 34 174 1
-3 -1 9 148 184 1
3 -1 -9 13 196 1
-3 -1 8 15251 1042 1
3 1 -8 15507 1459 1
-3 1 8 19186 1396 1
3 -1 -8 14528 1425 1
3 -1 -7 407 368 1
-3 1 7 20 205 1
3 1 -7 153 322 1
-3 -1 7 105 185 1
-3 -1 6 6527 563 1
3 -1 -6 6662 938 1
3 1 -6 8282 1073 1
3 -1 -6 5463 999 1
-3 -1 6 7276 689 1
3 -1 -5 64389 2174 1
3 1 -5 56507 1500 1
3 -1 -5 667 202 1
3 1 -5 71892 2482 1
-3 -1 5 60246 1539 1
-3 -1 5 59669 2048 1
-3 1 5 323 69 1
3 -1 -5 59823 1612 1
-3 -1 4 5514 893 1
3 1 -4 4233 822 1
3 -1 -4 5266 918 1
3 -1 -4 3879 630 1
3 -1 -4 4766 1140 1
-3 -1 4 5664 704 1
3 1 -4 4843 625 1
-3 -1 3 175390 2754 1
3 -1 -3 170901 2593 1
3 -1 -3 179640 4154 1
-3 -1 3 176123 2544 1
3 1 -3 177712 2463 1
-3 1 3 181595 2767 1
3 1 -3 174692 2851 1
3 -1 -2 20350 859 1
-3 1 2 20210 581 1
3 -1 -2 23013 661 1
3 1 -2 20078 545 1
-3 1 2 20476 607 1
3 1 -2 21255 584 1
3 1 -2 20861 515 1
3 -1 -1 43 249 1
3 -1 -1 22 206 1
3 -1 -1 44 294 1
3 1 -1 23 287 1
-3 -1 1 1321 54 1
-3 -1 1 49 271 1
3 -1 -1 68 263 1
-3 1 1 2 348 1
-3 1 1 48 187 1
3 1 -1 48 225 1
-3 1 1 83 229 1
3 -1 0 10426 614 1
3 -1 0 8550 638 1
-3 1 0 11031 558 1
3 1 0 8737 375 1
3 1 0 9227 838 1
3 -1 0 7946 748 1
-3 -1 0 75 86 1
-3 -1 0 8749 320 1
3 -1 0 10294 714 1
-3 1 0 104 81 1
-3 1 -1 54603 1790 1
3 -1 1 51261 1595 1
-3 -1 -1 47267 1403 1
3 -1 1 47689 2460 1
3 1 1 45720 1452 1
-3 1 -1 58792 2752 1
3 -1 1 49698 1877 1
3 1 1 49482 2559 1
-3 -1 -2 24079 1364 1
-3 -1 -2 18390 708 1
3 1 2 22632 908 1
3 1 2 27471 1452 1
-3 1 -2 24543 1359 1
3 -1 2 24897 1033 1
3 1 2 20261 601 1
-3 1 -2 22943 929 1
3 -1 2 30847 1531 1
-3 1 -3 1518 383 1
-3 -1 -3 1052 333 1
3 1 3 1295 358 1
3 -1 3 2103 616 1
3 1 3 860 173 1
3 -1 3 2081 459 1
3 1 3 1514 506 1
3 -1 4 3166 441 1
3 1 4 3571 500 1
3 1 4 2751 276 1
-3 -1 -4 3038 307 1
-3 1 -4 3297 350 1
3 -1 4 2637 309 1
-3 -1 -5 1798 331 1
3 -1 5 912 418 1
3 1 5 1820 429 1
-3 1 -5 1645 334 1
-3 1 -6 36088 2217 1
3 1 6 35778 2718 1
3 -1 6 39578 2907 1
-3 -1 -6 35264 2183 1
-3 1 -7 464 369 1
3 1 7 142 340 1
-3 -1 -7 458 360 1
3 -1 7 577 527 1
-3 1 -8 23357 1897 1
-3 -1 -8 24436 1983 1
3 1 8 21266 2219 1
3 -1 8 22513 2269 1
-3 1 -9 5236 1037 1
-3 -1 -9 7216 1228 1
3 1 9 4734 1168 1
3 -1 9 4430 1200 1
-3 1 -10 2651 680 1
3 1 10 2914 942 1
3 -1 10 2873 776 1
-3 -1 -10 2701 612 1
3 1 11 1752 922 1
-3 1 -11 889 453 1
3 -1 11 2220 846 1
-3 -1 -11 3116 890 1
-3 1 -12 2034 730 1
3 1 12 976 733 1
3 -1 12 615 444 1
-3 -1 -12 956 518 1
3 2 -14 1105 646 1
3 -2 -14 948 652 1
-3 -2 13 1084 482 1
3 -2 -13 877 684 1
-3 2 13 1711 691 1
3 2 -13 2585 889 1
-3 -2 12 3811 677 1
-3 -2 12 3386 628 1
3 -2 -12 3892 913 1
-3 2 12 3387 684 1
3 2 -12 4467 997 1
-3 2 11 12 126 1
-3 -2 11 12 128 1
3 2 -11 12 118 1
3 -2 -10 12738 1591 1
-3 2 10 13674 1418 1
3 2 -10 15692 1800 1
-3 -2 10 12121 1093 1
-3 -2 9 953 234 1
3 2 -9 1350 429 1
-3 2 9 1591 430 1
3 -2 -9 1635 530 1
3 -2 -8 3511 498 1
-3 -2 8 4935 455 1
3 2 -8 6500 771 1
-3 2 8 6151 627 1
3 2 -7 586 277 1
3 -2 -7 588 288 1
3 -2 -6 22301 1762 1
3 2 -6 22926 1823 1
-3 -2 6 21277 1176 1
3 -2 -5 12494 981 1
3 2 -5 12234 988 1
3 2 -5 13404 748 1
-3 -2 5 13944 712 1
-3 2 5 12017 740 1
3 -2 -5 12686 763 1
-3 2 5 16031 1509 1
-3 -2 5 11919 947 1
-3 -2 4 34786 1563 1
3 2 -4 38475 1707 1
-3 -2 4 34980 1140 1
3 -2 -4 35178 2023 1
-3 2 4 36100 1363 1
3 -2 -4 33865 1223 1
3 2 -4 34727 1097 1
3 2 -3 1558 362 1
3 -2 -3 1869 351 1
3 -2 -3 1345 478 1
-3 -2 3 1825 361 1
3 2 -3 1912 305 1
-3 -2 3 1700 307 1
-3 2 3 1800 562 1
-3 2 3 1619 353 1
-3 -2 2 42111 814 1
-3 -2 2 42720 906 1
-3 2 2 44719 1524 1
-3 2 2 42536 1049 1
3 2 -2 42755 920 1
3 -2 -2 42980 1477 1
3 2 -2 42014 861 1
-3 2 1 98163 1732 1
3 2 -1 96188 1820 1
-3 2 1 99852 2032 1
-3 2 1 83318 2197 1
3 -2 -1 97733 1785 1
3 -2 -1 87284 2434 1
3 -2 -1 92006 1945 1
3 2 -1 95246 2215 1
-3 2 1 92427 2478 1
-3 2 0 81005 2658 1
3 -2 0 89549 2533 1
3 -2 0 85631 2800 1
3 -2 0 91630 2378 1
3 2 0 74871 2901 1
3 2 1 23062 1055 1
-3 2 -1 27707 1206 1
3 2 1 23382 793 1
3 -2 1 28698 1377 1
-3 -2 -1 23384 852 1
3 2 1 25619 1711 1
3 -2 1 23717 1066 1
3 -2 1 28024 1700 1
-3 2 -1 25892 1133 1
-3 -2 -1 22333 1036 1
3 2 2 29951 1324 1
3 2 2 25997 1295 1
-3 2 -2 30330 1603 1
3 -2 2 27063 1080 1
-3 -2 -2 25336 1325 1
3 2 2 33814 2360 1
3 -2 2 35387 2268 1
3 -2 2 31583 1756 1
-3 -2 -2 25893 1101 1
-3 2 -2 37272 2413 1
3 2 3 157708 3193 1
3 -2 3 187462 4278 1
-3 -2 -3 150930 3380 1
3 -2 3 193300 5009 1
3 2 3 146738 2678 1
-3 2 -3 182279 4017 1
3 2 3 168028 5170 1
3 2 4 13857 1117 1
-3 -2 -4 13387 1190 1
3 -2 4 16805 1763 1
-3 2 -4 17420 1408 1
3 2 4 13372 813 1
3 2 4 18852 2074 1
-3 -2 -5 12133 640 1
-3 -2 -5 13052 1237 1
3 -2 5 14426 1650 1
-3 2 -5 12889 1291 1
3 2 5 12044 711 1
3 2 5 13810 1741 1
-3 2 -6 37926 2488 1
-3 -2 -6 35251 2393 1
3 2 6 35122 3029 1
-3 -2 -6 33005 1115 1
-3 -2 -7 4165 346 1
-3 -2 -7 5359 890 1
3 -2 7 5102 1048 1
-3 2 -7 5652 920 1
3 2 7 4578 1023 1
-3 -2 -8 1594 154 1
-3 -2 -8 2715 576 1
3 2 8 1674 493 1
-3 2 -8 2022 477 1
3 -2 8 2282 691 1
-3 2 -9 1733 667 1
3 -2 9 1589 597 1
3 2 9 1765 624 1
-3 -2 -9 2356 591 1
3 2 10 4541 1115 1
3 -2 10 3881 1052 1
-3 -2 -10 3664 934 1
-3 2 -10 4676 1037 1
-3 2 -11 795 453 1
3 -2 11 652 449 1
-3 -2 -11 1386 579 1
3 2 11 1593 650 1
-3 3 14 3075 894 1
3 -3 -14 3307 1010 1
3 3 -14 2937 1044 1
-3 3 13 2403 896 1
-3 -3 13 1259 558 1
3 -3 -13 2005 935 1
3 3 -13 2043 928 1
-3 3 12 1199 600 1
3 3 -12 911 473 1
3 -3 -12 933 625 1
-3 -3 12 1326 512 1
3 3 -11 9896 1422 1
-3 3 11 9853 1296 1
-3 -3 11 10791 1234 1
3 -3 -11 10035 1471 1
-3 3 10 177 324 1
3 3 -10 221 319 1
3 -3 -10 28 180 1
-3 -3 10 79 186 1
3 3 -9 30696 2494 1
-3 3 9 27707 1969 1
3 3 -8 6078 961 1
3 -3 -8 7575 1068 1
3 -3 -7 30553 2168 1
3 3 -7 36187 2481 1
3 3 -7 33309 1624 1
3 -3 -6 19866 1384 1
-3 -3 6 21853 938 1
3 3 -6 22872 1536 1
-3 3 6 22137 1869 1
3 3 -6 22162 1040 1
-3 -3 5 13354 1206 1
3 3 -5 15399 1384 1
3 3 -5 13558 848 1
-3 3 5 14588 1599 1
-3 -3 5 13438 810 1
3 -3 -5 12532 950 1
3 3 -4 1192 64 1
3 -3 -4 1748 220 1
-3 -3 4 525 121 1
3 -3 -4 938 78 1
-3 3 4 1372 204 1
-3 -3 4 1245 72 1
-3 3 4 1332 97 1
3 3 -4 1068 83 1
-3 3 3 13996 876 1
3 -3 -3 13119 1341 1
-3 -3 3 16344 1039 1
-3 3 3 12656 1228 1
3 -3 -3 13529 818 1
3 3 -3 13283 892 1
-3 -3 3 14341 725 1
3 3 -3 14167 668 1
-3 3 2 59413 1499 1
-3 -3 2 63314 1320 1
-3 -3 2 60515 1235 1
3 3 -2 62355 1222 1
3 -3 -2 67522 2274 1
3 3 -2 61867 1213 1
3 -3 -2 57639 1417 1
-3 3 2 59248 2071 1
3 -3 -2 55765 1374 1
3 3 -1 4244 716 1
3 -3 -1 3785 1015 1
-3 3 1 4756 782 1
-3 3 1 4324 806 1
3 -3 -1 3846 760 1
3 -3 -1 4145 780 1
-3 3 1 3547 992 1
3 3 0 38837 1493 1
3 -3 0 41265 1419 1
-3 3 0 41981 1561 1
3 -3 0 42945 1696 1
3 -3 0 40829 1389 1
-3 -3 0 44020 1613 1
-3 3 0 44423 1441 1
-3 3 0 41358 1633 1
3 3 1 235249 3308 1
-3 -3 -1 255271 2445 1
3 -3 1 254109 3481 1
-3 3 -1 267936 3496 1
-3 -3 -1 249260 3267 1
-3 3 -1 255131 3399 1
3 -3 1 253977 3585 1
3 -3 1 265646 3817 1
3 -3 2 4979 575 1
3 3 2 4810 647 1
-3 -3 -2 5094 586 1
-3 3 -2 7407 1161 1
3 -3 2 5125 792 1
-3 3 -2 6296 634 1
3 3 2 6046 970 1
3 -3 2 4485 826 1
-3 3 -2 5884 762 1
-3 -3 -3 444 135 1
3 -3 3 354 76 1
3 3 3 270 71 1
-3 3 -3 300 155 1
3 3 3 575 165 1
3 3 3 258 102 1
-3 -3 -3 481 139 1
-3 3 -3 381 73 1
3 -3 3 516 204 1
3 -3 3 367 163 1
-3 -3 -4 2406 413 1
-3 -3 -4 2794 577 1
-3 3 -4 2902 670 1
3 3 4 2960 561 1
3 -3 4 2724 770 1
3 3 4 2352 778 1
3 3 4 2123 484 1
-3 -3 -5 23304 1398 1
3 3 5 27865 2191 1
3 -3 5 22215 1788 1
3 3 5 22773 1079 1
-3 3 -5 24461 1544 1
-3 -3 -5 22311 942 1
-3 3 -5 23025 901 1
-3 -3 -6 7935 627 1
3 -3 6 9468 1394 1
-3 -3 -6 8411 1051 1
-3 3 -6 7995 1069 1
3 3 6 6461 643 1
3 3 6 7061 1291 1
-3 -3 -7 5551 437 1
3 3 7 5207 940 1
-3 -3 -7 7536 901 1
-3 3 -7 7624 948 1
3 3 7 7756 707 1
3 -3 7 3922 736 1
3 3 8 22100 2352 1
-3 -3 -8 19836 1860 1
-3 3 -8 18040 1765 1
3 -3 8 17173 1992 1
-3 -3 -9 4746 1055 1
3 3 9 4794 1333 1
3 -3 9 4406 1142 1
-3 3 -9 3976 955 1
3 3 10 360 340 1
-3 3 -10 73 105 1
3 -3 10 164 457 1
-3 -3 -10 217 335 1
3 3 11 2825 1062 1
-3 -3 -11 2777 872 1
-3 3 -11 1914 714 1
3 -3 11 935 577 1
-3 4 14 356 219 1
3 -4 -14 322 476 1
3 4 -14 249 356 1
3 -4 -13 300 348 1
-3 -4 13 217 238 1
-3 4 13 83 346 1
3 4 -13 261 344 1
3 -4 -12 22 252 1
-3 -4 12 368 406 1
-3 4 12 209 481 1
3 4 -12 149 399 1
-3 -4 11 35695 2192 1
3 -4 -11 32090 2560 1
-3 4 11 35629 2465 1
3 4 -11 35282 2660 1
-3 4 10 33651 2270 1
3 4 -10 41201 2848 1
3 -4 -10 36792 2634 1
-3 -4 10 41487 2462 1
3 -4 -9 17142 1558 1
3 4 -9 15781 1517 1
-3 -4 9 18204 1475 1
3 4 -9 14891 1143 1
-3 4 9 20106 2010 1
3 -4 -8 377 279 1
3 4 -8 1115 399 1
3 4 -8 1189 522 1
-3 -4 8 597 381 1
-3 4 8 1801 783 1
3 -4 -7 23149 1707 1
3 4 -7 23021 1709 1
-3 -4 7 22433 1619 1
3 4 -7 21699 1271 1
-3 4 7 25710 2116 1
-3 -4 7 20823 1041 1
3 -4 -6 22310 1250 1
3 4 -6 18748 1341 1
3 4 -6 22948 1130 1
-3 -4 6 22225 901 1
-3 4 6 21957 1751 1
3 -4 -6 22765 1455 1
-3 -4 5 74882 2538 1
3 4 -5 76221 2412 1
-3 4 5 68943 2745 1
3 4 -5 66833 1574 1
-3 -4 5 66911 1355 1
3 -4 -5 65626 1745 1
3 4 -4 32915 907 1
3 -4 -4 36093 1258 1
-3 4 4 38117 2103 1
-3 -4 4 39447 1731 1
-3 -4 4 36170 1022 1
-3 4 4 34502 1310 1
3 -4 -4 38245 2132 1
3 4 -4 32915 1370 1
-3 -4 3 12103 1179 1
-3 -4 3 13418 1518 1
3 4 -3 11157 1082 1
3 -4 -3 10748 1549 1
-3 -4 3 11193 764 1
-3 4 3 11794 1620 1
-3 4 3 10968 1058 1
3 4 -3 10381 683 1
3 -4 -3 8593 893 1
3 4 -2 9224 567 1
-3 -4 2 9502 724 1
-3 -4 2 9511 625 1
-3 4 2 8532 1095 1
3 -4 -2 8109 1050 1
3 -4 -2 8418 759 1
3 -4 -2 8076 698 1
-3 4 2 8998 771 1
-3 -4 2 9678 1029 1
3 4 -2 8882 634 1
-3 4 1 64266 1926 1
3 4 -1 64192 2323 1
-3 4 1 62107 1863 1
-3 -4 1 64331 1317 1
3 -4 -1 63764 1931 1
3 4 -1 63127 1630 1
3 4 -1 65832 1160 1
-3 4 1 68489 2804 1
3 -4 -1 65688 2682 1
3 -4 -1 65890 2117 1
-3 -4 1 67574 2447 1
3 4 0 2026 577 1
-3 4 0 2220 538 1
3 -4 0 2195 530 1
-3 -4 0 2436 591 1
-3 4 0 2003 615 1
3 -4 0 2339 501 1
-3 -4 0 1738 238 1
-3 4 0 2429 529 1
3 -4 0 1948 616 1
-3 -4 -1 57804 1370 1
3 -4 1 60250 2216 1
3 -4 1 59537 2276 1
-3 4 -1 56323 2031 1
3 4 1 59228 2283 1
3 -4 1 58684 2048 1
-3 4 -1 56055 2101 1
-3 -4 -2 1246 373 1
3 -4 2 1736 495 1
-3 4 -2 1667 459 1
3 4 2 1479 412 1
3 -4 2 1923 402 1
-3 4 -2 1301 339 1
-3 -4 -2 1333 300 1
-3 4 -3 36555 2177 1
-3 -4 -3 30776 1632 1
3 -4 3 34584 1393 1
-3 -4 -3 35892 1818 1
3 4 3 33079 1859 1
3 4 3 36316 2539 1
-3 4 -3 36610 1544 1
-3 -4 -4 25101 1233 1
3 4 4 23691 1360 1
-3 4 -4 24517 1559 1
-3 -4 -4 24340 1423 1
3 4 4 25059 1940 1
-3 4 -4 26762 1012 1
3 -4 4 25491 1928 1
-3 -4 -5 13587 1031 1
-3 -4 -5 14894 1381 1
3 -4 5 12491 1595 1
3 4 5 14901 1896 1
3 4 5 13468 1169 1
-3 4 -5 14614 741 1
-3 4 -5 13983 992 1
-3 4 -5 14813 1512 1
-3 -4 -6 4504 486 1
3 4 6 4404 835 1
3 -4 6 3312 666 1
-3 -4 -6 3976 591 1
-3 4 -6 4589 696 1
3 4 6 5118 600 1
-3 -4 -7 423 220 1
-3 -4 -7 436 340 1
3 4 7 1799 858 1
3 -4 7 1056 570 1
3 4 7 588 263 1
-3 4 -7 965 446 1
3 4 8 8320 1634 1
3 -4 8 5781 1196 1
-3 4 -8 8774 1362 1
-3 -4 -8 8292 1292 1
3 4 8 9606 1150 1
-3 4 -9 9608 1502 1
3 4 9 8031 1664 1
3 -4 9 6954 1388 1
-3 -4 -9 10134 1517 1
-3 4 -10 2324 758 1
3 4 10 1085 632 1
3 -4 10 2809 858 1
-3 -4 -10 1303 608 1
3 4 11 5668 1334 1
-3 -4 -11 3907 975 1
-3 4 -11 4790 1068 1
3 -5 -14 206 302 1
-3 5 14 214 347 1
3 5 -14 322 440 1
3 -5 -13 1559 750 1
3 5 -13 3353 929 1
-3 5 13 2428 803 1
3 -5 -12 3829 1161 1
-3 -5 12 1691 648 1
3 5 -12 2633 926 1
-3 5 12 2966 979 1
3 -5 -11 15884 1876 1
-3 -5 11 20413 1815 1
3 5 -11 17066 1867 1
-3 5 11 19521 2005 1
3 -5 -10 6387 1341 1
3 5 -10 7289 1324 1
-3 5 10 7430 1732 1
-3 -5 10 7523 1276 1
3 -5 -9 73627 3555 1
3 5 -9 70980 3053 1
-3 -5 9 78234 3404 1
3 5 -8 2406 439 1
3 -5 -8 2513 531 1
-3 5 8 2423 607 1
3 5 -8 2512 475 1
-3 -5 8 1587 378 1
-3 -5 7 520 183 1
3 -5 -7 1098 364 1
-3 -5 7 451 128 1
-3 5 7 1050 374 1
3 5 -7 341 150 1
3 5 -7 678 265 1
3 -5 -6 13472 1136 1
3 5 -6 11673 993 1
3 5 -6 12409 1262 1
-3 5 6 12947 1558 1
-3 -5 6 13433 796 1
-3 -5 6 13547 1393 1
3 -5 -5 883 198 1
-3 -5 5 750 275 1
-3 -5 5 722 236 1
-3 -5 5 715 129 1
-3 5 5 454 274 1
3 5 -5 782 252 1
3 5 -4 1939 52 1
-3 -5 4 1159 140 1
3 5 -4 1427 33 1
-3 5 4 2122 150 1
-3 -5 4 1654 80 1
-3 -5 4 1678 53 1
-3 5 4 2400 139 1
3 -5 -4 2149 82 1
-3 -5 3 712 315 1
-3 5 3 876 376 1
-3 -5 3 880 164 1
-3 -5 3 973 300 1
3 -5 -3 732 345 1
3 5 -3 882 139 1
3 -5 -3 877 248 1
-3 5 3 1146 263 1
3 5 -3 1080 275 1
3 -5 -3 666 187 1
3 5 -2 146 169 1
3 5 -2 294 200 1
3 -5 -2 666 91 1
-3 5 2 302 239 1
3 -5 -2 238 161 1
3 5 -2 174 143 1
-3 5 2 290 136 1
3 -5 -2 134 153 1
-3 -5 2 241 139 1
-3 -5 2 313 188 1
3 5 -1 67602 1194 1
3 -5 -1 72126 1799 1
-3 5 1 67482 1760 1
3 5 -1 70489 1501 1
-3 5 1 68801 1890 1
3 -5 -1 73597 2752 1
-3 -5 1 71694 2350 1
-3 5 1 71130 2573 1
3 -5 -1 67070 1974 1
-3 -5 1 75250 1530 1
3 5 -1 70706 2313 1
3 -5 0 4871 486 1
-3 -5 0 5328 343 1
3 -5 0 6153 753 1
3 -5 0 5738 616 1
3 5 0 6028 697 1
-3 5 0 4470 508 1
-3 5 0 4910 644 1
3 5 0 5573 674 1
-3 5 0 6110 595 1
-3 5 -1 829 188 1
-3 -5 -1 500 103 1
3 -5 1 426 134 1
3 5 1 472 163 1
-3 -5 -1 356 57 1
3 5 1 230 30 1
3 -5 1 543 96 1
-3 5 -1 528 167 1
3 -5 1 368 120 1
-3 5 -1 504 94 1
-3 -5 -2 111641 2782 1
3 -5 2 115159 2690 1
3 5 2 107974 2921 1
-3 5 -2 103644 2609 1
-3 5 -2 108804 2652 1
-3 -5 -2 107405 2068 1
3 -5 2 108194 2524 1
3 5 2 110732 2629 1
3 5 3 3114 456 1
-3 5 -3 3725 529 1
-3 -5 -3 3390 481 1
-3 -5 -3 3687 549 1
-3 5 -3 3406 586 1
3 5 3 3105 546 1
3 -5 3 3109 446 1
-3 -5 -4 37846 1570 1
3 5 4 37754 1766 1
3 5 4 35610 1303 1
-3 5 -4 38360 1884 1
-3 -5 -4 34128 1535 1
-3 5 -5 21804 1648 1
3 5 5 23581 1607 1
3 5 5 19782 1890 1
-3 -5 -5 20129 1471 1
-3 -5 -5 18726 1250 1
3 5 5 21099 1063 1
3 5 6 288 297 1
-3 -5 -6 463 225 1
-3 5 -6 654 203 1
-3 -5 -6 556 271 1
-3 5 -6 714 331 1
-3 5 -6 670 238 1
3 5 6 690 292 1
-3 -5 -7 4877 648 1
-3 5 -7 5496 986 1
-3 -5 -7 4802 864 1
3 5 7 6490 1279 1
3 5 7 5412 789 1
-3 5 -7 4617 434 1
-3 5 -7 5074 397 1
-3 -5 -8 2487 543 1
-3 5 -8 2561 589 1
3 5 8 2048 415 1
-3 5 -9 0 171 1
-3 -5 -9 149 215 1
3 5 9 170 471 1
-3 5 -10 1442 424 1
-3 -5 -10 881 544 1
3 5 10 265 396 1
-3 -5 -11 68 341 1
3 5 11 515 518 1
-3 5 -11 312 411 1
3 6 -13 5 329 1
3 -6 -13 650 497 1
-3 6 13 5 468 1
3 -6 -12 968 513 1
3 6 -12 18 322 1
-3 6 12 658 331 1
-3 -6 11 1706 412 1
3 -6 -11 1614 413 1
-3 6 11 1825 471 1
-3 6 11 1115 381 1
3 6 -11 813 317 1
3 -6 -10 43136 2917 1
3 6 -10 39350 2731 1
-3 -6 10 45081 2626 1
3 6 -9 837 568 1
3 6 -9 487 423 1
-3 -6 9 743 466 1
-3 6 9 1248 777 1
3 -6 -9 1328 623 1
-3 -6 8 20038 1543 1
3 6 -8 22412 1699 1
3 6 -8 19279 1355 1
-3 6 8 18528 1761 1
3 -6 -8 21126 1681 1
-3 -6 7 2653 624 1
-3 -6 7 2727 367 1
3 6 -7 2473 624 1
3 6 -7 1939 446 1
-3 6 7 3843 858 1
3 6 -6 759 446 1
-3 -6 6 736 252 1
-3 6 6 756 571 1
3 6 -6 342 302 1
-3 -6 6 973 524 1
-3 -6 5 2171 619 1
3 6 -5 2137 576 1
-3 6 5 2156 747 1
-3 -6 5 1544 269 1
3 -6 -5 1998 453 1
3 6 -4 1973 379 1
3 6 -4 2322 444 1
-3 6 4 1734 467 1
-3 -6 4 1828 192 1
-3 -6 4 2048 381 1
-3 -6 4 2356 468 1
3 -6 -4 1557 255 1
3 6 -3 1080 531 1
3 6 -3 875 185 1
-3 -6 3 1404 505 1
-3 -6 3 1388 587 1
-3 -6 3 926 236 1
-3 6 3 1052 617 1
-3 6 3 829 372 1
3 -6 -3 1244 391 1
3 6 -3 956 389 1
3 6 -2 1091 82 1
3 6 -2 1217 68 1
3 6 -2 944 97 1
3 -6 -2 1168 135 1
3 -6 -2 1188 174 1
-3 -6 2 1064 139 1
-3 6 2 590 64 1
-3 6 2 1059 180 1
-3 -6 2 1031 116 1
3 -6 -2 1287 120 1
3 6 -1 458 167 1
3 6 -1 761 355 1
3 -6 -1 641 234 1
-3 6 1 717 249 1
3 6 -1 667 193 1
3 6 -1 690 357 1
3 -6 -1 969 329 1
-3 6 1 767 408 1
3 -6 -1 591 340 1
-3 -6 1 704 222 1
-3 6 1 486 253 1
3 6 0 8 325 1
-3 -6 0 103 239 1
3 6 0 116 438 1
-3 -6 0 27 337 1
-3 6 0 116 359 1
3 -6 0 78 355 1
3 -6 0 84 317 1
-3 6 0 22 375 1
3 -6 0 50 412 1
-3 6 0 6 283 1
-3 -6 -1 22606 1379 1
3 6 1 23491 1469 1
3 6 1 21765 1318 1
-3 -6 -1 21520 766 1
-3 6 -1 23303 1457 1
3 -6 1 21457 1032 1
-3 6 -1 19864 1102 1
3 -6 1 23597 1465 1
-3 -6 -2 10242 1097 1
3 -6 2 9370 1033 1
3 6 2 9596 1019 1
3 -6 2 9570 919 1
-3 6 -2 11655 1121 1
-3 6 -2 11239 1225 1
3 6 2 11194 1236 1
-3 -6 -3 162695 3468 1
3 -6 3 175049 3815 1
-3 6 -3 171279 4394 1
3 6 3 170368 4582 1
3 6 3 174375 3900 1
-3 -6 -3 169693 4259 1
-3 -6 -4 39736 1918 1
3 -6 4 43884 1786 1
-3 6 -4 41789 2320 1
-3 -6 -4 39728 2060 1
3 6 4 42372 2340 1
-3 6 -4 44473 2005 1
3 6 4 45361 1916 1
-3 -6 -5 924 386 1
-3 -6 -5 754 346 1
-3 6 -5 876 322 1
3 6 5 1021 506 1
3 6 5 973 325 1
3 6 5 1255 576 1
-3 6 -5 1496 557 1
-3 6 -6 5360 1025 1
-3 6 -6 5463 833 1
-3 6 -6 3772 594 1
3 6 6 4081 571 1
3 6 6 3921 846 1
-3 -6 -6 4608 924 1
-3 -6 -6 3461 718 1
3 6 6 5036 1190 1
3 6 7 2047 824 1
-3 6 -7 1366 521 1
-3 -6 -7 469 328 1
-3 -6 -7 763 378 1
3 6 7 1493 528 1
-3 6 -7 1102 287 1
3 6 8 508 273 1
-3 6 -8 34 127 1
-3 -6 -8 431 221 1
3 6 9 82 222 1
-3 6 -9 888 462 1
-3 -6 -9 742 346 1
3 6 10 2 400 1
-3 -6 -10 10 75 1
-3 6 -10 378 501 1
-3 -6 -11 92 82 1
3 6 11 13 163 1
-3 6 -11 332 335 1
3 7 -13 2118 845 1
3 7 -13 2093 732 1
-3 7 13 2428 1025 1
3 -7 -13 1492 786 1
3 7 -12 4703 906 1
3 -7 -12 4517 1087 1
-3 7 12 3929 962 1
3 7 -12 5057 1120 1
3 7 -11 3588 938 1
3 7 -11 3277 809 1
3 -7 -11 3766 981 1
-3 7 11 5853 1681 1
3 7 -10 1832 610 1
3 7 -10 1480 448 1
3 -7 -10 1411 559 1
-3 7 10 1263 534 1
3 7 -9 33365 2579 1
3 -7 -9 35966 2702 1
-3 -7 9 36948 2510 1
-3 7 9 34989 3053 1
3 -7 -8 980 476 1
-3 -7 8 626 360 1
3 7 -8 1427 452 1
3 7 -8 617 356 1
-3 7 8 656 554 1
3 7 -7 220 374 1
3 7 -7 9 214 1
3 7 -7 95 363 1
-3 -7 7 105 327 1
-3 7 7 454 529 1
-3 -7 7 57 166 1
-3 -7 6 2890 634 1
3 7 -6 2160 529 1
-3 7 6 3263 835 1
3 7 -6 1977 515 1
-3 -7 6 2237 279 1
-3 -7 5 60680 2591 1
-3 -7 5 63761 1250 1
-3 7 5 67826 3408 1
3 7 -5 67680 2587 1
3 7 -5 65115 2683 1
3 -7 -5 63899 1994 1
3 -7 -4 16091 953 1
3 7 -4 19275 1494 1
-3 -7 4 16471 1386 1
-3 -7 4 17669 1324 1
3 7 -4 17128 1141 1
-3 -7 4 17492 576 1
-3 7 4 19115 1804 1
3 7 -3 895 258 1
3 7 -3 707 190 1
-3 -7 3 407 65 1
-3 7 3 305 108 1
-3 7 3 498 89 1
3 7 -3 656 64 1
3 -7 -3 750 138 1
-3 7 2 61885 2887 1
3 7 -2 58811 2542 1
-3 7 2 58696 1853 1
3 7 -2 58411 1679 1
3 7 -2 62800 1037 1
3 -7 -2 60762 1755 1
3 7 -1 23782 1318 1
-3 -7 1 22423 892 1
3 7 -1 21831 718 1
3 -7 -1 22201 1386 1
-3 7 1 23752 1424 1
-3 7 1 20334 857 1
3 -7 -1 21552 842 1
-3 7 1 20046 967 1
3 7 0 3831 734 1
-3 7 0 2913 470 1
3 -7 0 2252 509 1
3 -7 0 2930 391 1
-3 7 0 2114 363 1
-3 -7 0 2609 332 1
3 7 0 2378 518 1
-3 7 0 1713 457 1
-3 -7 -1 12807 571 1
3 7 1 12307 959 1
-3 7 -1 12245 788 1
-3 7 -1 14625 1122 1
3 7 1 11969 890 1
3 -7 1 13096 729 1
3 -7 1 12046 951 1
-3 -7 -2 18623 905 1
3 -7 2 17543 1376 1
3 7 2 17685 1324 1
3 7 2 19264 1601 1
3 -7 2 18304 1119 1
-3 7 -2 17156 1277 1
-3 7 -2 21075 1633 1
3 -7 3 33397 1771 1
-3 7 -3 28940 1725 1
3 -7 3 30377 1573 1
-3 7 -3 35240 1952 1
3 7 3 30907 1716 1
-3 -7 -3 31689 1521 1
3 7 3 30722 2015 1
-3 7 -4 226 198 1
-3 -7 -4 205 134 1
-3 7 -4 198 151 1
3 7 4 251 133 1
3 -7 4 27 101 1
3 7 5 1723 234 1
3 7 5 2515 507 1
-3 7 -5 1679 283 1
-3 -7 -5 2180 350 1
-3 7 -5 2477 447 1
3 7 6 137 199 1
-3 7 -6 0 29 1
3 7 6 270 190 1
-3 7 -6 0 144 1
-3 -7 -6 235 221 1
3 7 6 0 183 1
-3 7 -6 100 160 1
3 7 7 2410 652 1
-3 7 -7 2181 316 1
-3 7 -7 2003 550 1
3 7 7 2275 415 1
-3 -7 -7 2460 493 1
3 7 8 5727 1353 1
-3 -7 -8 6958 1123 1
3 7 8 8627 1174 1
-3 7 -8 7704 1218 1
3 7 9 714 503 1
3 7 9 1095 356 1
-3 7 -9 630 320 1
-3 -7 -9 501 320 1
-3 7 -10 1554 633 1
3 7 10 2897 1028 1
-3 -7 -10 2798 784 1
-3 7 -11 3 160 1
-3 -7 -11 3 301 1
3 8 -13 775 345 1
3 8 -13 1307 614 1
3 -8 -13 1226 559 1
-3 8 13 2217 854 1
3 8 -12 3470 901 1
-3 8 12 3962 1344 1
3 -8 -12 3046 981 1
3 8 -12 4939 1220 1
-3 8 12 3191 1018 1
3 8 -11 4133 850 1
3 -8 -11 3666 872 1
3 8 -11 4071 755 1
-3 8 11 6031 1273 1
3 -8 -10 3797 916 1
3 8 -10 5251 969 1
3 8 -10 4738 977 1
-3 8 10 3783 1015 1
3 -8 -9 494 378 1
3 8 -9 1772 630 1
3 8 -9 798 429 1
-3 8 9 1794 788 1
3 8 -8 1242 581 1
3 8 -8 1535 662 1
-3 8 8 1284 740 1
-3 -8 8 1218 333 1
3 8 -7 11993 1342 1
-3 8 7 13807 1733 1
3 8 -7 11087 1129 1
3 8 -7 13852 1416 1
-3 -8 7 13910 764 1
3 8 -6 1472 286 1
3 8 -6 1018 205 1
-3 8 6 1718 405 1
-3 -8 6 1276 126 1
-3 -8 5 4503 285 1
3 8 -5 5998 802 1
-3 8 5 5113 899 1
3 8 -5 4911 606 1
3 -8 -5 4333 486 1
3 8 -4 5007 633 1
3 8 -4 4524 714 1
-3 8 4 5639 951 1
3 -8 -4 5528 547 1
3 8 -3 24953 1943 1
3 8 -3 27020 1464 1
3 -8 -3 25801 1270 1
-3 8 3 27976 2317 1
-3 -8 3 29731 1824 1
3 8 -2 28811 2057 1
3 8 -2 26913 1294 1
-3 8 2 30201 2344 1
-3 8 2 26650 1385 1
-3 -8 2 33560 1766 1
3 -8 -2 29109 1310 1
3 8 -2 24059 643 1
-3 -8 1 14846 1067 1
3 8 -1 14610 1513 1
-3 8 1 14994 1582 1
3 8 -1 12958 802 1
-3 8 1 12905 950 1
-3 8 1 14105 1155 1
3 -8 -1 13202 887 1
-3 -8 0 1422 423 1
-3 8 0 1865 577 1
-3 8 0 1419 716 1
3 -8 0 1423 431 1
3 8 0 2414 821 1
-3 8 0 1867 519 1
3 8 1 3701 821 1
-3 8 -1 3535 706 1
3 -8 1 3127 497 1
-3 -8 -1 3695 492 1
-3 8 -2 22731 1397 1
3 -8 2 23565 1640 1
3 8 2 26640 1929 1
-3 8 -2 25579 1764 1
-3 -8 -2 25228 1078 1
3 -8 2 22702 1153 1
-3 8 -3 51963 2643 1
-3 8 -3 48565 2441 1
3 -8 3 47473 2030 1
3 -8 3 53561 2551 1
-3 -8 -4 1240 414 1
-3 8 -4 1384 491 1
3 -8 4 1136 441 1
3 8 4 1248 448 1
3 -8 4 1301 428 1
3 8 4 1836 665 1
-3 8 -4 1027 452 1
-3 8 -5 16 86 1
-3 -8 -5 74 69 1
3 8 5 123 122 1
-3 8 -5 203 140 1
3 8 5 7 34 1
3 8 6 649 254 1
-3 -8 -6 817 234 1
3 8 6 888 210 1
-3 8 -6 950 283 1
-3 8 -6 495 140 1
-3 8 -7 6933 1171 1
3 8 7 5988 1266 1
-3 -8 -7 6857 1078 1
-3 8 -7 7973 888 1
3 8 7 8002 1164 1
-3 -8 -8 2371 763 1
3 8 8 4113 1023 1
3 8 8 3257 998 1
-3 8 -8 3405 901 1
-3 -8 -9 3592 991 1
3 8 9 4638 1355 1
3 8 9 3338 822 1
-3 8 -9 4229 973 1
-3 -8 -10 162 241 1
-3 8 -10 123 366 1
3 8 10 4 516 1
3 9 -13 775 543 1
3 -9 -13 32 315 1
3 9 -13 4 268 1
-3 9 13 143 416 1
-3 9 13 394 389 1
3 -9 -12 4972 1309 1
3 9 -12 4037 983 1
3 9 -12 3164 953 1
-3 9 12 5494 1675 1
3 9 -11 3917 952 1
3 9 -11 4282 876 1
3 -9 -11 4564 1015 1
-3 9 11 3805 1040 1
3 9 -10 2419 513 1
3 9 -10 2897 603 1
3 -9 -10 3002 672 1
-3 9 10 3640 820 1
3 9 -9 18758 1787 1
-3 9 9 17141 2071 1
3 9 -9 20055 1944 1
3 -9 -9 17062 1810 1
3 9 -8 183 320 1
3 9 -8 170 321 1
-3 9 8 211 276 1
-3 -9 8 470 205 1
3 9 -7 2544 678 1
-3 -9 7 2018 308 1
-3 9 7 2444 890 1
3 9 -7 2249 643 1
-3 -9 6 1009 198 1
3 9 -6 1232 503 1
-3 9 6 1662 741 1
3 9 -6 977 415 1
-3 -9 5 13895 470 1
3 9 -5 19766 1769 1
-3 9 5 19254 2088 1
3 9 -5 18158 1493 1
3 -9 -5 17405 1179 1
3 9 -4 10631 831 1
3 9 -4 11411 1070 1
-3 9 4 11687 1274 1
3 -9 -4 9964 656 1
-3 -9 3 20770 1474 1
3 9 -3 21327 1731 1
-3 9 3 21733 1962 1
3 9 -3 20111 1208 1
3 -9 -3 17370 946 1
3 9 -2 3671 954 1
-3 9 2 1939 795 1
-3 9 2 1741 487 1
3 -9 -2 2086 434 1
-3 -9 2 2823 675 1
3 9 -2 2849 580 1
-3 -9 1 599 263 1
3 9 -1 345 172 1
3 9 -1 207 224 1
-3 9 1 122 137 1
-3 9 1 236 309 1
3 -9 -1 108 112 1
-3 9 1 303 220 1
-3 9 0 1063 263 1
-3 -9 0 1129 252 1
-3 9 0 1698 385 1
3 9 0 1643 496 1
-3 9 0 1342 471 1
3 -9 0 799 196 1
3 9 1 48980 2853 1
-3 9 -1 43247 2153 1
3 -9 1 41843 1642 1
-3 9 -1 47527 2953 1
-3 -9 -1 44653 1699 1
3 9 2 49439 2691 1
3 -9 2 48720 1748 1
-3 9 -2 46773 2464 1
-3 -9 -2 41906 1477 1
-3 -9 -3 75 63 1
-3 9 -3 1 10 1
-3 9 -3 141 212 1
3 9 3 142 171 1
3 -9 3 158 106 1
-3 -9 -4 10208 909 1
3 9 4 11880 1313 1
-3 9 -4 11581 1100 1
-3 9 -4 8625 954 1
3 -9 4 11095 915 1
-3 -9 -5 4521 787 1
-3 9 -5 3750 808 1
-3 9 -5 5580 889 1
3 9 5 5357 1076 1
3 -9 5 6017 860 1
-3 9 -6 1925 497 1
-3 -9 -6 1729 498 1
3 9 6 1899 606 1
-3 9 -6 2830 723 1
-3 -9 -7 3299 748 1
-3 9 -7 3182 842 1
-3 9 -7 2803 607 1
3 9 7 3360 854 1
-3 -9 -8 1053 567 1
3 9 8 86 162 1
-3 9 -8 385 327 1
3 9 8 764 596 1
3 9 9 117 94 1
3 9 9 90 75 1
-3 -9 -9 333 327 1
-3 9 -9 1 208 1
-3 9 -10 570 475 1
3 9 10 777 519 1
-3 -9 -10 49 189 1
3 -10 -12 12130 1834 1
-3 10 12 13105 2192 1
3 10 -12 10867 1688 1
3 10 -12 10771 1523 1
3 10 -11 10156 1464 1
3 10 -11 7571 1118 1
3 -10 -11 7910 1276 1
-3 10 11 7734 1478 1
3 -10 -10 4445 1029 1
3 10 -10 3587 833 1
-3 10 10 6565 1372 1
3 10 -10 4085 929 1
3 10 -9 8422 1082 1
3 -10 -9 9193 1181 1
-3 10 9 8592 1333 1
3 10 -9 9208 1160 1
3 10 -8 64790 3374 1
-3 10 8 67981 4243 1
3 10 -8 62212 3168 1
3 10 -7 26225 2197 1
-3 10 7 23935 2555 1
-3 -10 7 21443 851 1
3 10 -7 21568 1807 1
3 10 -6 183 170 1
3 10 -6 173 244 1
-3 -10 6 160 54 1
-3 10 6 831 415 1
3 -10 -5 1306 260 1
3 10 -5 1378 321 1
-3 10 5 1550 421 1
3 10 -5 1600 336 1
-3 10 4 12800 1668 1
3 10 -4 16365 1663 1
3 10 -4 13588 1128 1
3 -10 -4 13539 952 1
3 10 -3 1080 628 1
3 10 -3 1180 438 1
-3 10 3 865 645 1
3 -10 -3 690 336 1
3 -10 -2 15312 899 1
3 10 -2 14229 965 1
-3 10 2 16016 1698 1
-3 10 1 43 120 1
3 10 -1 31 137 1
-3 -10 1 27 57 1
3 10 -1 1 59 1
-3 10 1 6 122 1
3 -10 -1 11 119 1
3 10 -1 2 49 1
-3 10 1 1 98 1
-3 -10 0 10473 942 1
-3 10 0 9526 1043 1
3 10 0 10802 1431 1
-3 10 0 12028 1010 1
3 -10 0 10746 825 1
3 10 1 789 495 1
-3 10 -1 390 334 1
3 -10 1 662 290 1
-3 10 -1 971 594 1
-3 -10 -1 348 248 1
-3 -10 -2 26773 1400 1
3 10 2 29420 2313 1
-3 10 -2 30569 2272 1
-3 10 -2 29538 1863 1
3 -10 2 28597 1371 1
3 -10 3 293 273 1
-3 10 -3 387 407 1
3 10 3 441 514 1
-3 10 -3 166 372 1
-3 10 -4 13449 1409 1
3 -10 4 12617 1069 1
3 10 4 14583 1733 1
-3 10 -4 12766 1453 1
-3 -10 -5 7675 1033 1
-3 10 -5 8409 1212 1
-3 10 -5 9468 1255 1
3 10 5 9577 1543 1
3 -10 5 8367 997 1
-3 -10 -6 6287 973 1
-3 10 -6 5258 998 1
-3 10 -6 6917 1065 1
3 10 6 6876 1320 1
3 -10 6 5812 885 1
-3 10 -7 7635 1208 1
-3 10 -7 6875 975 1
-3 -10 -7 5352 924 1
3 10 7 6504 1185 1
-3 -10 -8 3915 895 1
3 10 8 1983 841 1
3 10 8 5158 1104 1
-3 10 -8 4720 1067 1
-3 10 -9 158 226 1
-3 -10 -9 353 289 1
3 10 9 570 312 1
3 10 9 134 214 1
3 10 10 598 648 1
-3 -10 -10 670 459 1
-3 10 -10 1148 649 1
3 -11 -12 2316 815 1
3 11 -12 2911 853 1
-3 11 12 3805 1168 1
3 11 -12 1723 548 1
3 -11 -11 1522 673 1
3 11 -11 1456 547 1
3 11 -11 1633 639 1
-3 11 11 1943 814 1
3 -11 -10 1413 516 1
3 11 -10 1962 601 1
3 11 -10 2045 600 1
-3 11 10 1478 651 1
3 11 -9 6520 1222 1
3 11 -9 6624 1188 1
-3 11 9 7323 1561 1
3 11 -8 165 168 1
3 11 -8 26 178 1
-3 11 8 266 476 1
3 11 -7 733 253 1
3 11 -7 1156 312 1
-3 -11 7 451 47 1
-3 11 7 1608 641 1
3 11 -6 10536 1368 1
3 11 -6 13306 1376 1
-3 11 6 14866 1978 1
3 11 -5 891 487 1
3 -11 -5 737 350 1
-3 11 5 505 561 1
3 11 -5 808 402 1
3 -11 -4 1062 238 1
3 11 -4 369 144 1
3 11 -4 804 279 1
-3 11 4 1257 406 1
-3 11 3 10887 1502 1
3 -11 -3 12679 890 1
3 11 -3 10819 948 1
3 11 -2 3940 630 1
3 11 -2 3412 905 1
-3 11 2 4725 1153 1
3 -11 -2 3842 524 1
3 11 -1 2794 201 1
3 11 -1 3157 645 1
3 11 -1 2696 331 1
-3 11 1 2538 618 1
3 -11 -1 3520 341 1
-3 11 1 3853 512 1
3 11 -1 2690 157 1
3 11 0 1869 268 1
3 11 0 928 436 1
-3 11 0 1742 440 1
-3 11 0 1563 657 1
3 -11 0 1635 302 1
-3 11 -1 25382 1642 1
-3 11 -1 27517 2226 1
3 11 1 24151 2122 1
3 -11 1 23824 1163 1
3 11 2 28476 2500 1
-3 11 -2 30852 2528 1
-3 11 -2 31782 2225 1
3 -11 2 27283 1437 1
-3 11 -3 1319 427 1
3 -11 3 1134 310 1
-3 11 -3 1533 548 1
3 11 3 1592 705 1
3 11 4 2577 908 1
-3 11 -4 2757 809 1
-3 11 -4 1996 638 1
3 -11 4 2454 508 1
3 -11 5 12674 1026 1
-3 11 -5 13655 1429 1
3 11 5 14152 1729 1
-3 -11 -5 13811 1254 1
-3 11 -5 15694 1483 1
-3 11 -6 1688 527 1
-3 11 -6 1941 549 1
3 -11 6 1285 396 1
3 11 6 1538 494 1
-3 -11 -6 2406 597 1
-3 11 -7 534 404 1
3 -11 7 1248 490 1
3 11 7 1057 647 1
-3 -11 -7 352 296 1
-3 11 -7 627 432 1
-3 -11 -8 5 145 1
3 11 8 199 271 1
-3 11 -8 533 420 1
-3 -11 -9 1983 664 1
3 11 9 2338 855 1
3 11 9 1190 695 1
-3 11 -9 2033 713 1
3 -12 -11 3259 940 1
3 12 -11 4570 1101 1
3 12 -11 2812 824 1
-3 12 11 5317 1428 1
3 12 -10 550 370 1
3 -12 -10 610 344 1
3 12 -10 62 87 1
-3 12 10 291 165 1
3 12 -9 1644 618 1
3 12 -9 1441 496 1
-3 12 9 2907 1025 1
3 12 -8 13251 1833 1
-3 12 8 15905 2395 1
3 12 -8 13718 1722 1
3 12 -7 8947 1389 1
3 12 -7 8399 1241 1
-3 12 7 11248 1957 1
3 12 -6 173 95 1
-3 12 6 2 151 1
3 12 -6 8 194 1
-3 12 5 12054 1788 1
3 12 -5 9676 1087 1
3 12 -5 11786 1606 1
-3 12 4 1015 583 1
3 -12 -4 1089 266 1
3 12 -4 1125 450 1
3 12 -4 884 268 1
3 12 -3 11288 1074 1
3 12 -3 11440 1538 1
-3 12 3 12137 1666 1
3 -12 -3 8415 728 1
3 12 -2 8040 1411 1
3 12 -2 7989 898 1
-3 12 2 7060 1405 1
3 -12 -2 7528 710 1
3 12 -1 1986 661 1
-3 12 1 1398 397 1
3 12 -1 1940 370 1
3 12 -1 1795 155 1
3 -12 -1 1902 311 1
-3 12 1 1192 549 1
-3 12 0 131 276 1
3 12 0 45 392 1
-3 12 0 127 399 1
3 12 0 132 149 1
3 -12 0 131 203 1
3 -12 1 16425 1017 1
-3 12 -1 16304 1446 1
3 12 1 18392 2052 1
3 12 1 15374 849 1
-3 12 -1 18758 2050 1
-3 12 -2 2073 610 1
3 -12 2 3286 415 1
-3 12 -2 3202 596 1
3 12 2 2967 734 1
3 12 3 73037 4147 1
-3 12 -3 68112 3701 1
3 -12 3 67632 2179 1
-3 12 -4 1010 448 1
3 12 4 1573 646 1
3 -12 4 1871 460 1
-3 12 -4 1659 649 1
-3 12 -5 2584 641 1
-3 12 -5 2091 654 1
3 -12 5 2854 516 1
3 12 5 3194 938 1
-3 -12 -5 2950 717 1
3 12 6 1 297 1
-3 12 -6 540 422 1
-3 -12 -6 49 135 1
-3 12 -6 73 325 1
3 -12 6 645 360 1
-3 -12 -7 6014 1044 1
-3 12 -7 5720 1058 1
-3 12 -7 5231 1001 1
3 12 7 6993 1384 1
3 -12 7 7340 971 1
-3 -12 -8 507 313 1
3 -12 8 553 234 1
3 12 8 321 325 1
-3 12 -8 183 95 1
-3 -12 -9 7576 1374 1
-3 12 -9 7572 1391 1
3 12 9 3723 1255 1
3 12 9 7773 1495 1
3 -12 9 7859 1113 1
3 -13 -11 553 570 1
3 13 -11 3 57 1
3 13 -11 238 221 1
-3 13 11 12 396 1
3 13 -10 582 428 1
3 -13 -10 295 369 1
3 13 -10 1268 588 1
-3 13 10 861 656 1
-3 13 9 6806 1475 1
3 13 -9 6858 1258 1
3 13 -9 5872 1030 1
-3 13 8 169 173 1
3 13 -8 221 353 1
3 13 -8 637 491 1
3 13 -7 214 442 1
-3 13 7 158 128 1
3 13 -7 243 354 1
3 13 -6 8876 1573 1
3 13 -6 7684 1055 1
-3 13 6 8323 1683 1
3 13 -5 38 170 1
3 13 -5 35 88 1
-3 13 5 57 156 1
3 -13 -4 4887 600 1
3 13 -4 6487 1127 1
-3 13 4 5820 1126 1
3 13 -4 4057 594 1
3 13 -3 2867 855 1
-3 13 3 2113 810 1
3 -13 -3 2253 418 1
3 13 -3 2475 512 1
3 13 -2 17694 1911 1
3 13 -2 17891 1218 1
3 -13 -2 20917 1101 1
-3 13 2 18999 2132 1
3 13 -1 10190 1374 1
-3 13 1 10519 998 1
-3 13 1 12120 1591 1
3 -13 -1 10958 703 1
3 13 -1 11025 847 1
3 13 0 1409 479 1
-3 13 0 1568 422 1
3 -13 0 878 216 1
3 13 0 786 134 1
3 13 1 71780 4300 1
-3 13 -1 62457 2997 1
3 -13 1 60135 1998 1
3 13 1 54683 1620 1
-3 13 -1 70027 4350 1
-3 13 -2 8092 991 1
-3 13 -2 10177 1423 1
3 -13 2 9543 767 1
3 13 2 8350 1377 1
3 -13 3 386 198 1
-3 13 -3 212 238 1
3 13 3 93 274 1
-3 13 -3 2 180 1
-3 13 -4 26 175 1
-3 13 -4 159 157 1
3 -13 4 122 120 1
3 13 4 525 442 1
3 -13 5 8037 917 1
-3 13 -5 7801 1332 1
3 13 5 8247 1614 1
-3 13 -5 8868 1287 1
3 13 6 437 408 1
-3 -13 -6 146 195 1
-3 13 -6 2 216 1
-3 13 -6 2 74 1
3 -13 6 209 156 1
3 13 7 38 217 1
-3 13 -7 438 309 1
-3 -13 -7 11 126 1
-3 13 -7 89 295 1
3 -13 7 7 114 1
3 13 8 3197 866 1
-3 -13 -8 2569 688 1
3 -13 8 3419 667 1
-3 13 -8 2362 733 1
3 -14 -10 0 329 1
3 14 -10 0 239 1
3 14 -10 261 257 1
-3 14 10 0 254 1
3 14 -9 95 518 1
3 14 -9 44 158 1
-3 14 9 27 163 1
3 14 -8 14382 1657 1
3 14 -8 17562 2343 1
-3 14 8 17676 2683 1
3 14 -7 1194 480 1
3 14 -7 2304 838 1
-3 14 7 2054 925 1
3 14 -6 1848 447 1
3 14 -6 2218 734 1
-3 14 6 2655 876 1
3 14 -5 737 291 1
-3 14 5 828 224 1
3 14 -5 420 179 1
3 14 -4 19138 2168 1
-3 14 4 16443 2192 1
3 14 -4 23671 1737 1
3 14 -3 16454 1241 1
3 14 -3 18413 1962 1
-3 14 3 17456 2016 1
3 -14 -3 14463 944 1
3 -14 -2 10587 863 1
3 14 -2 9679 1592 1
-3 14 2 13639 2005 1
3 14 -2 10837 1056 1
3 -14 -1 912 249 1
3 14 -1 1377 688 1
-3 14 1 1596 802 1
3 14 -1 1387 401 1
-3 14 1 1739 529 1
-3 14 0 36233 2189 1
-3 14 0 47905 3744 1
3 14 0 44975 3369 1
3 -14 0 41288 1515 1
-3 14 -1 603 196 1
3 -14 1 1326 256 1
3 14 1 1166 491 1
-3 14 -1 2065 459 1
-3 14 -2 55849 2921 1
3 14 2 50900 3703 1
-3 14 -2 56282 3773 1
3 -14 2 47213 1707 1
-3 14 -3 7003 946 1
-3 14 -3 4927 920 1
3 -14 3 6880 623 1
3 14 3 5695 1149 1
-3 14 -4 6191 1212 1
3 14 4 4410 1161 1
-3 14 -4 3454 780 1
3 -14 4 3112 507 1
-3 14 -5 764 471 1
-3 14 -5 486 193 1
3 -14 5 572 183 1
3 14 5 200 86 1
-3 -14 -6 6097 1048 1
3 -14 6 5416 719 1
-3 14 -6 4807 948 1
3 14 6 5934 1416 1
-3 14 -6 5290 1161 1
-3 -14 -7 1838 579 1
-3 14 -7 4778 1020 1
-3 14 -7 2933 780 1
3 14 7 3619 1073 1
3 -14 7 2184 460 1
-3 14 -8 0 193 1
-3 -14 -8 629 480 1
3 14 8 268 183 1
3 15 -9 880 460 1
-3 15 9 1631 812 1
3 15 -9 1615 770 1
3 15 -8 673 318 1
3 15 -8 619 495 1
-3 15 8 329 370 1
3 15 -7 57 102 1
3 15 -7 8 328 1
-3 15 7 106 55 1
3 15 -6 1551 641 1
3 15 -6 1852 479 1
-3 15 6 1993 802 1
3 15 -5 6876 1334 1
-3 15 5 5351 1233 1
3 15 -5 7936 1021 1
3 15 -4 80 244 1
3 15 -4 79 398 1
-3 15 4 66 322 1
3 -15 -3 5243 691 1
3 15 -3 3360 626 1
3 15 -3 4339 1094 1
-3 15 3 4573 1217 1
3 15 -2 11173 1898 1
-3 15 2 13469 2181 1
3 15 -2 12149 1251 1
3 -15 -2 10895 950 1
3 -15 -1 331 151 1
3 15 -1 1268 573 1
-3 15 1 842 248 1
-3 15 1 751 482 1
3 15 -1 963 308 1
3 -15 0 260 157 1
-3 15 0 227 235 1
3 15 0 613 495 1
-3 15 0 110 281 1
3 15 1 5748 1278 1
-3 15 -1 5883 900 1
3 -15 1 5164 518 1
-3 15 -1 8077 1553 1
-3 15 -2 2261 708 1
3 -15 2 1960 424 1
-3 15 -3 2750 906 1
3 -15 3 2658 425 1
3 15 3 3462 1087 1
-3 15 -3 1250 477 1
-3 15 -4 281 327 1
3 15 4 0 109 1
-3 15 -4 295 441 1
3 -15 4 64 125 1
-3 15 -5 11287 1681 1
-3 15 -5 10521 1402 1
3 15 5 13513 2169 1
-3 -15 -6 1056 390 1
3 15 6 772 624 1
-3 15 -6 1008 564 1
-3 15 -6 1172 442 1
-3 -15 -7 20 172 1
-3 15 -7 206 222 1
-3 15 -7 30 327 1
3 15 7 767 718 1
3 16 -9 616 419 1
3 16 -9 593 580 1
-3 16 9 797 663 1
3 16 -8 511 353 1
3 16 -8 799 565 1
-3 16 8 415 373 1
3 16 -7 262 358 1
-3 16 7 2 209 1
3 16 -7 198 211 1
3 16 -6 592 320 1
3 16 -6 622 272 1
-3 16 6 42 63 1
3 16 -5 531 442 1
-3 16 5 107 329 1
3 16 -5 162 229 1
3 16 -4 890 376 1
3 16 -4 1702 762 1
-3 16 4 1159 720 1
-3 16 3 31 278 1
3 16 -3 722 418 1
3 16 -3 247 185 1
3 -16 -2 364 204 1
3 16 -2 239 542 1
-3 16 2 177 203 1
3 16 -2 755 380 1
3 16 -1 14053 1238 1
3 16 -1 17393 2261 1
-3 16 1 16013 1558 1
3 -16 -1 14248 928 1
-3 16 1 14777 2138 1
3 -16 0 472 119 1
3 16 0 94 145 1
-3 16 0 1037 251 1
-3 16 0 706 450 1
3 16 1 661 631 1
-3 16 -1 713 370 1
-3 16 -1 1600 950 1
3 -16 1 487 198 1
-3 16 -2 2221 675 1
-3 16 -2 1701 532 1
3 -16 2 1747 294 1
3 16 2 1201 555 1
-3 16 -3 4597 859 1
3 16 3 3862 1099 1
-3 16 -3 2811 839 1
3 16 4 4 341 1
-3 16 -4 50 130 1
-3 16 -4 1 328 1
-3 16 -5 335 396 1
3 16 5 7 335 1
-3 16 -5 7 129 1
-3 -16 -6 1456 571 1
3 16 6 3111 1156 1
-3 16 -6 1761 641 1
-3 16 -6 1915 836 1
3 17 -8 4291 1149 1
3 17 -8 4549 919 1
-3 17 8 4855 1524 1
3 17 -7 897 709 1
-3 17 7 430 594 1
3 17 -7 604 373 1
3 17 -6 7744 1591 1
3 17 -6 6523 1022 1
-3 17 6 9136 1887 1
3 17 -5 20392 2665 1
-3 17 5 20644 2820 1
3 17 -5 15460 1596 1
3 17 -4 8227 1095 1
3 17 -4 6851 1520 1
-3 17 4 8089 1724 1
3 17 -3 685 524 1
-3 17 3 381 423 1
3 17 -3 19 166 1
-3 17 2 9506 1806 1
3 17 -2 10288 1805 1
3 17 -2 9064 1038 1
3 -17 -1 190 231 1
-3 17 1 179 352 1
3 17 -1 469 553 1
-3 17 1 125 521 1
3 17 0 50 236 1
-3 17 0 817 412 1
3 -17 0 279 136 1
-3 17 0 171 256 1
3 17 1 1782 1040 1
-3 17 -1 1680 972 1
-3 17 -1 1523 654 1
-3 17 -2 1100 466 1
-3 17 -2 2590 1037 1
3 17 2 1951 824 1
-3 17 -3 1839 839 1
-3 17 -3 2002 596 1
3 17 3 1525 631 1
-3 17 -4 3104 1024 1
3 17 4 3762 1291 1
-3 17 -4 1959 611 1
3 17 5 1603 891 1
-3 17 -5 1032 494 1
-3 17 -5 1878 945 1
-3 18 6 4366 1340 1
3 18 -6 3917 1139 1
3 18 -6 4956 926 1
3 18 -5 6145 1000 1
-3 18 5 7092 1641 1
3 18 -5 5909 1402 1
3 18 -4 16395 2432 1
3 18 -4 12107 1363 1
-3 18 4 17906 2662 1
3 18 -3 1172 614 1
3 18 -3 766 206 1
-3 18 3 500 288 1
-3 18 2 665 614 1
3 18 -2 676 319 1
3 18 -2 390 494 1
3 18 -1 313 183 1
-3 18 1 859 444 1
-3 18 0 12032 1405 1
3 18 0 13532 2133 1
-3 18 0 15869 2373 1
-3 18 -1 10 220 1
3 18 1 10 374 1
-3 18 -1 129 178 1
-3 18 -2 2716 667 1
-3 18 -2 2750 1306 1
3 18 2 2079 799 1
-3 18 -3 9 275 1
3 18 3 310 434 1
-3 18 -3 243 155 1
-3 18 -4 4910 1003 1
-3 18 -4 4871 1300 1
3 18 4 5646 1474 1
3 19 -5 154 370 1
3 19 -5 1972 567 1
-3 19 5 1030 789 1
3 19 -4 426 759 1
3 19 -4 336 245 1
-3 19 4 18 173 1
-3 19 3 507 677 1
3 19 -3 477 689 1
3 19 -3 437 298 1
3 19 -2 10402 2044 1
3 19 -2 10781 1286 1
-3 19 2 10433 2079 1
-3 19 1 993 614 1
3 19 -1 1522 906 1
3 19 0 1879 858 1
-3 19 0 1785 592 1
-3 19 -1 0 192 1
3 19 1 0 321 1
-3 19 -1 205 302 1
3 19 2 5062 1465 1
-3 19 -2 4483 1036 1
-3 19 -2 5201 1567 1
4 0 -14 10290 1977 1
-4 0 12 2689 488 1
4 0 -12 2478 682 1
-4 0 10 1088 383 1
4 0 -10 1535 626 1
4 0 -8 3530 531 1
-4 0 8 4214 369 1
4 0 -6 17940 1102 1
-4 0 6 14652 487 1
4 0 -6 16679 773 1
4 0 -4 814 295 1
-4 0 4 806 188 1
4 0 -4 720 234 1
4 0 -4 1121 532 1
4 0 -2 50107 1404 1
-4 0 2 53170 1536 1
4 0 -2 52685 1328 1
-4 0 0 56788 2001 1
4 0 0 51706 1779 1
4 0 0 53587 1442 1
-4 0 0 57515 998 1
4 0 0 52023 1046 1
4 0 2 7620 573 1
4 0 2 8335 849 1
4 0 2 8106 451 1
-4 0 -2 6614 466 1
4 0 4 7175 808 1
4 0 4 9409 1167 1
-4 0 -4 7287 758 1
4 0 6 4934 1360 1
-4 0 -6 1957 703 1
4 0 8 7682 1326 1
-4 0 -8 8412 1060 1
-4 0 -10 1780 715 1
4 0 10 4355 1169 1
4 1 -14 4799 1257 1
4 -1 -14 4820 1216 1
4 1 -13 2549 1010 1
4 -1 -13 3115 1077 1
-4 1 13 2075 803 1
-4 1 12 99 316 1
4 -1 -12 40 235 1
4 1 -12 465 437 1
-4 -1 12 0 134 1
-4 1 11 310 249 1
4 1 -11 132 246 1
-4 -1 11 84 146 1
4 -1 -11 233 276 1
4 -1 -10 3872 1008 1
4 1 -10 4337 1090 1
-4 -1 10 3209 610 1
-4 1 10 3260 688 1
4 1 -9 476 428 1
4 -1 -9 705 517 1
-4 -1 9 280 208 1
-4 1 9 632 330 1
4 1 -8 2074 500 1
4 -1 -8 1778 447 1
-4 -1 8 1940 279 1
-4 1 8 2567 443 1
4 -1 -7 689 370 1
4 1 -7 1487 637 1
4 -1 -7 816 493 1
-4 1 7 993 347 1
4 -1 -6 80783 2859 1
4 1 -6 108076 3503 1
4 -1 -6 97970 2437 1
4 1 -6 91743 2292 1
4 -1 -5 5440 809 1
4 -1 -5 4966 1037 1
4 1 -5 4927 731 1
-4 -1 5 4481 616 1
4 -1 -5 5621 636 1
4 1 -5 4525 542 1
4 1 -4 64054 2199 1
4 -1 -4 74268 3321 1
-4 -1 4 72244 2077 1
4 1 -4 71111 1906 1
4 -1 -4 66288 1948 1
4 1 -3 30879 1215 1
4 -1 -3 31279 1980 1
-4 1 3 29599 1268 1
-4 -1 3 30479 1253 1
4 1 -3 28687 1038 1
4 -1 -3 29352 1269 1
-4 1 3 27644 1273 1
4 1 -3 29933 1233 1
-4 1 2 2976 682 1
4 -1 -2 2691 782 1
-4 -1 2 1489 457 1
-4 -1 2 2691 589 1
4 1 -2 2322 578 1
4 -1 -2 3129 602 1
4 1 -2 2209 496 1
4 -1 -2 2745 445 1
-4 1 2 2557 551 1
4 1 -1 11 171 1
-4 1 1 14 243 1
4 -1 -1 5 313 1
-4 1 1 0 376 1
4 1 -1 18 399 1
4 -1 -1 0 229 1
-4 -1 1 10 370 1
4 -1 -1 0 354 1
-4 1 1 1 318 1
4 1 -1 0 298 1
4 -1 -1 85 441 1
4 -1 0 1232 229 1
4 1 0 895 150 1
4 1 0 719 276 1
-4 -1 0 1123 332 1
-4 1 0 964 294 1
4 -1 0 1219 329 1
4 -1 0 1322 293 1
4 1 0 988 253 1
-4 -1 0 1152 147 1
-4 1 0 1250 213 1
4 -1 0 1007 268 1
-4 1 -1 52691 1404 1
4 1 1 50797 1227 1
4 -1 1 53693 1447 1
4 -1 1 48174 2041 1
-4 -1 -1 939 161 1
-4 1 -1 1184 122 1
4 -1 1 49337 1473 1
4 1 1 49756 2100 1
-4 -1 -1 53045 1180 1
4 -1 2 2767 209 1
4 -1 2 3636 493 1
4 1 2 2248 176 1
-4 -1 -2 2248 202 1
4 -1 2 2748 337 1
4 1 2 2195 251 1
4 1 2 1723 273 1
-4 1 -2 2706 258 1
-4 -1 -3 22687 802 1
-4 -1 -3 21768 1234 1
4 1 3 26889 1575 1
4 1 3 22301 853 1
4 -1 3 29405 1708 1
4 1 3 28541 2176 1
-4 1 -3 27230 1519 1
4 -1 3 35560 2368 1
4 -1 4 17248 1593 1
4 1 4 12229 923 1
-4 1 -4 14193 1064 1
-4 -1 -4 12323 925 1
4 1 4 16163 1524 1
4 1 5 17646 1740 1
-4 1 -5 16436 1269 1
4 -1 5 19286 1819 1
-4 -1 -5 15140 1146 1
-4 1 -6 19147 1665 1
4 1 6 22097 2293 1
-4 -1 -6 16927 1484 1
-4 -1 -7 4250 662 1
-4 1 -7 4887 752 1
4 -1 7 6090 1104 1
4 1 7 3922 820 1
4 1 8 22955 2492 1
4 -1 8 21285 2396 1
-4 -1 -8 18286 1715 1
-4 1 -8 22285 1967 1
-4 1 -9 18 163 1
4 -1 9 115 390 1
4 1 9 223 685 1
-4 -1 -9 132 263 1
-4 1 -10 10070 1539 1
4 -1 10 7260 1554 1
4 1 10 6317 1513 1
-4 -1 -10 8111 1360 1
-4 -1 -11 2827 923 1
-4 1 -11 3436 905 1
4 -1 11 3213 1027 1
4 1 11 1909 881 1
-4 -2 14 1533 494 1
4 -2 -14 1687 725 1
4 2 -14 1987 822 1
4 -2 -13 3794 1147 1
4 2 -13 3556 1124 1
-4 2 13 2324 779 1
4 2 -12 4978 1184 1
-4 2 12 3909 834 1
4 -2 -12 3942 1065 1
4 -2 -11 2464 544 1
-4 2 11 2383 469 1
4 2 -11 3286 679 1
-4 2 10 774 383 1
4 2 -10 645 298 1
4 -2 -10 1 93 1
4 -2 -9 169 115 1
-4 2 9 11 88 1
4 2 -9 8 137 1
4 -2 -8 2465 644 1
4 2 -8 2076 627 1
4 -2 -7 20934 1306 1
4 -2 -7 19921 1511 1
4 2 -7 21088 1615 1
4 -2 -6 471 267 1
4 -2 -6 648 226 1
4 2 -6 924 345 1
-4 -2 6 878 252 1
4 2 -6 777 241 1
-4 -2 5 289599 4509 1
4 -2 -5 295559 3721 1
4 2 -5 302400 4825 1
4 2 -5 283463 3222 1
-4 -2 5 292122 3600 1
-4 -2 4 2883 397 1
4 2 -4 2956 434 1
-4 2 4 3148 415 1
4 -2 -4 2994 370 1
4 -2 -4 3081 590 1
-4 -2 4 3096 362 1
4 2 -4 2972 326 1
-4 2 4 2978 631 1
-4 2 3 992 104 1
4 2 -3 1266 64 1
-4 -2 3 859 112 1
4 -2 -3 914 173 1
4 2 -3 968 115 1
4 2 -3 1217 81 1
4 -2 -3 1204 99 1
-4 2 3 1613 82 1
4 2 -2 61894 1251 1
4 2 -2 63750 2070 1
-4 2 2 55889 1898 1
4 2 -2 58383 1559 1
4 -2 -2 59024 1484 1
-4 -2 2 62244 1692 1
4 -2 -2 59417 1753 1
-4 2 2 54357 1665 1
4 -2 -2 56351 2252 1
-4 2 1 3 129 1
4 -2 -1 61 180 1
-4 2 1 4 223 1
-4 2 1 64 294 1
4 2 -1 12 181 1
4 -2 -1 30 199 1
4 -2 -1 68 321 1
-4 2 1 15 217 1
4 2 -1 48 263 1
4 -2 0 36256 1498 1
4 2 0 39313 2301 1
4 -2 0 33881 1648 1
-4 2 0 36842 1853 1
-4 2 0 41130 1435 1
4 -2 0 33831 1563 1
4 2 1 3864 228 1
4 2 1 3497 292 1
4 -2 1 3764 357 1
4 -2 1 4142 331 1
-4 2 -1 4249 329 1
-4 -2 -1 3508 221 1
4 -2 1 4744 529 1
4 -2 1 4229 395 1
4 2 1 3511 494 1
4 -2 2 16810 1562 1
4 2 2 14926 906 1
-4 2 -2 19071 1178 1
4 2 2 12477 817 1
4 -2 2 18606 947 1
-4 -2 -2 15417 879 1
4 2 2 17857 1738 1
4 -2 2 16833 1231 1
-4 -2 -2 14114 868 1
4 2 3 735 79 1
4 2 3 382 61 1
-4 2 -3 735 76 1
4 2 3 735 195 1
4 -2 3 43 248 1
4 -2 3 175 187 1
-4 -2 -3 316 93 1
4 2 4 1600 396 1
4 2 4 2096 337 1
4 2 4 2204 758 1
-4 2 -4 2220 545 1
4 -2 4 2758 727 1
-4 -2 -4 1352 376 1
4 2 5 22633 2345 1
-4 -2 -5 17235 1505 1
-4 2 -5 21032 1747 1
4 -2 5 25106 2387 1
4 -2 6 3144 795 1
-4 2 -6 2806 594 1
4 2 6 2689 777 1
-4 -2 -6 2546 498 1
4 2 7 39186 3224 1
-4 -2 -7 34172 2271 1
4 -2 7 44129 3353 1
-4 2 -7 41718 2651 1
-4 2 -8 1186 401 1
4 -2 8 1442 638 1
-4 -2 -8 1227 419 1
4 2 8 1086 462 1
-4 -2 -9 4124 989 1
4 -2 9 5415 1387 1
4 2 9 6440 1564 1
-4 2 -9 6030 1200 1
-4 2 -10 260 240 1
4 2 10 828 652 1
4 -2 10 472 511 1
-4 -2 -10 237 214 1
-4 2 -11 1855 930 1
4 2 11 1515 752 1
4 -2 11 926 579 1
-4 -2 -11 913 509 1
4 -3 -14 467 532 1
-4 -3 14 36 211 1
4 3 -14 437 490 1
4 3 -13 2738 931 1
-4 -3 13 3521 910 1
4 -3 -13 2446 890 1
-4 3 13 3388 855 1
-4 -3 12 71 125 1
4 -3 -12 77 72 1
-4 3 12 217 378 1
4 3 -12 48 202 1
-4 3 11 9185 1334 1
4 -3 -11 6550 1259 1
4 3 -11 7509 1315 1
4 -3 -10 39175 2911 1
4 3 -10 44284 3218 1
-4 3 10 44587 2726 1
4 -3 -9 12388 1549 1
4 3 -9 11773 1553 1
4 -3 -8 39030 2409 1
4 3 -8 38885 2532 1
4 -3 -7 32448 1731 1
4 -3 -7 28295 1954 1
4 3 -7 31189 2074 1
4 -3 -6 75203 2269 1
4 3 -6 87811 3097 1
-4 -3 6 83239 2140 1
4 -3 -6 86830 3096 1
4 3 -6 79178 2091 1
-4 -3 5 28790 1431 1
4 3 -5 29107 1469 1
4 3 -5 28862 1022 1
-4 3 5 32292 2381 1
-4 -3 5 30348 1131 1
-4 -3 4 9461 997 1
4 3 -4 8999 1033 1
4 -3 -4 8623 1451 1
4 -3 -4 10144 948 1
-4 -3 4 10763 915 1
-4 3 4 9366 1537 1
-4 3 4 9688 1035 1
4 3 -4 8863 757 1
4 3 -3 81601 1845 1
-4 -3 3 78132 1827 1
4 3 -3 80639 1978 1
-4 3 3 81778 3170 1
4 -3 -3 80556 3127 1
-4 -3 3 80030 1854 1
-4 3 3 76012 2171 1
4 -3 -3 73891 2066 1
4 -3 -2 1530 486 1
4 3 -2 1574 338 1
4 -3 -2 2493 882 1
-4 -3 2 1905 537 1
-4 3 2 2653 667 1
4 3 -2 2137 508 1
-4 3 2 1383 725 1
4 -3 -2 2333 604 1
-4 3 1 2796 282 1
-4 3 1 2311 281 1
4 3 -1 3628 298 1
-4 3 1 2882 233 1
4 -3 -1 3114 276 1
4 -3 -1 3647 401 1
4 3 -1 3424 355 1
-4 3 1 3148 338 1
4 -3 -1 3021 248 1
4 3 0 47 48 1
-4 3 0 386 137 1
-4 3 0 168 81 1
4 3 0 6 83 1
4 -3 0 241 135 1
-4 3 0 6 72 1
4 -3 0 185 74 1
4 -3 0 292 120 1
4 3 1 15562 877 1
4 -3 1 16809 968 1
4 3 1 17836 1339 1
-4 3 -1 18791 961 1
-4 -3 -1 15138 559 1
4 -3 1 17013 1021 1
4 -3 1 18949 1085 1
-4 3 -1 17831 966 1
-4 -3 -1 17015 925 1
-4 3 -2 16818 1159 1
4 3 2 12932 1193 1
-4 3 -2 12593 1218 1
4 3 2 10857 1604 1
4 -3 2 14886 1427 1
4 -3 2 12721 1008 1
-4 -3 -2 10505 921 1
4 -3 2 13978 1658 1
-4 -3 -2 11519 904 1
4 3 2 11943 863 1
-4 3 -3 12703 1117 1
4 -3 3 12128 643 1
4 3 3 9724 826 1
-4 -3 -3 9985 844 1
4 3 3 13153 1561 1
4 -3 3 11768 1336 1
4 3 3 11012 826 1
4 3 4 3423 357 1
4 3 4 4450 387 1
-4 -3 -4 4524 465 1
4 -3 4 4035 614 1
4 3 4 3867 625 1
-4 3 -4 5089 556 1
-4 3 -5 13763 739 1
-4 -3 -5 11826 1089 1
4 3 5 17132 1930 1
4 -3 5 16786 1792 1
4 3 5 13918 826 1
-4 3 -5 16708 1416 1
-4 3 -6 7 116 1
4 3 6 7 215 1
4 -3 6 91 256 1
-4 -3 -6 188 143 1
4 3 6 113 61 1
-4 3 -7 131 214 1
4 -3 7 367 309 1
4 3 7 314 175 1
-4 -3 -7 314 164 1
-4 -3 -8 6569 1032 1
4 3 8 6483 1259 1
4 -3 8 8466 1479 1
-4 3 -8 7258 1133 1
-4 3 -9 1 180 1
4 3 9 263 402 1
4 -3 9 155 106 1
-4 -3 -9 152 214 1
-4 3 -10 823 477 1
4 3 10 1159 831 1
4 -3 10 535 470 1
-4 -3 -10 510 443 1
-4 3 -11 139 328 1
4 -3 11 0 533 1
4 3 11 0 216 1
-4 -3 -11 73 165 1
4 -4 -14 3938 1041 1
4 4 -14 4102 1065 1
-4 -4 14 4952 951 1
-4 -4 13 746 399 1
4 -4 -13 277 301 1
-4 4 13 843 434 1
4 4 -13 1201 549 1
-4 4 12 2912 744 1
4 -4 -12 1139 489 1
4 4 -12 2276 626 1
-4 -4 12 2838 639 1
4 -4 -11 50 140 1
-4 4 11 483 146 1
4 4 -11 357 215 1
-4 -4 11 49 123 1
4 -4 -10 11640 1459 1
-4 -4 10 13229 1439 1
-4 4 10 11214 1224 1
4 4 -10 11988 1479 1
4 -4 -9 27721 2057 1
4 4 -9 30276 2202 1
4 -4 -8 3484 534 1
4 4 -8 5650 750 1
4 4 -8 4477 378 1
-4 4 8 5142 898 1
4 -4 -7 431 186 1
4 -4 -7 304 229 1
4 4 -7 235 129 1
4 4 -7 373 211 1
-4 4 7 688 465 1
4 -4 -6 21 173 1
4 4 -6 29 154 1
-4 -4 6 23 156 1
4 4 -6 23 153 1
4 4 -6 40 288 1
-4 4 6 103 393 1
-4 -4 5 8038 890 1
-4 4 5 11162 1411 1
-4 -4 5 9659 719 1
4 -4 -5 8045 732 1
4 4 -5 8863 633 1
4 4 -5 10205 1020 1
-4 -4 4 1391 330 1
-4 -4 4 1202 265 1
4 4 -4 1405 347 1
4 4 -4 1218 227 1
4 -4 -4 1090 287 1
-4 4 4 1224 447 1
-4 -4 3 2561 415 1
4 -4 -3 2239 467 1
-4 -4 3 2580 457 1
4 -4 -3 2613 728 1
-4 4 3 2296 500 1
4 -4 -3 2778 504 1
4 4 -3 3015 465 1
4 4 -3 2703 405 1
-4 4 3 3011 779 1
-4 -4 2 4248 210 1
-4 4 2 3435 346 1
4 -4 -2 4252 300 1
4 -4 -2 3425 346 1
-4 4 2 3745 303 1
4 4 -2 4393 255 1
4 -4 -2 3656 272 1
4 4 -2 4232 193 1
-4 4 1 25468 1275 1
-4 -4 1 26776 1500 1
4 4 -1 28549 1186 1
4 -4 -1 26312 1585 1
-4 4 1 24574 1495 1
-4 4 1 26514 1156 1
4 -4 -1 24525 1129 1
4 -4 -1 26139 1186 1
4 -4 0 6284 1111 1
4 -4 0 6481 978 1
4 4 0 5638 997 1
-4 -4 0 6074 1012 1
-4 4 0 5471 1017 1
4 -4 0 5197 860 1
-4 4 0 6553 905 1
4 4 1 53875 1956 1
4 -4 1 57108 2084 1
-4 -4 -1 57666 1959 1
4 4 1 55056 2507 1
-4 -4 -1 58072 1223 1
-4 4 -1 56785 1871 1
-4 4 -1 55341 1962 1
4 -4 1 60756 2088 1
4 -4 1 56328 2118 1
4 4 2 1753 513 1
-4 -4 -2 1432 356 1
4 -4 2 1898 459 1
-4 4 -2 1154 414 1
4 -4 2 1570 518 1
4 4 2 1246 585 1
-4 4 -2 1273 393 1
-4 4 -3 35233 2022 1
4 -4 3 41194 1648 1
4 4 3 32262 1805 1
-4 -4 -3 30313 1536 1
4 4 3 31619 2525 1
-4 4 -3 38994 1466 1
-4 -4 -4 16333 1283 1
4 4 4 17996 1287 1
4 -4 4 23669 2134 1
-4 4 -4 21176 887 1
4 4 4 19264 2065 1
-4 4 -4 18682 1587 1
4 4 5 4077 893 1
4 4 5 2866 430 1
4 -4 5 2361 595 1
-4 -4 -5 2580 476 1
-4 4 -5 2523 520 1
4 4 6 221 503 1
4 4 6 138 254 1
4 -4 6 73 356 1
-4 -4 -6 22 127 1
-4 4 -6 100 348 1
-4 4 -6 93 177 1
4 -4 7 35 39 1
4 4 7 617 401 1
-4 4 -7 260 247 1
4 4 7 199 145 1
-4 -4 -7 258 310 1
4 -4 8 11952 1688 1
-4 -4 -8 12019 1416 1
-4 4 -8 14703 1611 1
4 4 8 12630 1835 1
4 4 9 10651 1929 1
4 -4 9 6052 1333 1
-4 -4 -9 8908 1398 1
-4 4 -9 8743 1426 1
-4 4 -10 63 221 1
4 -4 10 2 326 1
4 4 10 506 408 1
-4 -4 -10 2 205 1
-4 4 -11 2064 736 1
-4 -4 -11 1602 628 1
4 4 11 2761 955 1
-4 -5 14 7197 1213 1
4 -5 -14 7873 1650 1
4 5 -14 5340 1280 1
4 -5 -13 8083 1760 1
4 5 -13 6377 1353 1
-4 -5 13 5977 1153 1
-4 5 13 7133 1507 1
4 -5 -12 1626 539 1
-4 5 12 2885 801 1
4 5 -12 2370 664 1
-4 -5 12 1653 584 1
-4 -5 11 5892 1079 1
-4 5 11 5307 1009 1
4 -5 -11 4589 1076 1
4 5 -11 5786 1229 1
4 -5 -10 10669 1451 1
4 5 -10 9438 1414 1
-4 -5 10 13703 1543 1
4 -5 -9 7381 1282 1
-4 -5 9 7243 1230 1
4 5 -9 6485 837 1
4 5 -9 5676 1113 1
4 -5 -8 18569 1717 1
-4 -5 8 19554 1753 1
4 5 -8 16841 1147 1
-4 5 8 22238 2341 1
4 5 -8 18423 1698 1
4 -5 -7 407 357 1
4 5 -7 1172 413 1
-4 5 7 1918 869 1
4 5 -7 1109 596 1
-4 -5 7 810 343 1
-4 -5 7 1249 651 1
-4 5 6 54161 3106 1
4 5 -6 47137 2086 1
4 5 -6 47972 1568 1
-4 -5 6 54414 1607 1
4 -5 -6 45685 1793 1
-4 -5 6 55387 2750 1
-4 -5 5 7799 1029 1
-4 5 5 6471 1212 1
-4 -5 5 6982 641 1
4 5 -5 5091 800 1
-4 -5 5 5989 1040 1
4 -5 -5 6264 716 1
4 5 -5 6044 532 1
4 5 -4 12 105 1
-4 -5 4 70 112 1
-4 -5 4 125 245 1
-4 5 4 149 253 1
-4 -5 4 61 136 1
4 -5 -4 24 117 1
4 5 -4 64 91 1
-4 -5 3 9005 792 1
-4 -5 3 10277 1181 1
-4 -5 3 9810 684 1
-4 5 3 7547 1111 1
4 5 -3 10030 778 1
-4 5 3 7691 800 1
4 -5 -3 9407 863 1
4 5 -3 8591 588 1
4 -5 -3 8407 751 1
4 5 -2 11542 954 1
4 -5 -2 11950 831 1
4 5 -2 10716 483 1
-4 -5 2 12419 627 1
-4 5 2 12484 837 1
4 -5 -2 11820 783 1
-4 5 2 12430 1143 1
4 5 -2 11555 623 1
-4 -5 2 12533 1058 1
4 5 -1 9477 633 1
-4 -5 1 7870 249 1
4 -5 -1 8581 472 1
-4 5 1 10029 560 1
-4 -5 1 10222 673 1
-4 5 1 10304 729 1
-4 5 1 10358 551 1
4 5 -1 9671 471 1
4 -5 -1 9431 515 1
4 -5 -1 10685 772 1
-4 5 0 7692 727 1
4 5 0 5358 714 1
-4 -5 0 5664 295 1
4 -5 0 7229 720 1
4 -5 0 6304 715 1
4 -5 0 7970 942 1
-4 -5 0 8484 868 1
-4 5 0 7766 923 1
-4 -5 -1 41529 974 1
-4 -5 -1 44405 844 1
4 -5 1 44471 1817 1
4 -5 1 43636 1589 1
-4 5 -1 46379 1922 1
4 5 1 45080 1831 1
-4 5 -1 41351 1462 1
4 -5 2 85447 2783 1
4 5 2 84840 2911 1
4 -5 2 92143 2814 1
-4 5 -2 86021 2777 1
-4 5 -2 98467 2974 1
-4 -5 -2 98462 2358 1
4 5 3 48 33 1
4 -5 3 109 16 1
-4 -5 -3 39 66 1
4 5 3 284 275 1
-4 5 -3 90 145 1
-4 5 -3 73 58 1
-4 -5 -4 694 263 1
4 -5 4 938 225 1
-4 5 -4 804 204 1
-4 5 -4 1018 390 1
4 5 4 471 186 1
-4 -5 -4 775 283 1
4 5 4 611 399 1
-4 -5 -5 13861 896 1
-4 -5 -5 15521 1147 1
4 5 5 17853 1304 1
4 5 5 19081 1930 1
-4 5 -5 16618 676 1
-4 5 -5 16825 1357 1
-4 -5 -6 2407 415 1
-4 5 -6 1980 378 1
4 5 6 3261 561 1
-4 5 -6 2032 594 1
-4 -5 -6 1396 406 1
4 5 6 2059 745 1
-4 5 -7 529 124 1
-4 -5 -7 140 192 1
4 5 7 140 179 1
-4 -5 -8 9900 1358 1
4 5 8 8352 1635 1
-4 5 -8 9621 1377 1
4 5 9 2598 1063 1
-4 -5 -9 3057 877 1
-4 5 -9 2725 835 1
-4 -5 -10 6191 1156 1
4 5 10 4837 1290 1
-4 5 -10 3547 871 1
4 6 -14 1282 616 1
4 -6 -14 3050 1015 1
4 -6 -13 186 304 1
-4 -6 13 181 321 1
-4 6 13 2 188 1
4 6 -13 12 268 1
4 -6 -12 1611 749 1
-4 -6 12 1800 627 1
-4 6 12 966 618 1
4 6 -12 1334 649 1
4 -6 -11 842 403 1
-4 -6 11 395 183 1
4 6 -11 891 395 1
4 -6 -10 164 167 1
-4 -6 10 514 289 1
4 6 -10 655 370 1
4 -6 -9 36288 2441 1
-4 -6 9 35865 2371 1
-4 6 9 35911 2955 1
4 6 -9 33522 1791 1
4 6 -9 38379 2415 1
-4 6 8 8698 1247 1
-4 -6 8 10360 1152 1
4 6 -8 8246 741 1
4 6 -8 9282 1060 1
4 -6 -8 7610 964 1
4 -6 -7 6263 767 1
4 6 -7 6013 870 1
-4 6 7 6060 1082 1
4 6 -7 5543 632 1
-4 -6 7 6103 556 1
-4 -6 7 6803 1002 1
-4 -6 6 5301 993 1
-4 6 6 6627 1251 1
4 6 -6 4480 815 1
-4 -6 6 5562 562 1
4 -6 -6 3557 593 1
4 -6 -5 1257 183 1
4 6 -5 912 97 1
4 6 -5 1165 168 1
-4 -6 5 206 107 1
-4 -6 5 1018 206 1
-4 -6 5 1040 115 1
-4 -6 4 3050 483 1
-4 -6 4 3922 654 1
-4 6 4 3322 724 1
-4 -6 4 2712 280 1
4 6 -4 3575 503 1
4 -6 -4 3696 462 1
4 6 -4 3356 277 1
4 6 -3 20651 1739 1
-4 -6 3 22618 1434 1
-4 6 3 19554 1986 1
-4 -6 3 22429 1877 1
4 6 -3 18389 854 1
4 -6 -3 18900 1248 1
4 6 -3 20623 1214 1
4 6 -2 104 153 1
4 6 -2 95 252 1
-4 6 2 209 378 1
4 6 -2 62 121 1
-4 -6 2 59 162 1
-4 6 2 86 172 1
4 -6 -2 49 162 1
-4 -6 2 14 175 1
-4 -6 1 107 208 1
4 -6 -1 104 167 1
-4 -6 1 41 88 1
4 6 -1 144 223 1
-4 6 1 142 210 1
4 -6 -1 142 253 1
4 6 -1 106 96 1
-4 6 1 81 157 1
-4 6 1 156 233 1
4 6 -1 118 165 1
-4 6 0 13141 1156 1
4 6 0 15426 1448 1
-4 6 0 15485 1291 1
4 -6 0 14911 1520 1
-4 6 0 13251 1437 1
4 -6 0 13327 1089 1
-4 -6 0 14302 692 1
4 6 1 1849 392 1
-4 -6 -1 2096 179 1
-4 6 -1 2690 449 1
4 -6 1 2452 414 1
4 -6 1 1701 252 1
-4 6 -1 1567 250 1
-4 -6 -1 1920 186 1
-4 -6 -2 5669 474 1
4 6 2 6444 766 1
4 -6 2 6249 683 1
-4 6 -2 5612 645 1
4 -6 2 6073 648 1
-4 6 -2 6806 728 1
-4 6 -3 2130 345 1
-4 -6 -3 1544 261 1
4 -6 3 2824 420 1
-4 -6 -3 2000 256 1
-4 6 -3 3036 370 1
4 -6 3 2646 385 1
4 6 3 2317 397 1
-4 6 -4 356 217 1
4 -6 4 555 235 1
-4 -6 -4 438 288 1
-4 -6 -4 520 302 1
-4 6 -4 804 399 1
4 6 4 320 307 1
4 6 4 585 381 1
-4 6 -5 5020 782 1
-4 -6 -5 2768 457 1
-4 -6 -5 2976 546 1
4 6 5 3997 853 1
-4 6 -5 4376 458 1
4 6 5 3763 668 1
-4 -6 -6 1235 213 1
-4 6 -6 687 101 1
4 6 6 669 163 1
-4 6 -6 1593 433 1
-4 -6 -6 1770 405 1
4 6 6 1603 292 1
-4 6 -6 1482 176 1
4 6 7 6042 1378 1
-4 -6 -7 5057 904 1
4 6 7 7041 980 1
-4 6 -7 5376 1021 1
-4 6 -8 1626 593 1
4 6 8 2047 1020 1
-4 -6 -8 826 492 1
-4 6 -9 184 228 1
4 6 9 501 590 1
-4 -6 -9 621 467 1
-4 6 -10 2259 733 1
4 6 10 1517 803 1
-4 -6 -10 2603 787 1
4 7 -13 4144 1049 1
-4 7 13 3908 1056 1
4 -7 -13 4522 1094 1
4 -7 -12 8989 1673 1
4 7 -12 6983 1440 1
-4 7 12 6536 1337 1
-4 -7 12 8525 1405 1
4 7 -11 5 136 1
4 -7 -11 57 150 1
-4 -7 11 757 441 1
-4 7 11 516 450 1
4 -7 -10 14051 1947 1
-4 -7 10 13063 1751 1
4 7 -10 12976 1821 1
-4 7 10 15605 2474 1
4 7 -9 1 63 1
4 -7 -9 237 274 1
-4 -7 9 198 232 1
4 7 -9 569 242 1
-4 7 9 110 248 1
-4 -7 8 9906 1353 1
4 7 -8 7768 973 1
4 7 -8 9613 1324 1
-4 7 8 11697 1720 1
4 -7 -7 7046 828 1
4 7 -7 7746 1015 1
4 7 -7 5919 686 1
-4 7 7 8233 1289 1
-4 -7 7 6151 529 1
-4 -7 6 3379 789 1
-4 7 6 3020 882 1
4 -7 -6 2817 535 1
4 7 -6 3879 730 1
-4 -7 6 3540 431 1
4 7 -5 3026 634 1
-4 -7 5 3592 342 1
-4 7 5 3118 756 1
4 7 -5 4595 677 1
4 -7 -5 4043 530 1
-4 -7 5 4030 758 1
-4 -7 4 405 512 1
4 7 -4 2 206 1
4 7 -4 64 255 1
-4 -7 4 230 362 1
-4 -7 4 223 205 1
-4 7 4 80 375 1
4 7 -4 280 180 1
4 -7 -4 62 223 1
-4 -7 3 35999 2100 1
4 7 -3 33101 1357 1
-4 -7 3 36415 1633 1
4 7 -3 33427 2032 1
4 7 -3 31981 885 1
4 -7 -3 33222 1435 1
4 7 -2 1954 684 1
4 -7 -2 2000 508 1
-4 7 2 1825 550 1
-4 -7 2 2176 502 1
4 7 -2 1970 393 1
-4 7 2 2932 932 1
-4 -7 2 1599 635 1
4 7 -2 2196 389 1
4 7 -1 912 333 1
-4 -7 1 790 196 1
4 7 -1 1055 221 1
-4 7 1 787 394 1
4 -7 -1 1313 298 1
4 7 -1 898 162 1
-4 7 1 997 288 1
4 7 0 9878 1152 1
-4 7 0 9973 935 1
4 -7 0 9508 1166 1
4 -7 0 9536 818 1
-4 7 0 10866 1189 1
-4 -7 0 9269 582 1
-4 -7 -1 3991 381 1
4 7 1 5105 833 1
-4 7 -1 4203 635 1
4 -7 1 4754 752 1
-4 7 -1 3021 601 1
4 -7 1 4092 564 1
-4 -7 -2 21 155 1
-4 -7 -2 110 172 1
4 -7 2 109 348 1
4 7 2 38 209 1
-4 7 -2 57 238 1
4 -7 2 61 242 1
-4 7 -2 51 306 1
-4 7 -3 396 232 1
4 -7 3 375 224 1
-4 -7 -3 236 150 1
4 7 3 317 252 1
4 -7 3 251 186 1
-4 7 -3 304 244 1
4 7 4 1513 332 1
4 -7 4 1637 270 1
-4 -7 -4 1661 230 1
-4 7 -4 2693 372 1
4 -7 4 2293 360 1
-4 7 -4 1311 246 1
4 7 5 48 331 1
-4 -7 -5 6 105 1
-4 7 -5 120 272 1
4 7 5 147 159 1
-4 7 -5 208 215 1
4 7 6 328 398 1
-4 -7 -6 266 211 1
4 7 6 2 213 1
-4 7 -6 67 97 1
-4 7 -6 141 217 1
4 7 7 1104 374 1
4 7 7 1178 757 1
-4 -7 -7 1275 467 1
-4 7 -7 1610 556 1
-4 7 -8 994 434 1
-4 -7 -8 920 480 1
4 7 8 1353 568 1
4 7 8 1228 622 1
4 7 9 1601 764 1
-4 7 -9 1384 595 1
-4 -7 -9 1501 575 1
4 7 10 336 500 1
-4 7 -10 87 42 1
-4 -7 -10 177 195 1
4 8 -13 459 496 1
4 8 -13 5 193 1
4 -8 -13 715 547 1
-4 8 13 5 173 1
4 -8 -12 6768 1375 1
4 8 -12 6960 1125 1
4 8 -12 7260 1352 1
-4 8 12 8264 1805 1
4 8 -11 959 608 1
4 8 -11 630 484 1
4 -8 -11 897 606 1
-4 8 11 1772 1103 1
4 -8 -10 5520 1082 1
4 8 -10 5024 976 1
4 8 -10 6117 994 1
-4 -8 10 5037 930 1
-4 8 10 5615 1263 1
4 8 -9 11234 1266 1
4 8 -9 11370 1268 1
-4 8 9 10711 1504 1
-4 -8 9 13200 1357 1
4 -8 -9 12450 1372 1
4 8 -8 43700 2564 1
-4 -8 8 46806 2716 1
4 8 -8 39696 2036 1
-4 8 8 42889 3076 1
4 8 -8 47142 2622 1
-4 -8 8 42055 1453 1
4 -8 -7 3725 600 1
4 8 -7 4977 863 1
-4 -8 7 4302 832 1
4 8 -7 4830 785 1
-4 -8 7 3706 392 1
-4 8 7 3740 892 1
4 8 -6 975 455 1
4 8 -6 1032 465 1
-4 -8 6 701 435 1
-4 -8 6 847 233 1
-4 8 6 1182 654 1
4 -8 -6 1109 376 1
4 8 -5 982 524 1
4 8 -5 914 397 1
-4 -8 5 1532 630 1
-4 -8 5 816 209 1
-4 8 5 890 551 1
4 -8 -5 876 345 1
4 8 -4 1406 370 1
4 8 -4 1566 502 1
-4 -8 4 1231 480 1
4 -8 -4 1579 342 1
-4 -8 4 1345 410 1
-4 8 4 1661 673 1
4 8 -4 1027 151 1
4 8 -3 1498 183 1
4 8 -3 1908 317 1
-4 8 3 1411 288 1
4 8 -3 1893 127 1
-4 -8 3 2102 248 1
4 -8 -3 1811 210 1
4 8 -2 38894 2367 1
-4 8 2 37800 1900 1
-4 8 2 33456 2487 1
-4 -8 2 38482 1699 1
4 8 -2 36466 1087 1
4 -8 -2 33015 1523 1
4 8 -2 35193 1332 1
4 -8 -1 5848 586 1
4 8 -1 6767 890 1
-4 8 1 5686 849 1
-4 8 1 5886 667 1
4 8 -1 6428 513 1
-4 -8 1 6413 554 1
4 8 -1 5387 398 1
-4 8 0 27113 1691 1
-4 -8 0 27542 1183 1
-4 8 0 25479 2066 1
4 -8 0 25322 1465 1
-4 8 -1 1575 290 1
4 -8 1 2424 360 1
4 8 1 2067 459 1
-4 8 -1 1781 411 1
-4 -8 -1 2224 281 1
4 -8 2 15334 1423 1
4 8 2 18118 1682 1
-4 -8 -2 14617 839 1
4 -8 2 14433 1107 1
-4 8 -2 13881 1202 1
-4 8 -2 15447 1436 1
-4 -8 -3 17764 1288 1
4 -8 3 17344 1603 1
4 8 3 15661 1721 1
4 -8 3 15836 1375 1
-4 8 -3 18020 1637 1
-4 8 -3 17527 1629 1
4 8 4 1840 487 1
-4 -8 -4 1819 457 1
4 -8 4 2830 592 1
4 8 4 2992 781 1
-4 8 -4 2791 663 1
4 -8 4 2961 622 1
-4 8 -4 2746 597 1
-4 -8 -5 3639 697 1
-4 8 -5 2800 720 1
4 8 5 3848 885 1
-4 8 -5 4281 731 1
4 8 6 1420 589 1
4 8 6 2559 949 1
-4 -8 -6 2043 581 1
-4 8 -6 1355 399 1
-4 8 -6 1769 676 1
-4 -8 -7 5612 941 1
-4 8 -7 4888 906 1
4 8 7 6316 1004 1
4 8 7 4990 1164 1
4 8 8 1684 927 1
-4 8 -8 1198 578 1
-4 -8 -8 2179 692 1
4 8 8 1389 551 1
4 8 9 151 228 1
-4 -8 -9 279 343 1
-4 8 -9 231 289 1
-4 -8 -10 4667 1070 1
-4 8 -10 4219 1018 1
4 8 10 6014 1609 1
4 9 -13 4689 1101 1
4 9 -13 4386 1144 1
-4 9 13 3638 1121 1
4 -9 -13 4375 1253 1
-4 9 13 6115 1586 1
4 9 -12 1461 570 1
4 9 -12 1036 467 1
4 -9 -12 470 425 1
-4 9 12 2226 1012 1
4 9 -11 673 394 1
4 -9 -11 273 241 1
4 9 -11 302 277 1
-4 9 11 3 50 1
4 -9 -10 9061 1361 1
-4 9 10 10248 1706 1
4 9 -10 9146 1245 1
4 9 -10 10211 1389 1
-4 9 9 34492 3186 1
4 9 -9 40602 2885 1
4 9 -9 42723 2912 1
4 -9 -9 39346 2884 1
4 9 -8 2697 690 1
-4 -9 8 2193 303 1
4 9 -8 4205 813 1
-4 9 8 2680 790 1
4 9 -7 19312 2010 1
-4 9 7 17462 2309 1
4 9 -7 17715 1740 1
-4 -9 7 17108 933 1
-4 9 6 11847 1636 1
-4 -9 6 10067 538 1
4 9 -6 9482 1032 1
4 -9 -6 10478 955 1
4 9 -5 3573 515 1
4 9 -5 4100 642 1
-4 -9 5 3129 224 1
-4 9 5 2693 698 1
4 -9 -5 2646 357 1
4 9 -4 3621 713 1
4 9 -4 4904 587 1
-4 9 4 3393 765 1
4 -9 -4 3552 441 1
4 9 -3 2946 653 1
-4 9 3 4237 874 1
-4 -9 3 4568 612 1
4 9 -3 3148 422 1
4 9 -3 3350 190 1
4 -9 -3 4086 478 1
4 9 -2 12081 833 1
4 9 -2 12425 1403 1
-4 9 2 13711 1173 1
-4 -9 2 13590 1077 1
4 9 -2 13180 609 1
-4 9 2 12288 1512 1
4 -9 -2 13168 939 1
4 9 -1 16862 739 1
4 9 -1 20719 1638 1
-4 -9 1 15926 871 1
-4 9 1 17812 1160 1
4 -9 -1 16822 937 1
-4 9 1 16685 1451 1
4 9 -1 17922 790 1
4 9 0 14299 1544 1
-4 -9 0 13423 871 1
-4 9 0 14487 1198 1
-4 9 0 14060 1523 1
4 -9 0 12330 958 1
4 9 1 21280 1693 1
-4 9 -1 19168 1564 1
-4 -9 -1 20832 942 1
4 -9 1 20807 1143 1
-4 9 -1 22806 1435 1
-4 9 -2 163 236 1
4 9 2 364 336 1
-4 -9 -2 275 163 1
4 -9 2 294 203 1
-4 9 -2 292 247 1
-4 -9 -3 12159 977 1
4 9 3 12260 1419 1
4 -9 3 13435 1080 1
-4 9 -3 12231 1208 1
-4 -9 -3 11802 826 1
-4 9 -3 11241 1235 1
-4 -9 -4 2450 542 1
4 9 4 3850 877 1
-4 9 -4 3273 735 1
4 -9 4 3773 688 1
-4 9 -4 4276 819 1
-4 -9 -5 14280 1181 1
-4 9 -5 15963 1313 1
-4 9 -5 14897 1387 1
4 9 5 17050 1679 1
4 -9 5 15744 1275 1
-4 -9 -6 10270 1225 1
-4 9 -6 9402 1278 1
4 9 6 7499 1441 1
-4 9 -6 11192 1130 1
4 9 6 10836 1486 1
-4 -9 -7 654 350 1
4 9 7 737 284 1
4 9 7 1584 636 1
-4 9 -7 749 321 1
-4 -9 -8 879 455 1
4 9 8 862 610 1
4 9 8 520 376 1
-4 9 -8 1364 614 1
-4 9 -9 6264 1262 1
-4 -9 -9 6858 1245 1
4 9 9 6791 1670 1
4 -10 -12 371 360 1
4 10 -12 703 417 1
4 10 -12 18 229 1
-4 10 12 384 71 1
4 -10 -11 5833 1108 1
4 10 -11 5123 992 1
4 10 -11 7862 1339 1
-4 10 11 7115 1518 1
4 10 -10 9624 1404 1
-4 10 10 8917 1647 1
4 -10 -10 6408 1184 1
4 10 -10 7817 1287 1
4 10 -9 65152 3583 1
-4 10 9 70496 4448 1
4 10 -9 61297 3340 1
4 10 -8 111 317 1
4 10 -8 839 561 1
-4 10 8 340 541 1
-4 -10 7 469 132 1
4 10 -7 1171 518 1
4 10 -7 826 351 1
-4 10 7 863 487 1
4 -10 -6 925 159 1
4 10 -6 456 206 1
-4 -10 6 706 58 1
-4 10 6 1127 365 1
4 10 -6 988 209 1
4 -10 -5 404 204 1
4 10 -5 667 368 1
-4 10 5 27 100 1
4 10 -5 717 312 1
4 10 -4 3056 487 1
4 10 -4 3107 641 1
-4 10 4 4223 902 1
4 -10 -4 3740 465 1
4 10 -3 1314 266 1
4 10 -3 1345 408 1
-4 10 3 775 378 1
4 -10 -3 1289 272 1
-4 10 2 3 251 1
-4 -10 2 11 121 1
4 10 -2 27 201 1
-4 10 2 10 162 1
4 10 -2 12 116 1
4 10 -2 2 43 1
4 -10 -2 0 98 1
4 -10 -1 6632 672 1
-4 10 1 6033 792 1
4 10 -1 7259 553 1
4 10 -1 6233 556 1
4 10 -1 7647 1205 1
-4 10 1 7224 1162 1
-4 -10 1 6663 698 1
4 10 0 6998 900 1
-4 -10 0 6975 568 1
4 -10 0 7269 604 1
-4 10 0 8851 1067 1
-4 10 0 7314 721 1
4 10 1 339 440 1
-4 10 -1 165 283 1
-4 -10 -1 78 112 1
4 -10 1 31 87 1
-4 10 -1 96 122 1
4 10 2 25374 2194 1
-4 10 -2 21660 1811 1
4 -10 2 20050 1227 1
-4 10 -2 20197 1544 1
-4 -10 -2 19351 1055 1
4 10 3 12255 1563 1
-4 10 -3 10038 1154 1
4 -10 3 11252 1027 1
-4 10 -3 13193 1504 1
-4 -10 -3 11721 1032 1
-4 -10 -4 18754 1464 1
4 10 4 21034 2179 1
-4 10 -4 22887 1973 1
-4 10 -4 20143 1794 1
4 -10 4 19786 1471 1
-4 10 -5 1625 498 1
-4 10 -5 924 384 1
-4 -10 -5 679 253 1
4 10 5 791 355 1
4 -10 5 968 311 1
-4 10 -6 581 352 1
-4 -10 -6 575 214 1
4 -10 6 273 185 1
4 10 6 518 20 1
-4 10 -6 65 154 1
4 10 7 0 193 1
4 -10 7 238 301 1
-4 10 -7 0 141 1
-4 -10 -7 111 189 1
4 10 7 224 214 1
-4 10 -8 99 204 1
4 10 8 74 236 1
4 10 8 587 452 1
-4 -10 -8 515 443 1
4 10 9 2779 1045 1
-4 -10 -9 3162 874 1
-4 10 -9 4086 1086 1
4 11 -12 1624 698 1
4 -11 -12 3374 1036 1
4 11 -12 3549 1043 1
-4 11 12 2810 1140 1
4 11 -11 6386 1167 1
4 -11 -11 4897 1106 1
4 11 -11 6356 1205 1
-4 11 11 5900 1393 1
4 11 -10 11646 1758 1
-4 11 10 11939 2157 1
4 11 -10 14363 1839 1
4 -11 -10 15363 2035 1
4 11 -9 4040 901 1
-4 11 9 5073 1195 1
4 11 -9 5056 923 1
4 11 -8 677 324 1
4 11 -8 528 204 1
-4 11 8 33 393 1
4 11 -7 8406 1169 1
4 11 -7 9664 1138 1
-4 -11 7 6614 355 1
-4 11 7 8329 1379 1
4 11 -6 18206 1911 1
4 11 -6 22535 1856 1
4 -11 -6 20160 1491 1
-4 11 6 21756 2659 1
4 11 -5 4454 869 1
4 11 -5 3582 567 1
-4 11 5 4281 959 1
4 -11 -5 3711 497 1
4 -11 -4 4 109 1
4 11 -4 118 229 1
4 11 -4 118 96 1
4 11 -3 205 282 1
-4 11 3 104 218 1
4 11 -3 797 279 1
4 -11 -3 233 147 1
-4 11 2 3372 513 1
4 11 -2 3818 815 1
4 11 -2 3082 374 1
-4 11 2 2085 553 1
4 -11 -2 4100 437 1
4 11 -1 1955 409 1
4 11 -1 2326 802 1
-4 11 1 1381 658 1
4 11 -1 2006 352 1
4 -11 -1 1806 440 1
-4 11 1 2410 633 1
-4 -11 1 1977 513 1
-4 11 0 33 95 1
4 11 0 219 157 1
-4 11 0 5 200 1
-4 -11 0 283 184 1
4 -11 0 158 102 1
-4 11 -1 17730 1630 1
4 11 1 17581 2026 1
-4 -11 -1 16216 1187 1
4 -11 1 18178 1311 1
-4 11 -1 20309 2117 1
4 11 2 6859 1103 1
-4 11 -2 5878 971 1
4 -11 2 5645 597 1
-4 11 -2 5850 772 1
4 11 3 31886 2634 1
-4 11 -3 29531 2361 1
-4 11 -3 29523 2038 1
4 -11 3 35811 1939 1
-4 -11 -4 342 187 1
-4 11 -4 435 234 1
-4 11 -4 474 235 1
4 11 4 133 213 1
4 -11 4 283 117 1
-4 -11 -5 1125 320 1
-4 11 -5 1679 460 1
4 -11 5 1444 365 1
-4 11 -5 1480 477 1
4 11 5 1757 510 1
-4 11 -6 913 443 1
-4 -11 -6 753 362 1
4 11 6 810 484 1
-4 11 -6 384 327 1
4 -11 6 797 342 1
-4 11 -7 63 194 1
-4 -11 -7 78 21 1
4 11 7 152 363 1
4 11 7 362 504 1
4 -11 7 3 91 1
-4 -11 -8 1185 515 1
4 11 8 2961 835 1
4 11 8 1372 727 1
-4 11 -8 2147 672 1
4 -11 8 1515 505 1
-4 -11 -9 2394 755 1
4 11 9 4805 1415 1
4 -11 9 5226 996 1
-4 11 -9 3750 932 1
4 -12 -11 411 146 1
4 12 -11 35 152 1
4 12 -11 35 244 1
-4 12 11 596 493 1
4 12 -10 6660 1245 1
-4 12 10 5770 1415 1
4 12 -10 7630 1279 1
4 -12 -10 6790 1303 1
4 12 -9 2751 937 1
4 12 -9 1611 675 1
-4 12 9 2767 1122 1
-4 12 8 320 453 1
4 12 -8 1074 517 1
4 12 -8 917 398 1
4 12 -7 5533 1088 1
4 12 -7 6290 1069 1
-4 12 7 5590 1342 1
4 -12 -6 8989 1071 1
4 12 -6 7132 1202 1
4 12 -6 7706 999 1
-4 12 6 9413 1712 1
4 -12 -5 1 110 1
4 12 -5 2 73 1
4 12 -5 98 343 1
-4 12 5 191 500 1
4 -12 -4 1114 299 1
4 12 -4 2070 647 1
4 12 -4 895 289 1
-4 12 4 1380 560 1
4 -12 -3 398 277 1
4 12 -3 494 351 1
4 12 -3 1141 826 1
-4 12 3 819 662 1
4 12 -2 18575 2011 1
4 12 -2 16144 1089 1
-4 12 2 19625 2159 1
4 -12 -2 20467 1184 1
4 12 -1 2315 297 1
4 12 -1 2929 913 1
4 12 -1 2934 494 1
4 -12 -1 2547 477 1
-4 12 1 2518 877 1
4 12 -1 2374 334 1
-4 12 1 2066 575 1
4 12 0 3725 869 1
-4 12 0 4610 972 1
-4 12 0 5474 801 1
4 -12 0 5145 592 1
-4 12 -1 10905 1648 1
-4 12 -1 9678 1212 1
4 12 1 13027 1851 1
4 -12 1 9702 960 1
-4 12 -2 25778 2335 1
4 12 2 23325 2217 1
4 -12 2 22649 1392 1
-4 12 -2 22125 1748 1
4 12 3 241 392 1
4 -12 3 16 139 1
-4 12 -3 218 291 1
-4 -12 -4 924 338 1
4 12 4 1549 690 1
4 -12 4 1342 403 1
-4 12 -4 654 416 1
-4 12 -4 974 378 1
-4 -12 -5 5380 909 1
4 12 5 5425 1315 1
-4 12 -5 6516 1242 1
-4 12 -5 6564 1151 1
4 -12 5 6422 893 1
-4 12 -6 1722 570 1
-4 -12 -6 420 318 1
-4 12 -6 1098 568 1
4 -12 6 1413 429 1
-4 -12 -7 1168 459 1
4 12 7 3182 847 1
4 -12 7 2594 584 1
-4 12 -7 3055 818 1
4 -12 8 463 285 1
-4 12 -8 164 245 1
4 12 8 382 522 1
4 12 8 328 307 1
-4 -12 -8 725 474 1
4 -13 -11 3155 1025 1
4 13 -11 1011 571 1
4 13 -11 1868 764 1
-4 13 11 1040 700 1
4 13 -10 12229 1609 1
4 13 -10 13360 1767 1
-4 13 10 10406 1849 1
4 13 -9 1104 637 1
4 13 -9 709 398 1
-4 13 9 5 86 1
4 13 -8 10083 1496 1
4 13 -8 12319 1554 1
-4 13 8 7760 1588 1
4 13 -7 2481 901 1
-4 13 7 1450 816 1
4 13 -7 1687 604 1
4 13 -6 17404 1981 1
4 13 -6 15242 1377 1
-4 13 6 18443 2375 1
4 13 -5 15606 1885 1
-4 13 5 13825 1953 1
4 13 -5 11270 1103 1
4 -13 -5 12109 1027 1
4 13 -4 5466 1431 1
-4 13 4 3411 1214 1
4 13 -4 2977 676 1
4 -13 -4 3131 602 1
4 13 -3 13584 1147 1
4 13 -3 15409 1926 1
-4 13 3 15157 2012 1
4 -13 -3 14177 1034 1
4 13 -2 4954 1245 1
-4 13 2 6194 1444 1
4 13 -2 3779 641 1
4 -13 -2 4310 636 1
-4 13 1 33055 2137 1
4 -13 -1 33565 1569 1
4 13 -1 35050 2953 1
-4 13 1 36920 3120 1
4 13 -1 29958 984 1
4 13 -1 26436 779 1
4 13 0 4977 1049 1
-4 13 0 3626 938 1
-4 13 0 3305 650 1
4 -13 0 3552 502 1
4 13 1 84 284 1
-4 13 -1 368 454 1
-4 13 -1 219 256 1
4 -13 1 132 139 1
-4 13 -2 3440 829 1
4 13 2 3845 1133 1
-4 13 -2 3319 1027 1
4 -13 2 3947 657 1
-4 13 -3 797 423 1
4 -13 3 813 290 1
4 13 3 1541 716 1
-4 13 -3 953 549 1
4 -13 4 4110 712 1
-4 13 -4 5039 1009 1
-4 13 -4 3473 1063 1
4 13 4 4049 1131 1
-4 -13 -4 4629 833 1
-4 -13 -5 11432 1238 1
-4 13 -5 12443 1432 1
4 -13 5 14203 1208 1
4 13 5 14897 2025 1
-4 13 -5 14994 1789 1
-4 -13 -6 960 355 1
4 13 6 872 476 1
-4 13 -6 1074 361 1
4 -13 6 730 289 1
-4 13 -6 621 411 1
-4 13 -7 3821 847 1
-4 -13 -7 2864 695 1
4 -13 7 4337 720 1
4 13 7 3001 918 1
4 14 -10 0 381 1
4 14 -10 65 74 1
4 14 -9 5362 1078 1
4 14 -9 4279 1105 1
-4 14 9 6417 1608 1
4 14 -8 2 237 1
-4 14 8 3 469 1
4 14 -8 99 255 1
4 14 -7 7944 1513 1
4 14 -7 4532 872 1
-4 14 7 6086 1603 1
4 14 -6 4425 674 1
-4 14 6 5240 1114 1
4 14 -6 6145 1180 1
4 14 -5 4101 1226 1
4 14 -5 2880 629 1
4 -14 -5 2642 584 1
-4 14 5 2922 1070 1
4 -14 -4 368 167 1
4 14 -4 425 271 1
4 14 -4 117 491 1
-4 14 4 510 361 1
4 -14 -3 14 141 1
4 14 -3 28 214 1
-4 14 3 221 429 1
4 14 -3 61 141 1
4 -14 -2 975 322 1
4 14 -2 2060 889 1
-4 14 2 925 784 1
4 14 -2 962 388 1
4 14 -1 2012 892 1
-4 14 1 847 631 1
-4 14 1 1520 488 1
4 -14 -1 1524 364 1
4 14 0 12852 1646 1
-4 14 0 11214 1163 1
4 -14 0 12705 872 1
-4 14 0 14856 1789 1
-4 14 -1 1023 379 1
4 14 1 694 506 1
-4 14 -1 1355 669 1
4 -14 1 694 258 1
-4 14 -2 9051 1133 1
4 14 2 10128 1584 1
-4 14 -2 9866 1513 1
4 -14 2 9965 880 1
-4 14 -3 485 242 1
4 14 3 754 392 1
-4 14 -3 1312 469 1
4 -14 3 1068 291 1
4 14 4 1812 794 1
-4 14 -4 1848 782 1
4 -14 4 1216 361 1
-4 14 -4 1827 591 1
-4 14 -5 173 304 1
-4 14 -5 1 249 1
-4 -14 -5 64 65 1
4 14 5 459 468 1
4 -14 5 1 87 1
-4 -14 -6 412 358 1
-4 14 -6 454 401 1
-4 14 -6 1201 641 1
4 14 6 1030 833 1
4 -14 6 739 352 1
-4 -14 -7 6952 1153 1
4 -14 7 6796 934 1
-4 14 -7 5745 1103 1
4 14 7 6970 1474 1
4 15 -9 1188 674 1
-4 15 9 2189 799 1
4 15 -9 991 374 1
4 15 -8 5 241 1
4 15 -8 94 553 1
-4 15 8 20 417 1
4 15 -7 245 189 1
4 15 -7 874 559 1
-4 15 7 56 193 1
4 15 -6 1698 719 1
4 15 -6 2775 623 1
-4 15 6 2866 1071 1
4 15 -5 3592 1075 1
4 15 -5 3473 743 1
-4 15 5 3175 1142 1
4 15 -4 20710 1593 1
4 15 -4 20385 2421 1
-4 15 4 20682 2605 1
4 -15 -4 19282 1383 1
4 15 -3 3365 871 1
4 15 -3 3541 581 1
-4 15 3 3352 939 1
4 -15 -3 3439 487 1
4 -15 -2 432 187 1
4 15 -2 444 231 1
4 15 -2 1133 551 1
-4 15 2 333 343 1
4 15 -1 133 149 1
-4 15 1 530 166 1
-4 15 1 691 346 1
4 -15 -1 364 85 1
-4 15 0 55 270 1
-4 15 0 486 331 1
4 15 0 195 338 1
4 -15 0 267 160 1
4 15 1 6537 1567 1
4 -15 1 4655 679 1
-4 15 -1 4695 1316 1
-4 15 -1 6740 1191 1
-4 15 -2 19984 1819 1
4 15 2 21582 2496 1
4 -15 2 18545 1204 1
4 15 3 207 370 1
-4 15 -3 912 460 1
4 -15 3 297 118 1
-4 15 -3 335 321 1
-4 15 -4 6227 1269 1
4 -15 4 4609 668 1
4 15 4 5403 1304 1
-4 15 -4 4504 918 1
-4 -15 -5 9020 1252 1
4 15 5 10326 1872 1
-4 15 -5 8120 1519 1
4 -15 5 8276 936 1
-4 15 -5 8477 1354 1
4 15 6 2004 967 1
-4 -15 -6 1127 490 1
-4 15 -6 1494 635 1
-4 15 -6 1959 634 1
4 16 -9 5408 1413 1
4 16 -9 7033 1292 1
-4 16 9 7791 1942 1
4 16 -8 8530 1672 1
-4 16 8 5981 1618 1
4 16 -8 4262 932 1
4 16 -7 81 455 1
-4 16 7 2 117 1
4 16 -7 149 183 1
4 16 -6 301 279 1
4 16 -6 0 417 1
-4 16 6 406 531 1
4 16 -5 327 193 1
4 16 -5 521 444 1
-4 16 5 292 454 1
4 -16 -4 5960 812 1
4 16 -4 6727 913 1
4 16 -4 4883 1172 1
-4 16 4 6354 1465 1
4 -16 -3 2031 348 1
4 16 -3 1197 242 1
4 16 -3 2279 685 1
-4 16 3 2575 753 1
4 16 -2 3711 665 1
4 16 -2 3929 1174 1
-4 16 2 4976 1326 1
4 -16 -2 3736 578 1
-4 16 1 680 381 1
-4 16 1 1019 615 1
4 16 -1 1636 808 1
4 -16 -1 1572 363 1
-4 16 0 13 158 1
-4 16 0 34 393 1
4 16 0 10 258 1
4 -16 0 9 55 1
4 16 1 12327 2015 1
-4 16 -1 11411 1432 1
4 -16 1 12246 986 1
-4 16 -1 15257 2228 1
4 16 2 918 668 1
-4 16 -2 721 512 1
4 -16 2 788 290 1
-4 16 -2 102 216 1
4 16 3 4308 1252 1
-4 16 -3 7663 1280 1
-4 16 -3 6682 1521 1
4 -16 3 7234 838 1
-4 16 -4 3625 875 1
4 16 4 5719 1404 1
-4 16 -4 5357 1313 1
-4 -16 -5 4619 932 1
4 16 5 5431 1404 1
-4 16 -5 4866 1202 1
-4 16 -5 6659 1234 1
4 17 -8 352 153 1
4 17 -8 1066 432 1
-4 17 8 1235 758 1
4 17 -7 11747 1961 1
-4 17 7 17748 2811 1
4 17 -7 15819 1623 1
4 17 -6 1522 658 1
-4 17 6 2520 962 1
4 17 -6 2711 665 1
4 17 -5 559 645 1
4 17 -5 225 277 1
-4 17 5 492 356 1
-4 17 4 125 565 1
4 17 -4 59 524 1
4 17 -4 346 276 1
4 -17 -3 1651 405 1
4 17 -3 3062 953 1
4 17 -3 1799 444 1
-4 17 3 2019 898 1
4 -17 -2 48 38 1
4 17 -2 49 393 1
4 17 -2 42 109 1
-4 17 2 67 484 1
4 -17 -1 1008 302 1
-4 17 1 1284 714 1
-4 17 1 1137 448 1
4 17 -1 1073 664 1
4 -17 0 268 124 1
-4 17 0 336 195 1
-4 17 0 1024 661 1
4 17 0 382 369 1
4 17 1 894 645 1
-4 17 -1 1021 547 1
-4 17 -1 103 163 1
4 17 2 1334 825 1
-4 17 -2 1616 804 1
-4 17 -2 2689 776 1
-4 17 -3 682 261 1
4 17 3 1083 705 1
-4 17 -3 1512 515 1
4 17 4 2597 1078 1
-4 17 -4 2192 784 1
-4 17 -4 3492 1226 1
4 18 -6 569 306 1
4 18 -6 1016 612 1
-4 18 6 1183 653 1
4 18 -5 4263 851 1
4 18 -5 6198 1521 1
-4 18 5 6672 1788 1
4 18 -4 37 181 1
4 18 -4 5 61 1
-4 18 4 150 514 1
4 18 -3 1440 394 1
4 18 -3 1261 631 1
-4 18 3 2084 923 1
4 -18 -2 1623 331 1
4 18 -2 3317 1027 1
-4 18 2 2458 988 1
4 18 -1 600 668 1
-4 18 1 1085 775 1
-4 18 0 347 104 1
4 18 0 264 341 1
-4 18 0 700 408 1
4 18 1 1175 562 1
-4 18 -1 1086 577 1
-4 18 -1 1502 500 1
-4 18 -2 378 247 1
4 18 2 1063 776 1
-4 18 -2 252 411 1
4 18 3 1184 516 1
-4 18 -3 3020 874 1
-4 18 -3 3361 844 1
4 19 -4 525 457 1
4 19 -4 130 185 1
-4 19 4 800 602 1
-4 19 3 2 350 1
4 19 -3 7 160 1
4 19 -3 2 49 1
4 19 -2 6192 1503 1
-4 19 2 5350 1505 1
4 19 -1 30 355 1
-4 19 1 30 160 1
4 19 0 216 416 1
-4 19 0 114 341 1
-4 19 0 489 345 1
5 0 -13 1411 689 1
5 0 -11 831 235 1
-5 0 11 1227 284 1
5 0 -9 10908 1629 1
-5 0 9 5637 576 1
5 0 -7 22201 1626 1
5 0 -7 19423 1140 1
5 0 -5 62095 2038 1
5 0 -5 62148 1668 1
-5 0 3 15776 754 1
5 0 -3 15667 690 1
5 0 -3 18821 1226 1
5 0 -1 1775 311 1
-5 0 1 2519 730 1
5 0 -1 1653 454 1
5 0 -1 1498 521 1
-5 0 -1 69446 1867 1
5 0 1 67812 2156 1
5 0 1 68497 3548 1
5 0 3 7633 571 1
5 0 3 9739 1237 1
5 0 3 8529 655 1
-5 0 -3 8072 1007 1
-5 0 -5 712 188 1
5 0 5 936 359 1
-5 0 -7 40612 2553 1
5 0 7 46765 3750 1
-5 0 -9 325 469 1
5 0 9 21 164 1
5 1 -14 778 524 1
5 -1 -14 172 198 1
5 1 -13 1730 832 1
5 -1 -13 2269 955 1
5 -1 -12 460 503 1
-5 1 12 561 358 1
5 1 -12 367 460 1
-5 1 11 9194 963 1
5 -1 -11 9639 1517 1
5 1 -11 10283 1539 1
5 -1 -10 1036 329 1
5 1 -10 856 306 1
-5 1 10 1691 306 1
5 -1 -9 453 174 1
5 1 -9 1222 409 1
-5 1 9 1196 272 1
5 -1 -8 241 127 1
5 1 -8 204 112 1
5 -1 -8 35 164 1
-5 1 8 105 52 1
5 1 -8 360 196 1
5 -1 -7 2078 280 1
5 1 -7 1524 238 1
5 -1 -7 2086 365 1
5 1 -7 1689 378 1
5 -1 -6 1540 490 1
5 1 -6 1370 424 1
5 -1 -6 1320 340 1
5 1 -6 1420 341 1
5 1 -5 5555 575 1
-5 1 5 5277 395 1
-5 -1 5 5196 509 1
5 1 -5 4504 411 1
5 -1 -5 5410 471 1
5 -1 -5 4084 477 1
5 1 -4 36170 1630 1
-5 -1 4 36809 1671 1
5 1 -4 34403 1591 1
-5 1 4 37506 1633 1
5 -1 -4 34209 1622 1
5 1 -3 30242 1189 1
-5 -1 3 31764 1422 1
5 -1 -3 34812 2198 1
-5 1 3 33864 1697 1
5 1 -3 29612 1356 1
-5 -1 3 30653 1402 1
5 1 -3 32826 1444 1
5 -1 -3 30504 1453 1
5 1 -2 2324 121 1
-5 -1 2 2096 231 1
5 1 -2 1739 190 1
-5 1 2 2087 225 1
5 -1 -2 2267 158 1
-5 -1 2 1991 168 1
-5 1 2 2036 190 1
5 1 -2 2514 217 1
5 -1 -2 2334 212 1
5 -1 -2 2399 265 1
5 1 -1 2784 157 1
5 -1 -1 3289 222 1
-5 -1 1 2486 263 1
-5 1 1 2901 360 1
5 -1 -1 2890 312 1
5 1 -1 3392 282 1
5 -1 -1 3115 279 1
-5 1 1 2967 189 1
5 1 -1 3132 358 1
5 -1 -1 3018 318 1
-5 1 0 1411 260 1
-5 -1 0 1330 187 1
5 1 0 1283 220 1
-5 1 0 2338 600 1
5 1 0 1674 491 1
5 1 0 1286 350 1
5 -1 0 1510 385 1
-5 -1 0 1376 485 1
5 -1 0 1280 371 1
5 -1 0 1370 290 1
5 -1 0 1742 486 1
5 -1 1 226 243 1
-5 -1 -1 176 179 1
-5 1 -1 304 243 1
5 1 1 520 459 1
5 1 1 285 219 1
5 -1 1 391 346 1
5 -1 1 423 475 1
5 -1 1 126 235 1
5 -1 2 2274 410 1
5 1 2 2925 250 1
-5 1 -2 2851 309 1
5 1 2 2091 342 1
-5 -1 -2 1750 156 1
5 -1 2 2761 261 1
5 -1 2 2725 329 1
5 1 2 2481 239 1
-5 -1 -3 82 57 1
5 1 3 189 92 1
5 1 3 110 161 1
-5 1 -3 328 199 1
5 1 3 137 246 1
5 -1 3 0 216 1
5 -1 3 281 147 1
5 1 4 18123 1715 1
5 -1 4 17082 1663 1
-5 -1 -4 14742 1048 1
-5 1 -4 17272 1203 1
5 1 5 4901 1034 1
-5 -1 -5 3213 526 1
-5 1 -5 4173 628 1
5 -1 5 5639 1023 1
-5 -1 -6 186 217 1
-5 1 -6 11 153 1
5 1 6 12 180 1
5 -1 6 16 116 1
5 1 7 12447 1848 1
5 -1 7 8683 1506 1
-5 -1 -7 9833 1154 1
-5 1 -7 8500 1107 1
5 1 8 15223 2221 1
5 -1 8 14134 1994 1
-5 -1 -8 12024 1428 1
-5 1 -8 11229 1410 1
-5 -1 -9 2991 810 1
-5 1 -9 2741 788 1
5 1 9 3972 1245 1
5 -1 9 3961 1199 1
-5 -1 -10 1734 716 1
-5 1 -10 3259 895 1
5 1 10 1158 592 1
5 -1 10 2965 1081 1
5 -2 -14 2533 854 1
5 2 -14 2959 856 1
5 -2 -13 117 270 1
5 2 -13 66 104 1
5 -2 -12 981 405 1
5 2 -12 1144 388 1
-5 2 12 1182 337 1
-5 2 11 2309 468 1
5 -2 -11 1805 651 1
5 -2 -10 10762 1303 1
5 2 -10 11777 1454 1
-5 2 10 12289 1177 1
5 -2 -9 41524 2558 1
5 2 -9 41979 2616 1
-5 2 9 40444 1725 1
5 -2 -8 4573 647 1
5 2 -8 3813 576 1
5 -2 -8 3935 444 1
5 -2 -7 3718 694 1
5 2 -7 4173 728 1
5 2 -7 3326 461 1
5 -2 -7 3349 494 1
5 -2 -6 1011 144 1
5 -2 -6 465 77 1
5 2 -6 346 111 1
-5 -2 5 1280 249 1
5 2 -5 1399 310 1
5 2 -5 1619 256 1
5 -2 -5 1132 210 1
5 2 -4 68640 2113 1
5 2 -4 65227 1640 1
-5 2 4 61917 2037 1
-5 -2 4 66442 1983 1
5 2 -4 68542 1932 1
5 -2 -4 65822 2069 1
5 2 -3 18917 789 1
5 -2 -3 20056 938 1
-5 -2 3 22751 1096 1
5 -2 -3 21725 1151 1
5 2 -3 20986 1089 1
-5 2 3 20637 1220 1
5 2 -3 21290 1061 1
5 -2 -3 21850 1571 1
5 -2 -2 9098 1262 1
5 2 -2 8067 549 1
5 2 -2 8773 465 1
5 -2 -2 10234 870 1
5 2 -2 10501 1005 1
5 2 -2 8173 1048 1
-5 2 2 7539 943 1
-5 2 2 9093 1220 1
-5 -2 2 10919 1070 1
5 -2 -2 10095 1021 1
-5 2 1 727 171 1
5 2 -1 856 222 1
5 -2 -1 997 202 1
5 2 -1 980 352 1
-5 2 1 490 222 1
5 -2 -1 609 180 1
5 -2 -1 1191 330 1
5 -2 0 69314 2385 1
-5 2 0 76928 2149 1
5 2 0 53367 1217 1
-5 -2 0 63901 1006 1
5 2 0 61668 3179 1
5 -2 0 54760 2832 1
-5 2 0 63194 3352 1
5 2 0 63083 2547 1
5 -2 0 62547 2512 1
5 -2 0 57040 2552 1
5 2 1 183 149 1
5 -2 1 145 170 1
-5 -2 -1 225 109 1
5 2 1 94 66 1
5 2 1 73 93 1
5 -2 1 345 230 1
-5 2 -1 255 178 1
5 -2 1 82 170 1
5 -2 1 293 210 1
5 2 2 19707 1099 1
5 2 2 20464 1162 1
-5 2 -2 23703 1415 1
5 2 2 24237 2182 1
5 -2 2 26593 2230 1
5 -2 2 22490 1562 1
-5 -2 -2 22711 1202 1
5 -2 2 24585 1230 1
-5 -2 -3 36 105 1
5 2 3 16 77 1
5 2 3 9 76 1
5 2 3 0 107 1
5 -2 3 16 201 1
-5 -2 -3 30 110 1
-5 2 -3 41 171 1
5 2 4 18110 1367 1
5 2 4 21198 2291 1
5 2 4 16569 907 1
-5 -2 -4 19526 1417 1
-5 2 -4 20499 1543 1
5 -2 5 22841 2260 1
5 2 5 18176 2118 1
-5 -2 -5 15085 1335 1
-5 2 -5 20048 1619 1
-5 -2 -6 30024 2144 1
5 2 6 33405 3250 1
-5 2 -6 38285 2549 1
-5 -2 -7 2324 617 1
-5 2 -7 1684 596 1
5 2 7 1769 721 1
5 -2 7 1517 709 1
-5 -2 -8 323 155 1
-5 2 -8 388 130 1
5 2 8 405 343 1
5 -2 8 1012 582 1
-5 -2 -9 3577 860 1
5 2 9 5992 1485 1
5 -2 9 3082 1054 1
-5 2 -9 5792 1126 1
5 2 10 20264 2850 1
5 -2 10 19043 2624 1
-5 -2 -10 19749 2099 1
-5 2 -10 20627 2247 1
-5 -3 14 2718 819 1
5 -3 -14 2662 911 1
5 3 -14 2837 914 1
5 -3 -13 70 293 1
5 3 -13 69 373 1
5 -3 -12 27 303 1
-5 3 12 27 60 1
5 3 -12 0 182 1
-5 3 11 0 188 1
5 3 -11 56 295 1
5 -3 -11 0 180 1
5 -3 -10 2770 804 1
5 3 -10 3497 924 1
-5 3 10 2373 551 1
5 -3 -9 467 232 1
5 3 -9 1246 361 1
5 -3 -8 5622 891 1
5 -3 -8 5162 667 1
5 3 -8 5587 876 1
5 3 -7 219 259 1
5 -3 -7 288 406 1
5 3 -7 658 486 1
5 -3 -7 373 311 1
-5 -3 6 2994 579 1
5 3 -6 3516 631 1
-5 -3 6 3972 537 1
5 -3 -6 2673 447 1
5 3 -6 3159 430 1
-5 -3 5 25023 1471 1
5 3 -5 23683 1499 1
-5 -3 5 24170 1313 1
-5 3 5 25348 2400 1
5 3 -5 22321 1097 1
5 -3 -5 21798 1269 1
5 3 -4 7438 768 1
5 3 -4 9267 780 1
-5 -3 4 9600 871 1
5 3 -4 8776 756 1
5 -3 -4 7631 816 1
-5 -3 3 2272 437 1
5 3 -3 1498 300 1
5 3 -3 1815 442 1
-5 3 3 1495 427 1
5 3 -3 2080 405 1
-5 3 3 2562 874 1
5 -3 -3 1261 371 1
5 -3 -3 1426 357 1
5 -3 -3 1185 476 1
5 -3 -2 13850 792 1
5 3 -2 14873 1045 1
-5 3 2 15313 1150 1
5 -3 -2 15701 1238 1
5 3 -2 15921 907 1
5 -3 -2 15128 952 1
5 -3 -1 1115 51 1
5 -3 -1 1536 150 1
5 3 -1 1569 40 1
-5 3 1 1572 174 1
5 3 -1 1500 97 1
-5 3 1 1399 37 1
5 -3 -1 1603 127 1
-5 3 1 2077 329 1
-5 3 0 28353 1271 1
5 -3 0 28783 1459 1
5 -3 0 25013 1396 1
5 3 0 29977 2061 1
5 -3 0 26675 1586 1
-5 3 0 31566 1897 1
5 3 1 7739 585 1
-5 -3 -1 9136 652 1
5 -3 1 9412 666 1
5 -3 1 9407 899 1
-5 3 -1 7708 530 1
5 -3 1 9339 727 1
5 3 1 9358 1007 1
5 -3 1 8575 689 1
-5 -3 -1 7406 345 1
5 3 2 1200 355 1
-5 3 -2 1871 455 1
5 -3 2 1551 380 1
5 -3 2 1682 516 1
5 -3 2 1648 612 1
-5 -3 -2 1685 342 1
5 3 2 1433 622 1
-5 -3 -2 1726 414 1
5 3 2 1436 308 1
5 3 3 2 27 1
5 -3 3 138 75 1
5 3 3 64 96 1
5 3 3 56 257 1
5 -3 3 200 316 1
-5 3 -3 170 190 1
-5 -3 -3 100 64 1
5 3 4 8229 775 1
-5 3 -4 11196 1075 1
5 -3 4 12965 1500 1
5 3 4 9580 734 1
5 3 4 7950 1242 1
-5 -3 -4 7534 751 1
-5 3 -5 2212 388 1
5 3 5 1389 458 1
5 3 5 1771 205 1
-5 -3 -5 1076 241 1
5 -3 5 1086 302 1
-5 3 -6 246 187 1
5 3 6 108 267 1
5 -3 6 510 420 1
-5 -3 -6 130 185 1
5 3 7 1491 838 1
5 -3 7 2761 1025 1
-5 -3 -7 1970 675 1
-5 3 -7 3808 964 1
-5 3 -8 1 62 1
5 3 8 19 195 1
5 -3 8 178 367 1
-5 -3 -8 32 238 1
-5 3 -9 1837 666 1
5 3 9 416 458 1
5 -3 9 677 592 1
-5 -3 -9 1778 672 1
-5 3 -10 3833 966 1
5 3 10 4524 1282 1
5 -3 10 4160 1279 1
-5 -3 -10 3341 869 1
-5 -4 14 1349 601 1
5 -4 -14 2996 1088 1
5 4 -14 2061 876 1
-5 -4 13 2997 849 1
5 -4 -13 1180 742 1
5 4 -13 1731 768 1
5 -4 -12 25 116 1
-5 4 12 476 337 1
5 4 -12 566 398 1
-5 -4 12 181 131 1
-5 4 11 8340 896 1
5 -4 -11 10666 1334 1
5 4 -11 10411 1322 1
5 -4 -10 0 104 1
5 4 -10 346 277 1
5 -4 -9 108 147 1
5 4 -9 467 180 1
5 -4 -8 4946 943 1
5 4 -8 6427 1073 1
5 -4 -8 5341 766 1
5 4 -7 1901 495 1
5 -4 -7 2050 382 1
-5 4 7 2516 724 1
5 4 -7 1844 329 1
5 -4 -6 26 120 1
5 4 -6 37 125 1
5 4 -6 147 231 1
-5 -4 6 43 127 1
-5 4 6 3 101 1
-5 -4 5 14869 907 1
5 4 -5 14517 946 1
-5 -4 5 13165 739 1
-5 4 5 16282 1546 1
5 -4 -5 15014 857 1
5 4 -5 13685 661 1
-5 -4 4 14549 908 1
5 4 -4 14787 946 1
-5 4 4 13924 1477 1
5 4 -4 13855 794 1
-5 -4 4 13213 820 1
5 -4 -4 14005 961 1
-5 -4 3 3817 287 1
5 4 -3 3526 207 1
5 -4 -3 3796 285 1
5 4 -3 3647 253 1
5 -4 -3 3658 289 1
-5 4 3 3912 418 1
-5 -4 3 3218 186 1
5 -4 -2 16886 1385 1
-5 4 2 16177 1333 1
5 -4 -2 15218 983 1
5 4 -2 16375 1121 1
5 4 -2 17135 921 1
5 -4 -2 14253 884 1
-5 4 2 15737 1236 1
5 -4 -1 718 163 1
5 4 -1 780 206 1
-5 4 1 1179 185 1
5 -4 -1 726 192 1
5 4 -1 963 182 1
5 -4 -1 896 171 1
-5 4 1 796 174 1
5 4 0 5418 591 1
-5 4 0 5988 535 1
5 -4 0 6243 624 1
-5 -4 0 7138 716 1
5 4 0 5220 698 1
5 -4 0 5508 648 1
5 -4 0 6415 602 1
-5 4 0 4678 563 1
5 4 1 9141 999 1
-5 4 -1 9265 911 1
5 -4 1 12676 1257 1
-5 -4 -1 10280 1046 1
5 4 1 10314 1498 1
5 -4 1 10630 1101 1
-5 4 -1 9341 1031 1
-5 -4 -1 8053 509 1
-5 4 -2 1037 345 1
5 4 2 1368 428 1
5 4 2 879 436 1
-5 -4 -2 963 243 1
5 -4 2 1047 431 1
5 -4 2 893 307 1
-5 4 -2 1591 455 1
-5 -4 -3 8944 940 1
5 -4 3 9456 803 1
-5 4 -3 10784 1228 1
5 4 3 8938 1059 1
5 4 3 11664 1872 1
5 -4 3 12563 1715 1
-5 4 -4 6505 944 1
5 4 4 4754 669 1
-5 -4 -4 4948 728 1
5 -4 4 5910 1152 1
5 4 4 4529 1163 1
-5 4 -5 8604 1190 1
-5 -4 -5 6477 930 1
5 4 5 5125 1272 1
5 -4 5 7762 1417 1
5 4 5 7031 833 1
-5 4 -6 597 405 1
5 4 6 111 395 1
5 -4 6 939 552 1
5 4 6 845 317 1
-5 -4 -6 252 287 1
-5 4 -6 440 182 1
-5 -4 -7 5719 976 1
5 -4 7 4967 1168 1
5 4 7 5050 1242 1
-5 4 -7 4210 878 1
-5 4 -8 75 145 1
5 4 8 452 664 1
5 -4 8 1 146 1
-5 -4 -8 148 218 1
-5 -4 -9 148 213 1
-5 4 -9 3 65 1
5 -4 9 421 512 1
-5 4 -10 391 286 1
5 4 10 411 568 1
5 -4 10 1 330 1
-5 -4 -10 111 185 1
-5 -5 14 625 374 1
5 -5 -14 534 548 1
5 5 -14 567 456 1
5 -5 -13 7630 1564 1
-5 -5 13 8863 1429 1
-5 5 13 9154 1454 1
5 5 -13 8817 1521 1
5 -5 -12 96 293 1
-5 5 12 5 114 1
5 5 -12 274 421 1
-5 -5 12 87 373 1
5 -5 -11 7721 1333 1
5 5 -11 7521 1332 1
-5 -5 11 7804 1278 1
-5 -5 10 4657 771 1
5 -5 -10 2868 501 1
5 5 -10 3371 626 1
5 -5 -9 24 147 1
5 5 -9 125 292 1
-5 5 9 384 486 1
5 5 -8 4249 712 1
5 5 -8 1986 207 1
-5 5 8 4105 1024 1
5 -5 -8 3993 691 1
5 -5 -8 2653 442 1
5 5 -7 8349 748 1
5 5 -7 5657 455 1
5 5 -7 8106 1055 1
-5 5 7 9609 1554 1
5 -5 -7 7724 816 1
5 5 -6 5343 830 1
-5 -5 6 5685 635 1
-5 5 6 5426 1163 1
5 -5 -6 5396 695 1
5 5 -6 5674 561 1
-5 -5 5 29257 1576 1
5 5 -5 28917 1523 1
-5 5 5 32574 2473 1
-5 -5 5 30266 1268 1
5 -5 -5 30435 1504 1
5 5 -5 28226 1108 1
-5 -5 4 18941 896 1
5 5 -4 20329 922 1
-5 -5 4 20436 854 1
-5 5 4 18906 1431 1
5 5 -4 19945 768 1
5 -5 -4 19977 1004 1
-5 -5 3 283 117 1
5 5 -3 369 122 1
5 5 -3 413 160 1
5 -5 -3 154 109 1
5 -5 -2 1010 155 1
-5 -5 2 775 48 1
5 5 -2 655 30 1
5 5 -2 873 82 1
-5 -5 2 910 108 1
-5 5 2 837 62 1
-5 5 1 75188 2940 1
5 5 -1 77235 2745 1
5 -5 -1 79113 3148 1
-5 5 1 81742 2335 1
5 5 -1 82777 2299 1
5 -5 -1 71477 2236 1
-5 -5 1 78500 2870 1
5 -5 0 1141 334 1
5 5 0 1621 424 1
-5 -5 0 1407 424 1
5 5 0 936 394 1
-5 5 0 1276 426 1
-5 5 0 1210 327 1
5 -5 0 1636 517 1
5 5 1 63907 2492 1
5 -5 1 66248 2578 1
-5 -5 -1 68439 2441 1
-5 -5 -1 58844 1207 1
5 5 1 63667 3076 1
-5 5 -1 67309 2502 1
-5 5 -1 69020 2354 1
5 -5 1 66079 2428 1
-5 -5 -1 63810 980 1
5 5 2 16758 1153 1
5 -5 2 16618 1012 1
-5 -5 -2 19154 837 1
5 5 2 13080 1259 1
-5 5 -2 18110 1143 1
-5 5 -2 17252 1045 1
5 -5 2 18653 1217 1
5 -5 3 24818 1256 1
5 5 3 23815 1601 1
-5 5 -3 24632 1596 1
-5 -5 -3 25112 1333 1
5 5 3 26982 2562 1
5 -5 3 24837 1713 1
-5 5 -3 27697 1413 1
5 -5 4 730 272 1
-5 -5 -4 761 427 1
-5 5 -4 1657 483 1
-5 5 -4 874 537 1
5 5 4 708 628 1
5 5 4 869 481 1
-5 5 -5 8654 1104 1
-5 -5 -5 6502 850 1
5 5 5 9475 1032 1
-5 5 -6 3923 850 1
-5 -5 -6 4166 767 1
5 5 6 3231 557 1
5 5 6 4073 1141 1
5 5 7 542 468 1
-5 5 -7 740 406 1
-5 -5 -7 665 329 1
-5 5 -8 3308 829 1
5 5 8 3484 969 1
-5 -5 -8 3524 738 1
5 5 9 3121 952 1
-5 -5 -9 2377 696 1
-5 5 -9 3740 915 1
-5 5 -10 0 235 1
5 5 10 348 536 1
-5 -5 -10 115 293 1
-5 -6 14 1494 505 1
5 -6 -14 2819 967 1
5 6 -14 1020 531 1
5 -6 -13 908 426 1
-5 -6 13 666 320 1
5 6 -13 765 391 1
5 -6 -12 15210 1910 1
5 6 -12 14846 1776 1
-5 6 12 14071 1550 1
-5 -6 12 16339 1821 1
-5 -6 11 5395 1170 1
5 -6 -11 5070 1219 1
5 6 -11 3814 1006 1
5 -6 -10 488 313 1
-5 -6 10 719 362 1
5 6 -10 84 156 1
5 -6 -9 10556 1285 1
-5 -6 9 13419 1440 1
5 6 -9 12104 1241 1
5 6 -9 10509 727 1
5 -6 -8 9499 879 1
5 6 -8 8410 598 1
5 6 -8 8039 923 1
-5 6 8 11474 1524 1
-5 -6 8 11010 1253 1
5 -6 -7 412 170 1
5 6 -7 518 154 1
-5 -6 7 465 175 1
-5 -6 7 966 371 1
-5 6 7 337 298 1
5 6 -7 139 189 1
-5 -6 6 1206 610 1
-5 6 6 1339 715 1
5 6 -6 1091 477 1
-5 -6 6 1012 326 1
5 -6 -6 1353 422 1
5 6 -6 1411 327 1
5 6 -5 78 128 1
-5 -6 5 24 190 1
5 6 -5 24 159 1
-5 -6 5 19 123 1
-5 6 5 234 384 1
-5 -6 5 16 164 1
5 -6 -5 31 144 1
-5 -6 4 61052 2208 1
5 6 -4 56491 1991 1
-5 6 4 56148 3114 1
-5 -6 4 55478 1701 1
5 6 -4 52480 1445 1
5 -6 -4 58551 2094 1
-5 -6 4 57379 2883 1
5 6 -3 25022 933 1
5 -6 -3 24910 1242 1
-5 -6 3 23873 1048 1
-5 6 3 24940 1821 1
5 6 -3 25732 1018 1
-5 -6 3 24360 1647 1
5 6 -2 317 140 1
-5 6 2 274 273 1
5 6 -2 333 307 1
5 6 -2 280 222 1
-5 -6 2 83 229 1
-5 -6 2 164 148 1
-5 6 2 197 304 1
5 -6 -2 362 305 1
5 6 -1 7057 951 1
-5 -6 1 7114 942 1
-5 6 1 7303 1033 1
-5 6 1 7904 818 1
5 6 -1 7263 733 1
5 -6 -1 7246 785 1
5 6 0 110117 3710 1
-5 6 0 112309 3190 1
5 -6 0 104199 3928 1
-5 -6 0 109387 3561 1
-5 6 0 109159 3863 1
5 -6 0 114300 3299 1
5 6 1 7670 884 1
-5 -6 -1 6512 332 1
-5 -6 -1 6470 407 1
5 -6 1 6942 821 1
5 -6 1 7353 744 1
-5 6 -1 7685 788 1
-5 6 -1 6982 810 1
5 6 2 10191 1059 1
-5 -6 -2 10157 669 1
5 -6 2 10717 1007 1
5 6 2 9794 1258 1
-5 6 -2 10004 929 1
-5 6 -2 11974 1029 1
5 -6 2 10009 958 1
5 -6 3 8463 713 1
5 -6 3 7445 793 1
-5 6 -3 7282 757 1
5 6 3 7201 807 1
-5 -6 -3 7130 586 1
5 6 3 7983 1046 1
-5 6 -3 8241 732 1
5 -6 4 20648 1152 1
-5 6 -4 22594 1284 1
-5 6 -4 22465 1779 1
-5 -6 -4 19142 1346 1
5 6 4 22514 1796 1
5 6 4 23003 2491 1
-5 6 -5 7598 1053 1
-5 -6 -5 5932 770 1
5 6 5 6083 809 1
5 6 5 5912 1120 1
-5 6 -5 6348 520 1
-5 6 -6 19421 1903 1
-5 -6 -6 19940 1766 1
5 6 6 20246 2663 1
5 6 6 15035 1409 1
5 6 7 2 330 1
-5 6 -7 297 206 1
-5 -6 -7 2 112 1
5 6 8 1221 640 1
-5 6 -8 660 354 1
-5 -6 -8 1078 454 1
-5 6 -9 9521 1450 1
5 6 9 7274 1590 1
-5 -6 -9 8869 1405 1
5 -7 -13 6058 1413 1
-5 -7 13 8710 1470 1
-5 7 13 5273 1173 1
5 7 -13 8549 1632 1
5 7 -12 549 407 1
-5 -7 12 476 370 1
5 -7 -12 253 339 1
5 -7 -11 6382 1202 1
-5 -7 11 7953 1316 1
5 7 -11 6690 1245 1
-5 7 11 7223 1732 1
5 7 -10 3203 746 1
5 -7 -10 3195 817 1
-5 -7 10 2302 634 1
5 -7 -9 2205 754 1
-5 -7 9 1755 703 1
5 7 -9 2284 765 1
5 7 -9 2027 483 1
-5 7 9 3077 1112 1
5 -7 -8 9531 1066 1
-5 -7 8 9198 1320 1
5 7 -8 8542 827 1
5 7 -8 9182 1191 1
-5 7 8 9372 1555 1
-5 -7 7 3191 940 1
5 7 -7 2485 759 1
-5 7 7 2359 979 1
-5 -7 7 2301 480 1
5 -7 -7 2652 614 1
-5 7 6 9419 1406 1
-5 -7 6 11118 1327 1
-5 -7 6 9739 675 1
5 7 -6 9950 1026 1
5 -7 -6 10783 932 1
5 7 -6 9502 639 1
-5 -7 5 14719 1128 1
-5 -7 5 16292 1466 1
-5 7 5 12069 1422 1
-5 -7 5 13549 696 1
5 7 -5 14739 1067 1
5 -7 -5 12583 875 1
5 7 -5 12585 573 1
5 7 -4 448 289 1
5 7 -4 906 178 1
-5 -7 4 863 392 1
-5 -7 4 1332 352 1
5 7 -4 659 198 1
-5 7 4 420 347 1
5 -7 -4 963 267 1
5 7 -3 4427 839 1
-5 -7 3 4641 571 1
5 7 -3 4188 465 1
-5 -7 3 5454 929 1
-5 7 3 4181 902 1
5 7 -3 5059 503 1
5 -7 -3 4781 644 1
5 7 -2 1027 336 1
5 7 -2 1204 173 1
-5 -7 2 1634 269 1
-5 -7 2 1696 469 1
-5 7 2 1205 301 1
5 7 -2 1154 226 1
-5 7 2 1837 539 1
5 -7 -2 1698 362 1
5 7 -1 5278 1050 1
-5 -7 1 3755 890 1
-5 -7 1 3598 431 1
-5 7 1 4152 1034 1
-5 7 1 4346 806 1
5 7 -1 4709 708 1
5 -7 -1 5201 826 1
5 7 0 11671 1232 1
-5 7 0 12168 1041 1
-5 7 0 11810 1318 1
5 -7 0 10896 959 1
-5 -7 0 10340 518 1
-5 -7 -1 3912 465 1
5 -7 1 4782 796 1
5 -7 1 3722 856 1
-5 7 -1 4867 1022 1
-5 -7 -1 3978 438 1
-5 7 -1 4178 812 1
-5 -7 -2 2162 357 1
5 7 2 1725 507 1
5 -7 2 1911 506 1
5 -7 2 1751 420 1
-5 7 -2 1884 457 1
-5 7 -2 1796 520 1
-5 -7 -2 1839 257 1
5 -7 3 8212 934 1
-5 -7 -3 6799 697 1
5 7 3 9663 1211 1
5 7 3 6299 1137 1
-5 7 -3 7379 926 1
-5 7 -3 7738 912 1
5 -7 3 6996 887 1
5 -7 4 5864 701 1
-5 -7 -4 5701 750 1
5 7 4 6555 1059 1
-5 7 -4 5987 754 1
-5 7 -4 4899 832 1
5 7 4 5205 1118 1
5 -7 4 5983 912 1
-5 7 -5 19570 1578 1
-5 -7 -5 17331 1283 1
5 7 5 17661 1468 1
5 7 5 15909 1881 1
-5 7 -5 19236 1070 1
-5 7 -6 3699 811 1
-5 -7 -6 3500 695 1
5 7 6 3882 1046 1
5 7 6 2732 646 1
5 7 7 1978 650 1
-5 -7 -7 2245 551 1
5 7 7 2418 516 1
-5 7 -7 2601 603 1
-5 7 -8 277 346 1
-5 -7 -8 1 128 1
-5 7 -9 5396 1181 1
-5 -7 -9 5476 1093 1
5 7 9 5007 1487 1
5 8 -13 1341 644 1
5 8 -13 1728 609 1
5 -8 -13 2297 825 1
-5 8 13 2095 810 1
5 8 -12 390 309 1
5 -8 -12 23 150 1
-5 -8 12 23 211 1
-5 8 12 778 525 1
5 8 -11 2508 656 1
5 -8 -11 1269 423 1
-5 -8 11 1324 450 1
5 -8 -10 14952 1811 1
-5 -8 10 15058 1739 1
5 8 -10 10133 1394 1
-5 8 10 17140 2330 1
5 8 -9 237 339 1
-5 -8 9 30 213 1
-5 8 9 208 381 1
5 -8 -8 17995 1360 1
-5 -8 8 18781 1717 1
5 8 -8 14270 1011 1
-5 8 8 14274 1688 1
5 8 -8 15149 1381 1
-5 -8 8 16745 919 1
-5 -8 7 24638 2069 1
-5 8 7 23793 2361 1
-5 -8 7 21622 1068 1
5 8 -7 25253 1809 1
5 -8 -7 20877 1405 1
5 8 -6 10150 1421 1
-5 -8 6 10188 1465 1
-5 -8 6 10578 812 1
-5 8 6 8009 1536 1
5 8 -6 9890 1194 1
5 -8 -6 9230 994 1
-5 -8 5 6623 955 1
-5 8 5 7747 1171 1
-5 -8 5 6968 497 1
5 8 -5 5860 871 1
5 -8 -5 5332 587 1
5 8 -5 6902 698 1
5 8 -5 5762 377 1
5 8 -4 828 382 1
-5 -8 4 202 209 1
5 8 -4 643 244 1
-5 -8 4 113 134 1
-5 8 4 630 465 1
5 8 -4 451 119 1
5 -8 -4 503 194 1
5 8 -3 2111 719 1
-5 -8 3 4418 669 1
-5 8 3 4217 1035 1
-5 -8 3 3587 853 1
5 8 -3 3239 468 1
5 8 -3 3615 444 1
5 -8 -3 3187 570 1
5 8 -2 1757 630 1
5 8 -2 1351 328 1
5 8 -2 1199 258 1
-5 8 2 1391 480 1
-5 -8 2 1216 325 1
-5 8 2 2108 768 1
5 -8 -2 1180 397 1
5 8 -1 83425 3487 1
-5 8 1 88561 4051 1
5 8 -1 83767 2350 1
-5 -8 1 82978 1945 1
5 -8 -1 85142 2701 1
-5 8 1 85735 2920 1
-5 -8 0 4040 498 1
5 8 0 3016 846 1
-5 8 0 2400 630 1
-5 8 0 3700 945 1
5 -8 0 2935 628 1
-5 -8 -1 6486 485 1
5 8 1 7586 1007 1
-5 8 -1 7283 969 1
-5 -8 -1 6718 431 1
5 -8 1 6717 757 1
-5 8 -1 6775 784 1
-5 -8 -2 770 176 1
5 8 2 618 267 1
-5 8 -2 932 248 1
-5 8 -2 1498 363 1
5 -8 2 780 242 1
-5 -8 -2 540 108 1
-5 -8 -3 15299 1130 1
5 -8 3 15481 1547 1
5 8 3 17064 1777 1
-5 -8 -3 14479 897 1
-5 8 -3 16863 1524 1
5 -8 3 15635 1376 1
-5 8 -3 17188 1542 1
5 -8 4 21126 1481 1
-5 -8 -4 20988 1510 1
5 8 4 24221 2118 1
5 8 4 21458 2362 1
-5 8 -4 22972 1729 1
5 -8 4 20536 1696 1
-5 8 -4 20493 1773 1
-5 -8 -5 11999 1150 1
-5 8 -5 11952 1313 1
5 8 5 10982 1322 1
5 8 5 9110 1441 1
-5 8 -5 12597 1058 1
5 -8 5 9949 1140 1
5 8 6 286 488 1
-5 -8 -6 459 402 1
5 8 6 756 454 1
-5 8 -6 273 346 1
-5 8 -7 7217 1203 1
-5 -8 -7 5621 945 1
5 8 7 5809 933 1
5 8 7 5926 1398 1
5 8 8 6 243 1
-5 -8 -8 225 284 1
-5 8 -8 425 246 1
5 8 9 5050 1363 1
-5 -8 -9 2837 813 1
-5 8 -9 2534 789 1
5 -9 -13 7466 1530 1
5 9 -13 5582 1148 1
5 9 -13 7584 1424 1
5 9 -12 376 432 1
5 9 -12 307 343 1
5 -9 -12 28 182 1
-5 -9 11 839 439 1
5 9 -11 1186 474 1
5 -9 -11 1324 599 1
5 9 -11 800 448 1
-5 9 11 2194 986 1
5 9 -10 4167 1091 1
-5 -9 10 5153 1263 1
-5 9 10 4623 1456 1
5 9 -10 5856 1265 1
5 -9 -10 6139 1349 1
5 9 -9 13914 1678 1
-5 -9 9 18390 1946 1
-5 9 9 16316 2220 1
5 9 -9 15449 1673 1
5 -9 -8 577 143 1
5 9 -8 288 279 1
5 9 -8 99 207 1
-5 -9 8 470 159 1
-5 -9 8 379 65 1
-5 9 8 37 210 1
5 9 -7 6316 1147 1
-5 -9 7 7126 1237 1
-5 -9 7 5778 539 1
-5 9 7 5842 1322 1
5 9 -7 5960 962 1
5 -9 -7 7168 895 1
5 9 -6 1720 648 1
5 9 -6 1257 430 1
-5 -9 6 1345 265 1
-5 9 6 1203 624 1
-5 -9 6 1281 554 1
5 -9 -6 1517 447 1
5 9 -5 10754 1042 1
5 9 -5 11725 1451 1
-5 9 5 11098 1657 1
5 9 -5 8929 511 1
-5 -9 5 9675 1300 1
5 -9 -5 9674 899 1
5 9 -4 4009 659 1
5 9 -4 5121 473 1
-5 -9 4 4292 518 1
-5 -9 4 3830 575 1
-5 9 4 4429 754 1
5 -9 -4 4786 475 1
5 9 -4 4398 253 1
5 9 -3 3217 680 1
5 9 -3 2470 356 1
-5 -9 3 2840 475 1
5 9 -3 3354 323 1
-5 9 3 3765 881 1
5 -9 -3 3092 470 1
5 9 -2 6796 882 1
-5 9 2 6060 667 1
5 9 -2 5676 401 1
-5 9 2 7647 1047 1
5 9 -2 6705 494 1
-5 -9 2 5500 497 1
5 -9 -2 6916 647 1
5 9 -1 6620 1113 1
-5 9 1 5898 1116 1
5 9 -1 6785 694 1
-5 9 1 6105 862 1
-5 -9 1 6967 664 1
5 -9 -1 5706 758 1
-5 -9 0 4195 477 1
5 9 0 3440 873 1
-5 9 0 3560 638 1
5 -9 0 3660 595 1
-5 9 0 2673 712 1
-5 9 -1 301 117 1
-5 -9 -1 534 102 1
5 9 1 1054 386 1
5 -9 1 329 164 1
-5 9 -1 1164 347 1
-5 -9 -2 10067 705 1
-5 -9 -2 8709 576 1
5 9 2 9261 1130 1
-5 9 -2 9361 1026 1
5 -9 2 10310 896 1
-5 9 -2 9783 975 1
-5 -9 -3 2358 428 1
-5 9 -3 1898 511 1
5 -9 3 2536 534 1
-5 -9 -3 2789 384 1
-5 9 -3 2482 622 1
5 9 3 2786 700 1
-5 -9 -4 4843 779 1
5 9 4 4681 1105 1
5 -9 4 2522 666 1
-5 9 -4 3409 737 1
-5 9 -4 4722 955 1
-5 9 -5 704 294 1
-5 -9 -5 466 206 1
5 9 5 713 473 1
5 9 5 325 262 1
5 -9 5 262 188 1
-5 9 -5 583 252 1
-5 -9 -6 6573 999 1
-5 9 -6 7749 1194 1
5 9 6 5137 1244 1
5 -9 6 8238 1155 1
5 9 6 8922 1371 1
5 9 7 1180 766 1
-5 -9 -7 1317 488 1
5 9 7 755 332 1
5 -9 7 983 422 1
-5 9 -7 770 445 1
5 9 8 587 238 1
-5 -9 -8 827 417 1
-5 9 -8 1053 540 1
5 9 9 3050 1267 1
-5 -9 -9 810 298 1
-5 9 -9 2317 820 1
5 10 -12 3297 850 1
5 -10 -12 3038 905 1
5 10 -12 2058 760 1
-5 10 12 2501 1085 1
5 -10 -11 3 275 1
5 10 -11 227 424 1
5 10 -11 140 322 1
-5 10 11 851 804 1
5 -10 -10 1908 699 1
5 10 -10 1921 655 1
5 10 -10 1737 670 1
-5 10 10 1575 809 1
5 10 -9 256 189 1
5 10 -9 460 277 1
5 10 -8 3132 841 1
5 10 -8 1643 536 1
-5 10 8 1253 661 1
5 -10 -7 722 257 1
5 10 -7 1055 427 1
5 10 -7 413 206 1
-5 -10 7 444 105 1
-5 10 7 1 172 1
5 10 -6 1965 627 1
5 10 -6 1658 468 1
-5 10 6 2248 854 1
5 -10 -6 1641 422 1
5 10 -5 1818 521 1
5 10 -5 1057 558 1
-5 10 5 1407 746 1
5 -10 -5 775 349 1
5 10 -4 3177 768 1
5 10 -4 2450 452 1
-5 10 4 3293 955 1
5 -10 -4 3013 494 1
5 10 -3 694 524 1
5 -10 -3 1216 438 1
-5 10 3 324 539 1
5 10 -3 852 220 1
-5 -10 3 726 384 1
5 10 -3 567 304 1
-5 -10 2 849 225 1
5 10 -2 685 248 1
5 10 -2 1086 218 1
-5 10 2 677 270 1
-5 10 2 1202 510 1
5 10 -2 839 173 1
5 -10 -2 858 230 1
5 10 -1 24580 2134 1
-5 10 1 24955 2155 1
5 10 -1 23228 1145 1
5 -10 -1 23418 1375 1
-5 10 1 22484 1562 1
-5 -10 1 23508 1276 1
-5 -10 0 25218 1296 1
5 10 0 25471 2257 1
-5 10 0 21292 2035 1
-5 10 0 23908 1684 1
5 -10 0 23707 1503 1
-5 -10 -1 244 174 1
5 10 1 184 344 1
-5 10 -1 7 131 1
-5 10 -1 337 315 1
5 -10 1 56 169 1
5 10 2 7561 1246 1
5 -10 2 6988 854 1
-5 -10 -2 6302 631 1
-5 10 -2 6878 1051 1
-5 10 -2 6403 956 1
-5 -10 -2 6897 686 1
-5 -10 -3 4076 493 1
5 10 3 3697 637 1
-5 10 -3 3560 566 1
-5 10 -3 2415 426 1
5 -10 3 3059 448 1
-5 -10 -3 2999 334 1
-5 -10 -4 5737 750 1
5 10 4 4646 982 1
-5 10 -4 4185 812 1
-5 10 -4 3034 645 1
5 -10 4 5930 844 1
-5 10 -5 1736 510 1
5 10 5 1604 528 1
-5 10 -5 2232 482 1
5 -10 5 1501 441 1
-5 -10 -5 1971 464 1
-5 10 -6 791 432 1
5 10 6 743 509 1
-5 -10 -6 879 356 1
5 -10 6 612 350 1
5 10 6 563 372 1
-5 10 -7 184 263 1
5 -10 7 120 254 1
5 10 7 0 342 1
-5 -10 -7 153 158 1
5 10 7 69 191 1
5 10 8 3773 1211 1
5 -10 8 3102 736 1
-5 -10 -8 2693 718 1
-5 10 -8 2764 733 1
5 11 -12 43 287 1
5 -11 -12 1 353 1
5 11 -12 62 198 1
-5 11 12 434 606 1
5 11 -11 2 193 1
5 -11 -11 556 383 1
5 11 -11 644 447 1
5 11 -10 3937 872 1
5 11 -10 3342 749 1
-5 11 10 3615 1041 1
5 11 -9 4208 1040 1
-5 11 9 2508 1023 1
5 11 -9 3423 850 1
5 11 -8 4231 880 1
-5 11 8 4749 1125 1
5 11 -8 5822 897 1
5 11 -7 34919 2372 1
5 11 -7 31438 2729 1
-5 11 7 27829 3043 1
5 -11 -7 29172 1900 1
5 -11 -6 506 207 1
5 11 -6 184 112 1
-5 11 6 717 330 1
5 11 -6 531 253 1
5 11 -5 4218 980 1
5 11 -5 4460 727 1
-5 11 5 5436 1389 1
5 -11 -5 5543 755 1
5 11 -4 90 171 1
5 11 -4 0 118 1
5 -11 -4 1 105 1
5 11 -3 109 245 1
5 11 -3 12 60 1
-5 11 3 37 192 1
5 11 -3 9 24 1
5 -11 -3 6 11 1
-5 -11 2 234 77 1
-5 11 2 330 80 1
5 11 -2 60 244 1
-5 11 2 653 393 1
5 11 -2 359 85 1
5 11 -2 276 64 1
5 -11 -2 563 160 1
-5 11 1 144 223 1
5 11 -1 136 382 1
-5 -11 1 59 208 1
5 11 -1 42 150 1
-5 11 1 59 327 1
5 -11 -1 177 211 1
-5 -11 0 34711 1649 1
5 11 0 28291 2407 1
-5 11 0 29744 1902 1
-5 11 0 29387 2415 1
5 -11 0 33052 1741 1
-5 -11 -1 1666 295 1
5 11 1 2228 651 1
-5 11 -1 1687 367 1
-5 11 -1 2655 653 1
5 -11 1 2246 384 1
5 -11 2 5199 805 1
5 11 2 8117 1483 1
-5 11 -2 5092 1060 1
-5 -11 -2 4677 607 1
-5 11 -2 7019 1069 1
-5 -11 -3 4277 620 1
5 11 3 4375 961 1
-5 11 -3 4861 930 1
5 -11 3 6144 856 1
-5 11 -3 5771 942 1
5 -11 4 5737 871 1
-5 -11 -4 5515 826 1
5 11 4 5359 1185 1
-5 11 -4 4996 994 1
-5 11 -4 5558 977 1
-5 -11 -5 1442 355 1
-5 11 -5 2488 606 1
5 11 5 2427 635 1
-5 11 -5 2844 599 1
5 -11 5 1924 452 1
-5 11 -6 3278 815 1
-5 -11 -6 2400 612 1
5 11 6 2525 930 1
5 -11 6 2387 607 1
5 11 6 2570 986 1
5 11 7 3402 1098 1
-5 11 -7 2950 722 1
-5 -11 -7 2464 671 1
5 11 7 4065 999 1
5 -11 7 2166 584 1
-5 11 -8 4093 956 1
5 11 8 2406 1039 1
5 -11 8 4235 872 1
5 12 -11 18013 2182 1
-5 12 11 15645 2460 1
5 12 -11 16329 1870 1
5 -12 -11 17941 2212 1
5 12 -10 14931 1923 1
-5 12 10 12723 2104 1
5 12 -10 15800 1765 1
5 12 -9 13245 1565 1
5 12 -9 14923 1902 1
-5 12 9 15554 2301 1
5 12 -8 20459 1712 1
5 12 -8 20332 2007 1
-5 12 8 18495 2296 1
5 -12 -7 42325 2283 1
5 12 -7 40100 2985 1
5 12 -7 48219 2738 1
-5 12 7 40610 3560 1
5 12 -6 286 338 1
5 -12 -6 171 249 1
5 12 -6 111 288 1
-5 12 6 220 500 1
5 -12 -5 766 279 1
5 12 -5 594 361 1
5 12 -5 551 268 1
-5 12 5 743 395 1
5 12 -4 1014 520 1
-5 12 4 1074 561 1
5 12 -4 2363 482 1
5 -12 -4 2133 438 1
5 12 -3 10383 1485 1
5 12 -3 9484 822 1
-5 12 3 11118 1691 1
5 -12 -3 9207 861 1
-5 12 2 242 102 1
5 12 -2 497 107 1
5 12 -2 1525 460 1
5 12 -2 796 110 1
-5 12 2 1647 398 1
5 -12 -2 655 151 1
5 12 -1 3988 938 1
5 -12 -1 4618 626 1
5 12 -1 5237 509 1
-5 12 1 3905 961 1
-5 -12 1 3681 585 1
-5 12 1 4343 742 1
-5 12 0 32 382 1
-5 12 0 103 268 1
5 12 0 80 256 1
-5 -12 0 61 190 1
5 -12 0 7 154 1
5 12 1 1504 622 1
-5 12 -1 1063 575 1
-5 12 -1 1078 364 1
5 -12 1 725 249 1
5 12 2 557 359 1
-5 12 -2 350 312 1
-5 12 -2 277 296 1
5 -12 2 142 179 1
-5 -12 -3 23198 1505 1
5 12 3 30614 2705 1
-5 12 -3 27093 2285 1
5 -12 3 26194 1666 1
-5 12 -3 28424 2206 1
-5 -12 -4 2023 500 1
-5 12 -4 2140 681 1
5 12 4 3685 995 1
-5 12 -4 2002 621 1
5 -12 4 2104 521 1
-5 -12 -5 1 133 1
5 12 5 180 268 1
-5 12 -5 404 352 1
5 -12 5 1 51 1
-5 12 -5 84 148 1
-5 12 -6 956 490 1
-5 -12 -6 1355 580 1
5 12 6 1813 951 1
5 -12 6 1144 458 1
5 12 7 9699 1597 1
-5 12 -7 11642 1557 1
5 12 7 6756 1565 1
5 -12 7 8820 1158 1
5 -13 -11 1324 591 1
5 13 -11 981 571 1
5 13 -11 1498 534 1
-5 13 11 1665 789 1
5 13 -10 8152 1416 1
5 13 -10 10088 1703 1
-5 13 10 10800 2095 1
5 13 -9 3852 1015 1
5 13 -9 3226 813 1
-5 13 9 5150 1380 1
5 13 -8 378 333 1
-5 13 8 536 273 1
5 13 -8 358 284 1
5 -13 -7 10 155 1
5 13 -7 175 396 1
-5 13 7 289 578 1
5 13 -7 197 326 1
5 -13 -6 360 270 1
5 13 -6 353 218 1
5 13 -6 1556 623 1
-5 13 6 1577 879 1
5 -13 -5 468 157 1
5 13 -5 974 365 1
-5 13 5 1574 672 1
5 13 -5 607 172 1
5 13 -4 10918 1752 1
-5 13 4 10753 1870 1
5 -13 -4 9143 926 1
5 13 -4 10065 1037 1
5 13 -3 7824 766 1
-5 13 3 9111 1572 1
5 -13 -3 9605 874 1
5 13 -2 908 555 1
5 13 -2 593 226 1
-5 13 2 773 550 1
5 13 -2 596 143 1
5 -13 -2 635 282 1
-5 13 1 4898 952 1
5 13 -1 5856 1363 1
-5 13 1 6057 1401 1
5 13 -1 5561 587 1
5 -13 -1 4423 716 1
5 13 0 132 174 1
-5 13 0 375 276 1
-5 13 0 707 531 1
5 -13 0 61 44 1
5 13 1 3853 1149 1
-5 13 -1 3260 807 1
-5 13 -1 3437 1045 1
5 -13 1 2835 628 1
-5 13 -2 6819 1028 1
5 13 2 6403 1192 1
-5 13 -2 7204 1212 1
5 -13 2 6872 818 1
-5 -13 -3 1 135 1
-5 13 -3 29 66 1
5 13 3 1 282 1
-5 13 -3 72 261 1
5 -13 3 1 132 1
-5 -13 -4 3705 619 1
5 13 4 4411 1123 1
-5 13 -4 4715 928 1
5 -13 4 5301 734 1
-5 13 -4 4960 906 1
-5 13 -5 330 252 1
-5 -13 -5 85 85 1
5 13 5 7 156 1
-5 13 -5 251 305 1
5 -13 5 30 58 1
5 13 6 5979 1454 1
5 -13 6 4257 780 1
-5 13 -6 3346 812 1
-5 13 -7 101 302 1
5 13 7 524 531 1
5 -13 7 75 107 1
5 13 7 262 326 1
5 14 -10 173 216 1
-5 14 10 0 218 1
5 14 -9 439 531 1
-5 14 9 178 490 1
5 14 -9 71 154 1
5 14 -8 417 396 1
-5 14 8 140 365 1
5 14 -8 265 220 1
5 14 -7 7364 1415 1
5 14 -7 6877 986 1
-5 14 7 8761 1756 1
5 14 -6 11410 1820 1
5 14 -6 11240 1236 1
-5 14 6 9121 1935 1
5 -14 -6 9325 1059 1
5 14 -5 2648 788 1
-5 14 5 4888 1228 1
5 14 -5 5169 673 1
5 -14 -5 4385 587 1
5 -14 -4 536 195 1
5 14 -4 167 231 1
5 14 -4 338 138 1
-5 14 4 233 179 1
5 -14 -3 47 112 1
5 14 -3 0 155 1
-5 14 3 128 130 1
5 14 -2 8563 1555 1
5 14 -2 6787 761 1
-5 14 2 7252 1454 1
5 -14 -2 7023 789 1
5 14 -1 1678 646 1
-5 14 1 362 187 1
-5 14 1 1235 372 1
5 -14 -1 1724 341 1
-5 14 0 3172 627 1
5 14 0 4039 953 1
5 14 0 2967 409 1
-5 14 0 2837 853 1
5 -14 0 3206 474 1
-5 14 -1 225 223 1
5 14 1 907 554 1
-5 14 -1 305 394 1
5 -14 1 72 169 1
5 14 2 93 221 1
-5 14 -2 208 265 1
5 -14 2 94 125 1
-5 14 -2 5 130 1
-5 14 -3 456 209 1
5 14 3 45 324 1
-5 14 -3 44 304 1
5 -14 3 292 109 1
-5 -14 -4 8001 1017 1
5 -14 4 9356 1020 1
5 14 4 10325 1741 1
-5 14 -4 10885 1557 1
-5 14 -4 8473 1306 1
5 14 5 114 136 1
-5 14 -5 1095 559 1
5 -14 5 780 275 1
-5 14 -5 1341 461 1
5 14 6 665 563 1
5 -14 6 806 404 1
-5 14 -6 1235 554 1
5 15 -9 2596 701 1
5 15 -9 2134 838 1
-5 15 9 1892 930 1
5 15 -8 7 253 1
-5 15 8 927 605 1
5 15 -7 1099 388 1
-5 15 7 23 145 1
5 -15 -6 1789 442 1
5 15 -6 1581 681 1
5 15 -6 1943 459 1
-5 15 6 1119 717 1
5 -15 -5 1826 410 1
5 15 -5 1922 482 1
5 15 -5 2742 882 1
-5 15 5 1454 650 1
5 -15 -4 7 72 1
5 15 -4 7 376 1
-5 15 4 6 211 1
5 15 -4 7 172 1
5 -15 -3 76 78 1
5 15 -3 192 229 1
5 15 -3 47 131 1
-5 15 3 0 378 1
5 15 -2 662 264 1
5 15 -2 79 60 1
-5 15 2 614 516 1
5 -15 -2 193 51 1
-5 15 1 360 268 1
5 15 -1 1065 545 1
-5 15 1 849 496 1
5 -15 -1 455 171 1
5 15 0 7258 1472 1
-5 15 0 7117 1462 1
-5 15 0 9783 1277 1
5 -15 0 7449 814 1
-5 15 -1 242 258 1
-5 15 -1 325 129 1
5 -15 1 327 211 1
5 15 2 950 582 1
-5 15 -2 290 339 1
5 -15 2 243 192 1
-5 15 -2 1195 797 1
5 15 3 1 402 1
-5 15 -3 652 352 1
-5 15 -3 1 345 1
5 -15 3 302 198 1
5 15 4 1033 654 1
-5 15 -4 280 217 1
5 -15 4 388 230 1
-5 15 -4 309 291 1
5 -15 5 136 187 1
-5 15 -5 339 331 1
-5 15 -5 487 363 1
5 16 -8 815 551 1
5 16 -8 685 328 1
-5 16 8 1317 738 1
5 16 -7 1436 484 1
5 16 -7 2813 975 1
-5 16 7 3122 1263 1
-5 16 6 164 75 1
5 16 -6 29 107 1
5 -16 -5 176 228 1
5 16 -5 1169 678 1
5 16 -5 735 359 1
5 -16 -4 1127 349 1
5 16 -4 627 581 1
-5 16 4 1728 705 1
5 16 -4 527 276 1
5 16 -3 2338 787 1
-5 16 3 2040 732 1
5 -16 -3 2978 491 1
5 16 -3 2647 463 1
5 16 -2 3874 1037 1
-5 16 2 4066 1069 1
5 -16 -2 3274 499 1
-5 16 1 4522 846 1
5 16 -1 4950 1225 1
-5 16 1 1843 760 1
5 -16 -1 3180 508 1
-5 16 0 3844 935 1
5 16 0 2339 819 1
5 -16 0 4358 546 1
-5 16 0 4625 800 1
5 16 1 2614 816 1
-5 16 -1 1636 505 1
-5 16 -1 2448 829 1
5 -16 1 2585 448 1
5 16 2 5188 1375 1
-5 16 -2 3031 1011 1
5 -16 2 3260 605 1
-5 16 -2 3734 880 1
-5 16 -3 10043 1354 1
5 16 3 9582 1807 1
-5 16 -3 8806 1518 1
5 -16 3 11689 1090 1
-5 16 -4 5769 1099 1
-5 16 -4 5217 1135 1
5 16 4 6980 1558 1
5 17 -7 421 489 1
5 17 -7 344 280 1
-5 17 7 195 67 1
5 17 -6 413 321 1
5 17 -6 639 616 1
-5 17 6 701 780 1
5 -17 -5 1002 394 1
5 17 -5 905 627 1
5 17 -5 949 410 1
-5 17 5 982 780 1
5 -17 -4 1085 376 1
5 17 -4 765 321 1
5 17 -4 1898 839 1
-5 17 4 1364 637 1
5 -17 -3 131 77 1
5 17 -3 421 384 1
5 17 -3 329 248 1
-5 17 3 212 577 1
5 -17 -2 91 34 1
5 17 -2 382 436 1
-5 17 2 93 131 1
-5 17 1 8645 1846 1
-5 17 1 8837 1399 1
5 17 -1 8960 1939 1
5 -17 -1 7333 864 1
-5 17 0 186 231 1
5 17 0 195 243 1
5 -17 0 78 40 1
5 17 1 1832 831 1
-5 17 -1 1771 895 1
-5 17 -1 1500 617 1
5 -17 1 1329 413 1
-5 17 -2 894 529 1
5 17 2 840 443 1
-5 17 -2 655 456 1
5 17 3 2650 1036 1
-5 17 -3 3205 1039 1
-5 17 -3 1666 570 1
5 18 -6 9947 1280 1
5 18 -6 9268 1864 1
-5 18 6 11823 2392 1
5 18 -5 252 296 1
-5 18 5 3 296 1
5 18 -5 227 160 1
5 -18 -4 3537 805 1
5 18 -4 2847 962 1
5 18 -4 3053 624 1
-5 18 4 4017 1327 1
5 -18 -3 334 178 1
5 18 -3 22 106 1
5 18 -3 815 620 1
-5 18 3 676 489 1
5 -18 -2 86 139 1
5 18 -2 19 165 1
-5 18 2 386 578 1
5 18 -1 666 440 1
-5 18 1 819 489 1
5 18 0 3315 970 1
-5 18 0 3155 1047 1
-5 18 0 2927 694 1
5 18 1 773 632 1
-5 18 -1 902 745 1
-5 18 -1 802 439 1
6 0 -14 725 698 1
6 0 -12 3929 970 1
6 0 -10 1408 626 1
6 0 -8 27810 1750 1
6 0 -8 27781 1345 1
6 0 -6 1564 541 1
6 0 -6 1412 445 1
-6 0 4 37086 1790 1
6 0 -4 28227 1463 1
-6 0 2 1238 658 1
6 0 -2 1045 532 1
6 0 -2 1206 484 1
6 0 -2 947 305 1
6 0 -2 1104 666 1
-6 0 0 15610 606 1
6 0 0 15347 1241 1
6 0 0 15575 977 1
6 0 0 14884 714 1
6 0 0 18588 1394 1
-6 0 -2 3542 554 1
6 0 2 3155 594 1
6 0 2 4975 1160 1
6 0 2 3727 581 1
-6 0 -4 371 162 1
-6 0 -4 263 252 1
6 0 4 35 140 1
6 0 6 91654 5396 1
-6 0 -6 76496 3447 1
-6 0 -8 2591 786 1
6 0 8 4080 1299 1
6 -1 -14 473 494 1
6 1 -14 523 468 1
6 -1 -13 10 450 1
6 1 -13 67 178 1
6 -1 -12 4333 1167 1
6 1 -12 5301 1290 1
-6 1 11 1351 289 1
6 1 -11 683 423 1
6 -1 -10 235 213 1
6 1 -10 268 305 1
-6 1 10 407 96 1
6 1 -9 1395 464 1
6 -1 -9 1314 572 1
6 1 -9 1153 558 1
-6 1 9 440 158 1
6 -1 -9 1176 435 1
6 -1 -8 550 174 1
6 1 -8 763 223 1
6 -1 -8 863 281 1
6 1 -8 1018 354 1
6 -1 -7 11262 1287 1
6 1 -7 12246 1308 1
6 -1 -7 11099 985 1
6 1 -7 12078 1000 1
6 -1 -6 14472 1275 1
6 1 -6 14562 1225 1
-6 1 6 11687 772 1
6 -1 -6 14336 1060 1
6 1 -6 13834 1005 1
6 1 -5 7142 668 1
-6 1 5 6258 560 1
6 1 -5 6363 560 1
6 -1 -5 6774 619 1
6 1 -4 25839 1368 1
6 1 -4 27092 1371 1
-6 1 4 29227 1673 1
6 1 -4 25677 1474 1
6 -1 -4 27740 1570 1
6 1 -3 12056 656 1
6 -1 -3 11960 800 1
-6 -1 3 11174 1040 1
-6 1 3 11983 1161 1
6 1 -3 10302 964 1
6 1 -3 11347 976 1
6 -1 -3 13018 1102 1
6 1 -3 12579 780 1
-6 1 2 19137 1384 1
6 1 -2 18842 1326 1
6 -1 -2 19366 1298 1
6 1 -2 20686 1174 1
6 -1 -2 18991 1128 1
6 1 -2 19105 662 1
6 -1 -2 17196 1378 1
6 -1 -2 19275 865 1
-6 -1 2 18721 1286 1
6 -1 -1 16870 1128 1
-6 1 1 14367 893 1
-6 -1 1 12383 1476 1
6 1 -1 15620 1684 1
6 -1 -1 14243 1558 1
6 1 -1 14435 1271 1
6 -1 -1 14272 1268 1
6 -1 -1 12959 1464 1
6 1 -1 14237 797 1
6 1 0 17665 1613 1
-6 1 0 22141 1006 1
-6 -1 0 19963 702 1
6 -1 0 18010 1610 1
6 1 0 19097 1344 1
6 -1 0 17450 1275 1
6 -1 0 20809 1174 1
6 -1 0 18328 1303 1
6 1 0 17287 849 1
-6 -1 -1 141 170 1
6 1 1 120 318 1
-6 1 -1 112 175 1
6 -1 1 51 283 1
6 1 1 62 172 1
6 -1 1 15 225 1
6 -1 1 122 245 1
6 -1 1 122 233 1
6 1 2 29941 1224 1
-6 -1 -2 37346 1524 1
6 1 2 30253 1416 1
-6 1 -2 32569 1475 1
6 1 2 31834 2316 1
6 -1 2 36983 2582 1
6 -1 2 42743 1717 1
6 -1 2 30340 1596 1
6 -1 3 242 87 1
6 1 3 1 90 1
-6 -1 -3 228 174 1
6 1 3 206 209 1
6 -1 3 62 47 1
6 -1 3 484 372 1
-6 1 -3 1 68 1
6 1 3 351 237 1
6 1 3 173 138 1
-6 1 -4 62134 2521 1
6 1 4 65910 3886 1
6 1 5 5982 1145 1
6 -1 5 6286 1089 1
-6 -1 -5 3936 619 1
-6 1 -5 3639 590 1
-6 -1 -6 2557 596 1
6 1 6 3231 1064 1
6 -1 6 2912 1012 1
-6 1 -6 2356 594 1
-6 -1 -7 2382 463 1
-6 1 -7 2963 598 1
6 1 7 3298 1035 1
6 -1 7 2124 686 1
-6 -1 -8 82 107 1
-6 1 -8 91 177 1
6 -1 8 420 544 1
6 1 8 12 476 1
-6 -1 -9 1776 668 1
-6 1 -9 1106 539 1
6 1 9 3249 1195 1
6 -1 9 1820 993 1
6 -2 -14 476 510 1
6 2 -14 48 154 1
6 2 -13 919 570 1
6 -2 -13 1164 851 1
6 -2 -12 11 133 1
6 2 -12 392 491 1
6 -2 -11 17017 1750 1
6 2 -11 18057 1743 1
-6 2 11 14243 927 1
6 -2 -10 2641 762 1
-6 2 10 2826 671 1
6 2 -10 725 400 1
6 -2 -9 1873 337 1
6 2 -9 1294 225 1
6 -2 -9 2077 435 1
-6 2 9 1238 208 1
6 2 -9 2409 525 1
6 2 -8 19603 1748 1
6 -2 -8 18415 1278 1
6 2 -8 19592 1264 1
6 -2 -7 752 303 1
6 2 -7 1527 430 1
6 -2 -7 1640 333 1
6 2 -7 1352 293 1
6 2 -6 126 96 1
6 -2 -6 365 141 1
6 -2 -6 193 121 1
6 2 -6 246 118 1
6 2 -5 7649 637 1
-6 2 5 6668 555 1
6 2 -5 7143 525 1
6 -2 -5 7397 590 1
6 2 -4 728 195 1
6 2 -4 683 205 1
-6 2 4 501 183 1
6 -2 -4 977 247 1
6 2 -4 1024 274 1
6 -2 -4 742 258 1
6 2 -3 4484 268 1
6 -2 -3 4864 338 1
6 2 -3 4815 454 1
-6 2 3 5235 526 1
6 2 -3 5140 414 1
6 -2 -3 5683 481 1
6 2 -2 2848 232 1
6 2 -2 3092 465 1
6 2 -2 2445 464 1
6 -2 -2 3213 379 1
-6 2 2 2761 545 1
6 2 -2 2839 204 1
6 -2 -2 3025 460 1
6 -2 -2 2366 535 1
6 -2 -1 55741 1886 1
6 2 -1 55192 2741 1
6 -2 -1 51432 2534 1
6 2 -1 55569 2210 1
6 -2 -1 60284 2363 1
-6 2 1 60916 1765 1
6 2 0 3372 284 1
-6 2 0 4476 454 1
6 2 0 3900 720 1
6 -2 0 4265 710 1
6 -2 0 3502 525 1
6 2 0 4795 630 1
6 -2 0 2876 458 1
-6 -2 0 4734 252 1
6 -2 0 4459 517 1
6 2 1 9377 537 1
6 -2 1 9724 813 1
6 2 1 11722 1231 1
-6 -2 -1 11157 521 1
6 -2 1 10449 1153 1
6 -2 1 9798 829 1
6 -2 1 10705 946 1
-6 2 -1 11736 754 1
-6 -2 -2 4428 515 1
6 2 2 4471 521 1
6 2 2 3935 545 1
-6 2 -2 5463 682 1
6 -2 2 5556 614 1
6 2 2 4141 902 1
6 -2 2 4994 982 1
6 -2 2 4482 785 1
6 2 3 53882 2244 1
6 2 3 53726 1952 1
-6 2 -3 65798 2670 1
6 -2 3 56642 1563 1
-6 -2 -3 52464 2088 1
6 2 3 61132 3882 1
6 -2 3 65811 3966 1
-6 -2 -3 56003 1961 1
-6 2 -4 11602 1125 1
6 2 4 8504 611 1
6 2 4 10771 1594 1
6 -2 4 11915 1643 1
-6 -2 -4 8945 908 1
6 2 4 8888 709 1
6 2 5 16078 2202 1
6 -2 5 21352 2406 1
-6 -2 -5 14470 1377 1
-6 2 -5 19963 1730 1
6 2 6 20136 2411 1
-6 -2 -6 17047 1471 1
-6 2 -6 19554 1646 1
-6 -2 -7 154 179 1
-6 2 -7 171 160 1
6 2 7 0 513 1
6 -2 7 284 423 1
-6 -2 -8 1300 437 1
6 2 8 1077 578 1
6 -2 8 2869 953 1
-6 2 -8 2634 667 1
-6 -2 -9 4 184 1
-6 2 -9 395 387 1
6 2 9 12 320 1
6 -2 9 38 419 1
6 -3 -14 2361 850 1
6 3 -14 1631 660 1
6 -3 -13 13681 2098 1
6 3 -13 13351 1990 1
6 -3 -12 1821 852 1
6 3 -12 2759 973 1
6 -3 -11 2991 810 1
-6 3 11 2286 498 1
6 3 -11 1110 570 1
6 -3 -10 31407 2673 1
6 3 -10 37392 2863 1
6 -3 -9 15739 1627 1
6 3 -9 14127 1587 1
6 -3 -9 14920 1299 1
6 -3 -8 8790 1056 1
6 3 -8 8224 995 1
6 -3 -8 7441 746 1
6 3 -8 8638 753 1
6 3 -7 4140 768 1
6 -3 -7 3822 586 1
6 3 -7 3723 521 1
6 -3 -7 4206 808 1
6 3 -6 275 249 1
6 -3 -6 449 270 1
6 3 -6 310 212 1
6 3 -5 2331 406 1
6 3 -5 1420 205 1
6 3 -5 1734 272 1
6 -3 -5 1311 285 1
6 3 -4 948 99 1
-6 3 4 391 66 1
6 3 -4 1426 163 1
-6 -3 4 855 10 1
6 3 -4 894 81 1
6 -3 -4 1121 140 1
6 -3 -4 1275 163 1
6 3 -3 5813 463 1
6 -3 -3 6385 650 1
6 3 -3 7038 826 1
-6 3 3 6780 909 1
6 3 -3 6513 692 1
6 -3 -3 7354 822 1
6 -3 -2 1523 191 1
6 3 -2 1862 334 1
-6 3 2 2222 406 1
6 3 -2 2503 324 1
6 -3 -2 1978 266 1
6 -3 -1 3048 380 1
6 3 -1 4086 648 1
6 -3 -1 2985 542 1
6 3 -1 3267 426 1
6 -3 -1 2577 402 1
-6 3 1 2980 363 1
-6 3 0 23037 1251 1
6 3 0 23304 2006 1
6 -3 0 20581 1548 1
6 3 0 21253 1472 1
6 -3 0 22587 1489 1
6 -3 0 19529 1331 1
-6 3 -1 218 81 1
6 3 1 40 98 1
-6 -3 -1 139 42 1
6 -3 1 474 197 1
6 3 1 40 27 1
6 -3 1 39 187 1
6 -3 1 290 119 1
6 -3 1 355 189 1
6 3 2 693 81 1
6 3 2 809 155 1
-6 3 -2 931 146 1
-6 -3 -2 950 119 1
6 3 2 1231 257 1
6 -3 2 593 106 1
6 -3 2 268 123 1
6 -3 2 964 185 1
-6 -3 -2 701 133 1
6 3 3 428 200 1
-6 -3 -3 209 139 1
6 3 3 271 103 1
6 -3 3 428 139 1
6 3 3 62 116 1
-6 3 -3 549 246 1
6 3 4 9553 786 1
-6 3 -4 15060 1307 1
6 3 4 11853 797 1
6 3 4 8884 1245 1
6 -3 4 15269 1663 1
-6 -3 -4 12643 942 1
-6 3 -5 29263 1972 1
6 3 5 23476 959 1
6 3 5 24723 2476 1
6 -3 5 27646 2520 1
-6 -3 -5 24164 1614 1
-6 3 -6 4687 909 1
6 3 6 5295 1400 1
6 -3 6 6147 1337 1
-6 -3 -6 3448 696 1
-6 -3 -7 1177 396 1
-6 3 -7 1144 400 1
6 3 7 1656 781 1
6 -3 7 1712 706 1
6 3 8 11602 2001 1
6 -3 8 10933 1909 1
-6 -3 -8 12648 1481 1
-6 3 -8 12516 1530 1
-6 -3 -9 948 486 1
-6 3 -9 738 414 1
6 3 9 800 508 1
6 -3 9 747 495 1
-6 -4 14 1736 561 1
6 4 -14 2557 877 1
6 -4 -14 1156 565 1
6 -4 -13 144 296 1
6 4 -13 1114 725 1
-6 -4 13 1449 685 1
6 -4 -12 9595 1413 1
6 4 -12 11277 1555 1
-6 4 12 13942 1305 1
6 -4 -11 15585 1971 1
6 4 -11 16607 2019 1
-6 4 11 13432 1347 1
6 -4 -10 11877 1529 1
6 4 -10 14409 1764 1
6 -4 -9 1890 699 1
6 4 -9 2586 779 1
6 -4 -9 1654 494 1
6 -4 -8 14676 1353 1
6 4 -8 17934 1497 1
6 -4 -8 15618 1082 1
6 4 -8 15586 962 1
6 -4 -7 535 236 1
6 4 -7 106 78 1
6 4 -7 782 583 1
6 4 -6 16885 1182 1
6 4 -6 15189 819 1
-6 -4 6 14088 1002 1
6 4 -5 20830 1351 1
6 4 -5 19420 1094 1
-6 -4 5 18389 1196 1
6 4 -5 19998 1119 1
6 -4 -5 15951 1202 1
6 4 -4 70989 1975 1
-6 -4 4 70596 2263 1
6 4 -4 71036 2126 1
6 -4 -4 75939 2492 1
6 4 -3 6279 710 1
-6 4 3 6400 797 1
6 4 -3 7344 417 1
6 4 -3 7541 641 1
6 -4 -3 8696 782 1
6 4 -2 19531 1376 1
6 4 -2 19738 1064 1
6 -4 -2 18789 1148 1
6 -4 -2 18420 1035 1
6 4 -1 1364 487 1
6 -4 -1 798 382 1
6 4 -1 938 299 1
6 -4 -1 781 285 1
-6 4 1 812 256 1
-6 4 1 1224 511 1
6 4 0 8025 1062 1
-6 4 0 7530 885 1
-6 -4 0 7913 1107 1
6 4 0 7337 1383 1
6 -4 0 6152 1048 1
6 4 0 8005 1066 1
6 -4 0 7581 1015 1
-6 4 0 10775 1443 1
-6 -4 -1 799 357 1
6 4 1 765 339 1
-6 -4 -1 237 95 1
6 4 1 645 545 1
6 -4 1 1031 405 1
6 -4 1 361 276 1
-6 4 -1 764 305 1
6 4 2 7577 926 1
6 -4 2 7726 851 1
-6 -4 -2 8162 905 1
6 4 2 6743 1346 1
-6 4 -2 8440 945 1
6 -4 2 7607 1047 1
-6 -4 -2 7592 630 1
6 4 3 3988 552 1
6 -4 3 3910 384 1
-6 4 -3 3882 546 1
6 4 3 3019 684 1
6 -4 3 3903 780 1
6 -4 3 4570 671 1
-6 -4 -3 3727 434 1
-6 4 -4 5210 867 1
6 4 4 4468 670 1
6 4 4 4167 1152 1
6 -4 4 3984 1034 1
-6 -4 -4 4854 707 1
-6 -4 -5 1946 418 1
6 4 5 1034 427 1
6 4 5 1843 372 1
6 -4 5 2311 683 1
-6 4 -5 2261 580 1
-6 4 -6 11494 1502 1
6 -4 6 11850 1925 1
-6 -4 -6 9551 1211 1
-6 -4 -7 410 328 1
6 4 7 229 398 1
-6 4 -7 131 251 1
6 -4 7 380 423 1
-6 -4 -8 620 296 1
6 4 8 2580 856 1
-6 4 -8 576 222 1
6 -4 8 2238 881 1
-6 -4 -9 439 301 1
-6 4 -9 1452 600 1
6 4 9 173 618 1
6 -4 9 1526 892 1
6 -5 -14 7200 1529 1
-6 -5 14 8447 1413 1
6 5 -14 5188 1217 1
6 -5 -13 76 283 1
-6 -5 13 830 547 1
6 5 -13 431 592 1
6 -5 -12 4927 1141 1
-6 5 12 3518 751 1
6 5 -12 2773 882 1
-6 -5 12 4888 1125 1
6 -5 -11 1 46 1
6 5 -11 8 141 1
6 -5 -10 7190 1229 1
6 5 -10 6882 1176 1
6 -5 -9 14692 1771 1
6 5 -9 12247 1527 1
6 -5 -9 12599 1297 1
6 -5 -8 43 125 1
6 5 -8 8 61 1
6 -5 -8 0 80 1
6 5 -8 21 46 1
6 5 -7 25607 1930 1
6 -5 -7 22524 1514 1
6 5 -7 26050 1350 1
-6 -5 6 16356 1263 1
6 5 -6 14008 765 1
6 -5 -6 16156 1162 1
6 5 -6 16214 917 1
6 5 -6 17625 1337 1
-6 -5 5 37665 1557 1
6 5 -5 36218 1421 1
6 5 -5 35696 1499 1
-6 5 5 37320 2682 1
6 5 -5 39906 1397 1
6 -5 -5 37874 1656 1
-6 -5 5 35322 1418 1
6 5 -4 31612 1559 1
6 5 -4 31681 1253 1
-6 -5 4 34488 1536 1
-6 5 4 33494 2463 1
6 5 -4 32351 1363 1
6 -5 -4 33220 1603 1
-6 -5 4 33866 1274 1
6 5 -3 44895 2185 1
6 5 -3 48104 1786 1
6 -5 -3 47506 2098 1
6 5 -3 43560 1127 1
-6 5 2 96183 3809 1
6 5 -2 86151 3107 1
6 5 -2 96219 2545 1
6 -5 -2 96529 2926 1
6 5 -1 10106 1259 1
-6 -5 1 15810 1607 1
6 5 -1 13331 1609 1
6 5 -1 10162 1084 1
6 -5 -1 12841 1259 1
-6 5 1 13704 1596 1
-6 5 1 12096 1139 1
6 5 0 8288 969 1
-6 5 0 8097 1031 1
-6 5 0 10560 923 1
-6 -5 0 9846 1063 1
6 -5 0 8217 1071 1
6 5 0 9851 1323 1
6 5 0 10028 1006 1
6 -5 0 9437 964 1
6 5 1 12508 1004 1
6 -5 1 14834 1152 1
-6 -5 -1 14914 1091 1
6 5 1 12680 1377 1
6 -5 1 12133 980 1
-6 5 -1 15164 1234 1
-6 5 -1 14949 1063 1
-6 -5 -2 268 102 1
6 5 2 458 229 1
6 5 2 1154 524 1
6 -5 2 273 198 1
6 -5 2 420 264 1
-6 5 -2 888 260 1
-6 5 -2 447 225 1
6 -5 3 4533 797 1
6 -5 3 3092 450 1
6 5 3 3848 694 1
6 5 3 2611 825 1
-6 -5 -3 3494 469 1
-6 5 -3 3242 601 1
6 -5 4 14724 723 1
6 5 4 17751 1368 1
-6 5 -4 16045 1387 1
6 5 4 17309 2220 1
-6 -5 -4 15989 1145 1
6 -5 4 17750 1632 1
-6 5 -5 4959 756 1
-6 -5 -5 4399 563 1
6 5 5 5776 1152 1
6 5 5 3289 477 1
6 5 6 1 248 1
-6 -5 -6 251 159 1
-6 5 -7 8778 1192 1
-6 -5 -7 6565 893 1
6 5 7 7174 1414 1
6 5 8 579 460 1
-6 5 -8 438 374 1
-6 -5 -8 415 336 1
-6 5 -9 4136 1030 1
-6 -5 -9 3164 819 1
6 5 9 2547 951 1
-6 -6 14 1713 695 1
6 -6 -14 1299 774 1
6 6 -14 1372 726 1
6 -6 -13 3004 1215 1
-6 -6 13 2755 915 1
6 6 -13 2018 799 1
6 -6 -12 2262 663 1
-6 -6 12 1796 588 1
6 6 -12 1994 596 1
6 -6 -11 6023 988 1
-6 -6 11 7682 1136 1
6 6 -11 6141 906 1
6 -6 -10 3061 785 1
-6 -6 10 2908 775 1
-6 -6 9 5338 1133 1
6 6 -9 3431 777 1
-6 6 9 5805 1575 1
6 -6 -9 5635 1113 1
6 -6 -9 3574 745 1
-6 -6 8 5711 913 1
6 6 -8 5096 716 1
-6 6 8 8183 1496 1
6 -6 -8 5652 651 1
6 6 -7 31342 1881 1
-6 6 7 33650 2949 1
6 -6 -7 29966 1623 1
6 6 -7 30031 1264 1
6 6 -6 1405 201 1
-6 -6 6 806 114 1
-6 -6 6 2192 303 1
-6 6 6 2263 593 1
6 -6 -6 1568 277 1
6 6 -6 1337 290 1
6 6 -5 78 147 1
-6 -6 5 102 136 1
-6 -6 5 132 205 1
-6 -6 5 313 329 1
-6 6 5 38 248 1
6 6 -5 177 163 1
6 -6 -5 46 159 1
-6 -6 4 159 126 1
6 6 -4 0 34 1
-6 -6 4 188 272 1
-6 -6 4 58 28 1
6 6 -4 0 56 1
-6 6 4 0 185 1
6 -6 -4 95 223 1
-6 -6 3 5123 489 1
6 6 -3 5544 463 1
-6 -6 3 7494 1224 1
-6 6 3 6215 1207 1
6 6 -3 5665 695 1
6 -6 -3 5348 820 1
6 6 -2 1686 367 1
-6 -6 2 1116 328 1
-6 6 2 1726 336 1
6 6 -2 2071 301 1
6 -6 -2 2397 392 1
-6 6 2 2248 518 1
6 6 -1 14879 1425 1
-6 -6 1 15442 1477 1
6 6 -1 13489 1448 1
6 6 -1 13772 1102 1
-6 6 1 14907 1505 1
-6 6 1 15153 1185 1
6 -6 -1 12274 1084 1
6 6 0 11746 1075 1
-6 6 0 10945 879 1
-6 -6 0 12053 1079 1
6 6 0 10337 1154 1
-6 6 0 10446 1030 1
6 -6 0 12840 1068 1
-6 6 -1 1228 307 1
6 6 1 1571 333 1
6 -6 1 954 242 1
6 6 1 582 262 1
6 -6 1 1757 354 1
-6 6 -1 1402 332 1
6 6 2 10408 1241 1
6 -6 2 9434 1043 1
-6 -6 -2 9354 648 1
6 -6 2 10567 1168 1
-6 6 -2 8462 979 1
-6 6 -2 9761 1086 1
6 6 2 10318 1612 1
6 -6 3 16454 1257 1
6 6 3 13365 1442 1
6 6 3 13600 1953 1
6 -6 3 12617 1428 1
-6 -6 -3 15249 1043 1
-6 6 -3 14460 1433 1
-6 6 -4 2460 486 1
6 -6 4 2025 296 1
-6 -6 -4 3040 472 1
6 6 4 2720 509 1
6 6 4 1528 498 1
6 -6 4 1970 487 1
6 6 5 384 402 1
6 6 5 889 312 1
-6 -6 -5 588 175 1
-6 6 -5 1423 462 1
6 6 6 243 536 1
-6 -6 -6 29 242 1
-6 6 -6 153 336 1
6 6 7 1243 698 1
-6 6 -7 2326 720 1
-6 -6 -7 1140 372 1
6 6 8 54 240 1
-6 6 -8 277 282 1
-6 -6 -8 58 42 1
-6 6 -9 192 259 1
-6 -6 -9 1 54 1
6 -7 -13 12305 1908 1
-6 -7 13 11888 1707 1
6 7 -13 12873 1827 1
6 -7 -12 557 184 1
6 7 -12 1274 445 1
-6 -7 12 1155 447 1
6 -7 -11 10024 1532 1
-6 -7 11 10423 1538 1
6 7 -11 9378 1376 1
6 -7 -10 1999 851 1
-6 -7 10 2653 942 1
6 7 -10 2751 909 1
-6 7 10 2316 1223 1
6 -7 -9 11256 1172 1
-6 -7 9 13150 1675 1
6 7 -9 12472 1432 1
-6 -7 8 16209 1699 1
6 7 -8 19383 1580 1
-6 7 8 19146 2227 1
6 -7 -8 14608 1123 1
6 -7 -7 476 188 1
6 7 -7 656 176 1
6 7 -7 369 218 1
-6 -7 7 623 201 1
-6 7 7 1082 614 1
-6 -7 7 597 288 1
-6 -7 6 19610 1118 1
6 7 -6 21437 1527 1
-6 7 6 19504 2267 1
6 -7 -6 20781 1394 1
6 7 -6 18523 942 1
-6 -7 5 5034 646 1
-6 -7 5 6137 1017 1
-6 -7 5 7033 671 1
-6 7 5 6690 1185 1
6 7 -5 6503 713 1
6 7 -5 6740 536 1
6 -7 -5 6881 752 1
6 7 -4 9173 838 1
-6 -7 4 7132 772 1
-6 -7 4 9859 1470 1
-6 7 4 8127 1490 1
6 7 -4 8009 759 1
6 -7 -4 8698 1003 1
-6 -7 3 23058 963 1
6 7 -3 22363 1786 1
-6 -7 3 21816 1790 1
6 7 -3 19659 732 1
-6 7 3 22397 1998 1
6 7 -3 23640 1167 1
6 -7 -3 22577 1380 1
-6 -7 2 1866 359 1
6 7 -2 733 178 1
-6 -7 2 874 76 1
6 7 -2 1388 197 1
6 -7 -2 1519 248 1
-6 7 2 1308 360 1
-6 7 2 1581 292 1
6 -7 -1 2796 527 1
6 7 -1 2867 637 1
6 7 -1 2727 486 1
-6 7 1 2556 641 1
-6 -7 1 2366 577 1
-6 7 1 2389 478 1
6 7 0 20036 1678 1
6 -7 0 20595 1463 1
-6 7 0 19520 1398 1
-6 7 0 19398 1715 1
6 7 1 13167 1459 1
6 7 1 10313 1440 1
-6 7 -1 8610 1102 1
6 -7 1 10447 1068 1
-6 7 -1 11937 1133 1
6 7 2 60857 2826 1
6 -7 2 58266 2630 1
-6 -7 -2 55923 1485 1
6 7 2 52554 3124 1
-6 7 -2 57093 2452 1
6 -7 2 55525 2368 1
-6 7 -2 57547 2416 1
-6 -7 -2 55559 1190 1
6 -7 3 0 152 1
-6 7 -3 106 145 1
6 7 3 0 135 1
6 -7 3 166 201 1
-6 -7 -3 252 167 1
-6 7 -3 50 174 1
6 7 3 214 240 1
6 7 4 8802 1280 1
-6 -7 -4 8331 964 1
-6 7 -4 7309 1183 1
6 7 4 9076 1835 1
6 -7 4 7053 1150 1
-6 7 -4 10548 1085 1
-6 7 -5 19090 1716 1
6 7 5 16006 1548 1
-6 -7 -5 13377 1231 1
6 7 5 15846 2269 1
6 -7 5 15433 1595 1
-6 7 -6 10186 1317 1
-6 -7 -6 10069 1166 1
6 7 6 13647 2420 1
6 7 6 11498 1309 1
6 7 7 109 497 1
-6 -7 -7 71 124 1
-6 7 -7 57 255 1
6 7 8 223 555 1
-6 7 -8 574 397 1
-6 -7 -8 226 221 1
6 8 -13 2332 756 1
6 -8 -13 2538 895 1
-6 -8 13 2540 719 1
6 -8 -12 8579 1447 1
-6 -8 12 10486 1565 1
6 8 -12 12559 1680 1
6 8 -11 1043 615 1
6 -8 -11 1979 829 1
-6 -8 11 2315 822 1
-6 8 11 1160 981 1
6 8 -10 3579 778 1
6 -8 -10 3209 824 1
-6 -8 10 3430 834 1
-6 8 10 5092 1491 1
6 -8 -9 4525 886 1
-6 -8 9 5540 1230 1
6 8 -9 2942 820 1
-6 8 9 5008 1394 1
-6 -8 8 68041 3608 1
6 8 -8 45335 1741 1
-6 8 8 71640 4360 1
6 8 -8 65887 3000 1
6 -8 -8 53749 2338 1
-6 -8 7 8872 1325 1
-6 8 7 8590 1530 1
-6 -8 7 9908 822 1
6 8 -7 8831 1043 1
6 -8 -7 9284 970 1
6 8 -6 4794 630 1
-6 -8 6 3785 416 1
-6 -8 6 3805 763 1
-6 8 6 3496 753 1
6 -8 -6 3998 524 1
6 8 -6 4296 381 1
6 8 -5 1676 669 1
-6 -8 5 1566 544 1
-6 -8 5 1024 554 1
-6 8 5 1066 718 1
6 8 -5 1123 268 1
6 -8 -5 1676 466 1
6 8 -5 1254 409 1
6 8 -4 11093 1373 1
-6 -8 4 11025 944 1
6 8 -4 9977 738 1
-6 -8 4 12296 1462 1
-6 8 4 10625 1528 1
6 8 -4 10558 713 1
6 -8 -4 11857 1055 1
6 8 -3 648 273 1
-6 -8 3 154 256 1
-6 -8 3 154 50 1
6 8 -3 327 65 1
-6 8 3 155 170 1
6 -8 -3 720 161 1
6 8 -3 399 69 1
6 8 -2 12785 1332 1
-6 -8 2 9520 561 1
-6 8 2 10978 1001 1
-6 -8 2 12279 1283 1
-6 8 2 11938 1399 1
6 -8 -2 11775 1005 1
6 8 -2 10851 788 1
6 8 -1 735 383 1
6 8 -1 516 237 1
-6 8 1 662 302 1
-6 8 1 1197 553 1
6 -8 -1 282 198 1
6 8 0 4 195 1
6 -8 0 4 92 1
-6 8 0 91 268 1
-6 8 0 8 41 1
-6 -8 -1 579 178 1
-6 -8 -1 958 209 1
6 8 1 1083 514 1
6 -8 1 748 366 1
-6 8 -1 714 354 1
-6 8 -1 551 374 1
-6 -8 -2 3581 367 1
6 8 2 4200 870 1
-6 -8 -2 3444 428 1
6 8 2 4934 1106 1
-6 8 -2 3078 666 1
6 -8 2 4166 715 1
-6 8 -2 4176 751 1
6 8 3 7050 1013 1
-6 -8 -3 8610 671 1
-6 8 -3 7895 867 1
6 8 3 5974 998 1
-6 8 -3 8313 862 1
6 -8 3 6100 742 1
-6 -8 -3 5920 414 1
-6 8 -4 829 388 1
6 8 4 841 415 1
6 8 4 626 407 1
-6 -8 -4 1079 340 1
6 -8 4 1222 449 1
-6 8 -4 1994 511 1
-6 -8 -5 5053 736 1
6 8 5 5593 936 1
-6 8 -5 6071 953 1
6 8 5 6058 1364 1
6 -8 5 4876 831 1
-6 8 -6 9745 1367 1
-6 -8 -6 7855 1071 1
6 8 6 9666 1320 1
6 8 6 11136 2084 1
6 -8 6 7575 1218 1
6 8 7 1 436 1
-6 -8 -7 266 167 1
6 -8 7 1 215 1
-6 8 -7 100 210 1
6 8 8 715 496 1
-6 8 -8 1085 516 1
6 9 -13 598 501 1
6 9 -13 559 587 1
6 -9 -13 389 565 1
-6 -9 13 487 382 1
6 9 -12 1 96 1
6 9 -12 1 218 1
6 -9 -12 1 102 1
-6 -9 12 113 268 1
-6 9 12 1 264 1
6 9 -11 229 267 1
6 -9 -11 604 496 1
6 9 -11 395 229 1
-6 -9 11 931 540 1
-6 9 11 179 148 1
6 9 -10 8610 1335 1
-6 -9 10 8619 1348 1
-6 9 10 10291 1932 1
6 9 -10 6654 1084 1
6 -9 -10 7942 1295 1
6 -9 -9 26432 2040 1
6 9 -9 25570 2411 1
-6 9 9 24799 2960 1
-6 -9 9 31189 2746 1
6 9 -9 28961 2332 1
6 -9 -8 145 185 1
6 9 -8 587 397 1
6 9 -8 15 79 1
-6 -9 8 109 269 1
-6 9 8 645 544 1
6 9 -7 9042 1501 1
-6 -9 7 7923 1461 1
-6 9 7 11381 1973 1
-6 -9 7 7924 738 1
6 9 -7 7884 1127 1
6 -9 -7 8089 1054 1
6 9 -6 16349 1686 1
-6 -9 6 16108 1713 1
-6 9 6 16718 1983 1
-6 -9 6 15806 902 1
6 -9 -6 17423 1225 1
6 9 -6 17277 1306 1
6 9 -6 15897 765 1
6 9 -5 13535 1444 1
6 9 -5 12588 985 1
-6 -9 5 10986 1011 1
-6 -9 5 14021 1482 1
-6 9 5 13900 1694 1
6 -9 -5 12648 1002 1
6 9 -5 12278 597 1
6 9 -4 3072 657 1
-6 -9 4 1933 356 1
-6 -9 4 2795 635 1
6 9 -4 2172 310 1
6 9 -4 2954 310 1
-6 9 4 2733 684 1
6 -9 -4 3202 493 1
6 9 -3 4688 469 1
6 9 -3 4886 947 1
-6 -9 3 4201 888 1
-6 -9 3 4066 551 1
-6 9 3 4890 1086 1
6 9 -3 4322 510 1
6 -9 -3 5258 718 1
6 9 -2 5654 1032 1
-6 -9 2 6457 600 1
-6 9 2 4636 761 1
-6 9 2 6677 1215 1
6 9 -2 6244 643 1
6 -9 -2 5701 772 1
6 9 -1 2979 536 1
-6 -9 1 2924 250 1
6 9 -1 4338 462 1
6 -9 -1 3462 468 1
-6 9 1 2843 600 1
-6 9 1 2369 377 1
-6 -9 0 20057 771 1
6 9 0 27401 2269 1
-6 9 0 26922 1742 1
-6 9 0 24919 2113 1
6 -9 0 23078 1537 1
-6 -9 0 19841 792 1
-6 -9 -1 6571 435 1
-6 9 -1 10253 1039 1
6 9 1 10204 1198 1
-6 -9 -1 6674 420 1
-6 9 -1 10224 1182 1
6 -9 1 8561 870 1
-6 -9 -2 21347 1138 1
6 9 2 23663 2185 1
6 -9 2 23302 1697 1
-6 -9 -2 21603 1028 1
-6 9 -2 23935 1980 1
-6 9 -2 25725 1925 1
-6 -9 -3 5422 636 1
6 9 3 5440 1028 1
-6 9 -3 5310 857 1
6 9 3 4092 1035 1
-6 9 -3 6809 994 1
6 -9 3 5443 811 1
-6 -9 -4 12831 1126 1
6 9 4 16189 1842 1
6 9 4 13750 1977 1
-6 9 -4 16738 1469 1
-6 9 -4 14142 1477 1
6 -9 4 14235 1443 1
-6 9 -5 894 305 1
-6 -9 -5 1079 333 1
6 9 5 1223 472 1
6 9 5 1273 458 1
6 -9 5 1664 447 1
6 9 6 2881 1079 1
-6 -9 -6 4308 778 1
6 9 6 4911 1045 1
6 -9 6 4224 819 1
-6 9 -6 4060 860 1
-6 9 -7 1235 492 1
6 9 7 1130 748 1
6 -9 7 253 321 1
-6 9 -8 875 439 1
6 -9 8 1012 499 1
6 9 8 436 553 1
6 10 -12 11 228 1
6 -10 -12 289 302 1
6 10 -12 482 420 1
6 -10 -11 2042 722 1
6 10 -11 2039 662 1
6 10 -11 2307 674 1
-6 -10 11 1142 426 1
-6 10 11 1931 822 1
6 10 -10 459 295 1
6 10 -10 474 408 1
-6 -10 10 1013 524 1
-6 10 10 247 505 1
6 -10 -9 7252 1027 1
6 10 -9 6066 1154 1
-6 -10 9 7995 1311 1
6 10 -9 7154 1073 1
-6 10 9 5157 1265 1
6 10 -8 6154 1003 1
-6 -10 8 7938 1143 1
-6 10 8 6581 1163 1
6 10 -8 7546 921 1
6 -10 -8 6789 798 1
6 10 -7 12197 1579 1
-6 -10 7 14855 1753 1
-6 10 7 12221 1822 1
6 -10 -7 15351 1273 1
6 10 -7 14296 1323 1
6 -10 -6 2241 342 1
6 10 -6 1633 442 1
-6 -10 6 2054 467 1
6 10 -6 2238 373 1
-6 10 6 933 97 1
6 10 -5 11456 1454 1
6 10 -5 11509 945 1
-6 -10 5 11485 1466 1
-6 10 5 12228 1736 1
6 -10 -5 13221 1092 1
6 10 -5 10956 547 1
6 10 -4 2474 729 1
6 10 -4 1920 272 1
-6 -10 4 1909 454 1
6 10 -4 2094 367 1
-6 10 4 1034 580 1
6 -10 -4 1636 409 1
6 10 -3 17 148 1
-6 -10 3 33 76 1
6 10 -3 11 27 1
-6 10 3 10 261 1
6 10 -3 3 10 1
6 -10 -3 11 72 1
6 10 -2 8272 1126 1
-6 -10 2 7027 598 1
-6 10 2 8077 887 1
-6 10 2 8834 1236 1
6 10 -2 8275 646 1
6 -10 -2 7465 752 1
6 10 -1 33217 2592 1
-6 10 1 36398 2838 1
-6 -10 1 29594 1236 1
6 10 -1 31879 1575 1
6 -10 -1 33010 1874 1
-6 10 1 32162 1987 1
6 10 0 17908 2138 1
-6 10 0 12085 1360 1
-6 10 0 18686 2219 1
6 -10 0 13311 1349 1
-6 -10 0 11920 840 1
-6 -10 -1 726 173 1
6 10 1 991 466 1
-6 10 -1 568 263 1
-6 10 -1 1051 594 1
-6 -10 -1 521 166 1
6 -10 1 222 179 1
-6 10 -2 252 250 1
-6 -10 -2 271 185 1
6 10 2 440 458 1
6 -10 2 617 297 1
-6 10 -2 583 379 1
-6 -10 -3 23033 1379 1
6 10 3 22531 2176 1
-6 10 -3 24564 2076 1
6 -10 3 21487 1643 1
-6 10 -3 21612 1840 1
-6 -10 -4 6138 811 1
6 10 4 6559 1272 1
6 10 4 8401 1621 1
-6 10 -4 5426 942 1
6 -10 4 4986 879 1
-6 10 -4 6394 1010 1
-6 10 -5 4 42 1
6 10 5 6 186 1
6 10 5 42 115 1
-6 -10 -5 92 180 1
6 -10 5 316 214 1
6 10 6 5 102 1
-6 10 -6 100 227 1
6 -10 6 16 25 1
-6 10 -7 3483 846 1
6 10 7 2400 965 1
6 -10 7 2811 709 1
6 11 -12 105 134 1
6 11 -12 131 262 1
6 -11 -11 778 473 1
6 11 -11 847 485 1
6 11 -11 568 301 1
-6 11 11 924 662 1
6 11 -10 2496 891 1
6 11 -10 3900 980 1
-6 11 10 3967 1416 1
6 11 -9 1678 615 1
6 11 -9 3375 691 1
-6 11 9 1520 666 1
6 11 -8 4548 983 1
-6 11 8 5342 1269 1
6 11 -8 5012 823 1
6 -11 -8 4290 692 1
6 -11 -7 829 223 1
6 11 -7 424 212 1
6 11 -7 770 200 1
-6 11 7 68 320 1
6 11 -6 9406 1461 1
6 11 -6 7078 906 1
-6 11 6 8255 1569 1
6 -11 -6 9750 1039 1
6 11 -5 3164 857 1
6 11 -5 3072 576 1
-6 11 5 4778 1225 1
6 -11 -5 3602 635 1
6 11 -5 2622 268 1
6 11 -4 2075 485 1
-6 11 4 1636 547 1
6 11 -4 2305 192 1
6 11 -4 1972 293 1
6 -11 -4 2310 363 1
6 11 -3 714 175 1
6 11 -3 967 396 1
-6 -11 3 498 171 1
-6 11 3 438 397 1
6 11 -3 736 166 1
6 -11 -3 943 282 1
6 11 -2 1852 263 1
-6 11 2 1759 558 1
-6 11 2 1019 300 1
-6 -11 2 895 174 1
6 -11 -2 1350 274 1
-6 -11 1 14 65 1
-6 11 1 2 95 1
6 11 -1 78 267 1
6 11 -1 0 64 1
-6 11 1 39 359 1
6 -11 -1 54 220 1
6 11 0 15261 1834 1
-6 11 0 16204 1457 1
-6 11 0 20059 2158 1
6 -11 0 15642 1297 1
-6 -11 0 14252 916 1
-6 -11 -1 8322 737 1
6 11 1 9875 1572 1
-6 11 -1 10104 1256 1
-6 11 -1 12508 1753 1
6 -11 1 8686 1066 1
-6 -11 -2 828 206 1
6 11 2 496 264 1
-6 11 -2 740 253 1
-6 11 -2 1146 412 1
6 -11 2 843 242 1
-6 11 -3 1120 419 1
6 11 3 711 359 1
-6 -11 -3 541 170 1
-6 11 -3 1273 540 1
6 -11 3 929 360 1
-6 -11 -4 420 277 1
6 11 4 359 354 1
-6 11 -4 589 481 1
6 -11 4 284 248 1
-6 11 -4 482 355 1
6 11 5 9 421 1
6 11 5 201 326 1
-6 11 -5 9 128 1
6 -11 5 50 102 1
6 11 6 8844 1753 1
6 11 6 4466 1346 1
6 -11 6 6801 1074 1
-6 11 -6 5991 1092 1
-6 11 -7 1361 479 1
6 11 7 509 395 1
6 -11 7 2129 627 1
6 -12 -11 209 603 1
6 12 -11 562 323 1
6 12 -11 99 73 1
-6 12 11 878 572 1
6 12 -10 1531 707 1
6 12 -10 1685 564 1
-6 12 10 782 547 1
6 12 -9 1484 761 1
6 12 -9 1123 541 1
-6 12 9 253 465 1
6 -12 -8 4701 818 1
6 12 -8 7566 1384 1
6 12 -8 4080 802 1
-6 12 8 4922 1317 1
6 12 -7 4002 748 1
6 12 -7 3697 910 1
-6 12 7 5170 1240 1
6 -12 -7 3779 639 1
6 -12 -6 234 178 1
6 12 -6 419 212 1
6 12 -6 665 406 1
6 12 -5 10607 1381 1
6 12 -5 12110 920 1
6 -12 -5 12236 981 1
6 12 -4 5378 1084 1
-6 12 4 8008 1492 1
6 -12 -4 5721 752 1
6 12 -4 5872 670 1
6 12 -3 565 316 1
6 12 -3 431 117 1
-6 12 3 1009 409 1
6 12 -3 409 36 1
6 -12 -3 596 127 1
6 12 -2 31026 2854 1
-6 12 2 28905 2063 1
-6 12 2 31905 2987 1
6 12 -2 27488 1178 1
6 -12 -2 24973 1574 1
6 12 -1 4968 989 1
6 12 -1 4858 538 1
-6 12 1 3097 794 1
6 -12 -1 4893 662 1
-6 12 1 6241 854 1
6 12 0 4 43 1
6 12 0 83 169 1
-6 12 0 324 227 1
-6 12 0 397 329 1
6 -12 0 254 217 1
6 12 1 1280 419 1
-6 12 -1 1817 590 1
6 -12 1 1224 325 1
-6 12 -1 1309 411 1
-6 -12 -2 9168 840 1
-6 12 -2 10087 1280 1
6 12 2 11277 1751 1
-6 12 -2 10060 1472 1
6 -12 2 8559 977 1
-6 -12 -3 5182 592 1
6 12 3 4164 930 1
-6 12 -3 6004 994 1
6 -12 3 6959 843 1
-6 12 -3 5338 840 1
6 12 4 243 323 1
-6 12 -4 417 333 1
6 -12 4 293 241 1
-6 12 -4 108 135 1
6 12 5 1523 603 1
6 12 5 2211 707 1
-6 12 -5 2153 581 1
6 -12 5 1386 453 1
6 12 6 1399 828 1
-6 12 -6 534 341 1
6 12 6 393 527 1
6 -12 6 493 280 1
6 -13 -11 349 240 1
6 13 -11 0 123 1
6 13 -11 189 259 1
-6 13 11 349 399 1
6 13 -10 8083 1210 1
6 13 -10 9251 1514 1
-6 13 10 6586 1553 1
6 13 -9 674 370 1
6 13 -9 238 330 1
-6 13 9 105 163 1
6 -13 -8 5840 986 1
6 13 -8 8428 1519 1
6 13 -8 6412 1062 1
-6 13 8 7651 1713 1
6 -13 -7 138 163 1
6 13 -7 2 75 1
6 13 -7 117 308 1
-6 13 7 395 593 1
6 -13 -6 21 135 1
6 13 -6 21 288 1
6 13 -6 90 196 1
-6 13 6 21 368 1
6 13 -5 4596 1042 1
6 13 -5 2534 459 1
-6 13 5 2577 892 1
6 -13 -5 3328 547 1
6 13 -4 2197 956 1
6 13 -4 743 342 1
-6 13 4 1755 978 1
6 -13 -4 1027 417 1
6 13 -3 15980 2130 1
-6 13 3 19035 2493 1
6 13 -3 16032 1058 1
6 -13 -3 13770 1133 1
6 13 -2 16 321 1
-6 13 2 76 132 1
6 13 -2 16 84 1
6 -13 -2 16 99 1
6 13 -1 0 195 1
-6 13 1 6 99 1
6 13 -1 1 94 1
6 -13 -1 12 81 1
6 13 0 19088 2187 1
-6 13 0 16676 2042 1
6 13 0 19490 1316 1
-6 13 0 17240 1645 1
6 -13 0 14691 1265 1
-6 13 -1 860 349 1
6 13 1 828 356 1
-6 13 -1 1180 552 1
6 -13 1 781 260 1
6 13 2 145 253 1
-6 13 -2 204 343 1
-6 13 -2 712 541 1
6 -13 2 551 330 1
-6 13 -3 78 216 1
6 13 3 330 407 1
-6 13 -3 236 205 1
6 -13 3 398 220 1
-6 13 -4 3018 802 1
6 13 4 1329 614 1
-6 13 -4 1573 675 1
6 -13 4 1996 523 1
6 13 5 1080 660 1
6 -13 5 693 309 1
-6 13 -5 1279 520 1
-6 13 -6 521 373 1
6 13 6 0 393 1
6 13 6 138 542 1
6 -13 6 985 523 1
6 14 -10 1711 669 1
6 14 -10 2498 795 1
-6 14 10 2774 1193 1
6 14 -9 9686 1682 1
6 14 -9 9862 1363 1
-6 14 9 9094 1932 1
6 14 -8 267 313 1
6 14 -8 30 148 1
-6 14 8 29 561 1
6 14 -7 7023 1392 1
6 14 -7 7826 1034 1
-6 14 7 7073 1654 1
6 -14 -7 6148 899 1
6 14 -6 3221 1085 1
6 14 -6 2042 544 1
-6 14 6 3170 1173 1
6 -14 -6 2067 561 1
6 14 -5 11279 1830 1
-6 14 5 14509 2336 1
6 14 -5 11417 1131 1
6 -14 -5 11606 1153 1
6 14 -4 4791 1153 1
6 14 -4 4872 649 1
-6 14 4 2883 1096 1
6 -14 -4 3708 583 1
6 14 -3 2353 902 1
-6 14 3 2046 869 1
6 14 -3 2262 443 1
6 -14 -3 1945 493 1
6 14 -2 784 628 1
-6 14 2 362 476 1
6 -14 -2 634 305 1
-6 14 1 13210 1462 1
6 14 -1 14286 1981 1
-6 14 1 12524 1883 1
6 -14 -1 10997 1040 1
6 14 0 82 207 1
6 14 0 798 222 1
-6 14 0 702 263 1
-6 14 0 408 150 1
6 -14 0 81 255 1
-6 14 -1 2754 717 1
-6 14 -1 2548 897 1
6 -14 1 3483 676 1
6 14 1 3432 1060 1
-6 14 -2 6798 1222 1
6 14 2 3668 958 1
6 -14 2 4855 720 1
-6 14 -2 3677 731 1
6 14 3 3968 1042 1
-6 14 -3 3417 762 1
-6 14 -3 5082 1059 1
6 -14 3 4357 710 1
-6 14 -4 906 478 1
6 14 4 1184 609 1
-6 14 -4 647 527 1
6 -14 4 727 336 1
6 14 5 691 506 1
6 -14 5 1105 439 1
-6 14 -5 2131 755 1
6 15 -9 970 408 1
6 15 -9 1033 518 1
-6 15 9 1006 744 1
6 15 -8 289 243 1
6 15 -8 551 329 1
-6 15 8 947 638 1
6 -15 -7 6576 888 1
6 15 -7 6642 1323 1
6 15 -7 6231 849 1
-6 15 7 7766 1664 1
-6 15 6 11228 2089 1
6 15 -6 10409 1771 1
6 15 -6 9737 1095 1
6 -15 -6 8428 1025 1
6 15 -5 7022 925 1
6 15 -5 6009 1562 1
-6 15 5 8203 1805 1
6 -15 -5 6247 907 1
6 15 -4 11478 1920 1
6 15 -4 8960 930 1
6 -15 -4 9348 983 1
6 15 -3 3440 506 1
6 15 -3 2552 855 1
-6 15 3 3563 1064 1
6 -15 -3 3643 588 1
6 15 -2 1689 681 1
-6 15 2 2117 918 1
6 -15 -2 1421 346 1
6 15 -1 1419 641 1
-6 15 1 618 251 1
-6 15 1 1662 646 1
6 -15 -1 1255 279 1
6 15 0 74 201 1
-6 15 0 469 63 1
6 -15 0 406 217 1
-6 15 -1 1211 555 1
6 15 1 1086 662 1
-6 15 -1 1543 748 1
6 -15 1 1252 431 1
6 15 2 13 182 1
-6 15 -2 0 326 1
6 -15 2 151 152 1
-6 15 -2 0 97 1
6 15 3 1392 553 1
-6 15 -3 1017 468 1
-6 15 -3 1211 664 1
6 -15 3 1934 498 1
-6 15 -4 12264 1586 1
6 15 4 10940 1886 1
-6 15 -4 10226 1636 1
6 -15 4 12941 1331 1
6 16 -8 6698 1598 1
6 16 -8 5098 941 1
-6 16 8 4061 1415 1
6 -16 -7 7088 1061 1
6 16 -7 6262 1438 1
6 16 -7 7836 1033 1
-6 16 7 4737 1459 1
6 -16 -6 1627 397 1
6 16 -6 3113 603 1
6 16 -6 2034 792 1
-6 16 6 2311 880 1
6 16 -5 10234 1769 1
6 16 -5 8169 924 1
-6 16 5 10601 2052 1
6 -16 -5 10178 1019 1
6 -16 -4 850 341 1
6 16 -4 629 560 1
6 16 -4 407 201 1
-6 16 4 42 461 1
6 -16 -3 1561 355 1
6 16 -3 1511 640 1
-6 16 3 1375 584 1
6 16 -3 1460 320 1
6 16 -2 614 474 1
-6 16 2 620 610 1
6 -16 -2 1407 422 1
-6 16 1 3419 743 1
6 16 -1 5291 1302 1
-6 16 1 3228 976 1
6 -16 -1 3393 549 1
-6 16 0 891 426 1
6 16 0 1314 459 1
-6 16 0 793 391 1
6 -16 0 1106 287 1
-6 16 -1 1 171 1
-6 16 -1 811 574 1
6 -16 1 1 59 1
6 16 1 363 467 1
6 16 2 9570 1766 1
-6 16 -2 7255 1156 1
-6 16 -2 10988 2073 1
6 -16 2 8355 985 1
6 16 3 15 151 1
-6 16 -3 4 370 1
-6 16 -3 504 402 1
6 -16 3 76 109 1
6 17 -7 4267 1239 1
-6 17 7 4919 1565 1
6 17 -7 5386 948 1
6 -17 -6 3085 636 1
6 17 -6 4054 706 1
6 17 -6 4771 1182 1
-6 17 6 2608 1175 1
6 -17 -5 1 66 1
6 17 -5 101 166 1
6 -17 -4 978 258 1
6 17 -4 1405 614 1
6 -17 -3 391 192 1
6 17 -3 1224 623 1
-6 17 3 2050 1024 1
6 17 -2 6366 1580 1
-6 17 2 6353 1657 1
6 -17 -2 6003 838 1
6 17 -1 84 294 1
-6 17 1 661 560 1
-6 17 1 151 78 1
6 -17 -1 596 264 1
-6 17 0 6786 1153 1
6 17 0 7587 1669 1
-6 17 0 6660 1523 1
6 -17 0 6984 870 1
6 17 1 7496 1659 1
-6 17 -1 7051 1499 1
-6 17 -1 7017 1229 1
6 -17 1 6382 832 1
6 -18 -4 102 174 1
6 18 -4 165 391 1
-6 18 4 198 497 1
6 -18 -3 9 99 1
6 18 -3 281 379 1
-6 18 3 478 495 1
6 -18 -2 235 203 1
6 18 -2 522 609 1
-6 18 2 19 334 1
6 18 -1 5632 1502 1
-6 18 1 2553 1146 1
7 0 -13 1579 807 1
7 0 -11 1454 426 1
7 0 -9 143 73 1
7 0 -9 386 283 1
7 0 -7 21622 1629 1
7 0 -7 21011 1328 1
7 0 -5 15943 1011 1
-7 0 5 14603 910 1
7 0 -5 16625 1041 1
7 0 -3 11224 809 1
-7 0 3 13961 1550 1
7 0 -3 11150 1252 1
7 0 -3 10610 1166 1
7 0 -1 4886 772 1
7 0 -1 6406 742 1
7 0 -1 7533 1105 1
7 0 -1 6701 560 1
7 0 1 3405 615 1
7 0 1 2589 900 1
7 0 1 2400 707 1
7 0 1 2693 656 1
7 0 3 26674 1158 1
-7 0 -3 28126 1666 1
7 0 3 31007 1420 1
-7 0 -5 238 295 1
7 0 5 125 411 1
7 0 7 12259 2110 1
-7 0 -7 10055 1247 1
7 -1 -14 4229 1152 1
7 1 -14 3513 1061 1
7 -1 -13 6036 1446 1
7 1 -13 6241 1437 1
7 -1 -12 38 374 1
7 1 -12 104 176 1
7 -1 -11 137 322 1
7 1 -11 104 180 1
7 1 -10 8833 1157 1
7 -1 -10 5893 1183 1
7 1 -10 6868 1323 1
7 -1 -10 8166 1109 1
7 -1 -9 9171 1298 1
7 1 -9 8206 1255 1
7 -1 -9 7685 906 1
7 1 -9 7945 901 1
7 -1 -8 29938 2090 1
7 1 -8 31058 2175 1
7 -1 -8 29090 1630 1
7 1 -8 28922 1571 1
7 -1 -7 11660 1308 1
7 1 -7 11189 1202 1
-7 1 7 10457 724 1
7 -1 -7 14109 1182 1
7 1 -7 13381 1110 1
7 -1 -6 3240 662 1
7 1 -6 2998 611 1
-7 1 6 1905 402 1
7 1 -6 2447 506 1
7 -1 -6 2836 567 1
7 1 -5 481 218 1
-7 1 5 864 325 1
7 1 -5 1073 341 1
7 -1 -5 1255 368 1
7 1 -4 5865 715 1
-7 1 4 5565 906 1
7 1 -4 5433 819 1
7 -1 -4 6458 901 1
7 -1 -4 5741 666 1
7 1 -4 5271 791 1
-7 -1 3 22 31 1
7 -1 -3 22 41 1
-7 1 3 305 211 1
7 1 -3 64 150 1
7 1 -3 133 67 1
7 1 -3 369 187 1
7 -1 -3 286 147 1
7 1 -2 1848 184 1
7 -1 -2 2194 270 1
7 1 -2 1874 395 1
7 -1 -2 1640 331 1
7 1 -2 2146 360 1
7 -1 -2 2181 345 1
7 1 -1 4313 978 1
7 -1 -1 3819 907 1
7 1 -1 4949 814 1
7 -1 -1 5814 868 1
7 -1 -1 3989 863 1
7 1 -1 4819 529 1
7 -1 -1 5116 664 1
-7 1 0 300 153 1
7 -1 0 277 207 1
7 -1 0 214 105 1
7 1 0 134 211 1
-7 -1 0 223 95 1
7 1 0 192 193 1
7 -1 0 105 217 1
7 1 0 56 72 1
7 -1 0 497 326 1
7 1 1 994 208 1
7 1 1 790 226 1
7 -1 1 65 250 1
7 1 1 271 77 1
7 -1 1 65 111 1
7 -1 1 421 133 1
7 -1 1 718 215 1
-7 -1 -1 641 115 1
-7 1 -1 1109 210 1
7 1 1 415 178 1
-7 -1 -2 1 77 1
7 1 2 203 242 1
-7 1 -2 153 217 1
7 1 2 695 643 1
7 -1 2 144 419 1
7 -1 2 131 284 1
7 -1 2 80 249 1
7 -1 2 222 273 1
7 1 2 33 140 1
7 1 2 69 217 1
7 -1 3 12891 672 1
7 1 3 11500 1069 1
7 1 3 14145 941 1
-7 -1 -3 15910 1170 1
-7 1 -3 15509 1176 1
7 -1 3 15221 877 1
7 1 3 15964 2042 1
7 -1 3 17812 2038 1
7 1 3 12509 917 1
-7 -1 -4 18056 1259 1
-7 1 -4 20641 1506 1
-7 -1 -4 15776 798 1
7 -1 4 16190 1904 1
-7 1 -5 8425 994 1
7 1 5 10076 1815 1
7 -1 5 9537 1621 1
-7 -1 -5 7959 887 1
-7 -1 -6 601 343 1
7 1 6 465 262 1
-7 1 -6 123 123 1
7 -1 6 853 370 1
-7 -1 -7 3601 665 1
-7 1 -7 2938 675 1
7 1 7 3431 1061 1
7 -1 7 2846 926 1
-7 -1 -8 2052 600 1
-7 1 -8 1878 563 1
7 1 8 3065 1027 1
7 -1 8 2742 1014 1
7 -2 -14 465 643 1
7 2 -14 296 565 1
7 -2 -13 622 510 1
7 2 -13 667 525 1
7 2 -12 1525 478 1
7 -2 -12 3399 901 1
7 -2 -11 373 174 1
7 2 -11 18 197 1
7 -2 -10 38 68 1
7 2 -10 36 146 1
7 -2 -10 294 342 1
-7 2 10 99 99 1
7 2 -10 73 255 1
7 -2 -9 214 164 1
7 2 -9 702 313 1
7 -2 -9 898 436 1
7 2 -9 538 321 1
-7 2 9 269 149 1
7 -2 -8 21842 1647 1
7 2 -8 20354 1567 1
7 -2 -8 20097 1216 1
7 2 -8 21929 1207 1
7 -2 -7 498 205 1
7 2 -7 931 325 1
-7 2 7 860 240 1
7 -2 -7 1028 279 1
7 2 -7 866 252 1
7 2 -6 47969 2078 1
-7 2 6 44499 1789 1
7 2 -6 47254 1777 1
7 -2 -6 45119 1850 1
7 2 -5 2574 454 1
-7 2 5 2827 580 1
7 2 -5 2634 477 1
7 -2 -5 3320 566 1
7 2 -4 4800 524 1
7 -2 -4 4868 578 1
-7 2 4 5404 816 1
7 2 -4 4572 615 1
7 2 -4 5525 693 1
7 -2 -4 5564 733 1
7 -2 -3 14694 917 1
7 2 -3 15714 755 1
7 2 -3 16291 635 1
-7 2 3 15243 1411 1
7 2 -3 17115 1389 1
7 2 -3 16760 1152 1
7 -2 -3 17522 1269 1
7 2 -2 12043 461 1
7 2 -2 13423 1181 1
7 -2 -2 14190 852 1
7 2 -2 16715 1125 1
7 -2 -2 14687 1047 1
7 2 -2 11613 488 1
-7 2 1 1635 284 1
7 2 -1 1066 154 1
7 2 -1 2059 565 1
7 -2 -1 1558 343 1
7 2 -1 1535 394 1
7 -2 -1 1729 402 1
7 -2 -1 966 326 1
7 2 0 7648 390 1
-7 2 0 8506 583 1
7 2 0 9761 1110 1
7 -2 0 7283 887 1
7 -2 0 7999 789 1
7 2 0 8723 817 1
7 -2 0 8550 780 1
7 -2 0 7966 696 1
7 2 1 11093 643 1
7 2 1 12657 1524 1
7 -2 1 10643 1360 1
7 -2 1 14055 1162 1
7 -2 1 12226 1082 1
7 2 1 10393 1120 1
7 -2 1 11557 1159 1
-7 -2 -1 14000 672 1
-7 2 -1 13873 986 1
7 2 2 3633 426 1
7 2 2 3408 472 1
-7 -2 -2 4202 409 1
7 -2 2 3327 446 1
7 -2 2 4178 924 1
7 2 2 3226 758 1
-7 2 -2 3846 510 1
7 -2 2 3736 678 1
-7 2 -3 118 122 1
-7 -2 -3 469 156 1
7 2 3 13 57 1
7 2 3 266 134 1
7 -2 3 73 77 1
7 2 3 13 307 1
7 -2 3 13 306 1
7 -2 3 13 173 1
-7 -2 -3 112 85 1
7 2 3 275 145 1
-7 2 -4 13851 1215 1
7 2 4 9205 614 1
7 2 4 9064 1515 1
7 -2 4 12025 1706 1
-7 -2 -4 10853 937 1
7 2 5 426 432 1
7 -2 5 58 271 1
-7 2 -5 5 226 1
-7 -2 -5 113 197 1
-7 2 -6 2639 752 1
7 2 6 2333 1045 1
-7 -2 -6 2841 734 1
-7 -2 -7 844 389 1
7 -2 7 870 633 1
7 2 7 230 436 1
-7 2 -7 1578 544 1
-7 -2 -8 2361 621 1
7 2 8 985 555 1
-7 2 -8 1177 423 1
7 -2 8 2407 888 1
7 3 -14 8929 1648 1
7 -3 -14 4977 1263 1
7 -3 -13 72 375 1
7 3 -13 13 147 1
7 -3 -12 3719 1016 1
7 3 -12 8813 1584 1
7 -3 -11 93 457 1
-7 3 11 192 199 1
7 3 -11 12 94 1
7 -3 -10 19 122 1
7 -3 -10 66 276 1
7 -3 -9 6460 923 1
7 3 -9 8048 1042 1
7 -3 -9 7006 744 1
7 3 -9 6979 695 1
7 -3 -8 35977 2359 1
7 3 -8 32300 2157 1
7 -3 -8 37683 1872 1
7 3 -8 35045 1675 1
7 3 -7 4244 866 1
7 -3 -7 4993 797 1
7 3 -7 4163 657 1
7 3 -6 10666 1039 1
-7 3 6 9066 933 1
7 3 -6 11361 925 1
7 -3 -6 11613 1034 1
7 3 -5 5787 725 1
7 3 -5 4540 609 1
-7 3 5 4141 740 1
7 3 -5 4147 620 1
7 -3 -5 4772 727 1
7 3 -4 786 258 1
7 3 -4 437 249 1
-7 3 4 908 411 1
7 3 -4 604 279 1
7 -3 -4 730 345 1
7 3 -3 3973 376 1
7 3 -3 4693 335 1
7 3 -3 4827 820 1
7 3 -3 4819 679 1
7 -3 -3 5199 797 1
7 -3 -3 3970 597 1
7 3 -2 11818 1206 1
7 -3 -2 10214 833 1
7 3 -2 11473 968 1
7 -3 -2 11057 975 1
7 -3 -1 3786 780 1
7 3 -1 3267 931 1
7 3 -1 2754 676 1
7 -3 -1 2750 725 1
-7 3 1 3104 577 1
7 3 0 1428 437 1
7 3 0 2439 502 1
7 -3 0 2591 556 1
7 -3 0 1425 376 1
-7 3 0 1524 296 1
7 3 1 2117 563 1
7 3 1 1119 634 1
7 -3 1 1297 715 1
7 3 1 1646 592 1
7 -3 1 1847 621 1
7 -3 1 1400 512 1
-7 3 -1 1931 504 1
-7 -3 -1 1355 231 1
-7 -3 -2 2051 397 1
7 3 2 2717 445 1
-7 -3 -2 2864 304 1
7 3 2 3800 823 1
7 -3 2 3831 575 1
-7 3 -2 2601 428 1
7 -3 2 2314 652 1
7 -3 2 4163 705 1
7 3 2 3230 370 1
7 3 3 66 79 1
-7 3 -3 443 194 1
7 3 3 406 263 1
7 3 3 46 214 1
-7 -3 -3 190 123 1
7 -3 3 237 281 1
7 -3 3 127 189 1
7 -3 3 129 91 1
-7 -3 -3 373 152 1
7 3 4 5777 601 1
-7 3 -4 5392 740 1
7 3 4 5742 1181 1
7 -3 4 8027 1352 1
-7 -3 -4 5909 668 1
-7 -3 -5 411 333 1
7 3 5 645 570 1
7 -3 5 224 396 1
-7 3 -5 1016 503 1
-7 3 -6 6980 1092 1
7 3 6 7146 1567 1
7 -3 6 9495 1641 1
-7 -3 -6 6509 966 1
-7 -3 -7 149 303 1
7 3 7 40 259 1
7 -3 7 198 373 1
-7 3 -7 183 286 1
-7 -3 -8 2283 632 1
7 3 8 4169 1336 1
-7 3 -8 2492 735 1
-7 -4 14 80 284 1
7 -4 -14 7 324 1
7 4 -14 21 139 1
7 -4 -13 748 512 1
7 4 -13 1003 603 1
7 -4 -12 7100 1396 1
7 4 -12 8165 1517 1
7 -4 -11 10630 1375 1
7 4 -11 14390 1608 1
7 -4 -10 163 165 1
7 -4 -10 1 159 1
7 -4 -9 1368 285 1
7 4 -9 1202 261 1
7 -4 -9 1008 318 1
7 4 -9 1409 353 1
7 -4 -8 426 261 1
7 -4 -8 1254 520 1
7 4 -8 1072 489 1
7 4 -8 1097 340 1
7 4 -7 4640 768 1
7 -4 -7 5050 687 1
7 4 -7 5025 578 1
7 4 -6 33834 1889 1
7 4 -6 31378 1510 1
7 -4 -6 33753 1783 1
7 4 -5 1474 248 1
-7 4 5 1366 274 1
7 4 -5 1996 292 1
7 4 -5 1522 245 1
7 -4 -5 2209 330 1
7 4 -4 12871 783 1
7 4 -4 11391 945 1
7 4 -4 10785 1030 1
7 -4 -4 12321 1078 1
7 4 -3 14649 1520 1
7 4 -3 13556 1166 1
7 -4 -3 13919 1324 1
7 4 -2 17034 1525 1
7 4 -2 18329 1213 1
7 -4 -2 17440 1262 1
-7 4 1 19 31 1
7 4 -1 80 221 1
7 4 -1 47 152 1
7 -4 -1 15 85 1
7 4 0 2279 428 1
-7 4 0 2151 342 1
7 4 0 2449 554 1
7 -4 0 1625 406 1
7 4 0 1829 386 1
7 -4 0 2136 387 1
7 4 1 1587 506 1
-7 -4 -1 1241 472 1
7 4 1 1588 702 1
7 -4 1 1245 477 1
7 -4 1 1116 449 1
-7 4 -1 1224 415 1
7 4 2 476 167 1
-7 -4 -2 615 257 1
7 -4 2 653 228 1
7 4 2 511 177 1
-7 4 -2 354 160 1
7 -4 2 428 218 1
-7 -4 -2 428 114 1
7 4 3 7574 997 1
7 -4 3 9155 845 1
7 4 3 8447 1648 1
-7 4 -3 10018 1167 1
7 -4 3 8002 1293 1
-7 -4 -3 8319 793 1
-7 4 -4 178 210 1
-7 -4 -4 72 116 1
7 4 4 134 221 1
7 -4 4 415 407 1
7 -4 4 322 286 1
7 4 4 246 238 1
-7 -4 -5 495 179 1
7 -4 5 865 388 1
-7 4 -5 524 186 1
-7 -4 -6 680 316 1
7 4 6 23 501 1
7 -4 6 1796 629 1
-7 4 -6 1233 419 1
-7 4 -7 32136 2601 1
7 4 7 24983 2992 1
7 -4 7 35450 3412 1
-7 -4 -7 23662 1917 1
-7 -4 -8 495 318 1
7 4 8 38 401 1
-7 4 -8 48 216 1
7 -5 -14 3558 1054 1
-7 -5 14 3763 1074 1
7 5 -14 6012 1340 1
7 -5 -13 648 470 1
-7 -5 13 1268 558 1
7 5 -13 356 413 1
7 -5 -12 5464 1044 1
7 5 -12 3256 785 1
7 -5 -11 6270 1126 1
7 5 -11 8605 1308 1
7 -5 -10 9633 1588 1
7 5 -10 10168 1546 1
7 -5 -10 7577 1129 1
7 -5 -9 14596 1646 1
7 5 -9 15709 1190 1
7 5 -9 14061 1520 1
7 -5 -9 12198 1146 1
7 -5 -8 1459 326 1
7 5 -8 1048 229 1
7 5 -8 1115 401 1
7 5 -7 84290 3127 1
7 -5 -7 79851 2747 1
7 5 -7 83528 2296 1
7 5 -6 5879 623 1
7 5 -6 5365 630 1
7 -5 -6 5789 793 1
7 5 -6 5993 806 1
7 5 -5 3079 559 1
7 5 -5 2713 434 1
7 5 -5 2848 479 1
7 -5 -5 2103 455 1
-7 5 5 3391 1025 1
7 5 -4 27111 1993 1
7 5 -4 19740 1013 1
7 5 -4 21277 1404 1
-7 5 4 26031 2901 1
7 -5 -4 19124 1506 1
7 5 -3 13564 1373 1
7 5 -3 12188 971 1
7 -5 -3 11116 1071 1
7 5 -2 2939 610 1
7 5 -2 3512 453 1
7 -5 -2 4019 551 1
-7 5 2 2758 641 1
-7 5 1 780 235 1
7 5 -1 431 205 1
-7 -5 1 1171 405 1
7 5 -1 930 372 1
7 5 -1 1086 296 1
7 -5 -1 1051 317 1
-7 5 1 1296 540 1
7 5 0 15422 1430 1
-7 5 0 16094 1196 1
-7 -5 0 15100 1407 1
7 5 0 15491 1367 1
7 -5 0 14785 1335 1
7 5 1 1123 311 1
-7 5 -1 747 258 1
-7 -5 -1 512 224 1
7 5 1 359 294 1
7 -5 1 603 222 1
7 -5 1 610 262 1
-7 -5 -2 1189 286 1
7 5 2 1195 597 1
7 5 2 948 729 1
7 -5 2 1797 674 1
7 -5 2 949 417 1
-7 5 -2 1292 518 1
7 5 3 2162 514 1
-7 5 -3 1827 465 1
7 5 3 3427 976 1
7 -5 3 2248 601 1
-7 -5 -3 1710 317 1
-7 5 -4 611 210 1
-7 -5 -4 458 89 1
7 5 4 393 80 1
7 5 4 1418 381 1
7 -5 4 961 301 1
-7 5 -5 9010 1126 1
7 5 5 5807 1300 1
7 -5 5 7539 1213 1
-7 -5 -5 6301 799 1
-7 -5 -6 159 92 1
7 5 6 3 42 1
-7 -5 -7 359 262 1
7 5 7 831 661 1
-7 5 -7 824 409 1
-7 5 -8 5874 1188 1
7 5 8 6621 1625 1
7 -6 -14 1665 630 1
-7 -6 14 1747 633 1
7 6 -14 1750 671 1
7 -6 -13 660 641 1
-7 -6 13 723 528 1
7 6 -13 843 540 1
7 -6 -12 4158 950 1
-7 -6 12 5154 1127 1
7 6 -12 3462 808 1
7 -6 -11 4832 1170 1
7 6 -11 5589 1176 1
-7 -6 11 5468 1255 1
7 -6 -10 211 165 1
7 -6 -10 11 276 1
-7 -6 10 2 178 1
7 -6 -9 1137 429 1
7 -6 -9 924 501 1
7 6 -9 1158 497 1
7 6 -8 29035 1784 1
7 -6 -8 30246 1681 1
7 6 -8 31027 1358 1
7 6 -7 3494 380 1
7 6 -7 4963 716 1
7 -6 -7 3521 569 1
7 6 -7 4190 480 1
-7 -6 6 10448 854 1
7 6 -6 10454 881 1
7 6 -6 11542 728 1
7 -6 -6 10366 865 1
7 6 -6 12035 877 1
-7 -6 5 334 66 1
7 6 -5 360 96 1
7 6 -5 453 91 1
7 6 -5 666 165 1
7 -6 -5 197 108 1
-7 6 5 674 431 1
-7 -6 4 39590 2622 1
7 6 -4 35875 2010 1
-7 6 4 40955 3076 1
7 6 -4 32732 1561 1
7 -6 -4 37270 1938 1
7 6 -4 36253 1211 1
-7 -6 3 209 78 1
7 6 -3 530 132 1
7 6 -3 428 139 1
7 -6 -3 108 18 1
-7 6 3 88 113 1
7 6 -2 10173 1101 1
-7 -6 2 9433 1084 1
7 6 -2 8325 1047 1
-7 6 2 6472 1019 1
7 -6 -2 9550 939 1
7 6 -2 9013 794 1
7 6 -1 2508 612 1
-7 -6 1 2501 642 1
7 6 -1 2153 683 1
7 6 -1 2385 521 1
7 -6 -1 2053 494 1
-7 6 1 1824 624 1
-7 6 1 1535 396 1
7 6 0 203 311 1
-7 6 0 1291 442 1
-7 -6 0 1250 522 1
7 6 0 1044 588 1
7 6 0 1082 476 1
7 -6 0 564 377 1
-7 6 0 780 505 1
7 6 1 323 230 1
-7 6 -1 268 88 1
-7 -6 -1 38 165 1
7 6 1 173 247 1
7 -6 1 272 170 1
-7 6 -1 39 321 1
7 6 2 14966 1543 1
7 -6 2 13151 1231 1
7 6 2 12731 1934 1
7 -6 2 11404 1297 1
-7 6 -2 15046 1375 1
-7 -6 -2 9988 426 1
7 6 3 6327 837 1
7 6 3 7790 1415 1
-7 6 -3 6748 792 1
7 -6 3 6797 913 1
-7 -6 -3 5632 501 1
7 6 4 9279 1150 1
7 6 4 9850 1823 1
-7 6 -4 10702 1266 1
7 -6 4 11427 1434 1
-7 -6 -4 10693 958 1
7 6 5 12274 1935 1
7 -6 5 12519 1452 1
-7 -6 -5 9786 963 1
-7 6 -5 11716 1313 1
-7 6 -6 13925 1572 1
7 6 6 13375 2225 1
-7 -6 -6 12785 1304 1
7 -6 6 16987 1927 1
7 6 7 2 384 1
-7 6 -7 2 231 1
7 6 8 0 94 1
-7 6 -8 4 161 1
7 -7 -13 863 627 1
-7 -7 13 1536 710 1
7 7 -13 2076 776 1
7 -7 -12 124 93 1
-7 -7 12 164 301 1
7 7 -12 146 241 1
7 -7 -11 15270 1955 1
-7 -7 11 18090 2140 1
7 7 -11 13577 1693 1
7 -7 -10 2 80 1
7 -7 -10 180 290 1
-7 -7 10 376 531 1
7 7 -10 141 227 1
-7 7 10 2 530 1
7 -7 -9 511 209 1
-7 -7 9 626 341 1
-7 7 9 75 439 1
7 7 -9 449 168 1
-7 -7 8 15164 1808 1
7 7 -8 12260 1298 1
7 -7 -8 13201 1195 1
7 7 -8 13558 945 1
7 -7 -7 16 184 1
7 7 -7 18 145 1
7 7 -7 45 203 1
-7 -7 7 15 112 1
-7 7 7 28 123 1
-7 -7 6 1655 391 1
7 7 -6 1904 406 1
-7 -7 6 2502 717 1
7 -7 -6 2112 435 1
7 7 -6 2369 356 1
-7 7 6 2426 723 1
-7 -7 5 3828 434 1
-7 -7 5 4579 846 1
7 7 -5 4295 440 1
7 -7 -5 4695 586 1
7 7 -5 4225 447 1
-7 7 5 4530 907 1
7 7 -4 13845 712 1
-7 -7 4 16787 1689 1
-7 7 4 14798 1787 1
7 7 -4 15415 1023 1
7 -7 -4 14195 1166 1
-7 -7 4 13943 777 1
7 7 -3 7417 1126 1
-7 -7 3 9744 1336 1
7 7 -3 7900 1106 1
-7 7 3 8786 1387 1
7 7 -3 9990 874 1
7 -7 -3 8852 1011 1
7 7 -2 1751 512 1
7 7 -2 2703 477 1
-7 -7 2 3610 757 1
7 7 -2 3975 784 1
-7 7 2 3975 633 1
7 -7 -2 2603 540 1
-7 7 2 2675 737 1
7 7 -1 7118 1173 1
-7 -7 1 5482 1070 1
7 7 -1 6015 1207 1
7 7 -1 7083 948 1
-7 7 1 8973 1445 1
7 -7 -1 6813 999 1
-7 7 1 7163 981 1
-7 -7 0 344 200 1
-7 7 0 14 114 1
7 7 0 232 271 1
7 7 0 336 412 1
7 7 0 130 125 1
7 -7 0 274 217 1
-7 7 0 192 232 1
7 7 1 546 427 1
7 7 1 612 563 1
-7 7 -1 515 352 1
7 -7 1 735 417 1
-7 7 -1 408 373 1
-7 7 -2 410 269 1
-7 -7 -2 217 68 1
7 7 2 355 264 1
7 -7 2 148 97 1
-7 7 -2 283 253 1
-7 -7 -3 265 149 1
7 7 3 139 79 1
7 7 3 379 327 1
-7 7 -3 289 156 1
7 -7 3 660 333 1
-7 7 -3 20 91 1
-7 -7 -4 1 88 1
7 7 4 264 249 1
7 7 4 1 469 1
7 -7 4 173 122 1
-7 7 -4 352 263 1
-7 7 -5 1393 387 1
7 7 5 643 324 1
7 -7 5 1649 519 1
7 7 5 2041 441 1
-7 -7 -5 1235 338 1
-7 7 -6 314 217 1
7 7 6 248 413 1
7 -7 6 86 90 1
-7 7 -7 448 380 1
7 7 7 1195 697 1
7 -7 7 349 212 1
7 -8 -13 4448 1177 1
-7 -8 13 5206 1250 1
7 8 -13 5859 1310 1
7 8 -12 2322 637 1
7 -8 -12 1712 589 1
-7 -8 12 1611 579 1
7 8 -11 442 368 1
7 -8 -11 1009 656 1
-7 -8 11 893 654 1
-7 8 11 301 468 1
7 -8 -10 1995 547 1
7 8 -10 2251 681 1
7 -8 -10 2393 794 1
-7 -8 10 3195 922 1
-7 8 10 1827 986 1
-7 -8 9 17728 1947 1
7 8 -9 16907 1612 1
7 -8 -9 14536 1289 1
7 8 -8 2580 519 1
-7 -8 8 3019 1014 1
7 8 -8 2011 655 1
-7 8 8 1586 921 1
7 -8 -8 2214 624 1
7 -8 -7 1415 394 1
7 8 -7 1535 425 1
-7 -8 7 1074 468 1
-7 8 7 906 526 1
7 8 -7 1378 271 1
-7 -8 6 1561 717 1
-7 -8 6 1971 487 1
7 -8 -6 2046 584 1
7 8 -6 1740 495 1
7 8 -6 2423 427 1
-7 8 6 1657 813 1
-7 -8 5 12091 1461 1
-7 -8 5 10528 847 1
7 8 -5 11208 826 1
7 8 -5 11128 1344 1
-7 8 5 11479 1590 1
7 8 -5 9431 677 1
7 -8 -5 12057 1057 1
7 8 -4 21 85 1
-7 -8 4 2 66 1
7 8 -4 2 29 1
-7 -8 4 15 152 1
7 8 -4 2 36 1
-7 8 4 50 286 1
7 -8 -4 2 157 1
7 8 -3 1350 621 1
-7 -8 3 1480 590 1
7 8 -3 1115 345 1
7 -8 -3 1811 533 1
-7 8 3 1451 660 1
-7 -8 3 1136 211 1
7 8 -2 15997 1511 1
-7 -8 2 17599 1611 1
-7 8 2 15379 1211 1
-7 8 2 14266 1552 1
7 8 -2 17396 1110 1
7 -8 -2 15363 1221 1
7 8 -1 44249 2717 1
-7 -8 1 46429 2719 1
7 8 -1 46592 2130 1
7 -8 -1 45766 2344 1
-7 8 1 47657 2319 1
-7 8 1 43909 2867 1
-7 8 0 643 269 1
7 8 0 1206 346 1
7 8 0 1505 415 1
7 8 0 940 241 1
7 -8 0 1283 308 1
-7 8 0 1433 301 1
7 8 1 5519 1123 1
-7 8 -1 3352 687 1
7 8 1 5206 1126 1
-7 8 -1 3985 787 1
7 -8 1 4656 844 1
7 8 2 4119 925 1
7 8 2 3972 1083 1
-7 8 -2 3675 825 1
7 -8 2 3821 754 1
-7 8 -2 5181 879 1
7 8 3 3029 689 1
7 8 3 3487 1008 1
-7 -8 -3 1975 284 1
7 -8 3 3014 583 1
-7 8 -3 3428 636 1
-7 8 -3 2216 500 1
7 8 4 1418 407 1
-7 8 -4 1419 406 1
7 8 4 1628 620 1
7 -8 4 1684 471 1
-7 8 -4 1566 460 1
-7 8 -5 6124 980 1
7 8 5 4483 851 1
7 8 5 6338 1544 1
7 -8 5 6012 998 1
-7 8 -6 383 210 1
7 -8 6 553 470 1
-7 8 -7 4445 936 1
7 8 7 4305 1294 1
7 -8 7 6179 1148 1
7 9 -13 265 300 1
7 -9 -13 781 581 1
-7 -9 13 1093 685 1
7 9 -12 909 384 1
7 -9 -12 1084 409 1
-7 -9 12 1138 523 1
7 -9 -11 4386 1036 1
-7 -9 11 4704 1112 1
7 9 -11 6036 1097 1
-7 9 11 6347 1688 1
7 -9 -10 6021 1102 1
-7 -9 10 7746 1530 1
7 9 -10 7988 1340 1
-7 9 10 7590 2180 1
-7 -9 9 3399 840 1
7 9 -9 3554 717 1
-7 9 9 5369 1347 1
7 -9 -9 3923 699 1
7 9 -8 4165 730 1
-7 -9 8 5649 1080 1
-7 9 8 6007 1266 1
7 -9 -8 5062 714 1
7 -9 -7 622 191 1
7 9 -7 431 123 1
7 9 -7 583 336 1
-7 -9 7 714 343 1
7 9 -7 621 243 1
-7 9 7 1003 518 1
7 9 -6 21396 1478 1
7 9 -6 19887 2045 1
-7 -9 6 21079 2172 1
-7 9 6 22369 2528 1
7 -9 -6 21526 1554 1
7 9 -6 19381 959 1
-7 -9 5 3779 587 1
7 9 -5 3602 874 1
7 9 -5 2925 452 1
-7 -9 5 3523 852 1
-7 9 5 5099 1154 1
7 9 -5 3757 459 1
7 -9 -5 3277 592 1
-7 -9 4 7595 778 1
7 9 -4 9720 1525 1
-7 -9 4 10661 1592 1
-7 9 4 7561 1523 1
7 9 -4 8955 705 1
7 9 -4 8815 821 1
7 -9 -4 7575 1000 1
7 9 -3 4115 300 1
-7 -9 3 3236 336 1
7 9 -3 4129 848 1
-7 -9 3 2405 627 1
7 9 -3 4217 521 1
7 -9 -3 3170 559 1
-7 9 3 3380 857 1
7 9 -2 17088 1641 1
-7 -9 2 16374 1545 1
-7 9 2 17575 1335 1
-7 9 2 13852 1565 1
7 9 -2 16674 1052 1
7 -9 -2 18724 1362 1
7 9 -1 16342 1651 1
-7 9 1 16960 1762 1
7 9 -1 18919 1282 1
7 -9 -1 17053 1386 1
-7 9 1 17729 1390 1
7 9 0 57221 3345 1
-7 9 0 51896 2506 1
-7 9 0 50299 3074 1
7 9 0 57546 2547 1
7 -9 0 52336 2483 1
7 9 1 4211 857 1
-7 9 -1 3043 594 1
7 9 1 3081 811 1
7 -9 1 2884 550 1
-7 9 -1 2844 634 1
-7 9 -2 73 24 1
7 9 2 64 341 1
7 -9 2 15 139 1
-7 9 -2 32 207 1
7 9 3 4465 986 1
7 9 3 4455 1050 1
7 -9 3 4393 754 1
-7 9 -3 3961 731 1
-7 9 -3 5514 947 1
7 9 4 1059 814 1
7 9 4 2027 732 1
-7 9 -4 2034 646 1
7 -9 4 1421 520 1
7 9 5 5352 1052 1
7 9 5 6970 1594 1
-7 9 -5 6567 1091 1
7 -9 5 6866 1129 1
-7 9 -6 1158 446 1
7 9 6 1483 831 1
7 -9 6 1487 531 1
-7 9 -7 66 114 1
7 9 7 1 631 1
7 -9 7 1 36 1
7 -10 -12 6978 1401 1
7 10 -12 6310 1267 1
-7 -10 12 7212 1370 1
7 10 -12 7928 1350 1
-7 10 12 8035 2077 1
7 -10 -11 65 231 1
7 10 -11 1 172 1
7 10 -11 33 128 1
-7 -10 11 31 225 1
-7 10 11 457 755 1
7 -10 -10 240 254 1
7 10 -10 888 491 1
-7 -10 10 461 399 1
7 10 -10 341 288 1
-7 10 10 830 633 1
7 10 -9 3269 1016 1
-7 -10 9 2483 917 1
7 10 -9 2789 883 1
-7 10 9 4524 1383 1
7 -10 -9 3763 809 1
7 10 -8 3231 835 1
-7 -10 8 2457 698 1
-7 10 8 2995 976 1
7 10 -8 3381 647 1
7 -10 -8 3779 641 1
7 10 -7 18112 961 1
7 10 -7 20121 1540 1
7 10 -7 24781 2304 1
-7 -10 7 16762 1928 1
-7 10 7 21506 2526 1
7 -10 -7 15248 1290 1
7 10 -6 11481 1617 1
7 10 -6 12575 1141 1
-7 -10 6 11516 1600 1
-7 10 6 11716 1892 1
7 -10 -6 10928 1101 1
7 10 -6 11360 695 1
7 10 -5 2 276 1
7 10 -5 0 120 1
-7 -10 5 6 139 1
-7 10 5 108 251 1
7 10 -5 10 98 1
7 -10 -5 1 158 1
7 10 -4 18856 1960 1
-7 -10 4 20875 1354 1
-7 -10 4 20288 2023 1
-7 10 4 19429 2267 1
7 10 -4 20576 1044 1
7 -10 -4 20313 1493 1
7 10 -4 20219 997 1
7 10 -3 542 199 1
7 10 -3 472 475 1
-7 -10 3 454 255 1
7 10 -3 722 316 1
-7 10 3 316 533 1
7 -10 -3 322 356 1
7 10 -2 314 235 1
-7 10 2 500 275 1
-7 -10 2 469 131 1
7 10 -2 531 198 1
-7 10 2 1146 509 1
7 -10 -2 810 314 1
7 10 -1 538 287 1
-7 10 1 378 76 1
7 10 -1 330 157 1
-7 10 1 610 270 1
7 -10 -1 676 240 1
7 10 0 546 364 1
-7 10 0 350 158 1
7 10 0 324 193 1
7 -10 0 663 281 1
-7 10 0 826 414 1
7 10 1 2412 774 1
7 -10 1 2362 615 1
-7 10 -1 1839 553 1
-7 10 -1 2131 708 1
-7 10 -2 8225 1127 1
7 10 2 9935 1479 1
7 10 2 8216 1511 1
-7 10 -2 8812 1280 1
7 -10 2 9374 1159 1
-7 10 -3 64 102 1
7 10 3 623 334 1
7 10 3 649 293 1
7 -10 3 548 225 1
-7 10 -3 414 174 1
7 10 4 3672 1014 1
7 10 4 5809 1378 1
7 -10 4 4491 808 1
-7 10 -4 4301 846 1
7 10 5 3 221 1
7 10 5 234 313 1
-7 10 -5 160 228 1
7 -10 5 120 81 1
-7 10 -6 432 44 1
7 10 6 0 213 1
7 -11 -12 3519 1082 1
7 11 -12 2378 821 1
7 11 -12 3206 918 1
-7 11 12 4116 1782 1
7 -11 -11 2596 841 1
7 11 -11 3056 1057 1
7 11 -11 3165 835 1
-7 11 11 1260 861 1
-7 -11 10 3998 924 1
7 11 -10 4157 1073 1
7 11 -10 5119 912 1
-7 11 10 5977 1430 1
7 -11 -9 368 280 1
7 11 -9 628 585 1
-7 -11 9 588 369 1
7 11 -9 369 307 1
-7 11 9 839 653 1
7 11 -8 12912 1323 1
7 11 -8 10495 1550 1
-7 -11 8 11465 1629 1
-7 11 8 13550 2083 1
7 -11 -8 12563 1193 1
7 11 -7 5238 1229 1
7 11 -7 5532 958 1
-7 11 7 4304 1333 1
-7 -11 7 5142 1226 1
7 -11 -7 3669 744 1
7 11 -6 5789 1222 1
7 11 -6 4539 693 1
7 -11 -6 5836 826 1
7 11 -6 4527 429 1
7 11 -5 3015 756 1
7 11 -5 2633 367 1
-7 11 5 1513 615 1
7 11 -5 2547 268 1
7 -11 -5 2439 447 1
7 11 -4 2479 287 1
7 11 -4 2105 557 1
7 11 -4 4283 392 1
-7 11 4 2645 682 1
7 -11 -4 2613 430 1
7 11 -3 14987 1790 1
-7 11 3 14576 1963 1
7 11 -3 14927 976 1
7 -11 -3 13863 1251 1
7 11 -2 8724 1471 1
-7 11 2 11426 1335 1
-7 11 2 10911 1699 1
7 11 -2 13550 1116 1
7 -11 -2 11083 1158 1
7 11 -1 192 267 1
-7 11 1 655 254 1
7 11 -1 350 156 1
-7 11 1 447 317 1
7 -11 -1 397 148 1
7 11 0 3810 933 1
-7 11 0 3867 725 1
7 11 0 4762 718 1
7 -11 0 3925 686 1
-7 11 0 3782 879 1
7 11 1 4707 917 1
-7 11 -1 4438 759 1
7 -11 1 3265 583 1
-7 11 -1 2683 624 1
7 11 2 852 452 1
-7 11 -2 1751 484 1
7 -11 2 672 252 1
-7 11 -2 556 215 1
7 11 3 300 330 1
-7 11 -3 818 364 1
7 11 3 890 546 1
7 -11 3 241 192 1
-7 11 -3 156 82 1
7 11 4 3029 786 1
7 11 4 1936 740 1
7 -11 4 3798 722 1
-7 11 -4 5057 936 1
7 11 5 4 553 1
7 11 5 279 129 1
-7 11 -5 22 122 1
7 -11 5 617 352 1
7 11 6 578 477 1
-7 11 -6 1726 565 1
7 -11 6 1684 550 1
7 12 -11 170 333 1
7 12 -11 177 299 1
-7 12 11 304 625 1
7 12 -10 3 111 1
7 12 -10 502 321 1
-7 12 10 3 411 1
7 -12 -9 6771 1027 1
7 12 -9 8996 1396 1
7 12 -9 3836 1013 1
-7 12 9 6488 1543 1
7 -12 -8 401 156 1
7 12 -8 900 336 1
7 12 -8 72 140 1
-7 12 8 642 401 1
7 12 -7 3805 971 1
7 12 -7 3592 626 1
-7 12 7 3409 1057 1
7 -12 -7 4302 744 1
7 12 -6 8835 1304 1
7 12 -6 8576 818 1
-7 12 6 9919 1611 1
7 -12 -6 7288 811 1
7 12 -5 6318 1267 1
-7 12 5 6052 1348 1
7 12 -5 4622 618 1
7 -12 -5 5679 823 1
7 12 -4 1794 590 1
7 12 -4 1979 309 1
-7 12 4 2983 896 1
7 12 -4 2459 286 1
7 -12 -4 3017 543 1
7 12 -3 12119 1708 1
-7 12 3 9575 1722 1
7 12 -3 11541 795 1
7 -12 -3 11260 1121 1
7 12 -2 240 572 1
7 12 -2 64 140 1
-7 12 2 284 547 1
7 -12 -2 34 67 1
-7 12 1 5087 876 1
7 12 -1 3700 995 1
7 12 -1 5052 657 1
7 -12 -1 4800 779 1
-7 12 1 4807 1108 1
7 12 0 577 569 1
-7 12 0 1851 680 1
7 12 0 1483 511 1
7 -12 0 1832 587 1
-7 12 0 1968 845 1
-7 12 -1 158 240 1
-7 12 -1 131 237 1
7 -12 1 264 183 1
7 12 2 808 637 1
-7 12 -2 353 288 1
7 -12 2 442 305 1
-7 12 -2 598 542 1
7 12 3 212 72 1
7 12 3 48 134 1
7 -12 3 315 215 1
-7 12 -3 0 111 1
-7 12 -4 5 191 1
7 12 4 5 113 1
7 12 4 190 30 1
7 -12 4 240 189 1
7 12 5 4758 1411 1
7 12 5 4605 1113 1
7 -12 5 4073 833 1
-7 12 -5 4477 957 1
7 13 -10 921 585 1
7 13 -10 840 550 1
-7 13 10 576 558 1
7 -13 -9 263 137 1
7 13 -9 453 437 1
7 13 -9 314 273 1
-7 13 9 426 531 1
7 -13 -8 121 185 1
7 13 -8 341 407 1
-7 13 8 131 248 1
7 13 -8 170 219 1
7 13 -7 9775 1464 1
7 13 -7 8189 907 1
-7 13 7 7088 1452 1
7 -13 -7 9450 1006 1
7 13 -6 13595 1958 1
-7 13 6 16952 2407 1
7 13 -6 12088 1068 1
7 -13 -6 13924 1276 1
7 13 -5 2845 934 1
-7 13 5 3880 1232 1
7 -13 -5 3869 710 1
7 13 -5 3444 581 1
7 13 -4 10473 1807 1
7 13 -4 9861 828 1
-7 13 4 9133 1771 1
7 -13 -4 10936 1132 1
7 13 -3 8948 1509 1
-7 13 3 10340 1683 1
7 -13 -3 7481 894 1
7 13 -2 7885 1650 1
-7 13 2 5782 1382 1
7 13 -2 5620 630 1
7 -13 -2 7625 984 1
7 13 -1 3203 728 1
7 13 -1 3363 447 1
-7 13 1 3381 836 1
7 -13 -1 2914 505 1
-7 13 1 3717 642 1
7 13 0 509 347 1
7 13 0 182 207 1
-7 13 0 816 461 1
-7 13 0 397 139 1
7 -13 0 479 261 1
-7 13 -1 2157 656 1
7 13 1 2018 823 1
7 -13 1 2336 650 1
-7 13 -1 3742 959 1
7 13 2 1176 719 1
-7 13 -2 807 447 1
-7 13 -2 1065 473 1
7 -13 2 1003 351 1
7 13 3 839 512 1
-7 13 -3 173 263 1
7 -13 3 627 302 1
-7 13 -3 856 461 1
-7 13 -4 3788 824 1
7 13 4 5363 1162 1
7 13 4 4525 1241 1
7 -13 4 5642 900 1
7 14 -10 471 448 1
7 14 -10 251 220 1
-7 14 10 356 219 1
7 -14 -9 731 384 1
7 14 -9 487 416 1
-7 14 9 599 505 1
7 14 -9 864 421 1
7 14 -8 7740 1539 1
7 14 -8 6486 991 1
-7 14 8 6556 1618 1
7 -14 -8 9222 1204 1
7 -14 -7 0 90 1
7 14 -7 184 159 1
7 14 -7 834 328 1
-7 14 7 507 430 1
7 -14 -6 1273 366 1
7 14 -6 458 405 1
-7 14 6 1391 697 1
7 14 -6 1429 388 1
7 -14 -5 241 73 1
7 14 -5 489 309 1
7 14 -5 528 163 1
7 14 -4 291 460 1
7 14 -4 415 194 1
-7 14 4 662 440 1
7 -14 -4 625 276 1
7 14 -3 1236 824 1
-7 14 3 128 500 1
7 -14 -3 832 386 1
7 14 -2 11 322 1
-7 14 2 492 634 1
7 -14 -2 105 184 1
-7 14 1 364 309 1
7 14 -1 216 177 1
-7 14 1 508 526 1
7 -14 -1 261 267 1
7 14 0 763 515 1
-7 14 0 1216 683 1
7 -14 0 395 165 1
-7 14 0 713 338 1
7 14 1 1332 664 1
-7 14 -1 729 376 1
7 14 1 1125 388 1
-7 14 -1 1331 692 1
7 -14 1 1475 462 1
7 14 2 246 356 1
-7 14 -2 909 564 1
7 -14 2 0 172 1
-7 14 -2 503 377 1
-7 14 -3 6465 1162 1
-7 14 -3 4966 1183 1
7 14 3 5029 1230 1
7 -14 3 6004 975 1
7 15 -9 881 382 1
7 15 -9 154 237 1
7 -15 -8 361 311 1
7 15 -8 397 502 1
7 15 -8 3 122 1
-7 15 8 142 432 1
7 -15 -7 225 191 1
7 15 -7 28 165 1
7 15 -7 531 242 1
-7 15 7 799 633 1
7 -15 -6 280 212 1
7 15 -6 158 192 1
7 15 -6 159 352 1
-7 15 6 280 481 1
7 -15 -5 32 49 1
7 15 -5 897 589 1
-7 15 5 3 467 1
7 15 -4 570 370 1
-7 15 4 731 539 1
7 -15 -4 694 217 1
7 15 -3 515 560 1
7 -15 -3 1063 328 1
-7 15 2 87 224 1
7 -15 -2 35 120 1
-7 15 1 3478 824 1
7 15 -1 1829 749 1
-7 15 1 3781 1146 1
7 -15 -1 2863 600 1
-7 15 0 338 321 1
7 15 0 526 514 1
-7 15 0 0 365 1
7 -15 0 88 161 1
-7 15 -1 2316 687 1
-7 15 -1 2401 825 1
7 -15 1 1793 502 1
7 15 1 4092 1221 1
-7 15 -2 5609 1070 1
7 15 2 3907 1167 1
7 -15 2 3729 758 1
-7 15 -2 6134 1450 1
7 -16 -7 329 243 1
7 16 -7 279 497 1
-7 16 7 0 176 1
7 -16 -6 738 342 1
7 16 -6 1700 883 1
-7 16 6 1051 787 1
7 16 -5 32070 3538 1
-7 16 5 24697 3232 1
7 -16 -5 24909 1795 1
7 -16 -4 142 61 1
7 16 -4 2 469 1
-7 16 4 130 257 1
7 16 -3 628 472 1
7 -16 -3 1134 334 1
7 16 -2 16 98 1
7 -16 -2 29 87 1
-7 16 1 4794 953 1
7 16 -1 5224 1351 1
-7 16 1 4852 1407 1
7 -16 -1 3699 660 1
7 16 0 15 175 1
-7 16 0 443 279 1
-7 16 0 827 635 1
7 -16 0 418 195 1
7 16 1 3 315 1
-7 16 -1 446 322 1
-7 16 -1 3 166 1
7 -16 1 202 224 1
7 -17 -5 367 308 1
7 17 -5 6 54 1
-7 17 5 1 441 1
7 -17 -4 128 25 1
7 17 -4 2282 1001 1
-7 17 4 1367 858 1
7 -17 -3 650 272 1
7 17 -3 1266 682 1
-7 17 3 498 430 1
7 17 -2 0 272 1
-7 17 2 18 125 1
7 -17 -2 543 301 1
7 17 -1 387 498 1
-7 17 1 877 585 1
7 -17 -1 157 201 1
8 0 -14 40 283 1
8 0 -12 50 244 1
8 0 -10 31385 2439 1
8 0 -10 30764 1775 1
8 0 -8 225 308 1
8 0 -8 339 500 1
8 0 -6 16 23 1
8 0 -6 40 37 1
8 0 -4 257 145 1
8 0 -4 180 134 1
8 0 -2 816 254 1
8 0 -2 677 116 1
8 0 -2 954 192 1
8 0 0 25832 1398 1
8 0 0 25128 2375 1
8 0 0 30304 2143 1
-8 0 0 31897 1291 1
8 0 2 33362 2923 1
8 0 2 29322 1728 1
8 0 2 34045 2377 1
-8 0 -2 33255 1533 1
-8 0 -4 4333 699 1
8 0 4 4166 1180 1
-8 0 -6 8139 1161 1
8 0 6 9813 1981 1
8 -1 -14 81 350 1
8 1 -14 81 44 1
8 -1 -13 1550 807 1
8 1 -13 1265 747 1
8 -1 -12 1153 518 1
8 1 -12 492 289 1
8 -1 -11 239 285 1
8 1 -11 301 192 1
8 -1 -11 273 366 1
8 1 -11 577 388 1
8 -1 -10 89 294 1
8 1 -10 296 300 1
8 -1 -10 163 502 1
8 1 -10 1048 746 1
8 -1 -9 12635 1574 1
8 1 -9 15128 1790 1
8 -1 -9 13201 1250 1
8 1 -9 13053 1204 1
8 -1 -8 20713 1706 1
8 1 -8 25392 1923 1
8 -1 -8 21745 1464 1
8 1 -8 24808 1514 1
8 -1 -7 16389 1304 1
8 1 -7 14779 1171 1
-8 1 7 17772 1091 1
8 1 -7 15880 1063 1
8 -1 -7 18053 1174 1
8 1 -6 13759 1201 1
-8 1 6 14343 1225 1
8 1 -6 14517 1185 1
8 -1 -6 13740 1166 1
8 -1 -6 13862 1264 1
8 1 -5 3916 489 1
-8 1 5 3682 614 1
8 1 -5 5193 653 1
8 -1 -5 4952 642 1
8 1 -4 9835 854 1
8 -1 -4 8980 805 1
-8 1 4 7410 1143 1
8 1 -4 8899 682 1
8 1 -4 8523 1037 1
8 1 -4 9084 1054 1
8 -1 -4 9698 1107 1
8 -1 -3 747 239 1
8 1 -3 1039 221 1
8 1 -3 883 399 1
8 1 -3 1096 371 1
8 -1 -3 1206 419 1
8 1 -2 1144 180 1
8 1 -2 1026 340 1
8 -1 -2 1123 359 1
8 1 -2 710 164 1
8 -1 -2 1353 320 1
8 -1 -2 1307 235 1
8 -1 -1 153 53 1
8 1 -1 254 39 1
8 -1 -1 153 174 1
8 1 -1 611 148 1
8 -1 -1 153 97 1
8 1 -1 429 62 1
8 -1 0 75 125 1
-8 -1 0 6 60 1
-8 1 0 345 151 1
8 1 0 589 476 1
8 -1 0 387 347 1
8 1 0 267 163 1
8 1 0 5 106 1
8 -1 0 368 286 1
-8 1 -1 470 119 1
8 1 1 121 56 1
8 1 1 467 314 1
-8 -1 -1 383 95 1
8 -1 1 320 178 1
8 1 1 540 214 1
8 -1 1 399 228 1
8 -1 1 67 128 1
8 -1 1 317 56 1
8 1 1 675 254 1
8 1 2 535 175 1
8 1 2 49 62 1
8 1 2 796 382 1
8 -1 2 232 168 1
-8 -1 -2 240 89 1
8 1 2 129 109 1
8 -1 2 49 141 1
-8 1 -2 232 91 1
8 -1 2 609 150 1
8 1 2 657 244 1
8 -1 3 1085 233 1
-8 -1 -3 1091 281 1
8 1 3 1196 308 1
-8 1 -3 1067 302 1
8 1 3 1665 711 1
8 -1 3 1951 756 1
8 -1 3 548 318 1
-8 1 -4 210 186 1
8 -1 4 29 421 1
-8 -1 -4 201 233 1
8 1 5 1668 659 1
8 -1 5 1446 551 1
-8 -1 -5 1222 320 1
-8 1 -5 1023 262 1
8 1 6 521 495 1
8 -1 6 3 141 1
-8 -1 -6 3 228 1
-8 1 -6 124 153 1
8 1 7 2568 1114 1
-8 -1 -7 2890 738 1
8 -1 7 2675 1189 1
-8 1 -7 2754 753 1
8 -2 -14 1552 760 1
8 2 -14 1205 669 1
8 -2 -13 1035 670 1
8 2 -13 796 524 1
8 -2 -12 400 357 1
8 2 -12 47 114 1
8 -2 -11 6072 781 1
8 -2 -11 5811 946 1
8 2 -11 6148 967 1
8 -2 -10 14779 1704 1
8 2 -10 16094 1752 1
8 -2 -10 13440 1208 1
8 2 -10 12946 1181 1
8 -2 -9 16927 1557 1
8 2 -9 20668 1745 1
8 -2 -9 18164 1280 1
8 2 -9 18348 1244 1
8 -2 -8 2175 647 1
8 2 -8 1130 482 1
-8 2 8 1316 341 1
8 -2 -8 1456 414 1
8 2 -8 1829 453 1
8 -2 -7 1248 431 1
8 2 -7 802 289 1
-8 2 7 991 324 1
8 2 -7 1080 310 1
8 -2 -7 993 342 1
8 2 -6 6155 813 1
-8 2 6 4797 740 1
8 2 -6 5010 682 1
8 -2 -6 5446 744 1
8 2 -5 14189 860 1
-8 2 5 14320 1179 1
8 2 -5 15776 1017 1
8 2 -5 17078 1152 1
8 -2 -5 16213 1133 1
8 2 -4 39 72 1
8 2 -4 80 83 1
8 2 -4 0 92 1
8 2 -4 58 66 1
8 -2 -4 147 110 1
8 2 -3 4964 518 1
8 2 -3 5567 493 1
8 2 -3 4925 999 1
8 -2 -3 6912 794 1
8 2 -3 6202 906 1
8 -2 -3 6864 1020 1
8 2 -2 1803 190 1
8 -2 -2 2407 377 1
8 2 -2 1928 205 1
8 2 -2 2382 618 1
8 2 -2 2285 484 1
8 -2 -2 1786 441 1
8 -2 -1 49 120 1
8 2 -1 58 57 1
8 2 -1 0 140 1
8 -2 -1 3 112 1
8 -2 0 1070 294 1
-8 2 0 770 188 1
8 2 0 655 126 1
8 2 0 1200 461 1
8 -2 0 896 459 1
8 2 0 1206 438 1
8 -2 0 1039 334 1
8 2 1 5179 439 1
8 2 1 5871 655 1
-8 2 -1 6151 615 1
-8 -2 -1 5987 387 1
8 2 1 7293 1156 1
8 -2 1 5549 1016 1
8 -2 1 6059 725 1
8 2 1 5548 789 1
8 -2 1 5094 746 1
8 2 2 7607 698 1
8 2 2 8963 877 1
8 -2 2 11032 981 1
8 2 2 9441 1525 1
8 -2 2 12175 1727 1
8 2 2 9677 1230 1
8 -2 2 8136 1119 1
-8 -2 -2 9650 663 1
8 2 2 12358 1408 1
-8 2 -2 10711 958 1
8 -2 3 1321 296 1
8 2 3 1746 468 1
-8 -2 -3 1494 401 1
-8 -2 -3 1520 464 1
-8 2 -3 1772 510 1
8 2 3 598 477 1
8 -2 3 1292 762 1
8 -2 3 1511 622 1
-8 2 -4 464 270 1
8 2 4 387 498 1
8 -2 4 1 230 1
8 -2 4 297 312 1
-8 -2 -4 191 191 1
8 2 5 60 765 1
8 -2 5 212 492 1
-8 -2 -5 24 151 1
-8 2 -5 29 66 1
-8 -2 -6 2326 509 1
8 2 6 1687 671 1
-8 2 -6 2638 649 1
-8 2 -7 12826 1611 1
8 2 7 7385 1735 1
8 3 -14 5269 1301 1
8 -3 -14 3113 1036 1
8 -3 -13 1226 577 1
8 3 -13 1802 769 1
8 -3 -12 723 483 1
8 3 -12 193 136 1
8 -3 -11 3739 694 1
8 -3 -11 3116 869 1
8 3 -11 2480 714 1
8 -3 -10 3893 704 1
8 3 -10 3317 674 1
8 -3 -10 3214 477 1
8 3 -10 4523 556 1
8 -3 -9 797 331 1
8 -3 -9 1284 505 1
8 3 -9 1733 596 1
8 3 -9 1262 407 1
8 -3 -8 184 183 1
8 3 -8 199 169 1
8 -3 -8 219 242 1
8 3 -8 227 275 1
-8 3 8 474 262 1
8 3 -7 811 377 1
-8 3 7 416 251 1
8 3 -7 511 261 1
8 -3 -7 703 307 1
8 3 -6 14 60 1
-8 3 6 54 117 1
8 3 -6 54 112 1
8 -3 -6 54 94 1
8 3 -5 303 185 1
-8 3 5 292 267 1
8 3 -5 548 267 1
8 3 -5 244 195 1
8 -3 -5 303 170 1
8 3 -4 1676 199 1
8 3 -4 954 154 1
8 3 -4 1688 154 1
8 3 -4 2180 321 1
8 -3 -4 1433 282 1
8 3 -3 293 95 1
8 3 -3 288 251 1
8 3 -3 866 298 1
8 -3 -3 320 225 1
8 3 -2 4422 726 1
8 3 -2 4258 580 1
8 -3 -2 4548 620 1
-8 3 1 3965 491 1
8 3 -1 3124 734 1
8 3 -1 4712 676 1
8 -3 -1 4142 683 1
-8 3 0 12452 974 1
8 3 0 11736 1275 1
8 -3 0 12951 1301 1
8 3 1 18315 1364 1
-8 3 -1 20446 1293 1
8 3 1 15787 1837 1
8 -3 1 16191 1355 1
8 -3 1 19409 2020 1
8 3 1 17621 1573 1
8 -3 1 17718 1529 1
-8 -3 -1 16697 554 1
8 3 2 157 172 1
-8 -3 -2 39 132 1
8 3 2 35 397 1
-8 -3 -2 153 129 1
8 -3 2 360 446 1
8 -3 2 5 179 1
-8 3 -2 4 94 1
8 3 3 4499 617 1
-8 -3 -3 4330 491 1
-8 -3 -3 3817 569 1
8 -3 3 4861 1232 1
8 3 3 2070 703 1
-8 3 -3 4374 674 1
8 -3 3 5482 958 1
-8 3 -4 62 53 1
8 3 4 62 275 1
8 -3 4 62 77 1
8 -3 4 25 71 1
-8 -3 -4 79 118 1
-8 -3 -5 5699 772 1
-8 3 -5 8194 1012 1
8 -3 5 9643 1691 1
8 3 5 3911 1051 1
8 -3 5 5344 1091 1
8 3 6 2273 992 1
8 -3 6 2801 922 1
-8 3 -6 1524 545 1
8 3 7 59 199 1
-8 3 -7 99 68 1
8 -4 -14 1238 780 1
8 4 -14 3175 1035 1
8 -4 -13 248 313 1
8 4 -13 139 288 1
8 -4 -12 9795 1480 1
8 4 -12 7954 1343 1
8 -4 -11 2188 494 1
8 -4 -11 1850 590 1
8 4 -11 1416 480 1
8 4 -10 1294 397 1
8 -4 -10 1633 630 1
8 4 -10 2988 794 1
8 -4 -10 2906 612 1
8 -4 -9 1138 422 1
8 -4 -9 1057 464 1
8 4 -9 811 427 1
8 4 -9 1520 428 1
8 -4 -8 215 245 1
8 4 -8 322 252 1
8 -4 -8 114 222 1
-8 4 8 132 261 1
8 4 -8 502 423 1
-8 4 7 1577 438 1
8 4 -7 1780 448 1
8 4 -7 1540 329 1
8 -4 -7 1591 383 1
8 4 -6 122 72 1
-8 4 6 122 407 1
8 4 -6 371 140 1
8 4 -6 448 158 1
8 -4 -6 574 151 1
8 4 -5 41 114 1
8 4 -5 128 48 1
8 4 -5 186 73 1
8 -4 -5 121 32 1
8 4 -4 9855 1127 1
8 4 -4 7956 517 1
8 4 -4 12245 1101 1
8 -4 -4 11410 1157 1
8 4 -4 9392 475 1
8 4 -3 7762 955 1
8 4 -3 6345 726 1
8 -4 -3 6966 830 1
8 4 -2 12457 1313 1
8 4 -2 11327 990 1
8 -4 -2 12739 1088 1
8 4 -1 4 156 1
8 4 -1 340 257 1
8 -4 -1 139 218 1
-8 4 1 177 165 1
8 4 0 16584 1560 1
8 4 0 15997 1997 1
-8 4 0 17069 1287 1
8 4 0 19110 1718 1
8 -4 0 17937 1633 1
-8 -4 -1 1068 423 1
8 4 1 1558 480 1
8 4 1 1066 603 1
-8 4 -1 1212 390 1
8 -4 1 1248 464 1
8 -4 1 1993 578 1
8 4 1 1070 460 1
8 4 2 12945 1263 1
-8 -4 -2 14661 1323 1
8 4 2 11701 1793 1
8 -4 2 13920 1533 1
-8 -4 -2 12034 615 1
8 4 3 59 201 1
8 4 3 30 311 1
-8 4 -3 6 75 1
8 -4 3 27 242 1
-8 -4 -3 0 62 1
-8 4 -4 694 309 1
8 4 4 748 526 1
-8 -4 -4 714 276 1
8 -4 4 564 325 1
-8 4 -5 21227 1783 1
8 4 5 17351 2479 1
8 -4 5 18560 1957 1
8 4 6 1036 617 1
8 -4 6 1806 700 1
-8 4 -7 5776 978 1
8 4 7 7022 1673 1
8 -5 -13 499 551 1
8 5 -13 1160 713 1
8 -5 -12 5030 1165 1
8 5 -12 3129 874 1
8 -5 -11 199 130 1
8 -5 -11 459 359 1
8 5 -11 2 161 1
8 5 -10 8494 981 1
8 -5 -10 5147 1068 1
8 5 -10 7198 1152 1
8 -5 -10 6796 901 1
8 5 -9 5675 1045 1
8 -5 -9 5353 888 1
8 5 -9 4583 692 1
8 -5 -9 5959 1159 1
8 -5 -8 133 173 1
8 5 -8 87 97 1
8 5 -8 103 185 1
8 5 -7 1975 312 1
8 -5 -7 1003 111 1
8 5 -7 1620 240 1
8 5 -6 602 218 1
8 5 -6 635 247 1
8 5 -6 238 125 1
8 -5 -6 396 222 1
8 5 -5 1844 356 1
8 5 -5 2168 301 1
8 5 -5 3444 458 1
8 -5 -5 3159 506 1
8 5 -4 93 36 1
8 5 -4 5 118 1
8 5 -4 5 69 1
8 -5 -4 225 165 1
8 5 -3 6510 1085 1
8 5 -3 9281 975 1
8 -5 -3 7757 1003 1
8 5 -2 13037 1510 1
8 5 -2 14077 1199 1
8 -5 -2 13680 1277 1
-8 5 1 2179 551 1
8 5 -1 1632 591 1
-8 -5 1 2002 734 1
8 5 -1 1732 789 1
8 5 -1 1459 536 1
8 -5 -1 2221 668 1
8 5 0 5968 895 1
8 5 0 6544 1206 1
-8 5 0 6432 764 1
8 5 0 6145 888 1
8 -5 0 5672 870 1
-8 -5 0 5569 890 1
8 5 1 3860 614 1
-8 5 -1 2959 450 1
-8 -5 -1 5041 709 1
8 5 1 4540 919 1
8 5 1 3779 639 1
8 -5 1 4167 672 1
-8 5 -2 605 285 1
8 5 2 702 332 1
8 5 2 166 184 1
8 -5 2 226 120 1
-8 -5 -3 1788 286 1
8 5 3 3886 683 1
8 5 3 2985 931 1
-8 5 -3 2535 547 1
8 -5 3 2072 579 1
-8 5 -4 579 286 1
8 5 4 1274 671 1
8 -5 4 457 272 1
-8 5 -5 2085 506 1
8 5 5 734 376 1
8 -5 5 1635 524 1
-8 5 -6 23835 2000 1
8 5 6 19053 2670 1
8 -5 6 23116 2241 1
-8 5 -7 697 394 1
8 5 7 177 452 1
8 -5 7 295 336 1
8 -6 -13 14408 2147 1
-8 -6 13 11969 1927 1
8 6 -13 8585 1402 1
8 -6 -12 2048 786 1
-8 -6 12 2564 916 1
8 6 -12 1684 663 1
8 -6 -11 1667 435 1
8 -6 -11 1653 547 1
8 6 -11 1308 394 1
8 -6 -10 6 127 1
8 -6 -10 6 135 1
8 6 -10 197 188 1
8 6 -9 4742 715 1
8 -6 -9 4434 674 1
8 6 -9 3836 505 1
8 -6 -8 58 185 1
8 6 -8 2 90 1
8 6 -8 5 297 1
8 6 -7 13408 829 1
8 6 -7 15085 1238 1
8 -6 -7 18617 1451 1
8 6 -7 17546 1132 1
8 6 -6 5951 804 1
8 6 -6 5405 736 1
8 6 -6 6284 763 1
8 -6 -6 5770 888 1
-8 6 6 7322 1651 1
8 6 -5 55430 2552 1
8 6 -5 53622 1695 1
-8 6 5 55481 3912 1
8 6 -5 49682 1940 1
8 -6 -5 50094 2274 1
8 6 -4 40231 2560 1
8 6 -4 32640 1714 1
-8 6 4 38957 3293 1
8 -6 -4 32027 1913 1
-8 -6 3 1052 346 1
8 6 -3 1129 420 1
8 6 -3 694 215 1
8 -6 -3 655 142 1
-8 6 3 546 353 1
8 6 -2 1300 366 1
8 6 -2 1057 387 1
8 6 -2 920 226 1
8 -6 -2 976 269 1
-8 -6 2 809 290 1
-8 6 2 471 253 1
8 6 -1 43321 2613 1
-8 -6 1 44193 2671 1
8 6 -1 54499 3865 1
8 6 -1 43258 2241 1
8 -6 -1 37771 2188 1
-8 6 1 41327 2019 1
-8 6 1 49660 3279 1
8 6 0 6312 871 1
-8 -6 0 7191 924 1
-8 6 0 6049 693 1
8 6 0 5706 1080 1
8 6 0 5843 776 1
8 -6 0 6148 834 1
8 6 1 180 269 1
-8 -6 -1 45 102 1
8 6 1 24 147 1
-8 6 -1 208 200 1
8 6 1 19 145 1
8 -6 1 16 129 1
-8 6 -2 1441 403 1
8 6 2 2931 659 1
8 6 2 3343 913 1
8 -6 2 2926 641 1
8 6 3 4383 882 1
8 6 3 3479 1140 1
8 -6 3 2978 782 1
-8 6 -3 4619 865 1
8 6 4 2187 1018 1
-8 6 -4 3523 751 1
8 -6 4 1576 642 1
-8 6 -5 608 372 1
8 6 5 347 450 1
8 -6 5 243 254 1
-8 6 -6 439 372 1
8 6 6 351 284 1
8 -6 6 443 402 1
8 -7 -13 96 56 1
-8 -7 13 50 166 1
8 7 -13 406 287 1
8 -7 -12 5815 1125 1
-8 -7 12 7051 1281 1
8 7 -12 7682 1203 1
8 -7 -11 198 240 1
8 -7 -11 459 423 1
-8 -7 11 527 322 1
8 7 -11 0 128 1
8 -7 -10 101 176 1
8 -7 -10 209 189 1
-8 -7 10 686 369 1
8 7 -10 496 192 1
8 -7 -9 1746 482 1
8 7 -9 1295 312 1
-8 -7 9 1576 648 1
8 7 -9 351 194 1
-8 -7 8 13843 1711 1
8 7 -8 13869 1275 1
-8 7 8 16028 2354 1
8 -7 -8 15110 1247 1
8 7 -8 13465 946 1
-8 -7 7 9590 1441 1
8 7 -7 8069 774 1
8 7 -7 10466 1022 1
8 -7 -7 8794 986 1
8 7 -7 9765 790 1
-8 -7 6 28359 2547 1
8 7 -6 25495 1711 1
8 7 -6 28028 1582 1
8 7 -6 25020 1403 1
8 -7 -6 23246 1666 1
8 7 -5 1869 324 1
-8 -7 5 2032 658 1
8 7 -5 2247 536 1
8 7 -5 2301 398 1
8 -7 -5 2120 480 1
-8 -7 4 7417 1369 1
8 7 -4 5236 1139 1
8 7 -4 6761 889 1
8 -7 -4 5269 909 1
8 7 -3 2 175 1
-8 -7 3 13 97 1
8 7 -3 2 82 1
8 7 -3 154 152 1
8 -7 -3 147 194 1
-8 7 3 2 162 1
8 7 -2 10496 1224 1
-8 -7 2 10235 1211 1
8 7 -2 8429 1170 1
8 7 -2 9024 854 1
8 -7 -2 9821 1041 1
-8 7 2 10809 1611 1
8 7 -1 5352 951 1
-8 -7 1 7345 1121 1
8 7 -1 5462 1120 1
8 7 -1 5465 805 1
8 -7 -1 4370 752 1
-8 7 1 8478 1542 1
-8 7 1 6347 833 1
8 7 0 3323 710 1
-8 -7 0 2592 597 1
8 7 0 2384 789 1
-8 7 0 3141 549 1
8 7 0 2735 595 1
8 -7 0 3294 635 1
8 7 1 25585 2100 1
-8 7 -1 23874 1684 1
8 7 1 22276 1829 1
8 -7 1 26090 1960 1
-8 7 -2 13881 1223 1
8 7 2 15305 1481 1
8 7 2 15644 2138 1
8 -7 2 13358 1287 1
8 7 3 192 259 1
8 7 3 216 431 1
8 -7 3 137 191 1
-8 7 -3 227 270 1
8 7 4 4129 708 1
8 7 4 7323 1517 1
8 -7 4 6004 961 1
-8 7 -4 6244 903 1
8 7 5 12375 2194 1
-8 7 -5 10887 1346 1
8 -7 5 10627 1496 1
-8 7 -6 0 127 1
8 7 6 402 425 1
8 -7 6 267 254 1
8 8 -13 744 419 1
8 -8 -13 548 323 1
-8 -8 13 349 335 1
8 8 -12 3016 795 1
8 -8 -12 2466 769 1
-8 -8 12 3701 1013 1
8 8 -11 49 149 1
8 -8 -11 49 182 1
8 -8 -11 49 79 1
8 -8 -10 394 260 1
8 8 -10 484 271 1
-8 -8 10 126 206 1
-8 8 10 3 276 1
8 -8 -9 166 248 1
8 8 -9 169 190 1
8 8 -9 615 434 1
-8 -8 9 893 626 1
-8 8 9 422 651 1
-8 -8 8 7798 1273 1
8 8 -8 7978 974 1
-8 8 8 9701 1986 1
8 -8 -8 6614 802 1
8 8 -8 6742 621 1
-8 -8 7 8502 1403 1
8 8 -7 7768 823 1
8 8 -7 6734 841 1
8 -8 -7 8082 959 1
8 8 -7 6730 643 1
-8 8 7 6384 1523 1
-8 -8 6 32 57 1
8 8 -6 32 74 1
8 8 -6 32 72 1
-8 8 6 29 258 1
8 8 -6 32 62 1
8 -8 -6 32 79 1
8 8 -5 8629 1137 1
8 8 -5 6113 479 1
-8 -8 5 8967 1221 1
8 8 -5 7716 884 1
-8 8 5 10714 1558 1
8 8 -5 7311 645 1
8 -8 -5 7000 787 1
8 8 -4 257 162 1
-8 -8 4 146 151 1
8 8 -4 517 270 1
8 8 -4 406 175 1
8 -8 -4 266 179 1
-8 8 4 334 356 1
8 8 -3 2867 880 1
-8 -8 3 2469 832 1
8 8 -3 2816 826 1
8 8 -3 2428 543 1
-8 8 3 4346 1189 1
8 -8 -3 3343 747 1
8 8 -2 10926 1355 1
-8 -8 2 11957 1446 1
8 8 -2 10381 1369 1
8 8 -2 10554 993 1
-8 8 2 10704 1487 1
8 -8 -2 10381 1108 1
8 8 -1 13434 1567 1
-8 -8 1 15091 1628 1
8 8 -1 15768 1947 1
8 8 -1 15463 1347 1
-8 8 1 14755 1793 1
8 -8 -1 12467 1323 1
-8 8 1 13000 1254 1
8 8 0 2072 670 1
-8 8 0 1663 506 1
8 8 0 2144 937 1
8 8 0 2096 602 1
8 -8 0 2039 578 1
-8 8 0 1198 574 1
8 8 1 1088 594 1
8 8 1 1232 637 1
8 8 1 937 407 1
8 -8 1 1036 471 1
-8 8 -1 1710 532 1
-8 8 -1 1489 692 1
-8 8 -2 12152 1327 1
8 8 2 10824 1441 1
8 8 2 12587 2080 1
8 -8 2 9804 1230 1
-8 8 -2 14769 1704 1
-8 8 -3 1383 556 1
8 8 3 497 411 1
8 8 3 1979 981 1
8 -8 3 514 386 1
8 8 4 8307 1211 1
8 8 4 9550 1978 1
8 -8 4 8358 1203 1
-8 8 -4 10363 1266 1
8 8 5 97 302 1
-8 8 -5 2 131 1
8 -8 5 2 178 1
8 8 6 5543 1505 1
-8 8 -6 7332 1186 1
8 -8 6 9538 1420 1
8 9 -12 52 106 1
8 -9 -12 7 170 1
-8 -9 12 351 449 1
8 -9 -11 3536 796 1
8 -9 -11 3326 1011 1
8 9 -11 2733 746 1
-8 -9 11 1952 748 1
-8 9 11 2208 1092 1
8 -9 -10 4 66 1
8 9 -10 213 276 1
-8 -9 10 7 174 1
-8 9 10 165 555 1
8 -9 -9 493 238 1
8 9 -9 130 42 1
-8 -9 9 44 176 1
-8 9 9 44 263 1
8 -9 -8 751 328 1
8 9 -8 629 226 1
8 9 -8 1172 392 1
-8 -9 8 1308 583 1
-8 9 8 1198 793 1
8 9 -7 1848 794 1
-8 -9 7 2536 930 1
8 -9 -7 2077 600 1
8 9 -7 1754 399 1
-8 9 7 2200 1088 1
8 9 -7 1937 539 1
8 9 -6 2638 436 1
8 9 -6 2159 677 1
-8 -9 6 4030 873 1
8 9 -6 2539 352 1
8 -9 -6 2747 500 1
-8 9 6 2482 823 1
8 9 -5 351 203 1
8 9 -5 250 73 1
-8 -9 5 602 329 1
8 9 -5 182 102 1
-8 9 5 48 149 1
8 -9 -5 195 50 1
8 9 -4 15926 1702 1
-8 -9 4 15363 1697 1
8 9 -4 12946 517 1
-8 9 4 14454 1845 1
8 9 -4 15954 1067 1
8 -9 -4 17446 1382 1
8 9 -3 6847 1195 1
-8 -9 3 6777 1194 1
8 9 -3 6071 1095 1
-8 9 3 5146 1185 1
8 9 -3 6789 760 1
8 -9 -3 6404 907 1
8 9 -2 211 376 1
-8 -9 2 846 445 1
8 9 -2 676 471 1
8 9 -2 0 104 1
8 -9 -2 363 288 1
-8 9 2 7 132 1
-8 9 1 4553 842 1
8 9 -1 3861 952 1
8 9 -1 4396 1128 1
8 9 -1 4610 813 1
-8 9 1 6148 1288 1
8 -9 -1 5231 951 1
8 9 0 12826 1673 1
8 9 0 11953 1737 1
-8 9 0 12960 1322 1
8 9 0 13213 1330 1
-8 9 0 10743 1508 1
8 -9 0 13225 1347 1
8 9 1 10806 1432 1
-8 9 -1 11487 1165 1
8 9 1 14096 1897 1
8 9 1 11986 1239 1
8 -9 1 11309 1185 1
-8 9 -1 12813 1460 1
-8 9 -2 14604 1549 1
8 9 2 16738 1896 1
8 9 2 12310 2036 1
8 -9 2 16250 1668 1
-8 9 -2 15841 1807 1
-8 9 -3 2602 626 1
8 9 3 2465 745 1
8 9 3 2388 863 1
8 -9 3 2122 540 1
8 9 4 555 366 1
8 9 4 392 338 1
8 -9 4 686 412 1
-8 9 -4 439 251 1
8 9 5 864 713 1
-8 9 -5 274 166 1
8 -9 5 948 410 1
8 10 -12 864 537 1
8 -10 -12 3501 957 1
8 10 -12 2631 694 1
-8 -10 12 1605 687 1
8 -10 -11 66 187 1
8 -10 -11 364 427 1
8 10 -11 48 218 1
8 10 -11 5 231 1
-8 -10 11 5 192 1
-8 10 11 6 345 1
8 10 -10 6598 1454 1
-8 -10 10 7306 1452 1
8 10 -10 8009 1240 1
-8 10 10 9113 2262 1
8 -10 -10 9985 1283 1
8 -10 -9 302 301 1
8 10 -9 38 144 1
8 10 -9 75 100 1
-8 -10 9 4 189 1
-8 10 9 28 130 1
8 10 -8 2722 500 1
8 10 -8 4450 1170 1
-8 -10 8 2506 927 1
-8 10 8 3048 1207 1
8 -10 -8 3627 787 1
8 10 -8 3002 703 1
8 10 -7 7081 858 1
8 10 -7 7136 1280 1
-8 -10 7 8192 1415 1
-8 10 7 5766 1408 1
8 -10 -7 6578 891 1
8 10 -7 6061 570 1
8 10 -6 3249 1012 1
8 10 -6 3415 582 1
-8 -10 6 3336 1018 1
8 -10 -6 2854 691 1
8 10 -6 3661 538 1
-8 10 6 3254 1108 1
8 10 -5 11854 1615 1
-8 -10 5 14437 1769 1
-8 10 5 11565 1784 1
8 10 -5 10435 716 1
8 10 -5 10329 777 1
8 -10 -5 9947 1080 1
8 10 -4 2183 655 1
-8 -10 4 3125 832 1
8 10 -4 2197 260 1
8 10 -4 2243 429 1
8 -10 -4 3019 615 1
-8 10 4 2564 825 1
8 10 -3 2313 624 1
-8 -10 3 1229 540 1
8 10 -3 2223 422 1
-8 10 3 1052 506 1
8 -10 -3 1839 445 1
8 10 -2 252 405 1
8 10 -2 430 262 1
8 -10 -2 234 293 1
-8 10 2 413 453 1
-8 10 1 28851 1975 1
8 10 -1 30023 2564 1
8 10 -1 26399 2527 1
8 10 -1 26641 1713 1
-8 10 1 25465 2419 1
8 -10 -1 30233 2064 1
8 10 0 110 368 1
8 10 0 205 511 1
-8 10 0 155 297 1
8 10 0 0 165 1
8 -10 0 32 183 1
-8 10 0 77 228 1
-8 10 -1 2285 563 1
8 10 1 1818 622 1
8 10 1 1138 611 1
8 10 1 1481 457 1
8 -10 1 1629 446 1
-8 10 -1 2548 731 1
8 10 2 5 255 1
8 10 2 445 335 1
-8 10 -2 5 169 1
8 -10 2 5 214 1
-8 10 -2 5 42 1
-8 10 -3 2892 713 1
8 10 3 2738 899 1
8 10 3 1448 719 1
8 -10 3 2180 638 1
-8 10 -4 12 189 1
8 10 4 595 291 1
8 10 4 353 307 1
8 -10 4 591 236 1
8 -10 5 1700 570 1
-8 10 -5 2762 733 1
8 11 -11 808 553 1
8 11 -11 460 309 1
-8 -11 11 375 231 1
8 11 -10 8016 1701 1
-8 -11 10 7154 1485 1
-8 11 10 8114 2112 1
8 11 -10 6553 1132 1
8 -11 -10 6180 1078 1
8 -11 -9 2400 546 1
8 11 -9 3670 1032 1
-8 -11 9 1964 660 1
8 11 -9 2907 621 1
-8 11 9 2923 920 1
8 -11 -8 605 269 1
8 11 -8 790 536 1
-8 -11 8 886 594 1
8 11 -8 1172 384 1
-8 11 8 18 44 1
8 -11 -7 98 209 1
8 11 -7 117 103 1
-8 -11 7 230 360 1
8 11 -7 490 313 1
-8 11 7 347 571 1
8 11 -6 2205 705 1
8 11 -6 1627 325 1
-8 -11 6 2445 744 1
-8 11 6 2517 896 1
8 11 -6 2146 277 1
8 -11 -6 2186 519 1
8 11 -5 834 476 1
-8 -11 5 1514 675 1
8 11 -5 1629 324 1
-8 11 5 1479 741 1
8 11 -5 1415 301 1
8 -11 -5 1420 437 1
8 11 -4 57 191 1
-8 11 4 56 316 1
8 11 -4 5 94 1
8 -11 -4 56 108 1
8 11 -3 517 289 1
8 11 -3 550 200 1
-8 11 3 859 532 1
8 -11 -3 622 284 1
8 11 -2 3557 818 1
8 11 -2 4637 604 1
8 -11 -2 5784 810 1
-8 11 2 4606 936 1
8 11 -1 2766 707 1
8 11 -1 2119 403 1
-8 11 1 2816 576 1
8 -11 -1 2555 526 1
-8 11 1 3677 823 1
8 11 0 8888 1490 1
8 11 0 6879 1404 1
-8 11 0 7598 1309 1
8 11 0 6986 930 1
-8 11 0 7728 1081 1
8 -11 0 7902 1069 1
8 11 1 2277 794 1
-8 11 -1 3339 747 1
8 11 1 1595 702 1
8 11 1 2353 610 1
8 -11 1 2753 672 1
-8 11 -1 3157 915 1
8 11 2 216 418 1
8 11 2 14 266 1
-8 11 -2 15 154 1
8 -11 2 57 111 1
-8 11 -2 15 135 1
8 11 3 72 264 1
-8 11 -3 97 275 1
8 11 3 349 453 1
8 -11 3 4 59 1
8 11 4 4973 1076 1
8 11 4 4422 1379 1
8 -11 4 4333 824 1
-8 11 -4 4114 870 1
8 12 -11 196 381 1
8 12 -11 84 127 1
-8 12 11 840 896 1
8 -12 -10 1686 548 1
8 12 -10 1194 482 1
-8 12 10 1850 885 1
8 -12 -9 988 355 1
8 12 -9 720 426 1
8 12 -9 618 225 1
-8 12 9 1402 704 1
8 -12 -8 1786 527 1
8 12 -8 3005 971 1
8 12 -8 2649 604 1
-8 12 8 2199 892 1
8 -12 -7 390 268 1
8 12 -7 204 99 1
8 12 -7 1 287 1
8 12 -6 2976 895 1
8 12 -6 2898 468 1
-8 12 6 3686 1048 1
8 -12 -6 4254 740 1
8 12 -5 57 263 1
-8 12 5 106 375 1
8 -12 -5 253 263 1
8 12 -4 14086 1854 1
-8 12 4 15307 2184 1
8 -12 -4 16536 1473 1
8 12 -3 2952 1075 1
8 12 -3 3206 579 1
8 -12 -3 3010 725 1
-8 12 3 2822 1048 1
8 12 -2 8607 1512 1
-8 12 2 8222 1547 1
8 12 -2 8304 864 1
8 -12 -2 7079 968 1
-8 12 1 4681 898 1
8 12 -1 4660 1209 1
8 12 -1 3992 655 1
8 -12 -1 3670 759 1
-8 12 1 3755 1033 1
8 12 0 5092 1125 1
-8 12 0 5665 1209 1
8 12 0 5593 836 1
8 -12 0 6513 983 1
-8 12 0 4468 838 1
8 12 1 6529 1257 1
-8 12 -1 6101 952 1
8 12 1 3428 954 1
8 12 1 4612 780 1
8 -12 1 5216 865 1
-8 12 -1 5350 1074 1
-8 12 -2 4909 948 1
8 12 2 3386 998 1
8 12 2 2635 949 1
8 -12 2 2973 661 1
-8 12 -2 2385 778 1
8 12 3 180 343 1
8 12 3 565 538 1
-8 12 -3 14 91 1
8 -12 3 242 245 1
-8 12 -4 4009 880 1
8 12 4 4314 1091 1
8 12 4 3794 1309 1
8 -12 4 4678 920 1
8 -13 -10 359 220 1
8 13 -10 9 139 1
8 13 -10 311 212 1
8 -13 -9 234 178 1
8 13 -9 589 423 1
8 13 -9 3 71 1
-8 13 9 226 121 1
8 -13 -8 1387 457 1
8 13 -8 1198 380 1
8 13 -8 1304 720 1
-8 13 8 600 563 1
8 -13 -7 270 130 1
8 13 -7 326 230 1
8 13 -7 13 56 1
-8 13 7 13 263 1
8 -13 -6 820 403 1
8 13 -6 236 386 1
-8 13 6 244 444 1
8 13 -5 2513 738 1
-8 13 5 2374 823 1
8 -13 -5 1896 489 1
8 13 -4 209 130 1
-8 13 4 973 391 1
8 -13 -4 431 215 1
8 13 -3 3332 987 1
8 -13 -3 2786 594 1
-8 13 3 3606 1093 1
8 13 -2 21 396 1
-8 13 2 215 405 1
8 -13 -2 2 94 1
8 13 -1 1036 535 1
8 13 -1 463 171 1
-8 13 1 1013 513 1
-8 13 1 876 396 1
8 -13 -1 131 130 1
-8 13 0 411 301 1
8 13 0 2 152 1
8 13 0 212 129 1
-8 13 0 725 680 1
8 -13 0 410 234 1
8 13 1 3911 993 1
-8 13 -1 3100 702 1
8 13 1 2449 581 1
8 -13 1 2168 515 1
-8 13 -1 2697 799 1
8 13 2 767 683 1
8 -13 2 1724 566 1
-8 13 -2 1660 638 1
8 13 2 1813 777 1
-8 13 -2 2054 643 1
8 13 3 295 357 1
8 13 3 958 648 1
-8 13 -3 41 103 1
8 -13 3 595 381 1
8 14 -9 680 353 1
8 -14 -9 22 63 1
8 14 -9 277 177 1
-8 14 9 313 436 1
8 -14 -8 787 367 1
8 14 -8 305 436 1
-8 14 8 354 653 1
8 -14 -7 2371 581 1
8 14 -7 1104 480 1
8 -14 -6 14 77 1
8 14 -6 26 313 1
-8 14 6 116 507 1
8 14 -5 2318 821 1
-8 14 5 1923 773 1
8 -14 -5 1850 440 1
8 14 -4 4150 1186 1
-8 14 4 5323 1447 1
8 -14 -4 4019 713 1
8 14 -3 959 473 1
-8 14 3 127 136 1
8 -14 -3 1127 395 1
8 14 -2 14 233 1
-8 14 2 76 181 1
8 -14 -2 288 147 1
-8 14 1 3947 855 1
8 14 -1 2171 755 1
8 -14 -1 2772 622 1
-8 14 0 1444 478 1
8 14 0 1698 734 1
-8 14 0 1021 493 1
8 -14 0 2527 573 1
8 14 1 79 27 1
-8 14 -1 441 289 1
-8 14 -1 67 286 1
8 -14 1 212 186 1
-8 14 -2 317 252 1
8 14 2 339 380 1
8 14 2 2 598 1
8 14 2 316 234 1
8 -14 2 180 99 1
-8 14 -2 48 287 1
8 -15 -8 2080 541 1
8 15 -8 1035 519 1
-8 15 8 2351 1075 1
8 -15 -7 1123 427 1
8 15 -7 389 448 1
-8 15 7 430 707 1
8 -15 -6 0 126 1
8 15 -6 0 270 1
-8 15 6 408 646 1
8 -15 -5 1068 352 1
8 15 -5 1435 618 1
8 15 -4 2026 723 1
-8 15 4 2619 942 1
8 -15 -4 2551 594 1
8 15 -3 2549 916 1
-8 15 3 2912 979 1
8 -15 -3 4357 722 1
8 15 -2 2295 730 1
-8 15 2 1443 721 1
8 -15 -2 1723 441 1
8 15 -1 19 292 1
-8 15 1 348 354 1
-8 15 1 220 107 1
8 -15 -1 131 192 1
8 15 0 1703 789 1
-8 15 0 873 416 1
-8 15 0 2656 870 1
8 -15 0 1936 508 1
8 15 1 9655 1881 1
-8 15 -1 6949 1471 1
-8 15 -1 10725 1539 1
8 -15 1 9182 1214 1
8 -16 -6 618 352 1
8 16 -6 340 190 1
-8 16 6 68 394 1
8 -16 -5 706 356 1
8 16 -5 1585 933 1
-8 16 5 808 788 1
8 16 -4 1063 518 1
-8 16 4 936 696 1
8 -16 -4 1916 521 1
8 16 -3 469 487 1
-8 16 3 277 174 1
8 -16 -3 153 216 1
8 16 -2 9111 1780 1
-8 16 2 5493 1413 1
8 -16 -2 6214 968 1
8 16 -1 320 226 1
-8 16 1 1156 618 1
8 -16 -1 1268 440 1
9 0 -13 2671 1039 1
9 0 -11 102 260 1
9 0 -11 541 555 1
9 0 -9 42824 2473 1
9 0 -9 52144 2236 1
9 0 -7 22134 1589 1
9 0 -7 24938 1641 1
-9 0 5 17983 1363 1
9 0 -5 16613 913 1
9 0 -5 19745 1390 1
9 0 -5 19954 1209 1
9 0 -3 3661 543 1
9 0 -3 3392 893 1
9 0 -3 4289 853 1
9 0 -1 17545 1970 1
9 0 -1 15024 1031 1
9 0 -1 17795 1566 1
-9 0 -1 41821 1481 1
9 0 1 35042 2823 1
9 0 1 38457 2384 1
9 0 3 1183 413 1
-9 0 -3 61 128 1
9 0 3 1458 438 1
-9 0 -5 15463 1409 1
9 0 5 17230 2631 1
9 -1 -14 1335 711 1
9 1 -14 617 542 1
9 -1 -13 9142 1721 1
9 1 -13 10049 1748 1
9 -1 -12 961 480 1
9 1 -12 830 461 1
9 1 -12 515 396 1
9 -1 -11 1062 399 1
9 1 -11 903 355 1
9 -1 -11 1126 552 1
9 1 -11 282 306 1
9 -1 -10 546 396 1
9 1 -10 740 382 1
9 -1 -10 631 538 1
9 1 -10 424 380 1
9 -1 -9 189 204 1
9 1 -9 2524 837 1
9 -1 -9 584 320 1
9 1 -9 1841 495 1
9 -1 -8 293 260 1
9 1 -8 456 257 1
9 -1 -8 296 199 1
9 1 -8 14 83 1
9 -1 -7 201 336 1
9 1 -7 576 380 1
-9 1 7 137 171 1
9 1 -7 496 328 1
9 -1 -7 531 310 1
9 1 -6 3612 650 1
-9 1 6 3514 703 1
9 1 -6 4895 789 1
9 -1 -6 4002 715 1
9 -1 -6 4165 748 1
9 1 -5 3911 498 1
-9 1 5 5491 869 1
9 1 -5 4179 447 1
9 1 -5 4770 702 1
9 -1 -5 5105 725 1
9 1 -4 2718 494 1
9 1 -4 3144 758 1
9 1 -4 2919 700 1
9 -1 -4 4590 870 1
9 1 -4 2560 439 1
9 -1 -4 2579 536 1
9 1 -3 6845 581 1
9 -1 -3 8739 786 1
9 1 -3 5883 1000 1
9 1 -3 7778 971 1
9 -1 -3 9171 1088 1
9 1 -2 677 236 1
9 -1 -2 1004 336 1
9 1 -2 1389 620 1
9 -1 -2 514 428 1
9 1 -2 997 428 1
9 -1 -2 1282 491 1
9 -1 -1 241 131 1
9 1 -1 56 169 1
9 -1 -1 628 301 1
9 1 -1 56 164 1
9 -1 -1 239 42 1
9 1 -1 56 16 1
-9 1 0 6345 622 1
9 1 0 6645 654 1
9 1 0 5289 1139 1
9 -1 0 7089 1296 1
9 1 0 6114 969 1
9 -1 0 6311 973 1
-9 -1 -1 2573 314 1
9 1 1 3203 882 1
9 -1 1 1310 478 1
9 1 1 2296 580 1
9 -1 1 2759 576 1
-9 1 -1 2122 321 1
-9 -1 -2 2954 466 1
9 1 2 3158 576 1
9 -1 2 4636 1305 1
9 1 2 2461 981 1
9 1 2 2492 782 1
9 -1 2 3594 875 1
-9 1 -2 3469 590 1
-9 -1 -3 11715 1088 1
9 1 3 13647 2095 1
9 -1 3 10781 1860 1
9 1 3 10276 1377 1
9 -1 3 11109 1452 1
-9 -1 -3 11454 899 1
-9 1 -3 12569 1094 1
-9 -1 -4 2623 451 1
-9 1 -4 2000 421 1
9 1 4 1413 655 1
9 -1 4 2262 841 1
9 1 4 2144 659 1
9 -1 4 2463 642 1
-9 1 -5 5212 782 1
9 1 5 3708 1050 1
9 -1 5 5155 1369 1
9 -1 5 2911 898 1
-9 1 -6 911 387 1
9 1 6 291 273 1
9 -1 6 1117 634 1
9 -2 -14 1606 827 1
9 2 -14 1308 627 1
9 -2 -13 52 309 1
9 2 -13 680 660 1
9 -2 -12 4218 826 1
9 -2 -12 3999 871 1
9 2 -12 3213 780 1
9 -2 -11 385 329 1
9 2 -11 389 285 1
9 -2 -11 151 319 1
9 2 -11 1 318 1
9 -2 -10 1128 414 1
9 2 -10 1468 435 1
9 -2 -10 2215 774 1
9 2 -10 1836 674 1
9 -2 -9 11589 1415 1
9 2 -9 13665 1535 1
9 -2 -9 11642 1161 1
9 2 -9 12567 1117 1
9 -2 -8 1807 653 1
9 2 -8 1732 624 1
9 -2 -8 1832 578 1
9 2 -8 2677 621 1
9 2 -7 2772 582 1
-9 2 7 2550 573 1
9 2 -7 2460 509 1
9 -2 -7 3241 625 1
9 -2 -7 2670 627 1
9 2 -6 575 339 1
-9 2 6 317 380 1
9 2 -6 611 370 1
9 2 -5 10448 858 1
9 2 -5 11359 1126 1
9 2 -5 13219 1237 1
9 2 -5 9533 687 1
9 -2 -5 12354 1243 1
9 2 -4 16924 939 1
9 2 -4 18167 1589 1
9 2 -4 21103 1605 1
9 -2 -4 20855 1617 1
9 2 -4 18343 883 1
9 2 -3 1263 203 1
9 2 -3 942 161 1
9 2 -3 746 296 1
9 2 -3 1585 366 1
9 -2 -3 1044 275 1
9 2 -2 1376 135 1
9 2 -2 2168 503 1
9 -2 -2 2879 426 1
9 -2 -2 2885 487 1
9 2 -1 807 377 1
9 2 -1 927 358 1
9 -2 -1 1383 465 1
-9 2 0 1021 173 1
9 2 0 927 112 1
9 -2 0 940 287 1
9 2 0 565 146 1
9 -2 0 786 221 1
9 2 1 3658 664 1
-9 2 -1 4792 633 1
9 -2 1 3959 994 1
9 2 1 3891 1032 1
9 2 1 5231 969 1
9 -2 1 4895 904 1
-9 -2 -1 3496 339 1
-9 2 -2 12682 1100 1
-9 -2 -2 11017 751 1
9 2 2 11554 1073 1
9 2 2 10957 1865 1
9 -2 2 10688 1791 1
9 2 2 10066 1408 1
9 -2 2 7867 1194 1
-9 -2 -3 868 296 1
-9 -2 -3 367 115 1
9 2 3 795 477 1
9 -2 3 538 387 1
9 2 3 978 358 1
9 -2 3 1015 421 1
-9 2 -3 472 245 1
-9 2 -4 302 199 1
9 2 4 951 677 1
9 -2 4 1864 828 1
9 -2 4 1499 610 1
-9 2 -5 294 290 1
9 2 5 243 141 1
9 -2 5 21 311 1
9 -2 5 1 138 1
-9 2 -6 492 307 1
9 2 6 214 358 1
9 -2 6 13 326 1
9 -2 6 302 249 1
9 -3 -13 35 299 1
9 3 -13 183 379 1
9 -3 -12 438 234 1
9 -3 -12 718 440 1
9 3 -12 990 542 1
9 -3 -11 4246 1021 1
9 3 -11 4116 878 1
9 -3 -11 3417 686 1
9 3 -11 3904 687 1
9 -3 -10 1993 543 1
9 -3 -10 3379 931 1
9 3 -10 2292 674 1
9 3 -10 2031 490 1
9 -3 -9 9985 1428 1
9 3 -9 10332 1383 1
9 -3 -9 10595 1183 1
9 3 -9 9776 1018 1
9 -3 -8 344 213 1
9 3 -8 1046 388 1
9 -3 -8 643 271 1
9 3 -8 254 120 1
9 3 -7 12626 1318 1
-9 3 7 12185 1361 1
9 3 -7 13697 1301 1
9 -3 -7 14017 1404 1
9 3 -6 54397 2222 1
9 3 -6 55707 2400 1
9 -3 -6 52941 2502 1
9 3 -5 23978 1193 1
9 3 -5 25021 1604 1
9 3 -5 25130 1579 1
9 -3 -5 25595 1686 1
9 3 -5 22042 883 1
9 3 -4 3086 379 1
9 3 -4 3936 825 1
9 3 -4 2969 319 1
9 3 -4 4294 760 1
9 -3 -4 3849 748 1
9 3 -3 22680 2043 1
9 3 -3 18015 1470 1
9 -3 -3 19730 1659 1
9 3 -2 7360 1200 1
9 3 -2 9631 1113 1
9 -3 -2 8248 998 1
9 3 -1 125 109 1
9 3 -1 25 231 1
9 -3 -1 9 114 1
9 3 0 16905 2033 1
9 3 0 17723 1613 1
9 -3 0 17210 1565 1
-9 3 0 18764 1250 1
9 3 1 3498 575 1
-9 3 -1 3554 502 1
9 3 1 3472 972 1
9 3 1 2323 542 1
9 -3 1 2722 543 1
9 3 2 709 302 1
-9 3 -2 873 324 1
-9 -3 -2 1037 389 1
9 3 2 320 381 1
9 -3 2 227 166 1
9 3 2 827 412 1
9 -3 2 485 327 1
-9 -3 -3 40 105 1
9 3 3 154 200 1
9 -3 3 307 412 1
9 3 3 1 203 1
9 -3 3 127 162 1
-9 3 -3 0 97 1
9 3 4 4372 1234 1
9 -3 4 5422 1289 1
-9 3 -4 4730 729 1
9 -3 4 5497 1006 1
-9 3 -5 4706 788 1
9 3 5 3721 1122 1
9 -3 5 3814 1112 1
9 -3 5 4440 878 1
-9 3 -6 1436 501 1
9 3 6 495 593 1
9 -3 6 1465 743 1
9 -3 6 1487 587 1
9 -4 -13 1766 752 1
9 4 -13 2629 876 1
9 -4 -12 9 188 1
9 -4 -12 863 514 1
9 4 -12 344 432 1
9 -4 -11 293 211 1
9 4 -11 255 70 1
9 4 -11 53 239 1
9 -4 -10 8072 1357 1
9 4 -10 5888 1031 1
9 -4 -10 6341 906 1
9 4 -10 5042 680 1
9 -4 -9 1090 301 1
9 4 -9 726 216 1
9 -4 -9 1699 467 1
9 4 -9 1911 504 1
9 4 -8 2219 521 1
9 -4 -8 3591 629 1
9 4 -8 2419 405 1
9 4 -7 26707 1714 1
9 4 -7 24051 1492 1
9 -4 -7 25503 1709 1
9 4 -6 1762 430 1
9 4 -6 1359 413 1
9 4 -6 1159 380 1
9 -4 -6 1392 468 1
9 4 -5 28255 923 1
9 4 -5 30030 1201 1
9 4 -5 32901 1766 1
9 -4 -5 30541 1809 1
9 4 -4 341 208 1
9 4 -4 626 281 1
9 -4 -4 701 301 1
9 4 -3 1415 375 1
9 4 -3 1953 360 1
9 -4 -3 1697 392 1
9 4 -2 461 391 1
9 4 -2 1603 519 1
9 -4 -2 744 371 1
-9 4 1 7393 826 1
9 4 -1 5763 1179 1
9 4 -1 6420 925 1
9 -4 -1 6532 985 1
9 4 0 686 277 1
-9 -4 0 519 237 1
9 4 0 574 404 1
-9 4 0 548 150 1
9 4 0 838 352 1
9 -4 0 424 195 1
9 4 1 22626 1667 1
-9 4 -1 20645 1358 1
-9 -4 -1 23903 1763 1
9 4 1 18545 2136 1
9 4 1 23177 1904 1
9 -4 1 18870 1643 1
9 4 2 171 210 1
-9 4 -2 200 225 1
-9 -4 -2 65 60 1
9 4 2 237 222 1
9 -4 2 206 263 1
9 4 3 2678 1033 1
9 -4 3 3542 924 1
-9 4 -3 4879 862 1
9 4 4 7 86 1
-9 4 -4 241 145 1
9 -4 4 7 198 1
-9 4 -5 2703 648 1
9 4 5 3711 1264 1
9 -4 5 3483 883 1
-9 4 -6 262 140 1
9 4 6 305 360 1
9 -4 6 758 324 1
9 -5 -13 1838 718 1
9 5 -13 2149 749 1
9 -5 -12 59 203 1
9 -5 -12 40 310 1
9 5 -12 28 155 1
9 5 -11 12683 1251 1
9 -5 -11 13269 1733 1
9 5 -11 12185 1546 1
9 -5 -11 10562 1255 1
9 -5 -10 15627 1960 1
9 5 -10 18077 1913 1
9 -5 -10 14356 1483 1
9 5 -10 14159 1295 1
9 5 -9 5451 886 1
9 -5 -9 4498 748 1
9 5 -9 4332 616 1
9 -5 -9 5949 1047 1
9 5 -8 4117 773 1
9 -5 -8 3033 663 1
9 5 -8 4516 680 1
9 5 -7 12814 1153 1
9 5 -7 12755 1072 1
9 -5 -7 13921 1295 1
9 5 -6 6403 853 1
9 5 -6 5834 689 1
9 5 -6 5746 783 1
9 -5 -6 5237 848 1
9 5 -5 3239 630 1
9 5 -5 2410 308 1
9 5 -5 3704 611 1
9 -5 -5 2735 546 1
9 5 -4 18593 1835 1
9 5 -4 20182 1640 1
9 -5 -4 21089 1803 1
9 5 -3 22866 1994 1
9 5 -3 25816 1687 1
9 -5 -3 21458 1709 1
9 5 -2 305 412 1
9 5 -2 174 282 1
9 -5 -2 81 203 1
9 5 -1 524 264 1
-9 -5 1 597 371 1
9 5 -1 1340 537 1
-9 5 1 909 286 1
9 5 -1 705 276 1
9 -5 -1 357 271 1
9 5 0 6522 1013 1
-9 -5 0 7761 1150 1
9 5 0 6800 1319 1
9 5 0 7263 1062 1
-9 5 0 7667 914 1
9 -5 0 8135 1174 1
9 5 1 1712 499 1
-9 -5 -1 2234 548 1
9 5 1 1255 561 1
9 5 1 1188 432 1
9 -5 1 940 362 1
-9 5 -1 1636 407 1
9 5 2 1570 582 1
-9 5 -2 679 382 1
9 5 2 644 621 1
9 5 2 1053 544 1
9 -5 2 815 456 1
9 5 3 5165 1243 1
9 -5 3 6536 1070 1
-9 5 -3 6153 933 1
9 5 4 1285 487 1
-9 5 -4 1710 451 1
-9 5 -5 863 392 1
9 5 5 924 515 1
9 -5 5 1748 684 1
9 -6 -13 1129 655 1
-9 -6 13 1226 692 1
9 6 -13 874 505 1
9 -6 -12 2921 694 1
9 -6 -12 1159 474 1
9 6 -12 2597 712 1
9 -6 -11 76 145 1
9 -6 -11 37 59 1
9 6 -11 405 169 1
9 -6 -10 1882 548 1
9 -6 -10 2203 709 1
9 6 -10 1826 563 1
9 6 -10 2356 501 1
9 -6 -9 190 148 1
9 6 -9 125 90 1
9 6 -9 82 71 1
9 6 -8 8953 957 1
9 -6 -8 9472 1010 1
9 6 -8 10726 874 1
9 6 -7 13542 1140 1
9 6 -7 13061 1041 1
9 -6 -7 14924 1329 1
9 6 -6 5290 664 1
9 6 -6 5149 526 1
9 6 -6 6978 718 1
9 -6 -6 6784 823 1
9 6 -5 10495 1101 1
9 -6 -5 9963 1203 1
9 6 -4 672 376 1
9 6 -4 852 331 1
9 -6 -4 966 413 1
-9 -6 3 4577 1050 1
9 6 -3 4982 1065 1
9 6 -3 5127 830 1
9 -6 -3 3353 761 1
9 6 -2 2341 605 1
9 6 -2 2130 635 1
9 6 -2 3077 564 1
9 -6 -2 2510 536 1
-9 -6 2 2815 694 1
9 6 -1 8902 1243 1
-9 6 1 9719 1037 1
-9 -6 1 9316 1310 1
9 6 -1 10516 1615 1
9 6 -1 9819 1141 1
9 -6 -1 7263 1044 1
9 6 0 7472 1175 1
-9 -6 0 7420 1179 1
9 6 0 8231 1570 1
9 6 0 7772 1151 1
-9 6 0 8381 1042 1
9 -6 0 6617 1064 1
9 6 1 8261 1192 1
-9 6 -1 9185 1072 1
-9 -6 -1 7948 1157 1
9 6 1 7782 1581 1
9 6 1 8038 1227 1
9 -6 1 8039 1194 1
-9 6 -2 5330 856 1
9 6 2 6777 1108 1
9 6 2 5261 1329 1
9 6 2 4788 961 1
9 -6 2 4486 907 1
-9 6 -3 1196 341 1
9 6 3 1103 428 1
9 -6 3 904 330 1
9 6 4 180 380 1
9 -6 4 153 293 1
-9 6 -4 421 311 1
9 6 5 558 462 1
-9 6 -5 985 550 1
9 -6 5 759 528 1
9 -7 -13 1339 669 1
-9 -7 13 881 650 1
9 7 -13 1854 738 1
9 -7 -12 359 164 1
9 -7 -12 168 281 1
-9 -7 12 290 381 1
9 7 -12 566 398 1
-9 -7 11 1287 657 1
9 -7 -11 1417 458 1
9 -7 -11 2028 718 1
9 7 -11 1209 505 1
-9 -7 10 9675 1595 1
9 7 -10 11561 1384 1
9 -7 -10 7873 1048 1
9 -7 -10 9752 1411 1
9 7 -10 9886 954 1
-9 -7 9 4250 1179 1
9 7 -9 3954 818 1
9 -7 -9 3908 765 1
9 7 -9 3129 566 1
9 7 -8 67 69 1
9 7 -8 246 162 1
-9 -7 8 0 147 1
9 -7 -8 184 188 1
9 7 -7 732 364 1
-9 -7 7 657 557 1
9 7 -7 484 303 1
9 7 -7 1131 390 1
9 -7 -7 841 424 1
9 7 -6 38050 2114 1
9 7 -6 39626 1822 1
9 -7 -6 40689 2281 1
9 7 -6 36217 1470 1
9 7 -5 5 38 1
-9 -7 5 175 298 1
9 7 -5 273 398 1
9 7 -5 1 14 1
9 -7 -5 126 231 1
-9 7 5 255 457 1
-9 -7 4 9325 1430 1
9 7 -4 10401 1372 1
9 7 -4 11793 1105 1
9 -7 -4 9765 1112 1
-9 7 4 10078 1696 1
9 7 -3 3826 898 1
-9 -7 3 3670 896 1
9 7 -3 3458 899 1
9 7 -3 2746 576 1
9 -7 -3 2752 660 1
-9 7 3 2322 886 1
9 7 -2 1383 523 1
-9 -7 2 296 252 1
9 7 -2 1099 563 1
9 7 -2 1407 423 1
9 -7 -2 1301 462 1
-9 7 1 209 251 1
9 7 -1 369 436 1
-9 -7 1 93 189 1
9 7 -1 636 623 1
9 7 -1 322 323 1
9 -7 -1 122 196 1
9 7 0 15621 1621 1
-9 -7 0 13847 1509 1
9 7 0 14311 1989 1
9 7 0 16175 1523 1
-9 7 0 16114 1382 1
9 -7 0 15521 1502 1
9 7 1 57589 3167 1
-9 7 -1 57832 2594 1
9 7 1 62336 4249 1
9 7 1 55253 2957 1
9 -7 1 63750 3257 1
9 7 2 215 268 1
9 7 2 214 248 1
-9 7 -2 256 224 1
9 7 2 69 265 1
9 -7 2 666 340 1
9 7 3 3087 762 1
9 7 3 2564 905 1
9 -7 3 4858 922 1
-9 7 -3 3883 781 1
9 7 4 14758 2328 1
9 -7 4 14679 1698 1
-9 7 -4 15894 1663 1
9 7 5 1255 736 1
-9 7 -5 2108 570 1
9 -7 5 2231 656 1
9 8 -12 2032 676 1
9 -8 -12 2080 620 1
9 -8 -12 1535 620 1
-9 -8 12 2952 907 1
9 -8 -11 3230 691 1
9 8 -11 4230 839 1
9 -8 -11 5013 1082 1
-9 -8 11 4571 1186 1
9 8 -10 1173 369 1
9 8 -10 2242 673 1
-9 -8 10 1302 707 1
9 -8 -10 2468 631 1
-9 -8 9 5236 1152 1
9 8 -9 7328 979 1
9 -8 -9 6650 899 1
9 8 -9 6766 699 1
9 -8 -8 1407 316 1
9 8 -8 1449 258 1
9 8 -8 1523 347 1
-9 -8 8 1050 449 1
-9 8 8 1398 616 1
9 8 -7 896 286 1
-9 -8 7 1105 549 1
9 8 -7 591 261 1
9 -8 -7 751 263 1
9 8 -7 953 268 1
-9 8 7 1032 699 1
-9 -8 6 1277 665 1
9 8 -6 259 248 1
9 8 -6 508 262 1
9 8 -6 640 303 1
9 -8 -6 479 317 1
-9 8 6 471 557 1
9 8 -5 17489 1842 1
-9 -8 5 17506 1926 1
9 8 -5 15715 1626 1
-9 8 5 19821 2841 1
9 8 -5 15221 1128 1
9 -8 -5 15629 1374 1
9 8 -4 228 299 1
-9 -8 4 183 279 1
9 8 -4 383 210 1
9 8 -4 242 131 1
9 -8 -4 343 220 1
-9 8 4 1 567 1
9 8 -3 2695 810 1
-9 -8 3 2325 744 1
9 8 -3 2191 759 1
9 8 -3 2144 500 1
9 -8 -3 2385 626 1
-9 8 3 3823 1259 1
9 8 -2 674 278 1
-9 -8 2 36 142 1
9 8 -2 599 176 1
9 8 -2 527 129 1
9 -8 -2 96 143 1
-9 8 2 36 194 1
-9 8 1 1243 405 1
9 8 -1 776 404 1
-9 -8 1 1047 462 1
9 8 -1 2504 901 1
9 8 -1 1528 485 1
9 -8 -1 2224 611 1
-9 8 1 2711 906 1
9 8 0 790 294 1
9 8 0 895 603 1
9 8 0 914 243 1
-9 8 0 1052 291 1
9 -8 0 628 225 1
-9 8 -1 1232 370 1
9 8 1 2646 837 1
9 8 1 1038 520 1
9 8 1 1484 485 1
9 -8 1 1238 418 1
9 8 2 105 23 1
9 8 2 1 66 1
-9 8 -2 160 256 1
9 -8 2 95 152 1
-9 8 -3 2565 671 1
9 8 3 3766 911 1
9 8 3 1889 810 1
9 -8 3 2611 675 1
-9 8 -4 904 381 1
9 8 4 642 399 1
9 -8 4 1442 660 1
9 -9 -12 6595 1303 1
9 -9 -12 6076 1101 1
-9 -9 12 6369 1383 1
9 9 -12 6171 1141 1
9 -9 -11 2686 688 1
9 -9 -11 2165 771 1
9 9 -11 1763 571 1
-9 -9 11 2958 967 1
-9 -9 10 12782 2055 1
9 9 -10 13221 1565 1
9 -9 -10 11721 1417 1
9 -9 -9 1330 401 1
9 9 -9 1222 290 1
9 9 -9 878 293 1
-9 -9 9 2823 856 1
-9 9 9 2484 1128 1
-9 -9 8 2114 770 1
9 9 -8 3120 614 1
9 -9 -8 2468 597 1
9 9 -8 3361 524 1
9 9 -7 6262 730 1
9 9 -7 4486 1001 1
-9 -9 7 3525 961 1
9 9 -7 5091 731 1
9 -9 -7 5182 794 1
9 9 -7 5109 565 1
9 9 -6 4458 1047 1
-9 -9 6 4497 1094 1
9 9 -6 5974 1022 1
-9 9 6 7935 2101 1
9 9 -6 5377 685 1
9 -9 -6 4439 806 1
9 9 -5 464 319 1
-9 -9 5 309 302 1
9 9 -5 602 377 1
9 9 -5 453 170 1
9 -9 -5 344 220 1
-9 9 5 391 426 1
9 9 -4 2318 847 1
-9 -9 4 1812 771 1
9 9 -4 1380 640 1
9 9 -4 1251 415 1
9 -9 -4 1114 541 1
-9 9 4 1655 857 1
9 9 -3 3285 781 1
-9 -9 3 3920 886 1
9 9 -3 5931 1157 1
9 9 -3 2815 518 1
9 -9 -3 3801 710 1
-9 9 3 4581 1148 1
9 9 -2 11169 1444 1
-9 -9 2 8131 1196 1
9 9 -2 10382 1559 1
9 9 -2 10262 1040 1
-9 9 2 11424 1754 1
9 -9 -2 10544 1173 1
-9 9 1 922 316 1
9 9 -1 1121 370 1
9 9 -1 503 328 1
9 9 -1 849 300 1
9 -9 -1 902 325 1
-9 9 1 1034 532 1
9 9 0 6526 1197 1
9 9 0 8022 1547 1
9 9 0 6727 996 1
9 -9 0 6953 1030 1
-9 9 0 6425 970 1
-9 9 0 7215 1548 1
9 9 1 19876 2116 1
9 9 1 22931 2833 1
-9 9 -1 17938 1612 1
9 9 1 18546 1787 1
9 -9 1 21120 1862 1
-9 9 -1 21850 2300 1
-9 9 -2 2447 690 1
9 9 2 3026 894 1
9 9 2 1023 812 1
9 9 2 2804 802 1
9 -9 2 2167 664 1
9 9 3 2367 708 1
-9 9 -3 1401 476 1
9 9 3 2238 772 1
9 -9 3 1286 435 1
-9 9 -4 414 299 1
9 9 4 881 719 1
9 -9 4 444 282 1
9 -10 -11 172 297 1
9 -10 -11 181 247 1
9 10 -11 50 363 1
9 10 -11 103 240 1
-9 -10 11 22 436 1
9 -10 -10 559 327 1
9 10 -10 623 476 1
9 10 -10 779 383 1
-9 -10 10 1186 670 1
-9 10 10 214 425 1
9 -10 -9 429 359 1
9 10 -9 332 336 1
-9 -10 9 546 446 1
9 10 -9 675 350 1
9 10 -8 13761 1257 1
9 10 -8 12809 1781 1
-9 -10 8 14729 1960 1
9 -10 -8 13360 1305 1
9 10 -7 214 86 1
9 10 -7 458 405 1
-9 -10 7 788 460 1
-9 10 7 258 488 1
9 -10 -7 259 238 1
9 10 -6 1338 502 1
-9 -10 6 2472 749 1
9 10 -6 1428 460 1
9 -10 -6 2470 553 1
-9 10 6 1215 684 1
9 10 -6 1492 311 1
9 10 -5 1282 535 1
-9 -10 5 893 221 1
9 10 -5 741 247 1
9 10 -5 634 165 1
-9 10 5 1274 528 1
9 -10 -5 744 258 1
9 10 -4 1059 529 1
-9 -10 4 959 518 1
9 10 -4 1504 548 1
9 10 -4 1123 364 1
9 -10 -4 1078 424 1
-9 10 4 1859 749 1
9 10 -3 3175 723 1
-9 -10 3 4539 891 1
9 10 -3 3704 772 1
9 10 -3 3672 525 1
-9 10 3 6121 1328 1
9 -10 -3 3681 649 1
9 10 -2 22155 2236 1
9 10 -2 21415 2302 1
9 10 -2 27929 1893 1
-9 10 2 24287 2573 1
9 -10 -2 25432 1976 1
9 10 -1 14651 1851 1
-9 10 1 11020 1289 1
9 10 -1 11704 1863 1
9 10 -1 11362 1191 1
-9 10 1 13526 1892 1
9 -10 -1 12428 1423 1
9 10 0 5205 1311 1
9 10 0 2890 942 1
9 10 0 4794 867 1
9 -10 0 2997 697 1
-9 10 0 4248 814 1
-9 10 0 4446 1022 1
-9 10 -1 1637 455 1
9 10 1 1645 636 1
9 10 1 1665 674 1
9 10 1 3303 690 1
9 -10 1 1965 492 1
-9 10 -1 2413 781 1
-9 10 -2 4341 849 1
9 10 2 3632 915 1
9 10 2 2611 1097 1
9 10 2 4904 969 1
9 -10 2 3409 790 1
-9 10 -3 4016 900 1
9 10 3 4557 1097 1
9 10 3 4465 1606 1
9 -10 3 5231 1077 1
9 -11 -11 849 421 1
9 11 -11 817 791 1
-9 -11 11 860 363 1
9 11 -11 2134 658 1
-9 11 11 1987 1020 1
9 11 -10 5902 1393 1
-9 -11 10 10648 1732 1
9 11 -10 9062 1175 1
9 -11 -10 9974 1240 1
9 -11 -9 278 350 1
9 11 -9 1478 688 1
-9 -11 9 1138 587 1
9 11 -9 395 283 1
-9 11 9 1025 971 1
9 -11 -8 262 207 1
9 11 -8 594 158 1
-9 -11 8 263 323 1
-9 11 8 134 245 1
9 11 -7 2503 920 1
-9 -11 7 1348 699 1
-9 11 7 1495 745 1
9 -11 -7 1099 454 1
9 11 -6 4250 988 1
-9 -11 6 3872 966 1
9 -11 -6 3486 646 1
-9 11 6 3820 1135 1
9 11 -5 1587 560 1
-9 -11 5 865 372 1
9 11 -5 609 376 1
9 11 -5 1124 252 1
-9 11 5 2201 846 1
9 -11 -5 1386 359 1
9 11 -4 106 327 1
9 11 -4 219 304 1
9 11 -4 12 112 1
-9 11 4 74 264 1
9 -11 -4 38 90 1
9 11 -3 17913 2060 1
9 11 -3 16296 1936 1
-9 11 3 17379 2293 1
9 11 -3 17399 1309 1
9 -11 -3 15810 1501 1
9 11 -2 261 386 1
9 11 -2 144 408 1
9 11 -2 481 285 1
9 -11 -2 312 289 1
-9 11 2 5 155 1
9 11 -1 509 320 1
9 11 -1 791 460 1
-9 11 1 15 80 1
9 11 -1 187 152 1
9 -11 -1 205 49 1
-9 11 1 491 407 1
-9 11 0 1118 400 1
9 11 0 507 365 1
9 11 0 1069 395 1
9 11 0 1414 508 1
9 -11 0 1031 415 1
-9 11 0 1035 526 1
9 11 1 8291 1400 1
9 11 1 10327 1937 1
-9 11 -1 8330 1128 1
9 11 1 7238 1031 1
9 -11 1 7669 1083 1
-9 11 -1 9416 1496 1
9 11 2 402 281 1
9 11 2 9 214 1
9 11 2 907 361 1
9 -11 2 575 338 1
-9 11 -2 689 310 1
9 11 3 157 101 1
9 11 3 497 141 1
-9 11 -3 589 355 1
9 -11 3 0 95 1
9 -12 -10 231 243 1
9 12 -10 544 610 1
-9 -12 10 802 691 1
-9 12 10 1423 937 1
9 12 -9 2085 864 1
-9 -12 9 4131 1096 1
-9 12 9 3414 1311 1
9 -12 -9 2893 700 1
9 -12 -8 1416 369 1
9 12 -8 1394 527 1
-9 -12 8 1313 566 1
-9 12 8 2159 912 1
9 -12 -7 365 256 1
9 12 -7 330 418 1
-9 -12 7 686 397 1
-9 12 7 0 279 1
9 12 -6 251 205 1
-9 12 6 659 434 1
9 -12 -6 393 146 1
9 12 -5 33 198 1
-9 12 5 267 474 1
9 -12 -5 250 224 1
9 12 -4 141 172 1
-9 12 4 1 283 1
9 -12 -4 566 600 1
9 12 -3 1073 445 1
9 12 -3 1000 317 1
-9 12 3 1017 620 1
9 -12 -3 1408 455 1
9 12 -2 443 456 1
9 12 -2 754 442 1
9 12 -2 529 262 1
9 -12 -2 628 354 1
-9 12 2 943 660 1
9 12 -1 249 416 1
9 12 -1 442 342 1
9 12 -1 137 147 1
9 -12 -1 185 161 1
-9 12 1 383 488 1
-9 12 1 259 222 1
-9 12 0 276 304 1
9 12 0 123 383 1
9 12 0 269 462 1
9 12 0 123 196 1
9 -12 0 200 243 1
-9 12 0 19 51 1
9 12 1 1278 620 1
9 12 1 305 213 1
-9 12 -1 644 345 1
9 12 1 1118 417 1
9 -12 1 300 312 1
-9 12 -1 826 512 1
-9 12 -2 1870 531 1
9 12 2 1014 465 1
9 12 2 1666 988 1
9 12 2 486 291 1
9 -12 2 240 100 1
9 -13 -9 1941 526 1
9 13 -9 3754 996 1
-9 13 9 3098 1173 1
9 -13 -8 162 158 1
9 13 -8 389 521 1
-9 13 8 1039 866 1
9 13 -7 2473 743 1
-9 13 7 2658 1066 1
9 -13 -7 3325 632 1
9 13 -6 273 323 1
-9 13 6 1 467 1
9 -13 -6 1 137 1
9 13 -5 411 294 1
-9 13 5 148 161 1
9 13 -4 383 321 1
-9 13 4 11 383 1
9 -13 -4 914 404 1
9 13 -3 1459 624 1
-9 13 3 1267 592 1
9 -13 -3 1152 373 1
9 13 -2 454 439 1
-9 13 2 615 425 1
9 -13 -2 569 283 1
9 13 -1 13 296 1
-9 13 1 590 294 1
9 13 -1 678 343 1
9 -13 -1 13 82 1
-9 13 1 13 290 1
9 13 0 3542 969 1
9 13 0 1655 760 1
-9 13 0 1494 515 1
9 13 0 3045 619 1
9 -13 0 3363 756 1
-9 13 0 2459 822 1
9 13 1 1850 825 1
9 13 1 1254 677 1
-9 13 -1 1657 575 1
9 13 1 2043 561 1
9 -13 1 1334 480 1
-9 13 -1 1472 683 1
9 14 -8 7045 1567 1
-9 14 8 7637 1897 1
9 -14 -8 6967 1083 1
9 -14 -7 971 390 1
9 14 -7 952 552 1
-9 14 7 612 558 1
9 -14 -6 2220 574 1
9 14 -6 2500 872 1
-9 14 6 2999 1144 1
9 14 -5 793 499 1
-9 14 5 486 569 1
9 -14 -5 595 352 1
9 14 -4 1379 698 1
-9 14 4 1327 772 1
9 -14 -4 1022 387 1
9 14 -3 2985 1133 1
-9 14 3 1994 1015 1
9 -14 -3 1928 582 1
9 14 -2 3562 1161 1
-9 14 2 3397 1082 1
9 -14 -2 2420 624 1
9 14 -1 435 582 1
-9 14 1 131 266 1
-9 14 1 1 312 1
9 -14 -1 235 248 1
9 14 0 3084 991 1
9 14 0 894 655 1
-9 14 0 783 333 1
9 -14 0 1566 487 1
-9 14 0 1962 814 1
9 15 -5 424 593 1
-9 15 5 2 124 1
9 -15 -5 685 376 1
-9 15 4 81 297 1
9 -15 -4 12 58 1
9 15 -3 15219 2375 1
-9 15 3 13626 2255 1
9 -15 -3 11910 1351 1
9 15 -2 375 450 1
-9 15 2 875 811 1
9 -15 -2 3 32 1
10 0 -12 3086 610 1
10 0 -12 5052 1057 1
10 0 -10 765 242 1
10 0 -10 543 348 1
10 0 -8 2503 489 1
10 0 -8 1524 328 1
10 0 -6 12369 1045 1
10 0 -6 11679 1100 1
10 0 -4 24893 1891 1
10 0 -2 7918 1169 1
10 0 -2 9020 1035 1
10 0 0 482 350 1
10 0 0 594 158 1
10 0 2 3040 1086 1
10 0 2 2528 710 1
10 0 4 639 441 1
10 0 4 452 258 1
10 -1 -13 6764 1194 1
10 -1 -13 6850 1522 1
10 1 -13 5394 1240 1
10 -1 -12 1369 419 1
10 1 -12 1144 415 1
10 -1 -12 2176 665 1
10 1 -12 1265 637 1
10 -1 -11 2095 537 1
10 1 -11 2042 504 1
10 -1 -11 2036 665 1
10 1 -11 2217 728 1
10 -1 -10 1851 647 1
10 1 -10 572 449 1
10 -1 -10 2030 555 1
10 1 -10 2156 544 1
10 -1 -9 9146 1172 1
10 1 -9 8558 1126 1
10 -1 -9 10514 1063 1
10 1 -9 7918 892 1
10 -1 -8 310 264 1
10 1 -8 38 93 1
10 1 -8 170 238 1
10 -1 -8 169 209 1
10 -1 -7 19020 1659 1
10 1 -7 17405 1495 1
10 1 -7 20157 1608 1
10 -1 -7 19289 1630 1
10 -1 -6 41 170 1
10 1 -6 482 285 1
10 1 -6 75 252 1
10 -1 -6 705 367 1
10 1 -5 2667 399 1
10 1 -5 2001 453 1
10 -1 -5 2736 557 1
10 1 -4 2238 330 1
10 1 -4 2437 562 1
10 1 -4 3108 591 1
10 -1 -4 2420 489 1
10 1 -3 10347 1376 1
10 1 -3 11590 1260 1
10 -1 -3 12866 1365 1
10 1 -3 10854 751 1
10 1 -2 116 57 1
10 1 -2 1499 391 1
10 -1 -2 1383 408 1
10 1 -1 52 285 1
10 -1 -1 371 424 1
10 1 -1 772 422 1
10 -1 -1 423 399 1
10 1 0 3297 938 1
10 -1 0 1767 666 1
10 -1 0 3634 780 1
10 1 0 2495 667 1
10 1 1 519 238 1
10 1 1 707 446 1
-10 1 -1 291 102 1
10 1 1 477 191 1
10 -1 1 20 141 1
10 1 2 216 452 1
10 -1 2 60 216 1
10 1 2 131 169 1
10 -1 2 101 252 1
-10 1 -2 151 194 1
10 1 3 933 644 1
10 -1 3 1266 554 1
10 1 3 450 389 1
10 -1 3 756 400 1
10 1 4 2884 935 1
10 -1 4 1329 625 1
10 1 4 2130 682 1
10 -1 4 2258 685 1
10 1 5 205 195 1
10 -1 5 425 570 1
10 1 5 283 365 1
10 -1 5 535 611 1
10 -2 -13 7966 1293 1
10 2 -13 10322 1715 1
10 -2 -12 3 153 1
10 2 -12 3 217 1
10 -2 -12 293 205 1
10 -2 -11 1585 569 1
10 2 -11 982 454 1
10 -2 -11 1504 722 1
10 2 -11 1218 700 1
10 2 -10 1670 420 1
10 -2 -10 779 413 1
10 2 -10 1874 631 1
10 -2 -10 2672 605 1
10 -2 -9 4345 811 1
10 2 -9 2859 654 1
10 -2 -9 3852 652 1
10 2 -9 2763 532 1
10 -2 -8 4181 770 1
10 2 -8 4077 723 1
10 2 -8 3434 567 1
10 -2 -8 4191 671 1
10 -2 -7 808 386 1
10 2 -7 162 275 1
10 2 -7 260 193 1
10 -2 -7 426 298 1
10 2 -6 5469 777 1
10 2 -6 4182 736 1
10 -2 -6 4958 827 1
10 2 -5 18 81 1
10 -2 -5 10 228 1
10 2 -4 4626 478 1
10 2 -4 4267 832 1
10 2 -4 6235 937 1
10 -2 -4 5992 923 1
10 2 -3 796 532 1
10 2 -3 573 411 1
10 -2 -3 383 373 1
10 2 -2 268 305 1
10 2 -2 97 142 1
10 -2 -2 62 98 1
10 2 -1 6950 1311 1
10 2 -1 8629 1155 1
10 -2 -1 8695 1233 1
10 2 0 811 545 1
10 2 0 285 332 1
-10 2 0 220 170 1
10 -2 0 96 168 1
10 2 1 1247 379 1
-10 2 -1 1988 375 1
10 2 1 2146 803 1
10 -2 1 1550 607 1
10 2 1 2340 574 1
10 -2 1 1566 468 1
-10 2 -2 2987 519 1
-10 -2 -2 1772 497 1
10 2 2 1925 858 1
10 -2 2 2469 821 1
10 2 2 2037 613 1
10 -2 2 3126 782 1
-10 2 -3 904 366 1
10 2 3 1180 675 1
10 -2 3 959 711 1
10 2 3 1823 725 1
10 -2 3 1647 645 1
10 2 4 1 834 1
10 -2 4 1 242 1
10 2 4 199 296 1
10 -2 4 1 232 1
10 -3 -13 3731 892 1
10 -3 -13 3370 929 1
10 3 -13 4443 1207 1
10 -3 -12 207 157 1
10 3 -12 27 84 1
10 3 -12 317 300 1
10 -3 -11 1270 429 1
10 3 -11 1661 423 1
10 -3 -11 2133 690 1
10 3 -11 2057 632 1
10 -3 -10 352 422 1
10 3 -10 181 174 1
10 -3 -10 678 604 1
10 3 -10 227 320 1
10 -3 -9 10736 1377 1
10 3 -9 10061 1229 1
10 -3 -9 10946 1154 1
10 3 -9 9169 978 1
10 -3 -8 803 339 1
10 3 -8 575 244 1
10 3 -8 642 222 1
10 -3 -8 1425 376 1
10 3 -7 12975 1231 1
10 3 -7 13450 1255 1
10 -3 -7 13799 1379 1
10 3 -6 16976 1139 1
10 3 -6 16420 1313 1
10 -3 -6 19665 1562 1
10 3 -5 2052 320 1
10 3 -5 1447 404 1
10 -3 -5 3126 615 1
10 3 -5 1973 452 1
10 3 -4 1483 399 1
10 3 -4 1259 274 1
10 -3 -4 554 192 1
10 3 -3 12416 1555 1
10 3 -3 11527 1240 1
10 -3 -3 12061 1353 1
10 3 -2 454 72 1
10 3 -2 1095 309 1
10 -3 -2 1415 325 1
10 3 -1 518 356 1
10 3 -1 1124 479 1
10 -3 -1 201 257 1
10 3 0 2513 629 1
-10 3 0 2953 523 1
10 3 0 2580 926 1
10 3 0 2102 617 1
10 -3 0 2349 645 1
10 3 1 5 245 1
-10 -3 -1 5 162 1
-10 3 -1 5 49 1
10 3 1 24 416 1
10 3 1 61 191 1
10 -3 1 22 163 1
-10 -3 -2 441 298 1
10 3 2 512 402 1
10 -3 2 184 254 1
-10 3 -2 234 189 1
-10 3 -3 8972 1000 1
10 3 3 6321 1491 1
10 3 3 7698 1267 1
10 -3 3 6795 1162 1
10 3 4 1742 794 1
10 3 4 675 326 1
10 -3 4 1301 474 1
-10 3 -4 1320 401 1
10 -4 -13 85 126 1
10 -4 -13 185 452 1
10 4 -13 407 376 1
10 4 -12 10703 1234 1
10 -4 -12 11804 1713 1
10 4 -12 14489 1841 1
10 -4 -12 11213 1333 1
10 -4 -11 2740 597 1
10 4 -11 2606 508 1
10 4 -11 1885 641 1
10 -4 -10 11009 1541 1
10 4 -10 10728 1435 1
10 -4 -10 10856 1236 1
10 4 -10 10952 1128 1
10 4 -9 508 183 1
10 -4 -9 787 327 1
10 4 -9 903 392 1
10 -4 -9 46 91 1
10 4 -8 2211 442 1
10 4 -8 1775 339 1
10 -4 -8 1413 333 1
10 4 -7 3062 576 1
10 4 -7 2346 497 1
10 -4 -7 2368 578 1
10 4 -6 2783 383 1
10 4 -6 2221 391 1
10 4 -6 3457 515 1
10 -4 -6 4007 627 1
10 4 -5 217 222 1
10 -4 -5 54 146 1
10 4 -5 203 114 1
10 4 -4 29041 2295 1
10 4 -4 31246 2060 1
10 -4 -4 33887 2245 1
10 4 -3 4920 940 1
10 4 -3 4509 713 1
10 -4 -3 6058 894 1
10 4 -2 6583 1176 1
10 4 -2 7707 1043 1
10 -4 -2 5136 806 1
10 4 -1 1306 395 1
10 4 -1 1991 763 1
10 4 -1 2472 589 1
10 -4 -1 1602 472 1
10 4 0 1302 545 1
-10 -4 0 603 380 1
-10 4 0 577 298 1
10 4 0 836 575 1
10 4 0 946 421 1
10 -4 0 866 463 1
10 4 1 161 200 1
-10 -4 -1 99 204 1
-10 4 -1 62 98 1
10 4 1 5 297 1
10 4 1 16 167 1
10 -4 1 59 138 1
-10 -4 -2 1675 479 1
10 4 2 547 455 1
10 4 2 1082 500 1
10 -4 2 1931 607 1
-10 4 -2 1656 466 1
-10 4 -3 9 95 1
10 4 3 9 192 1
10 4 3 9 144 1
10 -4 3 170 35 1
-10 4 -4 299 112 1
10 4 4 219 488 1
10 4 4 4 334 1
10 -4 4 896 434 1
10 -5 -13 814 523 1
10 -5 -13 910 612 1
10 5 -13 614 474 1
10 -5 -12 1012 434 1
10 -5 -12 1289 565 1
10 5 -12 1291 572 1
10 -5 -11 14946 1883 1
10 5 -11 11705 1503 1
10 -5 -11 11109 1297 1
10 5 -11 11364 1193 1
10 -5 -10 653 293 1
10 5 -10 336 191 1
10 5 -10 1112 515 1
10 5 -9 2294 415 1
10 -5 -9 3556 762 1
10 5 -9 2883 554 1
10 -5 -9 3402 601 1
10 5 -8 6051 864 1
10 5 -8 5011 702 1
10 -5 -8 6621 916 1
10 5 -7 1198 387 1
10 5 -7 2008 563 1
10 -5 -7 2194 660 1
10 5 -6 217 110 1
10 5 -6 332 235 1
10 5 -6 851 326 1
10 -5 -6 578 242 1
10 5 -5 7704 1190 1
10 5 -5 8256 1067 1
10 -5 -5 8494 1158 1
10 5 -4 7710 1220 1
10 5 -4 6966 970 1
10 -5 -4 8208 1113 1
10 5 -3 767 438 1
10 5 -3 435 225 1
10 -5 -3 66 143 1
10 5 -2 7 105 1
10 5 -2 179 117 1
10 -5 -2 219 246 1
10 5 -1 65 126 1
-10 -5 1 1 83 1
10 5 -1 39 266 1
10 5 -1 65 146 1
10 -5 -1 17 156 1
10 5 0 24934 1985 1
-10 -5 0 28560 2208 1
10 5 0 25274 2636 1
10 5 0 28158 2121 1
10 -5 0 28215 2226 1
-10 5 0 25902 1634 1
10 5 1 22 138 1
-10 5 -1 93 145 1
-10 -5 -1 101 55 1
10 5 1 37 113 1
10 -5 1 22 206 1
10 5 2 901 498 1
10 5 2 212 214 1
10 -5 2 373 318 1
-10 5 -2 357 252 1
-10 5 -3 155 52 1
10 5 3 402 173 1
10 5 3 243 194 1
10 -5 3 636 411 1
-10 5 -4 1215 462 1
10 5 4 1396 742 1
10 5 4 690 446 1
10 -5 4 944 478 1
10 -6 -12 5906 1283 1
10 6 -12 3842 882 1
10 -6 -12 4839 962 1
10 -6 -11 2792 577 1
10 -6 -11 1473 540 1
10 6 -11 3010 648 1
10 6 -11 3331 616 1
10 6 -10 8827 1129 1
10 -6 -10 8242 1074 1
10 6 -10 7087 828 1
10 -6 -10 8640 1380 1
10 6 -9 13576 1286 1
10 -6 -9 12814 1286 1
10 6 -9 13410 1078 1
10 6 -8 1196 276 1
10 -6 -8 1361 346 1
10 6 -8 920 238 1
10 6 -7 840 245 1
10 6 -7 809 288 1
10 -6 -7 621 339 1
10 6 -6 111 171 1
10 6 -6 641 347 1
10 -6 -6 887 423 1
10 6 -5 16581 1576 1
10 6 -5 16145 1335 1
10 -6 -5 14963 1383 1
10 6 -4 9 23 1
10 6 -4 365 264 1
10 -6 -4 238 196 1
-10 -6 3 432 259 1
10 6 -3 890 418 1
10 6 -3 558 226 1
10 -6 -3 326 119 1
10 6 -2 1 142 1
-10 -6 2 25 215 1
10 6 -2 25 213 1
10 6 -2 112 196 1
10 -6 -2 63 214 1
10 6 -1 14353 1650 1
-10 -6 1 15164 1725 1
10 6 -1 13764 1896 1
10 6 -1 17275 1595 1
10 -6 -1 15039 1557 1
10 6 0 4977 1002 1
-10 -6 0 5580 1070 1
10 6 0 4572 1281 1
10 6 0 5419 1014 1
10 -6 0 4925 978 1
-10 6 0 6557 913 1
10 6 1 7020 1063 1
-10 -6 -1 7030 1039 1
10 6 1 6412 1370 1
-10 6 -1 8117 962 1
10 6 1 7950 1194 1
10 -6 1 7664 1151 1
10 6 2 0 297 1
10 6 2 0 250 1
10 -6 2 286 318 1
-10 6 -2 30 162 1
-10 6 -3 9782 1223 1
10 6 3 10492 1964 1
10 6 3 9394 1466 1
10 -6 3 8789 1333 1
-10 6 -4 7 126 1
10 6 4 216 532 1
10 6 4 222 368 1
10 -6 4 548 451 1
10 -7 -12 1850 551 1
10 -7 -12 2419 777 1
-10 -7 12 2821 937 1
10 7 -12 2324 629 1
10 7 -11 4561 772 1
10 -7 -11 5836 1289 1
-10 -7 11 4834 1224 1
10 7 -11 5827 1026 1
10 -7 -11 5156 894 1
-10 -7 10 3214 1086 1
10 7 -10 3256 776 1
10 -7 -10 4303 874 1
10 7 -10 3362 615 1
10 -7 -10 4143 1092 1
10 -7 -9 2285 558 1
10 7 -9 2591 560 1
10 7 -9 2971 532 1
10 7 -8 952 330 1
10 7 -8 825 303 1
-10 -7 7 1866 633 1
10 7 -7 1393 352 1
10 -7 -7 1921 526 1
-10 -7 6 7364 1410 1
10 7 -6 6656 1032 1
10 7 -6 7076 900 1
10 -7 -6 7958 1096 1
-10 -7 5 2254 737 1
10 7 -5 2219 635 1
10 7 -5 2256 515 1
10 -7 -5 1364 419 1
-10 -7 4 11305 1751 1
10 7 -4 9595 1474 1
10 7 -4 12302 1330 1
10 -7 -4 11185 1405 1
10 7 -3 3239 806 1
-10 -7 3 3115 837 1
10 7 -3 3692 857 1
10 7 -3 3473 639 1
10 -7 -3 3602 740 1
10 7 -2 1021 386 1
-10 -7 2 406 202 1
10 7 -2 400 254 1
10 7 -2 1025 319 1
10 -7 -2 309 175 1
10 7 -1 296 253 1
-10 7 1 409 222 1
-10 -7 1 412 275 1
10 7 -1 122 303 1
10 7 -1 4 116 1
10 -7 -1 73 130 1
10 7 0 749 325 1
-10 7 0 1553 451 1
-10 -7 0 1724 639 1
10 7 0 930 538 1
10 7 0 1019 437 1
10 -7 0 1230 471 1
10 7 1 1883 600 1
10 7 1 1066 652 1
-10 7 -1 3111 650 1
10 7 1 2618 675 1
10 -7 1 2992 754 1
10 7 2 136 107 1
10 7 2 23 171 1
10 -7 2 23 154 1
-10 7 -2 204 151 1
10 7 3 675 394 1
-10 7 -3 519 271 1
10 7 3 238 365 1
10 -7 3 1015 430 1
10 -8 -11 406 190 1
10 8 -11 544 373 1
10 -8 -11 217 61 1
-10 -8 11 784 514 1
10 -8 -10 2177 614 1
10 8 -10 2699 663 1
-10 -8 10 3150 992 1
10 8 -10 2878 550 1
10 -8 -9 29 70 1
10 8 -9 19 91 1
-10 -8 8 782 522 1
10 -8 -8 920 313 1
10 8 -8 541 195 1
-10 -8 7 0 180 1
10 8 -7 253 126 1
10 -8 -7 65 107 1
-10 -8 6 8101 1432 1
10 8 -6 7918 1043 1
10 8 -6 9980 948 1
10 -8 -6 9634 1161 1
10 8 -5 796 380 1
-10 -8 5 367 232 1
10 8 -5 267 186 1
10 8 -5 351 127 1
10 -8 -5 36 192 1
10 8 -4 67 179 1
-10 -8 4 784 500 1
10 8 -4 448 322 1
10 8 -4 748 289 1
10 -8 -4 206 201 1
10 8 -3 12424 1525 1
-10 -8 3 12111 1606 1
10 8 -3 13479 1726 1
10 8 -3 11319 1088 1
10 -8 -3 11645 1293 1
10 8 -2 9715 1390 1
-10 -8 2 8270 1282 1
10 8 -2 7469 1368 1
10 8 -2 8185 1120 1
10 -8 -2 9467 1251 1
10 8 -1 2624 759 1
-10 -8 1 1614 545 1
10 8 -1 1793 745 1
10 8 -1 2023 530 1
10 -8 -1 1857 544 1
-10 8 1 2571 590 1
10 8 0 14730 1779 1
10 8 0 9902 1807 1
10 8 0 14115 1515 1
10 -8 0 12716 1471 1
-10 8 0 12372 1319 1
10 8 1 286 83 1
-10 8 -1 490 248 1
10 8 1 17 89 1
10 -8 1 17 212 1
-10 8 -2 4261 804 1
10 8 2 4148 1249 1
10 -8 2 4924 995 1
10 8 2 2515 741 1
10 8 3 1171 635 1
-10 8 -3 1641 469 1
10 8 3 1154 466 1
10 -8 3 1332 511 1
-10 -9 11 10387 1864 1
10 9 -11 9601 1324 1
10 -9 -11 6849 1068 1
10 -9 -11 7847 1439 1
10 -9 -10 229 231 1
-10 -9 10 910 495 1
10 -9 -9 374 285 1
10 9 -9 70 110 1
-10 -9 9 155 81 1
10 9 -8 807 237 1
10 -9 -8 890 370 1
10 9 -7 256 334 1
-10 -9 7 620 525 1
10 9 -7 373 246 1
10 -9 -7 976 462 1
-10 9 7 715 834 1
10 9 -6 3317 853 1
-10 -9 6 2416 776 1
10 9 -6 1922 597 1
10 9 -6 1921 413 1
10 -9 -6 2348 563 1
-10 9 6 2653 1005 1
10 9 -5 10735 1664 1
-10 -9 5 17980 2213 1
10 9 -5 15365 1850 1
10 9 -5 12831 1201 1
-10 9 5 16026 2601 1
10 -9 -5 11858 1380 1
10 9 -4 2200 655 1
-10 -9 4 1953 752 1
10 9 -4 1840 686 1
10 9 -4 1766 424 1
10 -9 -4 2544 579 1
-10 9 4 1597 807 1
10 9 -3 3108 823 1
-10 -9 3 3241 870 1
10 9 -3 4803 1274 1
10 9 -3 2330 540 1
10 -9 -3 3257 748 1
-10 9 3 3524 1084 1
10 9 -2 29 185 1
-10 -9 2 119 219 1
10 9 -2 160 337 1
10 9 -2 476 320 1
10 -9 -2 97 182 1
10 9 -1 425 261 1
10 9 -1 858 604 1
10 9 -1 354 339 1
10 -9 -1 143 248 1
-10 9 1 563 351 1
10 9 0 203 341 1
-10 9 0 4 132 1
10 9 0 4 413 1
10 9 0 114 229 1
10 -9 0 332 398 1
10 9 1 1335 564 1
10 9 1 1773 917 1
-10 9 -1 1131 419 1
10 9 1 711 322 1
10 -9 1 1122 500 1
-10 9 -2 149 154 1
10 9 2 5 324 1
10 9 2 303 233 1
10 -9 2 5 185 1
10 -10 -10 1741 536 1
10 10 -10 765 607 1
-10 -10 10 2793 913 1
10 10 -9 3943 1078 1
-10 -10 9 1241 609 1
10 -10 -9 4106 774 1
-10 10 9 3274 1305 1
10 -10 -8 76 185 1
10 10 -8 28 283 1
-10 -10 8 28 132 1
10 10 -7 246 228 1
10 -10 -7 120 44 1
10 10 -7 352 164 1
10 10 -6 55 102 1
-10 -10 6 401 530 1
10 10 -6 39 47 1
10 10 -6 37 75 1
10 -10 -6 258 293 1
-10 10 6 24 446 1
10 10 -5 11799 1771 1
-10 -10 5 11094 1704 1
10 10 -5 9451 1408 1
-10 10 5 15611 2796 1
10 10 -5 10173 998 1
10 -10 -5 10326 1215 1
10 10 -4 325 302 1
-10 -10 4 1145 581 1
10 10 -4 0 222 1
10 10 -4 247 236 1
10 -10 -4 1105 433 1
-10 10 4 629 624 1
10 10 -3 766 328 1
-10 -10 3 1308 607 1
10 10 -3 2081 727 1
10 10 -3 1137 394 1
10 -10 -3 1846 521 1
-10 10 3 2872 1160 1
10 10 -2 1448 675 1
10 10 -2 1725 797 1
10 10 -2 1846 523 1
10 -10 -2 1581 599 1
-10 10 2 1358 797 1
-10 10 1 1317 484 1
10 10 -1 815 498 1
10 10 -1 355 525 1
10 10 -1 413 301 1
10 -10 -1 753 382 1
-10 10 1 1040 697 1
-10 10 0 3636 794 1
10 10 0 4823 1231 1
10 10 0 5600 1680 1
10 10 0 4235 867 1
10 -10 0 3821 888 1
10 10 1 0 402 1
10 10 1 28 346 1
-10 10 -1 12 112 1
10 10 1 455 321 1
10 -10 1 0 117 1
-10 10 -2 1421 493 1
10 10 2 586 210 1
10 10 2 497 302 1
10 -10 2 1637 569 1
10 -11 -10 497 334 1
10 11 -10 386 446 1
-10 -11 10 794 628 1
-10 11 10 835 819 1
10 -11 -9 36 27 1
10 11 -9 3 307 1
-10 -11 9 240 320 1
-10 11 9 193 182 1
10 -11 -8 2535 624 1
10 11 -8 3866 1050 1
-10 -11 8 4217 1138 1
-10 11 8 3228 1605 1
10 11 -7 8 119 1
-10 -11 7 872 562 1
-10 11 7 977 1054 1
10 -11 -7 369 266 1
10 11 -6 524 282 1
-10 -11 6 1247 593 1
-10 11 6 324 423 1
10 -11 -6 859 389 1
10 11 -5 3713 992 1
-10 -11 5 5261 1211 1
10 11 -5 5651 1516 1
10 -11 -5 4146 769 1
-10 11 5 3447 1314 1
10 11 -4 2645 1001 1
-10 -11 4 5021 1119 1
10 11 -4 3488 1042 1
10 11 -4 2953 609 1
10 -11 -4 2738 688 1
-10 11 4 2482 1177 1
10 11 -3 3930 929 1
10 11 -3 3576 941 1
10 11 -3 3200 605 1
10 -11 -3 3829 759 1
-10 11 3 2902 987 1
10 11 -2 6 166 1
10 11 -2 153 220 1
10 11 -2 357 238 1
10 -11 -2 6 114 1
-10 11 2 395 423 1
-10 11 1 1371 473 1
10 11 -1 1110 570 1
10 11 -1 2301 1004 1
10 11 -1 911 348 1
10 -11 -1 1756 575 1
-10 11 1 2324 809 1
-10 11 0 5295 948 1
10 11 0 5617 1218 1
10 11 0 7411 1656 1
10 11 0 5216 895 1
10 -11 0 5012 970 1
-10 11 0 8259 1634 1
10 11 1 568 428 1
10 11 1 0 428 1
10 11 1 706 388 1
-10 11 -1 1059 450 1
10 -11 1 936 389 1
10 -12 -9 729 372 1
10 12 -9 1169 594 1
-10 -12 9 433 527 1
-10 12 9 6 99 1
10 -12 -8 2503 604 1
10 12 -8 3764 1079 1
-10 -12 8 4858 1214 1
10 12 -7 2052 805 1
-10 -12 7 2403 862 1
10 -12 -7 3941 792 1
-10 12 7 1851 1160 1
10 12 -6 4723 1161 1
-10 -12 6 1690 720 1
10 -12 -6 3785 729 1
-10 12 6 3285 1271 1
10 12 -5 5832 1313 1
10 12 -5 4345 1084 1
10 -12 -5 6470 1074 1
-10 12 5 4300 1332 1
10 12 -4 580 469 1
10 12 -4 261 388 1
10 -12 -4 45 93 1
-10 12 4 1 498 1
10 12 -3 186 300 1
10 12 -3 107 311 1
10 -12 -3 72 162 1
-10 12 3 234 459 1
10 12 -2 140 95 1
10 12 -2 892 813 1
10 -12 -2 228 245 1
-10 12 2 533 352 1
10 12 -1 1711 710 1
10 12 -1 1192 613 1
10 12 -1 1853 505 1
10 -12 -1 1130 439 1
-10 12 1 863 752 1
10 12 0 1733 725 1
10 12 0 1339 695 1
10 12 0 1422 481 1
10 -12 0 1447 525 1
-10 12 0 1694 563 1
-10 12 0 3328 1236 1
10 13 -7 3091 1172 1
10 -13 -7 4123 842 1
-10 13 7 2361 1085 1
10 13 -6 3 316 1
-10 13 6 117 498 1
10 -13 -6 258 188 1
10 13 -5 415 398 1
10 13 -5 426 413 1
-10 13 5 789 873 1
10 -13 -5 658 367 1
10 13 -4 3292 913 1
10 13 -4 2518 757 1
-10 13 4 3006 977 1
10 -13 -4 3196 684 1
10 13 -3 1222 673 1
10 13 -3 792 471 1
10 -13 -3 941 353 1
-10 13 3 1958 897 1
10 13 -2 1356 752 1
10 13 -2 868 615 1
10 -13 -2 1766 554 1
-10 13 2 1461 800 1
10 13 -1 1 142 1
10 13 -1 1 299 1
10 -13 -1 18 148 1
-10 13 1 226 350 1
11 0 -11 840 236 1
11 0 -11 1468 594 1
11 0 -9 5163 830 1
11 0 -9 5025 753 1
11 0 -7 5892 868 1
11 0 -7 5154 855 1
11 0 -5 8860 943 1
11 0 -5 10609 1351 1
11 0 -3 26836 2164 1
11 0 -1 7561 1386 1
11 0 -1 6805 1175 1
11 0 1 3914 1128 1
11 0 1 3482 753 1
11 0 3 3246 1206 1
11 0 3 1500 599 1
11 -1 -12 1054 331 1
11 1 -12 887 318 1
11 1 -12 981 388 1
11 -1 -11 1770 522 1
11 1 -11 1701 489 1
11 -1 -11 776 351 1
11 1 -11 1439 556 1
11 -1 -10 1503 548 1
11 1 -10 2042 562 1
11 -1 -10 2413 778 1
11 1 -10 2067 730 1
11 -1 -9 6523 1019 1
11 1 -9 5564 963 1
11 -1 -9 6302 893 1
11 1 -9 4937 769 1
11 -1 -8 1740 525 1
11 1 -8 984 379 1
11 1 -8 892 313 1
11 -1 -8 1322 442 1
11 -1 -7 394 278 1
11 1 -7 497 295 1
11 1 -7 523 306 1
11 -1 -7 585 370 1
11 -1 -6 213 223 1
11 1 -6 227 263 1
11 1 -6 196 228 1
11 -1 -6 224 253 1
11 1 -5 2820 437 1
11 1 -5 3287 645 1
11 -1 -5 2719 621 1
11 1 -4 10925 1231 1
11 -1 -4 9318 1139 1
11 1 -3 2227 741 1
11 1 -3 3591 744 1
11 -1 -3 3542 758 1
11 1 -2 6752 1169 1
11 1 -2 8553 1108 1
11 -1 -2 5866 910 1
11 1 -1 3304 993 1
11 1 -1 4774 973 1
11 -1 -1 4558 980 1
11 1 0 2092 752 1
11 -1 0 1425 565 1
11 1 0 2287 619 1
11 -1 0 2225 620 1
11 1 1 4808 1201 1
11 -1 1 3751 933 1
11 1 1 5285 978 1
11 -1 1 5200 963 1
11 1 2 1290 634 1
11 -1 2 1448 716 1
11 1 2 262 167 1
11 -1 2 957 398 1
11 1 3 2163 904 1
11 -1 3 1649 875 1
11 1 3 2044 690 1
11 -1 3 2103 699 1
11 -2 -12 4703 1015 1
11 2 -12 3902 955 1
11 -2 -12 5527 900 1
11 2 -12 4810 827 1
11 -2 -11 260 289 1
11 2 -11 71 188 1
11 -2 -11 445 473 1
11 2 -11 5 93 1
11 -2 -10 2258 581 1
11 -2 -10 2881 800 1
11 2 -10 1857 618 1
11 2 -10 2440 592 1
11 -2 -9 6624 1102 1
11 2 -9 4684 902 1
11 -2 -9 6603 1034 1
11 2 -9 5516 888 1
11 -2 -8 8345 1054 1
11 2 -8 7954 954 1
11 2 -8 8207 935 1
11 -2 -8 7997 950 1
11 2 -7 259 115 1
11 2 -7 254 213 1
11 -2 -7 371 248 1
11 2 -6 410 248 1
11 2 -6 719 420 1
11 -2 -6 270 259 1
11 2 -5 91 235 1
11 -2 -5 2 57 1
11 2 -4 9102 1287 1
11 2 -4 9739 1252 1
11 -2 -4 10528 1328 1
11 2 -3 1022 430 1
11 2 -3 468 224 1
11 -2 -3 683 319 1
11 2 -2 5955 1133 1
11 2 -2 5552 895 1
11 -2 -2 6692 975 1
11 2 -1 1158 585 1
11 2 -1 1210 426 1
11 -2 -1 1893 490 1
11 2 0 491 249 1
11 2 0 516 321 1
11 2 0 32 194 1
11 -2 0 407 273 1
11 2 1 308 345 1
11 2 1 761 422 1
11 -2 1 1340 478 1
11 2 2 8760 1783 1
11 -2 2 9707 1823 1
11 2 2 12003 1597 1
11 -2 2 11892 1557 1
11 2 3 2292 895 1
11 -2 3 2500 1051 1
11 2 3 2196 755 1
11 -2 3 1233 510 1
11 3 -12 6177 1206 1
11 -3 -12 3725 946 1
11 -3 -12 5050 883 1
11 3 -12 5310 877 1
11 -3 -11 593 358 1
11 3 -11 159 221 1
11 -3 -11 1572 706 1
11 3 -11 727 453 1
11 -3 -10 2832 756 1
11 3 -10 1548 569 1
11 -3 -10 2827 663 1
11 3 -10 3134 631 1
11 -3 -9 11799 1544 1
11 3 -9 9843 1261 1
11 -3 -9 10397 1289 1
11 3 -9 10147 1180 1
11 -3 -8 222 291 1
11 3 -8 497 312 1
11 3 -8 400 218 1
11 -3 -8 377 232 1
11 3 -7 4109 714 1
11 3 -7 5233 907 1
11 -3 -7 5697 971 1
11 3 -6 3 157 1
11 -3 -6 107 106 1
11 3 -5 1176 360 1
11 3 -5 2296 517 1
11 -3 -5 2757 591 1
11 3 -4 748 422 1
11 3 -4 798 390 1
11 -3 -4 680 349 1
11 3 -3 9857 1488 1
11 3 -3 11706 1318 1
11 -3 -3 13774 1567 1
11 3 -2 1024 434 1
11 3 -2 796 314 1
11 -3 -2 1048 382 1
11 3 -1 2325 910 1
11 3 -1 3241 779 1
11 -3 -1 1288 553 1
11 3 0 18318 1695 1
11 3 0 17718 2331 1
11 3 0 20249 1888 1
11 -3 0 20689 2049 1
-11 -3 -1 273 211 1
11 3 1 726 471 1
11 3 1 721 350 1
11 -3 1 263 219 1
11 3 2 389 538 1
11 3 2 395 276 1
11 -3 2 1 304 1
11 3 3 2724 1080 1
11 3 3 1903 718 1
11 -3 3 3368 891 1
11 -4 -12 1768 511 1
11 4 -12 2533 575 1
11 -4 -12 1066 508 1
11 4 -12 2642 732 1
11 -4 -11 3439 939 1
11 4 -11 4399 931 1
11 -4 -11 4988 895 1
11 4 -11 2937 664 1
11 -4 -10 222 190 1
11 4 -10 24 37 1
11 4 -10 77 154 1
11 -4 -9 1125 436 1
11 4 -9 476 209 1
11 -4 -9 626 248 1
11 4 -9 858 266 1
11 -4 -8 1319 416 1
11 4 -8 1577 414 1
11 4 -8 1354 358 1
11 -4 -8 1261 374 1
11 4 -7 2173 507 1
11 -4 -7 1236 442 1
11 4 -6 4042 706 1
11 4 -6 5380 802 1
11 -4 -6 4446 789 1
11 4 -5 4372 787 1
11 4 -5 3551 633 1
11 -4 -5 3576 677 1
11 4 -4 9658 1342 1
11 4 -4 12802 1368 1
11 -4 -4 10804 1335 1
11 4 -3 3373 776 1
11 4 -3 2879 593 1
11 -4 -3 3031 645 1
11 4 -2 102 158 1
11 4 -2 10 194 1
11 -4 -2 77 311 1
11 4 -1 7869 1167 1
11 4 -1 9352 1655 1
11 4 -1 9843 1302 1
11 -4 -1 8694 1246 1
11 4 0 4472 858 1
-11 -4 0 6521 1161 1
11 4 0 4650 1235 1
11 4 0 5998 1071 1
11 -4 0 5041 1053 1
-11 4 -1 1575 403 1
-11 -4 -1 1435 524 1
11 4 1 2733 1033 1
11 4 1 1421 511 1
11 -4 1 1388 554 1
11 4 2 4775 1398 1
11 4 2 4408 1001 1
11 -4 2 2565 740 1
11 -5 -12 934 429 1
11 5 -12 717 348 1
11 -5 -12 352 342 1
11 5 -12 908 535 1
11 -5 -11 2602 649 1
11 5 -11 1325 418 1
11 -5 -11 3300 871 1
11 5 -11 3320 774 1
11 -5 -10 479 359 1
11 5 -10 483 297 1
11 -5 -10 1495 684 1
11 5 -10 719 422 1
11 -5 -9 57 122 1
11 -5 -9 51 153 1
11 5 -9 333 256 1
11 5 -8 367 236 1
11 -5 -8 75 110 1
11 5 -7 3730 656 1
11 -5 -7 6146 974 1
11 5 -6 261 246 1
11 5 -6 313 258 1
11 -5 -6 483 350 1
11 5 -5 13051 1529 1
11 5 -5 12236 1320 1
11 -5 -5 14076 1504 1
11 5 -4 1612 504 1
11 5 -4 1906 437 1
11 -5 -4 1467 404 1
11 5 -3 689 415 1
11 5 -3 551 298 1
11 -5 -3 493 280 1
11 5 -2 5897 973 1
-11 -5 2 7841 1243 1
11 5 -2 4010 992 1
11 5 -2 4648 794 1
11 -5 -2 7458 1071 1
11 5 -1 212 138 1
-11 -5 1 50 180 1
11 5 -1 0 263 1
11 5 -1 0 150 1
11 -5 -1 227 175 1
-11 5 0 229 174 1
11 5 0 437 307 1
-11 -5 0 1418 542 1
11 5 0 42 372 1
11 5 0 1048 494 1
11 -5 0 3 124 1
-11 5 -1 768 273 1
-11 -5 -1 322 250 1
11 5 1 1092 774 1
11 5 1 448 274 1
11 -5 1 570 361 1
11 5 2 9873 1911 1
-11 5 -2 6361 845 1
11 5 2 6855 1158 1
11 -5 2 7574 1182 1
11 -6 -11 7133 1295 1
11 -6 -11 6145 987 1
11 6 -11 6102 812 1
11 -6 -10 3204 881 1
11 -6 -10 4516 813 1
11 6 -10 4480 717 1
11 -6 -9 1027 392 1
11 6 -9 1968 413 1
11 6 -8 729 264 1
11 -6 -8 272 161 1
11 6 -7 1031 348 1
11 -6 -7 845 398 1
11 6 -6 2805 588 1
11 6 -6 3550 592 1
11 -6 -6 3082 612 1
11 6 -5 1698 562 1
11 6 -5 721 349 1
11 -6 -5 1094 495 1
11 6 -4 2312 699 1
11 6 -4 939 376 1
11 -6 -4 1213 405 1
11 6 -3 4665 1055 1
-11 -6 3 3475 953 1
11 6 -3 4192 1134 1
11 6 -3 3691 772 1
11 -6 -3 4465 909 1
11 6 -2 2235 654 1
-11 -6 2 2717 730 1
11 6 -2 1882 633 1
11 6 -2 2450 624 1
11 -6 -2 2802 681 1
11 6 -1 833 424 1
-11 -6 1 427 421 1
11 6 -1 117 335 1
11 6 -1 124 132 1
11 -6 -1 259 260 1
11 6 0 126 119 1
-11 -6 0 177 231 1
11 6 0 6 546 1
-11 6 0 7 57 1
11 -6 0 2 170 1
-11 -6 -1 462 361 1
11 6 1 654 488 1
11 6 1 361 245 1
11 -6 1 390 244 1
-11 6 -1 429 234 1
11 6 2 11128 2092 1
-11 6 -2 11097 1191 1
11 6 2 14938 1783 1
11 -6 2 13741 1693 1
11 -7 -11 5206 1198 1
-11 -7 11 4324 1218 1
11 -7 -11 6645 1082 1
11 7 -11 4666 741 1
11 -7 -10 1554 445 1
11 7 -10 1616 427 1
11 -7 -10 1149 520 1
11 7 -9 1524 410 1
11 -7 -9 1137 444 1
11 7 -8 1115 344 1
11 -7 -8 1409 485 1
-11 -7 7 929 635 1
11 7 -7 2231 551 1
11 -7 -7 1443 568 1
-11 -7 6 1099 627 1
11 7 -6 1183 402 1
11 -7 -6 1391 460 1
-11 -7 5 8417 1526 1
11 7 -5 6615 1181 1
11 7 -5 7349 1031 1
11 -7 -5 6168 1038 1
11 7 -4 135 138 1
-11 -7 4 2 118 1
11 7 -4 348 104 1
11 7 -4 448 282 1
11 -7 -4 2 290 1
11 7 -3 5538 1140 1
-11 -7 3 3498 901 1
11 7 -3 5250 1147 1
11 7 -3 4874 868 1
11 -7 -3 5133 968 1
11 7 -2 3548 874 1
11 7 -2 2708 818 1
11 7 -2 2545 595 1
11 -7 -2 2830 784 1
11 7 -1 706 424 1
-11 -7 1 817 439 1
11 7 -1 514 407 1
11 7 -1 973 328 1
11 -7 -1 631 307 1
11 7 0 7647 1243 1
-11 7 0 9527 1159 1
-11 -7 0 9806 1374 1
11 7 0 8170 1575 1
11 7 0 9463 1252 1
11 -7 0 9307 1291 1
11 7 1 20894 2665 1
11 7 1 17718 1842 1
11 -7 1 16481 1802 1
-11 7 -1 16325 1507 1
11 -8 -10 326 258 1
11 8 -10 453 253 1
-11 -8 10 1155 568 1
11 -8 -9 11680 1329 1
11 8 -9 10465 992 1
-11 -8 8 4909 1267 1
11 -8 -8 3970 823 1
11 8 -8 2741 570 1
-11 -8 7 14 282 1
11 8 -7 162 176 1
11 -8 -7 0 114 1
-11 -8 6 673 238 1
11 8 -6 387 149 1
11 -8 -6 1079 344 1
11 8 -5 285 288 1
-11 -8 5 574 484 1
11 8 -5 262 188 1
11 8 -5 45 95 1
11 -8 -5 38 59 1
11 8 -4 550 382 1
-11 -8 4 1231 660 1
11 8 -4 800 524 1
11 8 -4 600 305 1
11 -8 -4 1007 423 1
11 8 -3 179 325 1
-11 -8 3 900 510 1
11 8 -3 631 366 1
11 8 -3 335 194 1
11 -8 -3 430 347 1
11 8 -2 11 94 1
-11 -8 2 430 339 1
11 8 -2 508 452 1
11 8 -2 168 116 1
11 -8 -2 117 189 1
11 8 -1 17177 1966 1
-11 -8 1 17545 1958 1
11 8 -1 13462 2045 1
11 8 -1 19577 1769 1
11 -8 -1 16474 1801 1
-11 8 0 2894 690 1
11 8 0 3312 869 1
11 8 0 3493 1160 1
11 8 0 4115 877 1
11 -8 0 3297 829 1
-11 8 -1 1907 519 1
11 8 1 2389 876 1
11 8 1 2716 759 1
11 -8 1 2724 751 1
11 -9 -10 683 400 1
-11 -9 10 597 631 1
-11 -9 9 5351 1306 1
11 -9 -9 4514 856 1
11 -9 -8 1302 514 1
11 9 -8 1028 371 1
11 9 -7 6467 1259 1
-11 -9 7 5948 1303 1
11 9 -7 6164 802 1
11 -9 -7 4470 839 1
11 9 -6 271 362 1
-11 -9 6 648 467 1
11 9 -6 403 240 1
11 -9 -6 257 285 1
11 9 -5 204 273 1
-11 -9 5 309 275 1
11 9 -5 45 86 1
11 9 -5 115 158 1
11 -9 -5 207 159 1
11 9 -4 4439 1097 1
-11 -9 4 4657 1139 1
11 9 -4 4103 1057 1
11 9 -4 4664 842 1
11 -9 -4 3487 823 1
11 9 -3 795 394 1
-11 -9 3 917 480 1
11 9 -3 1576 684 1
11 9 -3 1221 412 1
11 -9 -3 921 408 1
11 9 -2 26 132 1
-11 -9 2 583 452 1
11 9 -2 102 253 1
11 9 -2 231 189 1
11 -9 -2 389 274 1
11 9 -1 1050 589 1
11 9 -1 1879 903 1
11 9 -1 1083 439 1
11 -9 -1 1141 516 1
11 9 0 493 463 1
-11 9 0 356 231 1
11 9 0 1 190 1
11 9 0 11 56 1
11 -9 0 669 358 1
11 -10 -9 1909 616 1
11 10 -9 1721 799 1
-11 -10 9 2114 866 1
11 10 -8 3354 977 1
-11 -10 8 2647 870 1
11 -10 -8 3632 767 1
11 10 -7 2512 839 1
-11 -10 7 3807 1038 1
11 -10 -7 4035 778 1
11 10 -6 5002 1162 1
-11 -10 6 5587 1209 1
11 10 -6 5208 698 1
11 -10 -6 3815 785 1
11 10 -5 10302 1633 1
-11 -10 5 7364 1418 1
11 10 -5 8012 1321 1
11 10 -5 7931 940 1
11 -10 -5 7132 1069 1
11 10 -4 436 420 1
-11 -10 4 0 330 1
11 10 -4 332 247 1
11 10 -4 139 220 1
11 -10 -4 0 129 1
11 10 -3 4927 1078 1
-11 -10 3 4151 1020 1
11 10 -3 5198 1215 1
11 10 -3 4780 790 1
11 -10 -3 5343 981 1
11 10 -2 3615 956 1
11 10 -2 4611 1241 1
11 -10 -2 4166 892 1
11 10 -2 3229 671 1
11 10 -1 241 40 1
11 10 -1 0 220 1
11 10 -1 0 104 1
11 -10 -1 0 167 1
11 11 -8 573 539 1
-11 -11 8 0 347 1
11 -11 -8 173 78 1
11 11 -7 64 90 1
-11 -11 7 675 423 1
11 -11 -7 1022 446 1
-11 11 7 631 452 1
11 11 -6 2 139 1
-11 -11 6 57 293 1
11 -11 -6 449 375 1
-11 11 6 2 324 1
11 11 -5 2 355 1
-11 -11 5 2 280 1
11 -11 -5 1 126 1
-11 11 5 356 277 1
11 11 -4 667 425 1
-11 -11 4 10 223 1
11 11 -4 195 284 1
11 -11 -4 580 325 1
-11 11 4 636 683 1
11 11 -3 504 368 1
11 11 -3 1799 866 1
11 11 -3 1499 446 1
11 -11 -3 472 314 1
-11 11 3 2433 978 1
11 11 -2 3522 1024 1
11 11 -2 1946 837 1
11 11 -2 2736 638 1
11 -11 -2 2459 688 1
11 12 -5 1200 646 1
11 -12 -5 1077 380 1
-11 12 5 0 242 1
11 12 -4 3152 940 1
11 12 -4 2962 1025 1
11 -12 -4 3191 747 1
-11 12 4 5353 1679 1
12 0 -10 14644 1745 1
12 0 -10 11744 1332 1
12 0 -8 15299 1404 1
12 0 -8 18205 1596 1
12 0 -6 7063 1027 1
12 0 -4 24 31 1
12 0 -2 4349 835 1
12 0 0 542 372 1
12 0 0 654 293 1
12 -1 -11 3822 863 1
12 1 -11 2897 767 1
12 -1 -11 4787 840 1
12 1 -11 3473 692 1
12 -1 -10 2367 698 1
12 -1 -10 2801 677 1
12 1 -10 3067 745 1
12 -1 -9 3060 809 1
12 1 -9 1126 519 1
12 1 -9 1937 563 1
12 -1 -9 2163 611 1
12 -1 -8 561 312 1
12 1 -8 201 295 1
12 -1 -8 391 270 1
12 -1 -7 6852 998 1
12 1 -7 5042 904 1
12 -1 -7 5546 969 1
12 -1 -6 9504 1074 1
12 -1 -6 9932 1260 1
12 1 -5 4222 898 1
12 -1 -5 5181 1002 1
12 1 -4 607 429 1
12 -1 -4 1049 500 1
12 1 -3 517 434 1
12 1 -3 0 209 1
12 -1 -3 0 161 1
12 1 -2 68 229 1
12 1 -2 565 318 1
12 -1 -2 7 171 1
12 1 -1 1701 745 1
12 1 -1 968 511 1
12 -1 -1 1044 483 1
12 1 0 436 503 1
12 1 0 16 113 1
12 -1 0 19 281 1
12 1 1 441 356 1
12 -1 1 4 397 1
12 1 1 356 314 1
12 -1 1 4 138 1
12 -2 -11 244 202 1
12 2 -11 514 319 1
12 -2 -11 407 255 1
12 2 -11 609 473 1
12 -2 -10 2370 628 1
12 2 -10 1012 364 1
12 -2 -9 4247 805 1
12 2 -9 4736 747 1
12 -2 -9 5287 827 1
12 2 -8 1 160 1
12 -2 -8 1294 546 1
12 -2 -7 311 299 1
12 2 -7 137 188 1
12 -2 -6 253 175 1
12 2 -6 45 190 1
12 -2 -6 288 277 1
12 2 -5 17374 1614 1
12 -2 -5 16370 1644 1
12 2 -4 535 391 1
12 2 -4 452 316 1
12 -2 -4 1 236 1
12 2 -3 632 407 1
12 2 -3 962 488 1
12 -2 -3 933 463 1
12 2 -2 1 179 1
12 2 -2 19 122 1
12 -2 -2 1 140 1
12 2 -1 2836 900 1
12 2 -1 3885 919 1
12 -2 -1 2398 688 1
12 2 0 76 356 1
12 2 0 158 290 1
12 -2 0 43 252 1
12 2 1 258 345 1
12 2 1 26 275 1
12 -2 1 3 154 1
12 -3 -11 632 368 1
12 3 -11 1119 373 1
12 -3 -11 389 373 1
12 -3 -10 5528 1071 1
12 -3 -10 4473 877 1
12 3 -10 6197 951 1
12 3 -9 144 114 1
12 -3 -9 27 38 1
12 -3 -8 24261 2073 1
12 3 -8 25759 1936 1
12 -3 -8 25964 2091 1
12 3 -7 15586 1513 1
12 -3 -7 11847 1416 1
12 -3 -7 13612 1448 1
12 3 -6 4888 894 1
12 -3 -6 5297 933 1
12 3 -5 1382 523 1
12 3 -5 1204 439 1
12 -3 -5 1532 574 1
12 3 -4 3800 929 1
12 3 -4 4908 993 1
12 -3 -4 4038 901 1
12 3 -3 224 324 1
12 3 -3 0 256 1
12 -3 -3 812 453 1
12 3 -2 3245 918 1
12 3 -2 2950 685 1
12 -3 -2 3489 725 1
12 3 -1 1621 585 1
12 3 -1 2808 998 1
12 3 -1 1227 557 1
12 -3 -1 1743 584 1
-12 -3 0 5130 1046 1
12 3 0 6575 1467 1
12 3 0 6854 1174 1
12 -3 0 3891 931 1
12 3 1 5210 1342 1
12 3 1 3771 870 1
12 -3 1 3700 880 1
12 -4 -11 573 270 1
12 4 -11 818 408 1
12 4 -10 1028 402 1
12 -4 -10 1516 623 1
12 -4 -10 1001 427 1
12 -4 -9 700 443 1
12 4 -9 895 369 1
12 -4 -9 706 384 1
12 4 -8 14822 1397 1
12 -4 -8 16163 1568 1
12 -4 -8 14484 1531 1
12 4 -7 61 144 1
12 -4 -7 185 184 1
12 4 -6 454 218 1
12 -4 -6 561 237 1
12 4 -5 12138 1521 1
12 4 -5 16005 1628 1
12 -4 -5 12705 1525 1
12 4 -4 0 260 1
12 4 -4 0 160 1
12 -4 -4 67 219 1
12 4 -3 15925 1982 1
12 4 -3 16704 1695 1
12 -4 -3 17067 1864 1
12 4 -2 26 67 1
12 4 -2 179 248 1
12 -4 -2 123 155 1
12 4 -1 2605 696 1
-12 -4 1 2898 811 1
12 4 -1 4227 1151 1
12 4 -1 1674 596 1
12 -4 -1 3305 810 1
-12 -4 0 140 201 1
12 4 0 211 402 1
12 4 0 44 205 1
12 -4 0 70 300 1
12 -5 -10 542 219 1
12 5 -10 759 313 1
12 -5 -10 657 389 1
12 -5 -9 1056 392 1
12 5 -9 238 164 1
12 5 -8 8786 1094 1
12 -5 -8 8074 1159 1
12 5 -7 150 12 1
12 -5 -7 23 160 1
12 5 -6 330 244 1
12 -5 -6 458 275 1
12 5 -5 277 280 1
12 5 -5 275 266 1
12 -5 -5 9 118 1
12 5 -4 13096 1757 1
12 5 -4 17145 1699 1
12 -5 -4 16119 1771 1
12 5 -3 355 247 1
12 5 -3 1224 480 1
12 -5 -3 2072 681 1
12 5 -2 0 79 1
-12 -5 2 701 409 1
12 5 -2 1028 494 1
12 -5 -2 307 225 1
12 5 -1 12 179 1
-12 -5 1 176 290 1
12 5 -1 795 613 1
12 5 -1 340 329 1
12 -5 -1 315 362 1
-12 -5 0 941 487 1
12 5 0 939 578 1
12 5 0 1307 558 1
12 -5 0 1552 752 1
12 -6 -10 0 169 1
12 6 -10 166 166 1
12 -6 -10 0 347 1
12 -6 -9 10428 1331 1
12 6 -9 9545 1088 1
12 6 -8 5469 858 1
12 -6 -8 4763 904 1
12 6 -7 7761 1026 1
12 -6 -7 8421 1201 1
12 6 -6 521 248 1
12 -6 -6 362 270 1
12 6 -5 2481 679 1
12 6 -5 4003 758 1
12 -6 -5 4323 839 1
-12 -6 4 3550 1030 1
12 6 -4 4240 1069 1
12 6 -4 3665 801 1
12 -6 -4 3134 793 1
12 6 -3 511 374 1
-12 -6 3 409 374 1
12 6 -3 3 174 1
12 6 -3 341 318 1
12 -6 -3 478 322 1
12 6 -2 7819 1264 1
-12 -6 2 6609 1273 1
12 6 -2 7753 1545 1
12 6 -2 8014 1162 1
12 -6 -2 9914 1397 1
12 6 -1 4234 963 1
-12 -6 1 6590 1216 1
12 6 -1 3992 1196 1
12 6 -1 5933 1082 1
12 -6 -1 6646 1138 1
-12 -6 0 479 388 1
12 6 0 763 566 1
12 6 0 201 244 1
12 -6 0 482 399 1
12 -7 -9 2208 597 1
12 7 -9 2642 565 1
-12 -7 8 12238 2005 1
12 7 -8 11639 1200 1
12 -7 -8 8907 1245 1
-12 -7 7 10003 1773 1
12 7 -7 10983 1165 1
12 -7 -7 9727 1304 1
12 7 -6 590 313 1
12 -7 -6 1144 478 1
-12 -7 5 0 331 1
12 7 -5 102 158 1
12 -7 -5 3 123 1
12 7 -4 9059 1475 1
-12 -7 4 8074 1537 1
12 7 -4 6873 1343 1
12 7 -4 7508 1169 1
12 -7 -4 8064 1281 1
12 7 -3 2334 762 1
-12 -7 3 2178 749 1
12 7 -3 1233 583 1
12 7 -3 2567 652 1
12 -7 -3 3086 771 1
12 7 -2 1 224 1
-12 -7 2 201 202 1
12 7 -2 198 300 1
12 7 -2 506 330 1
12 -7 -2 122 126 1
12 7 -1 1917 653 1
-12 -7 1 2835 813 1
12 7 -1 1459 680 1
12 7 -1 1696 588 1
12 -7 -1 2043 608 1
12 -8 -9 274 301 1
12 8 -9 330 233 1
-12 -8 8 3 546 1
12 8 -8 226 162 1
12 -8 -8 114 221 1
-12 -8 7 0 422 1
12 8 -7 410 285 1
12 -8 -7 0 101 1
12 8 -6 2043 676 1
-12 -8 6 3960 1024 1
12 8 -6 1872 437 1
12 -8 -6 2892 712 1
12 8 -5 5 94 1
-12 -8 5 82 308 1
12 8 -5 90 245 1
12 -8 -5 5 195 1
12 8 -4 6188 1239 1
-12 -8 4 5276 1216 1
12 8 -4 6877 1353 1
12 8 -4 7369 1104 1
12 -8 -4 7311 1210 1
12 8 -3 781 443 1
-12 -8 3 587 441 1
12 8 -3 330 386 1
12 8 -3 535 301 1
12 -8 -3 296 244 1
12 8 -2 6762 1312 1
-12 -8 2 7000 1302 1
12 8 -2 5180 1263 1
12 8 -2 6621 1063 1
12 -8 -2 8027 1312 1
12 9 -7 240 110 1
-12 -9 7 274 208 1
12 9 -7 44 81 1
12 -9 -7 308 255 1
12 9 -6 0 260 1
-12 -9 6 92 174 1
12 9 -6 9 128 1
12 -9 -6 197 241 1
12 9 -5 12 204 1
-12 -9 5 246 344 1
12 9 -5 77 95 1
12 -9 -5 34 148 1
12 9 -4 307 173 1
-12 -9 4 4 63 1
12 9 -4 144 220 1
12 9 -4 160 249 1
12 -9 -4 117 41 1
12 9 -3 4743 1140 1
-12 -9 3 3782 1093 1
12 9 -3 5382 1314 1
12 9 -3 3093 740 1
12 -9 -3 2716 756 1
13 0 -9 13816 1458 1
13 0 -7 138 272 1
13 0 -5 1183 461 1
13 0 -3 545 320 1
13 1 -9 533 331 1
13 -1 -9 1019 402 1
13 1 -8 2818 650 1
13 -1 -8 2885 689 1
13 -1 -7 3545 818 1
13 1 -7 2683 698 1
13 1 -6 264 178 1
13 -1 -6 896 467 1
13 1 -5 451 428 1
13 -1 -5 1222 545 1
13 1 -4 194 258 1
13 -1 -4 829 446 1
13 1 -3 455 352 1
13 -1 -3 108 176 1
13 1 -2 1171 595 1
13 1 -2 1218 481 1
13 -1 -2 232 69 1
13 2 -9 6 155 1
13 -2 -9 1046 403 1
13 2 -8 2773 623 1
13 -2 -8 1508 466 1
13 2 -7 1625 557 1
13 -2 -7 2279 625 1
13 2 -6 5058 905 1
13 -2 -6 4938 919 1
13 2 -5 4702 957 1
13 -2 -5 3714 837 1
13 -2 -4 5481 1041 1
13 2 -4 3297 810 1
13 2 -3 2 279 1
13 2 -3 2 142 1
13 -2 -3 692 386 1
13 2 -2 60 203 1
13 2 -2 609 309 1
13 -2 -2 463 272 1
13 3 -9 365 256 1
13 -3 -9 527 388 1
13 3 -8 12455 1430 1
13 -3 -8 11366 1456 1
13 3 -7 429 357 1
13 -3 -7 6 149 1
13 3 -6 1832 558 1
13 -3 -6 1359 553 1
13 3 -5 531 389 1
13 -3 -5 1741 644 1
13 3 -4 2680 777 1
13 3 -4 6064 1105 1
13 -3 -4 4933 1045 1
13 3 -3 607 291 1
13 3 -3 1457 492 1
13 -3 -3 1991 683 1
13 3 -2 6777 1398 1
13 3 -2 7144 1211 1
13 -3 -2 7540 1265 1
13 -4 -9 7008 1142 1
13 4 -9 5773 881 1
13 -4 -9 6189 1010 1
13 -4 -8 1665 566 1
13 4 -8 2192 571 1
13 -4 -8 2297 664 1
13 4 -7 3344 727 1
13 -4 -7 1830 604 1
13 4 -6 701 342 1
13 -4 -6 212 260 1
13 4 -5 20576 1899 1
13 -4 -5 18684 1895 1
13 4 -4 2639 834 1
13 4 -4 2786 786 1
13 -4 -4 1714 624 1
13 4 -3 14516 1994 1
13 4 -3 14388 1631 1
13 -4 -3 12585 1640 1
13 5 -8 225 227 1
13 -5 -8 366 284 1
13 5 -7 149 101 1
13 -5 -7 89 44 1
13 5 -6 2 201 1
13 -5 -6 781 460 1
13 5 -5 3060 765 1
13 -5 -5 1697 634 1
13 5 -4 1533 716 1
13 5 -4 2004 671 1
13 -5 -4 1839 674 1
13 5 -3 0 127 1
-13 -5 3 0 349 1
13 5 -3 69 72 1
13 5 -3 66 233 1
13 -5 -3 0 163 1
13 6 -7 323 196 1
13 -6 -7 37 176 1
13 6 -6 1642 477 1
13 -6 -6 2141 628 1
-13 -6 5 2342 969 1
13 6 -5 1172 457 1
13 -6 -5 1120 478 1
13 6 -4 0 196 1
-13 -6 4 290 298 1
13 6 -4 554 445 1
13 6 -4 206 271 1
13 -6 -4 361 349 1
