#------------------------------------------------------------------------------
#$Date: 2019-05-13 10:49:06 +0300 (Mon, 13 May 2019) $
#$Revision: 215051 $
#$URL: file:///home/coder/svn-repositories/cod/cif/1/54/74/1547429.cif $
#------------------------------------------------------------------------------
#
# This file is available in the Crystallography Open Database (COD),
# http://www.crystallography.net/
#
# All data on this site have been placed in the public domain by the
# contributors.
#
data_1547429
loop_
_publ_author_name
'Anuradha R. Pallipurath'
'Jonathan M. Skelton'
'Mark R. Warren'
'Naghmeh Kamali'
'Patrick McArdle'
'Andrea Erxleben'
_publ_section_title
;
 Sulfamerazine: Understanding the Influence of Slip Planes in the
 Polymorphic Phase Transformation through X-Ray Crystallographic Studies
 and ab Initio Lattice Dynamics
;
_journal_name_full               'Molecular Pharmaceutics'
_journal_page_first              3735
_journal_page_last               3748
_journal_paper_doi               10.1021/acs.molpharmaceut.5b00504
_journal_volume                  12
_journal_year                    2015
_chemical_formula_moiety         'C11 H12 N4 O2 S'
_chemical_formula_sum            'C11 H12 N4 O2 S'
_chemical_formula_weight         264.303
_chemical_name_common            Sulfamerazine
_chemical_name_systematic        4-amino-N-(4-methylpyrimidin-2-yl)
_space_group_crystal_system      orthorhombic
_space_group_IT_number           61
_space_group_name_Hall           '-P 2ac 2ab'
_space_group_name_H-M_alt        'P b c a'
_symmetry_space_group_name_Hall  '-P 2ac 2ab'
_symmetry_space_group_name_H-M   'P b c a'
_atom_sites_solution_hydrogens   mixed
_cell_angle_alpha                90
_cell_angle_beta                 90
_cell_angle_gamma                90
_cell_formula_units_Z            8
_cell_length_a                   9.0785(2)
_cell_length_b                   11.5265(3)
_cell_length_c                   22.8581(6)
_cell_measurement_reflns_used    7040
_cell_measurement_temperature    149.4(9)
_cell_measurement_theta_max      29.0990
_cell_measurement_theta_min      3.5250
_cell_volume                     2391.95(10)
_computing_cell_refinement
;
'Wed Nov 19 20:02:52 2014'
;
_computing_data_collection
;
'Wed Nov 19 20:02:52 2014'
;
_computing_data_reduction
;
'Wed Nov 19 20:02:52 2014'
;
_computing_molecular_graphics    OSCAIL
_computing_structure_refinement  'SHELXL-2014/7 (Sheldrick, 2014)'
_computing_structure_solution    SHELXT
_diffrn_ambient_temperature      149.4(9)
_diffrn_detector_area_resol_mean 16.1048
_diffrn_measured_fraction_theta_full 0.999
_diffrn_measured_fraction_theta_max 0.914
_diffrn_measurement_device_type  'Xcalibur, Sapphire3'
_diffrn_measurement_method       '\w scans'
_diffrn_radiation_type           MoK\a
_diffrn_radiation_wavelength     0.71073
_diffrn_reflns_av_R_equivalents  0.0223
_diffrn_reflns_av_unetI/netI     0.0178
_diffrn_reflns_Laue_measured_fraction_full 0.999
_diffrn_reflns_Laue_measured_fraction_max 0.914
_diffrn_reflns_limit_h_max       12
_diffrn_reflns_limit_h_min       -10
_diffrn_reflns_limit_k_max       14
_diffrn_reflns_limit_k_min       -15
_diffrn_reflns_limit_l_max       30
_diffrn_reflns_limit_l_min       -25
_diffrn_reflns_number            19983
_diffrn_reflns_point_group_measured_fraction_full 0.999
_diffrn_reflns_point_group_measured_fraction_max 0.914
_diffrn_reflns_theta_full        25.242
_diffrn_reflns_theta_max         29.227
_diffrn_reflns_theta_min         2.992
_diffrn_source                   'Enhance (Mo) X-ray Source'
_exptl_absorpt_coefficient_mu    0.271
_exptl_absorpt_correction_T_max  1.00000
_exptl_absorpt_correction_T_min  0.95648
_exptl_absorpt_correction_type   multi-scan
_exptl_absorpt_process_details
;
crysalispro, agilent technologies,
version 1.171.37.31 (release 14-01-2014 crysalis171 .net)
(compiled jan 14 2014,18:38:05)
empirical absorption correction using spherical harmonics,
 implemented in scale3 abspack scaling algorithm.
;
_exptl_crystal_colour            Colourless
_exptl_crystal_density_diffrn    1.468
_exptl_crystal_description       Parallelepiped
_exptl_crystal_F_000             1104
_exptl_crystal_size_max          0.50
_exptl_crystal_size_mid          0.40
_exptl_crystal_size_min          0.20
_refine_diff_density_max         0.314
_refine_diff_density_min         -0.449
_refine_diff_density_rms         0.059
_refine_ls_extinction_coef       .
_refine_ls_extinction_method     none
_refine_ls_goodness_of_fit_ref   1.096
_refine_ls_hydrogen_treatment    mixed
_refine_ls_matrix_type           full
_refine_ls_number_parameters     176
_refine_ls_number_reflns         2969
_refine_ls_number_restraints     0
_refine_ls_restrained_S_all      1.096
_refine_ls_R_factor_all          0.0430
_refine_ls_R_factor_gt           0.0362
_refine_ls_shift/su_max          0.001
_refine_ls_shift/su_mean         0.000
_refine_ls_structure_factor_coef Fsqd
_refine_ls_weighting_details
'w=1/[\s^2^(Fo^2^)+(0.0463P)^2^+1.4827P] where P=(Fo^2^+2Fc^2^)/3'
_refine_ls_weighting_scheme      calc
_refine_ls_wR_factor_gt          0.0964
_refine_ls_wR_factor_ref         0.1012
_reflns_Friedel_coverage         0.000
_reflns_Friedel_fraction_full    .
_reflns_Friedel_fraction_max     .
_reflns_number_gt                2588
_reflns_number_total             2969
_reflns_threshold_expression     'I > 2\s(I)'
_cod_data_source_file            Exp_Form-II2FInHouse_Form-II_150K.cif
_cod_data_source_block           smz_fiilt1_a
_cod_depositor_comments
;

2019-03-25
Changing wrong Z value
                 miguel
;
_cod_original_formula_units_Z            6
_cod_database_code               1547429
_shelx_space_group_comment
;
The symmetry employed for this shelxl refinement is uniquely defined
by the following loop, which should always be used as a source of
symmetry information in preference to the above space-group names.
They are only intended as comments.
;
_shelx_estimated_absorpt_t_min   0.877
_shelx_estimated_absorpt_t_max   0.948
_shelxl_version_number           2014/6
_shelx_res_file
;
TITL smz_fiilt1_a.res in Pbca
REM Old TITL SMZ_FIILT1 in Pbca
REM SHELXT solution in Pbca
REM R1 0.105,  Rweak 0.325,  Alpha 0.026,  Orientation as input
REM Formula found by SHELXT:  C12 N3 O2 Cl
CELL  0.71073   9.0785  11.5265  22.8581   90.000   90.000   90.000
ZERR    6.000   0.0002   0.0003   0.0006    0.000    0.000    0.000
REM SG 61 8 8 Pbca P21/b21/c21/a PGmmm Orthorhombic
LATT 1
REM SG  ASUN  1  .5 .5 .5
REM SG  ORGN  at Inv.cen.
SYMM 0.5-X,-Y,0.5+Z
SYMM -X,0.5+Y,0.5-Z
SYMM 0.5+X,0.5-Y,-Z
SFAC C H N O S
UNIT 88 96  32  16  8
FMAP 2
PLAN -32
BOND $H
L.S. 12
SIZE    0.50  0.40  0.20
ACTA
CONF
HTAB
LIST 4
WGHT    0.046300    1.482700
FVAR       0.57349
S1    5    0.331493    0.345789    0.389622    11.00000    0.01827    0.01899 =
         0.01606   -0.00147   -0.00053   -0.00248
O2    4    0.196013    0.397155    0.409622    11.00000    0.01722    0.03148 =
         0.01943   -0.00104    0.00047   -0.00140
O1    4    0.341727    0.222154    0.386557    11.00000    0.03338    0.01883 =
         0.02296   -0.00093   -0.00069   -0.00536
N4    3    0.666942    0.426047    0.485397    11.00000    0.01903    0.02340 =
         0.01846   -0.00094   -0.00159    0.00120
N3    3    0.656249    0.284499    0.408553    11.00000    0.02281    0.02041 =
         0.02056   -0.00021    0.00195    0.00308
N2    3    0.451300    0.395381    0.437014    11.00000    0.01827    0.02165 =
         0.01840   -0.00644   -0.00224    0.00234
N1    3    0.453703    0.532074    0.154182    11.00000    0.03937    0.02552 =
         0.02257    0.00340    0.01022    0.00166
C1    1    0.374220    0.403118    0.321360    11.00000    0.02006    0.02002 =
         0.01523   -0.00142   -0.00022   -0.00212
C2    1    0.447669    0.335923    0.279988    11.00000    0.03058    0.02074 =
         0.02420    0.00007    0.00325    0.00523
AFIX  43
H2    2    0.477137    0.260911    0.289345    11.00000   -1.30000
AFIX   0
C3    1    0.476740    0.380181    0.225342    11.00000    0.03184    0.02406 =
         0.02299   -0.00318    0.00825    0.00434
AFIX  43
H3    2    0.527771    0.335206    0.198319    11.00000   -1.30000
AFIX   0
C4    1    0.430533    0.492349    0.209678    11.00000    0.02372    0.02332 =
         0.01969    0.00010    0.00294   -0.00368
C5    1    0.356465    0.559202    0.252068    11.00000    0.02739    0.01771 =
         0.02364    0.00029    0.00266    0.00027
AFIX  43
H5    2    0.325344    0.633804    0.242721    11.00000   -1.30000
AFIX   0
C6    1    0.329422    0.515594    0.307258    11.00000    0.02212    0.01863 =
         0.02136   -0.00376    0.00332   -0.00066
AFIX  43
H6    2    0.281491    0.560991    0.334987    11.00000   -1.30000
AFIX   0
C7    1    0.598269    0.365877    0.442997    11.00000    0.01941    0.01880 =
         0.01676    0.00259    0.00045    0.00036
C8    1    0.808976    0.400420    0.493032    11.00000    0.02083    0.02949 =
         0.02156    0.00162   -0.00201    0.00047
AFIX  43
H8    2    0.861647    0.440087    0.521626    11.00000   -1.30000
AFIX   0
C9    1    0.880639    0.317654    0.460295    11.00000    0.01893    0.03247 =
         0.02396    0.00654    0.00115    0.00467
AFIX  43
H9    2    0.979669    0.300947    0.466408    11.00000   -1.30000
AFIX   0
C10   1    0.799693    0.260165    0.417892    11.00000    0.02460    0.02251 =
         0.02203    0.00528    0.00500    0.00480
C11   1    0.867456    0.166696    0.381180    11.00000    0.03071    0.03129 =
         0.03677   -0.00246    0.00791    0.01046
AFIX 137
H11A  2    0.821769    0.093715    0.390139    11.00000   -1.30000
H11B  2    0.971026    0.162092    0.389329    11.00000   -1.30000
H11C  2    0.853005    0.184372    0.340542    11.00000   -1.30000
AFIX   0
H1N2  2    0.417673    0.444443    0.459357    11.00000    0.04208
H1N1  2    0.515805    0.494978    0.133226    11.00000    0.03539
H2N1  2    0.445913    0.603288    0.146148    11.00000    0.04173
HKLF 4
  
REM  smz_fiilt1_a.res in Pbca
REM R1 =  0.0362 for    2588 Fo > 4sig(Fo)  and  0.0430 for all    2969 data
REM    176 parameters refined using      0 restraints
  
END
  
WGHT      0.0450      1.4755
  
REM Instructions for potential hydrogen bonds
EQIV $1 -x+1/2, y+1/2, z
HTAB C6 O1_$1
EQIV $2 -x+1, -y+1, -z+1
HTAB C8 O2_$2
EQIV $3 x+1, y, z
HTAB C9 O2_$3
HTAB N2 N4_$2
EQIV $4 x+1/2, y, -z+1/2
HTAB N1 O2_$4
EQIV $5 -x+1, y+1/2, -z+1/2
HTAB N1 O1_$5
HTAB N1 N3_$5
  
REM Highest difference peak  0.314,  deepest hole -0.449,  1-sigma level  0.059
Q1    1   0.3644  0.3789  0.3520  11.00000  0.05    0.31
Q2    1   0.3872  0.5221  0.2319  11.00000  0.05    0.28
Q3    1   0.4537  0.4391  0.2194  11.00000  0.05    0.27
Q4    1   0.8494  0.2921  0.4379  11.00000  0.05    0.26
Q5    1   0.3783  0.5472  0.2825  11.00000  0.05    0.26
Q6    1   0.3686  0.4594  0.3184  11.00000  0.05    0.25
Q7    1   0.6346  0.3835  0.4676  11.00000  0.05    0.24
Q8    1   0.8454  0.3683  0.4711  11.00000  0.05    0.23
Q9    1   0.2345  0.3640  0.3919  11.00000  0.05    0.23
Q10   1   0.3865  0.3673  0.2975  11.00000  0.05    0.23
Q11   1   0.4516  0.5204  0.1839  11.00000  0.05    0.22
Q12   1   0.4185  0.5012  0.1811  11.00000  0.05    0.22
Q13   1   0.6173  0.3115  0.4296  11.00000  0.05    0.20
Q14   1   0.3189  0.5192  0.2743  11.00000  0.05    0.20
Q15   1   0.4412  0.3591  0.2500  11.00000  0.05    0.20
Q16   1   0.8462  0.4798  0.5203  11.00000  0.05    0.20
Q17   1   0.8416  0.2224  0.3989  11.00000  0.05    0.19
Q18   1   0.3444  0.2001  0.3639  11.00000  0.05    0.19
Q19   1   0.6371  0.3316  0.4179  11.00000  0.05    0.19
Q20   1   0.4053  0.3589  0.4184  11.00000  0.05    0.19
Q21   1   0.3293  0.2723  0.3872  11.00000  0.05    0.18
Q22   1   0.5007  0.3785  0.2592  11.00000  0.05    0.18
Q23   1   0.2972  0.2642  0.3807  11.00000  0.05    0.17
Q24   1   0.7412  0.2839  0.4079  11.00000  0.05    0.17
Q25   1   0.6104  0.2427  0.3800  11.00000  0.05    0.17
Q26   1   1.0755  0.3774  0.5004  11.00000  0.05    0.17
Q27   1   0.7213  0.2653  0.4210  11.00000  0.05    0.17
Q28   1   0.8177  0.2090  0.4095  11.00000  0.05    0.16
Q29   1   0.9070  0.5659  0.4931  11.00000  0.05    0.16
Q30   1   0.4516  0.3813  0.3091  11.00000  0.05    0.16
Q31   1   0.5298  0.3749  0.4384  11.00000  0.05    0.16
Q32   1   0.2699  0.6395  0.2332  11.00000  0.05    0.15
;
_shelx_res_checksum              73866
_shelx_hkl_file
;
   0   0  -4 2245.75   16.44
   0   0   5    8.63    2.27
   0   0  -5   13.79    2.16
   0   0   6 8121.04   37.97
   0   0  -6 8140.99   38.39
   0   0   7   31.20    5.01
   0   0  -7   33.44    3.76
   0   0   8 1427.30   18.59
   0   0  -8 1365.99   18.34
   0   0   9   33.82    4.70
   0   0  -9   17.02    2.90
   0   0  10 6633.87   44.87
   0   0  11  109.97    9.63
   0   0  12    0.82    1.90
   0   0  13    2.73    2.40
   0   0  14 1011.76   21.18
   0   0  15   28.42    5.25
   0   0  16   19.67    3.63
   0   0  17   18.25    4.65
   0   0  18 1827.57   32.85
   0   0  19   89.05    8.94
   0   0  20  234.48   12.81
   0   0  21   16.27    4.55
   0   0  22  357.39   16.71
   0   0  23   13.36    4.43
   0   0  24  105.96    9.86
   0   0  25    2.85    2.80
   0   0  26  106.63   10.24
   0   0  27    1.64    3.04
   0   0  28  104.71   10.82
   0   0  29   17.22    5.72
   0  -1  -3    6.18    0.80
   0  -1  -4    0.42    0.52
   0   1   4    0.89    0.83
   0   1  -4    2.41    1.14
   0  -1   4    0.84    1.04
   0  -1   5    3.65    1.47
   0  -1  -5    2.17    0.90
   0   1   5    2.20    1.07
   0   1   5    0.20    1.00
   0   1  -5    1.28    1.29
   0  -1  -5    0.51    0.68
   0  -1   6    3.15    1.80
   0  -1  -6    3.42    1.31
   0   1   6    5.05    1.49
   0   1  -6    2.84    1.65
   0  -1  -6   -0.54    0.79
   0  -1  -7    1.21    0.58
   0  -1  -7    0.59    0.89
   0   1   7    2.28    1.60
   0   1  -7    1.13    1.23
   0  -1  -8    0.09    0.57
   0  -1  -8    0.63    0.96
   0   1  -8   -0.07    1.32
   0  -1   8    2.62    1.89
   0  -1  -9    0.30    0.95
   0  -1  -9    1.30    0.71
   0  -1   9    0.36    1.63
   0   1   9    3.71    1.62
   0  -1  10    2.87    2.03
   0   1  10    1.52    1.60
   0  -1 -10    2.35    1.27
   0  -1  11   -1.43    1.68
   0   1  11   -1.32    1.53
   0  -1  12    1.01    1.90
   0   1  12   -0.28    1.69
   0  -1  13   -2.29    2.86
   0   1  13   -2.92    2.21
   0   1  14   -3.01    2.43
   0  -1  14   -2.96    2.89
   0  -1  15   -0.21    2.44
   0   1  15   -0.67    2.03
   0  -1  16   -3.80    2.89
   0   1  16   -0.57    2.31
   0  -1  17   -5.30    3.47
   0   1  17   -2.15    2.67
   0   1  18   -0.78    2.49
   0  -1  18   -2.90    3.30
   0  -1  19    0.30    2.75
   0   1  19   -2.31    3.13
   0  -1  20   -0.63    2.95
   0   1  20   -3.32    3.28
   0  -1  21    0.67    3.24
   0   1  21   -0.31    2.81
   0  -1  22   -4.61    3.82
   0   1  22   -0.14    2.50
   0  -1  23   -8.22    4.42
   0   1  23   -3.55    3.52
   0   1  24   -0.39    2.73
   0  -1  24    2.14    3.22
   0   1  25    0.42    2.82
   0  -1  25   -9.06    4.80
   0   1  26   -4.36    3.99
   0  -1  26   -5.26    4.46
   0   1  27   -2.16    3.49
   0  -1  27   -5.35    4.51
   0  -1  28   -0.77    4.05
   0   1  28   -2.32    3.46
   0   1  29   -3.85    3.35
   0  -1  29   -5.07    4.68
   0   1  30   -2.74    3.29
   0  -2   0   12.70    1.44
   0  -2   0   16.83    1.40
   0  -2   0   13.21    1.50
   0   2   1 8279.60   33.41
   0  -2   1 8290.05   23.92
   0  -2   1 7845.90   27.13
   0  -2   1 8098.43   34.06
   0   2   1 8133.24   33.19
   0   2   2 4499.01   25.73
   0  -2  -2 4489.76   24.45
   0  -2  -2 4417.07   25.71
   0  -2   2 4365.04   21.16
   0  -2   2 4422.60   26.26
   0  -2   2 4494.58   21.57
   0  -2  -2 4463.81   24.84
   0   2  -2 4493.68   22.04
   0   2   2 4505.89   25.01
   0   2   2 4325.60   24.78
   0  -2  -2 4369.74   25.95
   0   2  -2 4482.08   25.87
   0  -2  -3 9843.51   41.20
   0   2   3 9999.00   39.90
   0  -2   3 9853.58   36.33
   0  -2  -3 9842.60   39.32
   0   2  -3 9744.90   36.98
   0  -2  -3 9937.16   39.71
   0  -2   3 9907.64   36.39
   0   2   3 9918.67   40.76
   0   2   3 9983.99   40.22
   0   2   4 8470.08   39.60
   0   2   4 8237.59   24.09
   0  -2   4 8405.00   36.92
   0  -2  -4 8336.42   39.01
   0  -2   4 8072.04   36.87
   0   2   4 8368.81   39.47
   0   2   4 8203.29   39.35
   0   2  -4 8165.09   37.33
   0   2   5 9042.26   43.49
   0   2  -5 8953.38   42.43
   0  -2  -5 8896.95   43.33
   0  -2  -5 8877.32   36.11
   0  -2   5 8949.06   42.40
   0  -2   5 8956.43   41.69
   0   2   5 8972.42   29.89
   0   2   5 8940.76   43.65
   0   2   5 9082.84   43.92
   0  -2   5 8769.24   31.97
   0  -2   6 8851.66   45.25
   0   2   6 8963.76   45.99
   0   2  -6 8934.77   45.16
   0  -2  -6 8894.97   36.44
   0  -2   6 8828.72   44.39
   0   2   6 8687.00   33.67
   0  -2   7  108.98    3.50
   0   2  -7  146.53    6.44
   0   2   7  108.66    5.46
   0  -2   7  190.97    8.78
   0  -2  -7  110.18    4.18
   0  -2   7  140.46    6.31
   0   2   8  660.67   11.29
   0  -2  -8  643.64    9.96
   0  -2   8  660.90   13.95
   0  -2   8  612.07    7.98
   0  -2   8  654.49   13.88
   0   2   9 2190.35   22.31
   0  -2  -9 2250.67   18.71
   0  -2   9 2231.46   26.75
   0  -2 -10 1131.65   13.45
   0  -2  10 1198.39   20.89
   0   2  10 1144.35   17.35
   0   2  11 1476.22   20.84
   0  -2 -11 1523.25   15.45
   0  -2  11 1534.93   24.51
   0  -2 -12  690.71   10.36
   0   2  12  708.70   15.34
   0   2  13  206.93    8.82
   0  -2  13  205.83   10.34
   0  -2  14 1055.11   23.00
   0   2  14 1053.79   20.26
   0   2  15   72.77    6.43
   0  -2  15   77.16    7.36
   0   2  16  149.68    8.45
   0  -2  16  141.06    9.31
   0   2  17  684.55   18.58
   0  -2  17  655.82   20.12
   0   2  18  483.15   16.36
   0  -2  18  495.22   18.24
   0  -2  19 1030.39   26.64
   0   2  19  995.77   24.14
   0  -2  20  244.20   13.84
   0   2  20  211.68   11.79
   0   2  21   91.39    8.00
   0  -2  21   95.14    9.12
   0  -2  22   29.94    6.40
   0   2  22   22.51    4.98
   0   2  23  835.53   25.03
   0  -2  23  824.94   26.89
   0   2  24   32.65    6.38
   0  -2  24   44.20    7.60
   0  -2  25   35.21    6.85
   0   2  25   34.73    6.07
   0   2  26  192.66   13.37
   0  -2  26  178.22   13.81
   0   2  27   22.15    5.21
   0  -2  27   23.80    5.97
   0   2  28   19.48    5.02
   0  -2  28   28.77    6.48
   0   2  29  123.20   11.53
   0   2  30    6.60    3.10
   0   3   0    1.20    1.56
   0  -3   0   -0.08    0.54
   0  -3   0   -0.49    1.23
   0  -3   0    1.36    1.12
   0   3   0   -0.68    0.56
   0  -3   0    2.76    0.58
   0  -3   0    0.61    0.79
   0  -3   1    2.06    0.77
   0  -3  -1    2.97    1.46
   0   3   1    0.05    1.52
   0  -3  -1    2.81    1.38
   0  -3   1    0.36    1.23
   0   3  -1    1.62    0.96
   0  -3  -1    2.59    1.39
   0   3   1    4.85    1.91
   0   3  -1    1.65    0.78
   0  -3   1    0.14    0.73
   0  -3   1    3.54    1.06
   0   3  -1    5.49    1.81
   0   3  -2   -0.13    0.75
   0  -3  -2   -0.30    1.02
   0  -3   2    0.46    0.88
   0  -3  -2   -1.35    1.46
   0   3   2    2.08    1.44
   0  -3   2    1.02    0.97
   0  -3  -2   -1.83    1.85
   0   3  -2   -1.46    1.91
   0   3   2   -0.83    1.54
   0  -3  -2   -0.71    1.26
   0   3   2    0.18    1.18
   0   3  -2    4.12    1.12
   0  -3   2    1.18    1.25
   0  -3   3    0.95    1.06
   0   3   3    1.41    1.11
   0  -3   3    0.76    1.14
   0  -3  -3   -0.10    1.12
   0   3  -3   -0.11    1.34
   0   3  -3    0.41    0.88
   0  -3  -3    0.21    1.30
   0  -3  -3    0.38    1.11
   0  -3  -3    1.40    1.56
   0   3   3   -0.17    1.34
   0  -3   3    1.30    0.95
   0   3  -3    0.43    0.83
   0  -3   3    3.27    1.53
   0   3   4   -0.07    0.96
   0   3  -4    0.37    1.63
   0  -3  -4    0.90    1.07
   0  -3  -4   -0.40    1.24
   0   3   4    0.13    1.67
   0  -3   4   -0.57    0.92
   0   3   4    0.64    1.18
   0  -3  -4    2.95    1.85
   0  -3   4    1.70    1.26
   0   3  -4   -0.51    1.03
   0  -3  -4    0.37    1.44
   0  -3   4   -0.44    1.03
   0  -3  -4    6.25    2.40
   0   3  -5    0.99    1.11
   0  -3  -5   -0.04    1.14
   0  -3  -5    3.51    1.97
   0   3   5    0.70    1.28
   0   3  -5    6.71    2.54
   0  -3   5   -0.29    0.97
   0  -3  -5    8.29    2.92
   0  -3   5    3.43    1.65
   0   3   5    4.13    2.03
   0  -3   5   -0.14    0.99
   0  -3  -5    1.64    1.55
   0   3   5   -0.34    0.53
   0   3   5    0.14    1.38
   0  -3   6    2.49    1.04
   0  -3   6    6.55    1.82
   0   3   6    5.09    1.79
   0  -3  -6    4.08    1.84
   0   3   6    3.03    1.44
   0   3   6    2.61    1.49
   0   3  -6    4.17    1.50
   0  -3  -6    4.60    1.33
   0   3   6    2.92    0.84
   0  -3   6    4.98    1.56
   0  -3   7    0.85    1.18
   0   3   7    2.53    2.01
   0  -3   7    0.71    0.96
   0  -3   7    0.51    1.55
   0   3  -7    1.43    1.26
   0  -3  -7    0.31    1.26
   0   3   7    0.63    0.79
   0  -3  -7    0.67    0.96
   0  -3   8   -0.96    1.00
   0   3   8   -0.78    0.95
   0  -3  -8   -0.29    1.02
   0   3   8    0.04    1.79
   0  -3   8    2.72    1.54
   0  -3   9   -1.82    2.02
   0  -3  -9   -0.13    0.88
   0   3   9    1.88    1.05
   0  -3   9    1.49    0.91
   0   3   9    1.77    2.69
   0  -3 -10    0.28    0.99
   0   3  10   -0.13    1.06
   0  -3  10    0.35    2.07
   0  -3  10    1.15    0.88
   0   3  11   -0.55    1.04
   0  -3 -11    0.20    0.96
   0  -3  11   -0.86    2.18
   0   3  12    0.46    1.22
   0  -3  12    1.03    2.49
   0  -3 -12    1.39    1.21
   0  -3  13    0.04    2.07
   0   3  13   -0.65    1.45
   0  -3 -13    2.17    1.36
   0   3  14   -1.63    1.60
   0  -3  14    0.16    2.12
   0  -3 -14    2.75    1.34
   0  -3  15   -3.73    2.70
   0   3  15    0.11    1.52
   0  -3  16   -0.45    2.94
   0   3  16   -1.14    1.62
   0   3  17   -0.95    1.94
   0  -3  17    0.54    2.92
   0  -3  18    0.32    3.20
   0   3  18   -0.59    2.05
   0  -3  19    5.58    3.50
   0   3  19   -1.16    2.37
   0   3  20   -3.55    2.72
   0  -3  20    1.36    2.66
   0   3  21   -2.26    2.60
   0  -3  21   -3.08    3.26
   0   3  22   -3.21    2.93
   0  -3  22   -0.15    2.68
   0   3  23   -3.62    2.99
   0  -3  23    1.15    3.05
   0   3  24    0.82    2.58
   0  -3  24   -0.40    3.25
   0   3  25    0.86    2.33
   0  -3  25   -6.94    4.42
   0  -3  26   -4.54    3.76
   0   3  26    2.31    2.69
   0   3  27   -1.99    3.26
   0  -3  27   -2.85    3.75
   0  -3  28   -5.69    4.58
   0   3  28    5.23    3.36
   0   3  29   -1.22    3.45
   0   3  30   -2.65    3.41
   0  -4   0 4562.05   18.21
   0  -4   0 4677.91   35.78
   0  -4   0 4488.13   30.61
   0   4   0 4624.65   35.21
   0  -4   0 4687.02   34.96
   0  -4   0 4578.92   20.55
   0   4  -1 1711.43   21.45
   0  -4  -1 1719.27   20.39
   0  -4   1 1743.58   22.09
   0  -4   1 1718.39   18.21
   0  -4  -1 1762.09   21.60
   0   4  -1 1712.60   14.54
   0  -4   1 1722.63   13.46
   0  -4  -1 1779.95   21.91
   0  -4   1 1732.41   21.81
   0  -4  -1 1761.30   21.93
   0  -4   1 1726.73   21.26
   0  -4  -1 1728.71   19.59
   0   4   1 1711.03   21.70
   0  -4  -1 1652.99    9.88
   0   4   1 1717.35   21.55
   0  -4   1 1690.68   14.41
   0   4   2 1885.18   23.05
   0  -4  -2 1944.89   23.31
   0   4  -2 1916.48   18.74
   0  -4   2 1887.50   16.98
   0  -4  -2 1952.00   21.61
   0   4  -2 1912.91   22.77
   0  -4  -2 1974.78   23.56
   0  -4   2 1977.29   23.64
   0   4   2 1884.26   22.96
   0  -4   2 1929.57   22.42
   0  -4  -2 1904.91   22.72
   0  -4  -2 1947.54   22.22
   0   4  -2 1904.73   17.25
   0  -4   2 1893.40   16.43
   0   4   3  183.55    6.99
   0  -4  -3  188.20    7.36
   0  -4  -3  163.12    6.73
   0  -4   3  169.03    7.18
   0  -4   3  168.24    5.40
   0   4  -3  166.78    5.56
   0   4  -3  169.88    7.10
   0  -4   3  172.11    5.65
   0  -4  -3  170.86    7.07
   0  -4   3  175.53    6.80
   0  -4  -3  165.26    6.65
   0  -4  -3  181.01    7.13
   0   4  -3  196.63    6.12
   0   4   3  162.86    7.03
   0  -4   4  216.29    8.29
   0  -4  -4  221.91    7.95
   0   4  -4  244.14    7.32
   0   4   4  209.45    8.13
   0   4  -4  211.64    6.19
   0  -4  -4  228.60    7.97
   0  -4   4  231.88    6.89
   0   4   4  220.35    8.03
   0  -4   4  223.33    6.95
   0  -4   4  213.85    7.35
   0   4  -4  211.68    8.23
   0  -4  -4  225.84    8.09
   0  -4   5  303.91    8.66
   0   4   5  305.17    9.69
   0   4  -5  297.67   10.03
   0  -4  -5  310.70    9.36
   0   4   5  311.48   10.15
   0  -4  -5  317.35    9.82
   0  -4   5  315.23    8.62
   0  -4  -5  307.69    9.89
   0   4  -5  345.68    9.24
   0  -4   5  311.44    8.87
   0   4  -6  884.05   15.66
   0  -4  -6  867.58   16.73
   0  -4   6  858.08   15.38
   0   4   6  841.44    7.90
   0  -4  -6  830.58   16.64
   0  -4  -6  855.56   15.62
   0   4  -6  884.70   17.63
   0   4   6  861.10   17.33
   0  -4   6  912.48   15.62
   0  -4   6  856.25   14.63
   0   4  -7  404.12   12.49
   0   4   7  395.39    6.46
   0   4   7  397.48   12.20
   0  -4   7  402.19   11.25
   0  -4  -7  398.09   10.69
   0  -4  -7  396.77   11.88
   0  -4   7  428.79   10.25
   0   4  -8  374.41   12.36
   0  -4   8  375.42   11.34
   0  -4  -8  372.28   11.92
   0   4   8  375.79   12.41
   0  -4   8  362.04    9.35
   0   4   8  367.89    7.05
   0  -4  -8  361.32   10.36
   0  -4   9   45.73    4.51
   0   4   9   44.61    4.85
   0  -4  -9   50.11    4.89
   0  -4   9   46.32    3.44
   0  -4  -9   49.02    3.86
   0   4   9   50.79    3.35
   0   4   9   48.59    2.95
   0   4  10    2.66    2.56
   0  -4 -10   -0.80    1.34
   0   4  10    3.05    1.09
   0   4  10    1.10    0.96
   0  -4  10    1.25    1.13
   0  -4  10    0.61    1.74
   0   4  11  117.47    5.30
   0   4  11  123.07    5.98
   0  -4  11  116.69    7.34
   0   4  11  120.27    7.74
   0  -4  11  118.09    5.22
   0   4  12    4.17    2.59
   0  -4  12    2.66    2.19
   0   4  12    3.03    1.26
   0  -4  12    2.40    1.28
   0  -4  13    3.85    2.98
   0   4  13    5.21    1.75
   0   4  13    4.05    3.67
   0   4  14  224.52    8.79
   0  -4  14  237.72   11.61
   0   4  14  239.48   12.20
   0   4  15  120.04    9.23
   0  -4  15  130.17    9.16
   0   4  15  125.70    7.10
   0   4  16  295.10   14.40
   0   4  16  295.33   11.17
   0  -4  16  321.96   14.47
   0  -4  17  928.33   25.14
   0   4  17  898.84   25.73
   0   4  17  855.97   19.66
   0   4  18 2165.57   32.38
   0   4  18 2142.30   40.17
   0  -4  18 2158.05   39.53
   0   4  19  650.83   18.80
   0  -4  19  669.77   22.88
   0   4  20   43.12    5.60
   0  -4  20   45.63    7.31
   0   4  21   63.59    6.41
   0  -4  21   71.53    7.96
   0   4  22    5.58    2.91
   0  -4  22    6.70    3.75
   0  -4  23  161.16   12.58
   0   4  23  156.01   10.53
   0   4  24  472.71   22.44
   0  -4  24  489.22   22.27
   0   4  24  481.36   18.86
   0   4  25  241.82   16.72
   0   4  25  236.80   13.78
   0  -4  25  237.84   16.31
   0   4  26   21.69    4.88
   0   4  26   25.86    6.52
   0  -4  26   21.28    5.75
   0   4  27    6.86    2.82
   0  -4  27   13.06    5.22
   0   4  27    9.81    4.75
   0  -5   0    0.04    0.50
   0  -5   0    0.78    1.67
   0  -5   0   -0.45    1.04
   0  -5   0   -0.02    0.64
   0   5   1    0.45    1.78
   0  -5   1    1.34    1.21
   0  -5  -1   -0.48    1.04
   0  -5   1    0.43    0.59
   0  -5  -1   -1.26    1.57
   0   5  -1    0.93    1.65
   0  -5   1    1.16    1.04
   0  -5  -1    0.04    0.45
   0   5   1    3.13    2.29
   0   5  -2    0.78    0.77
   0   5  -2    1.61    1.64
   0  -5   2    0.56    0.79
   0  -5  -2    0.29    1.28
   0   5   2   -0.61    1.98
   0  -5   2    0.18    0.98
   0   5   2   -0.52    1.68
   0  -5  -2   -1.44    1.76
   0  -5  -2   -0.73    1.20
   0  -5  -3    0.93    1.43
   0  -5   3    1.49    1.10
   0  -5   3    0.66    0.94
   0   5   3    0.51    1.99
   0   5  -3    1.21    1.24
   0  -5  -3   -1.17    1.79
   0   5  -3    1.22    0.88
   0   5   3   -0.88    1.80
   0  -5  -4    4.53    2.05
   0   5  -4   -1.15    2.29
   0   5  -4    0.93    1.05
   0   5   4   -0.51    2.14
   0  -5   4    0.68    0.96
   0   5  -4    1.77    1.05
   0  -5   4    0.37    1.10
   0  -5  -4    2.05    1.92
   0  -5  -5    4.68    2.56
   0   5  -5    0.41    1.03
   0   5  -5   -2.66    2.20
   0  -5   5    1.07    0.93
   0  -5   5    2.09    1.55
   0   5   5    0.15    0.21
   0   5   5    0.45    0.29
   0   5  -5    0.62    1.20
   0  -5  -5   -1.63    1.71
   0   5   5   -0.40    1.91
   0  -5  -6    2.54    2.52
   0  -5   6    0.31    1.37
   0  -5   6   -0.79    0.92
   0   5   6    0.38    1.86
   0  -5  -6    0.52    1.67
   0   5  -6    5.27    2.04
   0   5   6    0.07    0.48
   0   5  -6    1.20    1.35
   0  -5   7   -0.75    1.59
   0   5  -7   -1.23    2.13
   0  -5  -7    5.05    2.90
   0   5   7    0.76    0.33
   0  -5  -7    0.08    1.66
   0   5   7    0.51    0.63
   0   5   7   -1.00    2.60
   0   5   8   -3.49    2.78
   0   5   8    0.22    0.42
   0   5   8   -0.52    0.72
   0  -5   8    1.29    1.74
   0   5  -8    0.03    2.13
   0  -5  -8    2.43    2.22
   0   5   9    0.93    2.34
   0   5   9   -0.83    0.90
   0  -5  -9   -0.69    1.68
   0   5   9    0.02    0.59
   0  -5   9   -1.73    2.09
   0  -5 -10    1.24    1.97
   0   5  10   -0.09    0.75
   0   5  10   -0.20    0.71
   0   5  10    2.54    2.12
   0  -5  10   -0.23    1.90
   0   5 -10    1.19    2.27
   0   5 -11    2.49    2.77
   0   5  11    2.25    2.44
   0   5  11    1.85    1.05
   0   5  11   -0.38    0.97
   0  -5  11    0.28    1.99
   0  -5  12    1.72    2.27
   0   5  12   -2.63    2.93
   0  -5  12    1.56    1.46
   0   5  12    0.37    0.95
   0  -5  13    3.08    2.77
   0   5  13    1.02    3.33
   0   5  13    2.28    1.46
   0  -5  13    4.04    1.75
   0  -5  14   -2.50    2.53
   0   5  14   -4.53    3.95
   0   5  14   -0.45    1.24
   0   5  15    2.26    1.62
   0   5  15    2.80    3.13
   0  -5  15    0.02    2.93
   0   5  16    3.11    1.91
   0  -5  16    1.39    2.55
   0   5  16    7.71    4.48
   0   5  17    1.87    1.58
   0   5  17    6.19    4.20
   0  -5  17   -1.53    3.37
   0   5  18    3.91    3.64
   0   5  18    3.24    1.90
   0  -5  18    2.67    3.23
   0  -5  19    0.77    2.71
   0   5  19    0.06    1.58
   0   5  20   -1.13    3.60
   0   5  20    0.92    1.81
   0  -5  20   -2.66    2.94
   0   5  21    0.15    1.69
   0  -5  21    5.45    3.62
   0   5  21   -0.80    3.09
   0   5  22   -0.25    2.02
   0  -5  22   -2.30    3.12
   0   5  22   -1.95    3.57
   0  -5  23    4.15    3.43
   0   5  23   -4.41    4.51
   0   5  23   -2.51    2.35
   0   5  24    1.93    3.39
   0  -5  24   -0.65    3.46
   0  -5  25    2.27    2.91
   0   5  25    2.34    3.47
   0   5  26   -0.29    3.78
   0  -5  26   -4.52    4.59
   0   6   0   41.01    4.49
   0  -6   0   43.55    2.48
   0  -6   0   41.78    2.09
   0  -6   0   39.93    4.06
   0  -6  -1 4471.46   40.55
   0  -6   1 4541.82   27.59
   0  -6   1 4505.17   24.53
   0  -6   1 4549.01   36.77
   0   6  -1 4428.74   43.00
   0   6   1 4518.96   43.41
   0  -6  -1 4345.05   20.41
   0   6  -2 1741.41   26.91
   0   6   2 1712.85   27.16
   0  -6   2 1720.13   17.20
   0  -6  -2 1717.19   25.51
   0   6   2 1734.74   27.24
   0  -6  -2 1716.49   24.77
   0  -6   2 1716.96   18.69
   0  -6  -3  317.55   11.20
   0   6  -3  324.48   11.76
   0   6   3  306.31   11.58
   0   6   3  316.37   11.93
   0  -6   3  325.27    8.76
   0  -6   3  330.75    8.22
   0  -6  -3  319.48   10.93
   0   6  -4  798.07   18.51
   0  -6  -4  836.68   17.98
   0  -6   4  788.24   14.54
   0   6  -4  837.54   15.12
   0  -6   4  833.55   14.12
   0   6   4  837.75   19.33
   0  -6  -4  841.66   18.39
   0  -6   5   31.21    2.99
   0   6   5   32.98    4.37
   0  -6   5   34.42    3.33
   0  -6  -5   36.51    4.17
   0  -6  -5   30.46    3.73
   0   6  -5   47.60    3.64
   0  -6  -6    3.38    1.98
   0   6   6    1.62    2.24
   0  -6   6    4.66    1.86
   0   6  -6    2.68    1.86
   0   6  -6   -0.80    1.47
   0   6   7  395.96    6.02
   0  -6   7  411.33   12.37
   0   6  -7  413.70   10.71
   0  -6  -7  420.36   13.87
   0   6   7  430.86   14.68
   0  -6  -7  416.96   13.87
   0   6  -7  417.98   14.42
   0  -6   8  110.59    6.77
   0   6  -8  101.21    7.49
   0  -6  -8  113.67    7.61
   0   6   8  110.60    3.79
   0   6   8  100.10    7.37
   0   6  -8  108.71    5.62
   0   6   9   37.33    1.75
   0   6   9   40.38    2.58
   0  -6  -9   46.50    5.06
   0   6  -9   35.30    4.60
   0   6   9   42.96    5.19
   0  -6   9   36.62    4.20
   0   6  10   62.14    6.09
   0   6 -10   58.57    6.09
   0   6  10   59.33    2.74
   0  -6  10   70.15    5.88
   0   6  10   68.23    3.77
   0  -6 -10   65.12    6.21
   0   6  11    9.96    1.87
   0   6  11    2.74    3.74
   0   6  11    4.39    1.15
   0  -6 -11    7.41    3.71
   0   6 -11   12.68    4.61
   0   6  12 4639.25   35.39
   0   6  12 4534.60   29.49
   0   6 -12 4549.60   53.72
   0  -6  12 4539.73   49.87
   0   6  12 4567.85   53.26
   0   6 -13    2.25    3.51
   0   6  13    5.89    3.99
   0   6  13    3.98    1.91
   0   6  14  421.01   10.68
   0   6  14  437.73   17.44
   0  -6  14  441.60   16.56
   0   6 -14  422.55   17.43
   0   6  15  687.06   14.32
   0   6  15  694.94   22.49
   0   6 -15  670.98   22.23
   0  -6  15  700.69   21.57
   0  -6  16   71.48    7.58
   0   6 -16   73.74    8.08
   0   6  16   72.53    5.07
   0   6  16   87.27    8.85
   0  -6  17   94.70    8.99
   0   6  17   89.16    5.92
   0   6  17  106.91   10.27
   0   6  18  837.38   26.60
   0   6  18  832.49   18.38
   0  -6  18  806.62   25.28
   0   6  19  457.65   20.58
   0  -6  19  467.70   19.99
   0   6  19  443.76   14.23
   0   6  20  103.23   10.82
   0  -6  20   99.74   10.27
   0   6  21  678.21   25.91
   0  -6  21  671.76   25.04
   0  -6  22  515.39   22.63
   0   6  22  458.39   21.91
   0   6  23   16.27    5.35
   0  -6  23   30.70    7.19
   0  -6  24   84.47   10.02
   0   6  24  103.74   11.34
   0   6  25  278.92   18.53
   0  -6  25  266.85   17.70
   0   6  26  426.67   23.07
   0  -6  26  390.73   21.66
   0  -7   0    0.81    0.53
   0  -7   0   -0.73    1.94
   0   7   0   -0.60    2.17
   0  -7   0    0.13    0.78
   0  -7   1   -1.77    2.08
   0   7   1    4.83    3.12
   0  -7   1    0.16    0.76
   0   7  -1    2.17    2.52
   0  -7   1    1.02    1.19
   0  -7  -1    1.96    2.54
   0  -7  -1    1.29    0.77
   0   7  -2   -0.38    2.21
   0   7   2    3.42    2.72
   0  -7  -2    0.59    1.95
   0  -7   2    1.29    1.28
   0  -7   2   -0.43    0.78
   0  -7  -2   -0.27    1.65
   0   7  -3    5.11    2.84
   0  -7   3    1.13    0.82
   0  -7   3    0.32    1.04
   0   7   3    0.38    2.42
   0   7   3    5.09    3.27
   0  -7  -3    3.23    2.30
   0  -7  -3   -0.76    2.30
   0   7  -4    1.24    2.26
   0  -7  -4    4.75    2.36
   0  -7  -4   -0.38    1.58
   0   7   4   -0.89    2.35
   0  -7   4    3.09    1.65
   0  -7   4   -0.44    0.97
   0  -7   5   -0.77    1.38
   0   7   5    4.36    2.54
   0   7  -5    0.40    1.19
   0  -7  -5    1.25    2.01
   0  -7   5   -2.03    1.39
   0   7  -5   -0.81    2.18
   0  -7  -5    0.69    2.20
   0   7  -6    1.89    1.46
   0  -7  -6   -1.48    1.69
   0  -7   6   -0.70    1.62
   0   7   6    1.87    2.30
   0  -7  -6    0.87    2.53
   0  -7  -7    0.83    2.67
   0  -7  -7    1.18    2.29
   0   7  -7   -0.74    2.24
   0   7  -7    0.34    1.14
   0  -7   7    1.49    1.86
   0   7   7    0.67    2.34
   0  -7  -8    5.58    3.45
   0  -7  -8    0.91    2.27
   0   7  -8   -1.54    3.45
   0   7   8   -0.32    2.63
   0  -7   8   -0.25    2.08
   0   7   8   -0.08    0.28
   0   7   8    0.01    0.28
   0   7  -8    1.93    1.31
   0  -7  -9   -5.53    3.20
   0   7   9    0.28    0.45
   0  -7   9   -1.83    2.22
   0   7  -9   -4.20    3.83
   0   7   9   -0.84    2.76
   0   7  -9   -0.42    1.30
   0  -7  10   -1.57    2.18
   0   7  10   -2.11    3.41
   0   7 -10    2.23    1.90
   0   7 -10    0.52    2.89
   0  -7 -10   -1.27    2.79
   0   7  10    0.52    0.64
   0   7 -11    0.80    2.86
   0  -7  11    4.54    3.19
   0  -7 -11    4.17    3.39
   0   7  11    2.26    1.14
   0   7  11    4.21    3.70
   0   7  11    0.77    0.44
   0  -7 -12   -2.08    3.23
   0   7  12   -7.41    4.24
   0  -7  12   -2.25    2.95
   0   7  12    0.48    0.53
   0   7 -12   -1.80    3.21
   0   7  13   -0.43    0.68
   0   7  13   -1.86    3.58
   0   7 -13    1.57    2.92
   0  -7  13    0.98    2.82
   0  -7  14   -0.37    2.90
   0   7 -14   -2.28    3.76
   0   7  14    0.15    0.76
   0   7  14   -1.31    3.63
   0   7  15   -0.80    2.80
   0  -7  15   -0.61    2.68
   0   7 -15   -2.47    3.35
   0  -7  16    2.03    2.96
   0   7  16    0.13    3.07
   0   7 -16    1.39    2.76
   0  -7  17   -1.93    3.16
   0   7 -17   -0.18    2.55
   0   7  17   -1.98    3.79
   0   7  18    1.16    2.85
   0   7 -18    5.90    3.51
   0  -7  18   -0.22    3.16
   0  -7  19    0.50    2.82
   0   7 -19    1.55    3.21
   0   7  19   -6.56    5.30
   0   7 -20   -2.27    2.85
   0   7  20   -4.90    4.31
   0  -7  20    2.91    3.37
   0  -7  21   -1.32    3.24
   0   7 -21    1.40    3.64
   0   7  21   -3.05    3.76
   0   7  22   -3.52    4.20
   0   7 -22   -1.64    2.79
   0  -7  22    0.78    2.68
   0   7  23   -7.06    4.79
   0  -7  23    0.26    3.02
   0   7 -23   -0.32    3.32
   0  -7  24    0.17    3.28
   0   7 -24    0.83    3.54
   0   7  24   -6.33    5.74
   0  -7  25    0.53    3.75
   0   7  25   -2.74    4.14
   0   8   0  548.39   17.91
   0  -8   0  551.46    9.53
   0  -8   0  518.09    7.21
   0  -8   0  552.40   16.61
   0  -8  -1   19.27    3.40
   0   8   1   29.11    4.58
   0  -8   1   27.22    2.47
   0   8  -1   23.50    4.50
   0  -8   1   29.30    2.16
   0  -8  -1   22.21    1.65
   0  -8   1   24.05    3.95
   0  -8  -2   57.75    5.69
   0   8   2   51.45    5.74
   0   8  -2   62.31    6.38
   0  -8  -2   58.91    5.42
   0  -8   2   56.39    3.79
   0  -8   2   58.70    3.35
   0  -8   3    2.68    1.25
   0   8  -3    0.90    2.37
   0  -8  -3   -1.58    3.02
   0  -8   3    5.27    1.34
   0   8   3    4.06    2.57
   0  -8  -3    0.78    2.35
   0  -8  -4  238.88   11.17
   0  -8   4  256.46    9.24
   0  -8  -4  260.14   11.83
   0  -8   4  262.92    8.43
   0   8  -4  240.73   12.02
   0   8   4  252.16   12.51
   0   8  -5  101.77    8.26
   0   8   5   95.58    7.88
   0  -8   5   90.87    5.77
   0  -8  -5   85.91    7.09
   0  -8  -5   96.47    7.34
   0   8  -6  314.26   13.80
   0   8   6  309.76   14.18
   0  -8   6  332.06   11.48
   0  -8  -6  304.20   13.02
   0  -8  -6  320.71   13.55
   0  -8  -7 1565.22   29.93
   0   8  -7 1545.29   23.90
   0   8   7 1528.77   31.60
   0  -8  -7 1551.63   30.09
   0  -8   7 1543.66   25.79
   0  -8   8  728.23   18.42
   0  -8  -8  676.04   20.54
   0   8  -8  720.53   16.28
   0   8   8  701.02   21.76
   0  -8  -8  755.74   21.25
   0   8  -9  229.71    9.25
   0  -8  -9  242.70   12.48
   0  -8   9  233.50   10.81
   0   8  -9  234.46   12.77
   0   8   9  236.27   12.99
   0  -8 -10  243.45   12.86
   0   8  10  245.26   13.38
   0   8 -10  222.45   12.78
   0   8 -10  238.03    9.48
   0  -8  10  241.12   11.54
   0  -8  11 1925.05   33.30
   0   8  11 1978.39   37.85
   0   8 -11 1962.05   37.99
   0  -8 -11 1947.50   36.26
   0   8 -11 1915.05   26.97
   0  -8 -12   20.23    4.29
   0   8  12   22.64    5.00
   0   8 -12   23.39    4.95
   0   8 -12   24.58    3.26
   0  -8  12   35.15    5.41
   0   8  13  259.10   14.43
   0  -8 -13  252.83   13.81
   0   8 -13  241.15   14.04
   0  -8  13  252.94   13.02
   0   8 -13  271.77   10.43
   0   8  14  340.65   16.97
   0  -8  14  344.91   15.54
   0   8 -14  353.47   17.22
   0  -8  15 1200.68   29.63
   0   8 -15 1195.04   32.01
   0   8  15 1157.02   31.56
   0   8 -16    8.77    4.41
   0   8  16    3.44    3.79
   0  -8  16   12.96    4.89
   0   8 -17 1030.01   31.24
   0  -8  17 1033.82   29.35
   0   8  17 1037.16   31.14
   0   8 -18   87.91    9.77
   0   8  18   79.84    9.46
   0  -8  18   96.92    9.94
   0  -8  19  345.72   17.82
   0   8 -19  359.67   19.18
   0   8  19  338.60   18.69
   0  -8  20    4.35    4.10
   0   8 -20    8.74    5.43
   0   8  20    1.87    4.27
   0   8  21  324.56   19.21
   0  -8  21  307.82   18.04
   0   8 -21  330.48   19.45
   0   8  22   25.10    7.06
   0  -8  22   36.79    7.34
   0   8 -22   28.70    6.87
   0  -8  23  234.81   16.34
   0   8  23  233.14   17.11
   0   8 -23  254.55   17.72
   0  -8  24   45.74    8.13
   0   9   0   -1.25    3.15
   0  -9   0    3.46    2.49
   0  -9   0    2.36    0.96
   0  -9   1    0.82    1.12
   0  -9   1   -0.02    2.21
   0  -9  -1    1.49    2.33
   0   9   1   -0.66    2.84
   0   9  -1    1.17    2.77
   0  -9  -1    1.10    2.23
   0  -9  -1    0.19    0.53
   0  -9  -2   -3.15    3.09
   0  -9   2   -4.33    3.15
   0   9   2    2.24    2.68
   0   9  -2    2.40    3.05
   0  -9  -2    0.65    2.53
   0  -9   2    0.38    1.01
   0   9   3    2.95    3.11
   0  -9   3   -0.37    1.13
   0  -9  -3   -3.24    3.38
   0  -9  -3    0.12    2.01
   0   9  -3    2.90    2.61
   0  -9  -4    0.49    2.82
   0   9  -4   -0.14    2.58
   0  -9  -4   -0.28    2.12
   0  -9   4   -0.26    1.31
   0  -9   5    2.62    1.68
   0  -9  -5   -0.37    2.43
   0  -9  -5    3.30    2.54
   0   9   5    0.56    4.30
   0   9  -5    9.05    3.95
   0   9   6   -2.89    3.96
   0  -9  -6    1.23    2.68
   0  -9   6    0.24    1.55
   0   9  -6    1.88    3.52
   0  -9  -6    3.01    3.42
   0   9  -7    2.32    3.51
   0  -9  -7    5.35    3.43
   0  -9   7   -0.60    1.79
   0  -9  -7   13.51    4.64
   0   9   7   -7.05    4.35
   0  -9   8    1.29    2.02
   0  -9  -8   15.19    4.66
   0   9   8    2.95    3.44
   0   9  -8   15.81    5.04
   0  -9  -8    0.29    3.21
   0   9  -8    1.89    1.74
   0   9   9    4.34    2.87
   0  -9  -9    7.83    4.31
   0  -9  -9   -0.29    2.31
   0  -9   9    1.25    2.15
   0   9  -9    0.08    1.81
   0  -9 -10    4.43    3.84
   0   9 -10    2.92    1.57
   0  -9  10   -4.76    3.07
   0   9  10    2.23    2.65
   0  -9 -11    0.70    2.35
   0   9 -11   -0.99    1.26
   0  -9  11   -2.52    2.58
   0   9  11   -2.76    3.54
   0   9 -11   -1.35    3.65
   0  -9  12   -0.70    2.06
   0   9 -12   -4.58    4.47
   0  -9 -12   -2.78    2.91
   0   9  12   -4.36    3.95
   0   9 -12    1.13    1.38
   0   9 -13   -1.02    1.68
   0   9 -13   -7.18    4.71
   0  -9 -13    1.32    2.81
   0  -9  13    2.90    2.57
   0   9  13    0.83    3.11
   0  -9  14   -0.97    3.14
   0   9 -14   -2.79    4.61
   0   9  14    1.03    2.97
   0   9  15   -4.94    4.40
   0  -9  15    3.26    2.48
   0   9 -15   -2.16    2.93
   0   9 -16    0.43    3.57
   0   9  16   -6.99    4.53
   0  -9  16    2.46    2.51
   0   9  17    3.56    3.95
   0  -9  17    1.82    3.01
   0   9 -17   -2.77    3.79
   0  -9  18   -2.59    3.54
   0   9  18    1.32    3.85
   0   9 -18    3.37    3.37
   0   9 -19    1.65    2.62
   0   9  19    5.69    4.47
   0  -9  19   -1.38    3.06
   0  -9  20   -6.15    4.36
   0   9  20    3.48    4.12
   0   9 -20   -1.78    3.46
   0   9  21   -1.86    3.86
   0  -9  21   -2.74    3.60
   0   9 -21   -2.53    3.26
   0  -9  22   -0.88    3.55
   0   9 -22   -0.66    3.64
   0   9  22   -5.98    4.71
   0  -9  23    1.93    3.55
   0 -10   0   19.48    3.93
   0  10   0   18.30    4.44
   0  10  -1   10.22    3.47
   0 -10  -1   14.47    3.07
   0 -10  -1   17.00    3.67
   0 -10   1   16.43    3.43
   0  10   1   18.20    4.06
   0 -10   2   31.42    4.89
   0  10  -2   32.69    5.23
   0 -10  -2   21.70    3.79
   0  10   2   28.59    5.37
   0 -10   2   32.33    3.08
   0 -10  -2   27.70    4.58
   0  10  -3   -3.93    3.73
   0 -10  -3    3.32    2.34
   0 -10   3    2.59    1.67
   0 -10  -3   -2.31    2.98
   0 -10   3    5.47    3.22
   0 -10  -4  390.08   16.45
   0 -10   4  385.99   11.88
   0 -10  -4  404.32   16.22
   0  10  -4  393.88   17.43
   0 -10  -5  336.52   15.37
   0  10  -5  346.14   16.30
   0 -10  -5  352.49   15.44
   0 -10   5  359.00   12.10
   0 -10   6  371.83   12.88
   0  10  -6  370.19   16.89
   0 -10  -6  363.45   16.18
   0  10   6  363.67   16.97
   0 -10  -6  351.99   15.74
   0 -10   7  123.86    7.94
   0  10  -7  129.81   10.47
   0 -10  -7  128.52   10.05
   0  10   7  138.07   10.85
   0 -10  -7  118.27    9.46
   0  10  -8 1044.76   28.85
   0 -10  -8 1035.25   27.91
   0 -10   8 1046.30   23.48
   0  10   8 1046.29   29.58
   0 -10  -8 1065.60   27.91
   0  10  -9  138.60   11.03
   0  10   9  130.45   10.91
   0 -10  -9  115.44    9.75
   0 -10   9  111.05    8.08
   0 -10  -9  127.27   10.47
   0  10 -10    9.05    4.24
   0 -10  10    8.41    3.25
   0 -10 -10    4.75    3.35
   0  10  10    8.77    3.74
   0 -10  11  519.58   18.39
   0 -10 -11  551.81   21.40
   0  10  11  527.69   21.84
   0 -10 -12  129.39   10.46
   0 -10  12  113.88    9.11
   0  10  12  144.17   11.84
   0 -10  13   79.16    7.92
   0  10  13   73.14    8.72
   0 -10 -13   80.70    8.72
   0  10 -14  470.10   21.52
   0  10  14  462.35   21.34
   0 -10  14  436.34   18.49
   0 -10  15   12.75    3.96
   0  10  15   11.94    4.27
   0  10 -15    7.20    3.54
   0 -10  16    0.89    2.75
   0  10 -16   -1.84    3.90
   0  10  16    0.57    3.14
   0 -10  17   19.65    4.56
   0  10 -17   10.86    3.70
   0  10  17   15.93    5.20
   0  10  18  233.86   16.44
   0 -10  18  242.87   15.46
   0  10 -18  252.44   17.15
   0  10 -19   18.41    5.92
   0  10  19   21.46    6.13
   0 -10  19   22.59    5.32
   0  10 -20    4.04    4.57
   0 -10  20    5.79    3.52
   0  10  20   14.21    6.21
   0 -10  21   97.71   11.12
   0 -10  22  640.11   27.14
   0 -11   0   -0.33    2.40
   0 -11   0   -0.57    2.51
   0  11   0    7.28    3.79
   0  11  -1   -2.35    3.81
   0  11   1   -3.17    3.20
   0 -11   1    0.04    2.33
   0 -11  -1   -0.37    1.97
   0 -11  -1   -1.10    2.73
   0 -11   2   -5.52    2.87
   0  11  -2    0.03    3.08
   0 -11  -2   -5.59    3.27
   0  11   2    1.17    2.39
   0 -11  -2    0.59    2.09
   0  11  -3   -0.19    2.88
   0 -11   3   -1.62    2.35
   0 -11  -3    1.08    2.20
   0 -11  -3   -1.02    2.77
   0 -11  -4   -1.22    2.05
   0  11  -4    3.01    2.87
   0 -11  -4   -0.96    2.50
   0 -11   4    0.36    2.15
   0  11  -5   -0.11    2.71
   0 -11  -5    2.86    2.99
   0 -11   5   -1.51    2.89
   0 -11  -5   -1.01    2.52
   0 -11  -6   -1.38    2.36
   0 -11  -6    1.66    3.01
   0 -11   6    0.10    1.40
   0  11  -6    1.53    2.70
   0 -11   7   -0.98    1.65
   0 -11  -7    2.30    3.02
   0  11  -7    0.12    2.87
   0  11   7   -1.26    3.90
   0 -11  -7    1.65    3.50
   0 -11   8    2.16    2.04
   0  11   8   -2.21    3.67
   0  11  -8    4.53    3.51
   0 -11  -8    5.37    3.73
   0 -11  -8    9.04    4.32
   0 -11   9    4.52    2.95
   0  11  -9    7.16    4.51
   0 -11  -9    2.12    2.69
   0  11   9    3.45    3.71
   0 -11  -9    8.33    4.31
   0 -11  10   -1.21    2.77
   0  11  10   -1.96    3.39
   0 -11 -10   -2.50    3.73
   0  11 -10    4.87    4.01
   0 -11  11    2.33    2.19
   0  11  11   -5.83    4.20
   0  11 -11    1.42    2.71
   0 -11 -11   -0.14    2.93
   0 -11  12    1.49    2.10
   0 -11 -12   -0.47    2.87
   0  11  12   -2.26    3.81
   0  11 -12    4.04    3.47
   0 -11 -13   -1.81    3.21
   0 -11  13   -1.53    2.27
   0  11 -13   -3.35    3.25
   0  11  13    1.94    3.18
   0 -11  14    2.90    2.24
   0 -11 -14    4.74    3.32
   0  11  15   -0.91    4.05
   0 -11  15    0.12    2.34
   0  11  16   -2.93    3.64
   0 -11  16    0.24    2.47
   0 -11  17    2.04    3.13
   0  11 -17   -6.94    5.07
   0  11  17   -3.48    3.82
   0  11  18    0.24    3.54
   0 -11  18   -0.08    2.50
   0  11 -18   -7.74    5.39
   0 -11  19   -2.77    2.96
   0 -11  20   -3.13    3.78
   0 -11  21   -1.07    3.83
   0 -12   0  336.65   16.03
   0 -12   0  347.33   16.90
   0  12   0  324.49   17.70
   0  12  -1    5.18    3.68
   0 -12   1   -0.27    2.54
   0 -12  -1   -0.41    2.98
   0  12   1    1.96    3.26
   0 -12   1    0.05    2.28
   0 -12  -1    0.99    2.39
   0 -12   2   -0.70    3.10
   0 -12  -2   -2.40    3.15
   0 -12  -2    2.00    2.64
   0  12  -2   -4.69    4.34
   0 -12  -3  179.10   12.48
   0 -12  -3  185.48   12.24
   0  12  -3  179.96   12.99
   0 -12   3  179.21   12.18
   0 -12  -4    9.79    3.69
   0  12  -4    7.58    3.85
   0 -12   4    5.38    2.62
   0 -12  -4   10.79    3.97
   0  12  -5  203.66   14.11
   0 -12   5  188.50   12.55
   0 -12  -5  205.80   13.14
   0 -12  -5  209.80   13.74
   0 -12  -6   11.68    4.20
   0 -12   6   10.65    3.80
   0 -12  -6   11.11    3.76
   0  12  -6    7.18    3.77
   0  12  -7   75.10    8.97
   0 -12  -7   64.00    8.08
   0 -12  -7   59.48    7.56
   0 -12  -8   52.62    7.36
   0  12  -8   55.32    8.01
   0 -12  -8   46.47    7.24
   0 -12  -9   26.08    5.61
   0  12  -9   25.55    6.25
   0  12   9   26.21    5.85
   0 -12  -9   29.04    6.19
   0 -12 -10  577.46   23.52
   0  12  10  600.25   25.52
   0  12 -10  563.23   24.24
   0  12  11  220.14   15.94
   0  12 -11  202.07   14.83
   0 -12 -11  191.51   13.98
   0 -12 -12   81.98    9.39
   0  12 -12   69.70    9.08
   0  12  12   82.85   10.15
   0  12 -13    3.59    3.19
   0 -12  13    2.87    2.48
   0  12  13   -2.77    3.18
   0 -12 -13    3.35    3.20
   0 -12 -14   32.60    6.28
   0  12  14   36.41    7.29
   0 -12  14   33.78    5.74
   0  12 -14   31.99    6.74
   0  12 -15    3.70    4.12
   0 -12  15    3.91    3.28
   0  12  15   -0.88    3.59
   0 -12  16   10.56    3.71
   0  12 -16    8.02    4.40
   0 -12  17   26.11    5.44
   0  12 -17   20.96    5.88
   0 -12  18   17.51    4.69
   0 -12  19    1.36    2.75
   0 -13   0    2.11    3.05
   0 -13   0    5.90    3.40
   0  13   0    6.38    3.65
   0 -13  -1    0.55    3.05
   0 -13  -1   -1.63    2.48
   0  13  -1    0.37    2.79
   0 -13   1   -3.68    3.01
   0 -13   1   -0.09    2.05
   0 -13   2    0.92    2.76
   0 -13   2   -2.75    2.84
   0 -13  -2   -2.94    3.41
   0  13  -2   -3.77    3.49
   0 -13  -2    4.73    3.39
   0 -13  -3    5.06    3.19
   0 -13   3    1.96    2.70
   0 -13  -3   -1.54    2.73
   0  13  -3   -1.84    2.76
   0 -13   3   -0.95    2.89
   0  13  -4   -2.48    3.36
   0 -13  -4    1.37    2.49
   0 -13   4    0.86    2.87
   0 -13  -4   -0.29    3.34
   0 -13  -5    0.65    3.16
   0  13  -5   -2.26    3.53
   0 -13  -5    1.79    3.21
   0 -13   5   -2.21    2.36
   0  13  -6   -1.86    3.63
   0 -13   6    0.82    2.49
   0 -13  -6   -2.80    2.61
   0 -13  -6    1.53    3.15
   0 -13  -7    1.56    3.56
   0 -13   7   -3.68    2.60
   0 -13  -7    2.13    2.75
   0  13  -7    2.13    3.52
   0  13  -8   -2.33    3.62
   0 -13  -8    0.94    3.47
   0 -13   8    1.53    2.93
   0 -13  -8    3.24    3.10
   0 -13  -9   -2.40    3.75
   0  13  -9   -1.32    3.50
   0 -13 -10    6.03    4.41
   0  13 -10    5.01    4.45
   0  13  11   11.80    5.85
   0  13 -11    2.02    3.70
   0 -13 -11    1.79    3.45
   0  13 -12   -2.73    3.76
   0  13  12    3.84    4.20
   0 -13 -12    1.20    3.22
   0  13 -13    8.61    4.46
   0 -13 -13   -1.25    3.56
   0 -14   0   34.22    6.46
   0 -14   0   28.55    5.46
   0  14   0   32.12    6.77
   0 -14   1  135.77   11.79
   0 -14  -1  127.92   11.11
   0 -14   1  137.46   11.32
   0  14  -1  124.53   12.32
   0 -14  -1  121.75   11.41
   0 -14   2    0.18    2.61
   0 -14   2   -1.69    2.98
   0 -14  -2    6.61    3.63
   0  14  -2    0.15    3.36
   0 -14  -2    2.89    2.99
   0 -14  -3   34.45    6.30
   0 -14   3   42.34    6.41
   0 -14   3   27.79    5.54
   0 -14  -3   27.41    5.43
   0  14  -3   40.01    7.35
   0 -14   4   35.81    6.01
   0  14  -4   36.51    7.01
   0 -14  -4   40.88    6.74
   0 -14  -4   32.92    6.19
   0 -14   4   26.68    5.48
   0 -14  -5    3.80    2.72
   0 -14  -5    5.66    3.68
   0 -14   5    0.30    3.06
   0  14  -5   -4.02    3.72
   0  14  -6   83.48   10.38
   0 -14  -6   73.07    9.47
   0 -14   6   63.39    8.18
   0 -14  -6   78.66    9.10
   0 -14  -7  242.28   16.09
   0 -14  -7  231.44   16.07
   0 -14   7  223.74   15.14
   0  14  -7  234.95   17.14
   0 -14  -8  191.28   14.72
   0 -14   8  195.72   14.14
   0  14  -8  223.21   16.67
   0 -14  -8  189.45   14.78
   0 -14  -9   24.02    6.04
   0 -14   9   17.58    4.94
   0 -14  10  178.80   13.85
   0 -14 -10  185.17   14.56
   0 -14 -11   33.16    6.80
   0 -14 -12   69.09    9.40
   0 -15   0    2.01    3.02
   0 -15   0   -3.70    3.66
   0 -15   1   -2.05    3.19
   0 -15  -1   -2.58    2.44
   0 -15  -1   -4.57    3.29
   0 -15   2    2.60    3.33
   0 -15  -2    1.63    2.75
   0 -15  -2    8.81    4.31
   0 -15  -3    1.03    2.42
   0 -15  -3    4.44    3.73
   0 -15   3    2.46    2.95
   0 -15   4    4.04    3.69
   0 -15  -4    4.92    3.97
   0 -15  -4    3.48    3.75
   0 -15   5    0.47    3.10
   0 -15  -5    8.17    3.77
   0 -15  -6    5.65    4.30
   0 -15  -6    2.50    3.45
   0 -15  -7    7.09    4.20
   0 -15  -7    3.43    3.25
   0 -15  -8   -2.48    2.77
  -1   0  -3    0.35    0.53
   1   0  -3    0.26    0.64
  -1   0   3    1.43    0.60
  -1   0   4 1904.25   17.03
  -1   0   4 1886.09   14.91
   1   0  -4 1890.57   16.74
  -1   0  -4 1834.42   16.61
   1   0   4 1898.65   16.48
  -1   0   5    9.74    1.51
   1   0  -5    5.37    1.56
  -1   0  -5    6.72    1.55
  -1   0   5    5.93    1.41
   1   0   5    8.27    1.76
  -1   0  -6 3650.77   27.04
  -1   0   6 3602.24   25.23
  -1   0   6 3688.30   27.54
   1   0   6 3613.74   26.58
   1   0  -6 3490.52   26.84
   1   0  -7    2.33    1.53
  -1   0   7    2.48    1.45
   1   0   7    0.27    1.36
  -1   0  -7    1.18    1.06
  -1   0   7    3.75    1.56
  -1   0   8 3697.69   30.72
  -1   0   8 3802.51   32.03
   1   0   8 3667.31   30.46
   1   0  -8 3715.24   31.43
  -1   0  -8 3650.46   31.02
  -1   0   9   -0.24    1.49
   1   0   9   -0.34    2.52
  -1   0  -9    1.21    1.04
  -1   0  10    9.95    2.13
   1   0  10   10.14    2.14
  -1   0  11    0.21    0.24
  -1   0  11   -0.61    1.70
  -1   0  12 2067.97   28.38
   1   0  12 2075.77   27.89
   1   0  13   76.35    7.18
  -1   0  13    3.82    2.79
   1   0  14  938.15   20.62
  -1   0  14  933.72   20.85
   1   0  15   76.26    8.48
  -1   0  15   20.75    4.79
  -1   0  16 2681.36   37.59
   1   0  16 2618.13   36.87
  -1   0  17   32.60    9.13
   1   0  17  100.51    9.42
   1   0  18   10.02    3.90
  -1   0  18    4.30    2.90
   1   0  19    2.75    2.42
  -1   0  19    2.44    2.72
   1   0  20  148.40   10.01
  -1   0  20  148.42   10.33
   1   0  21    5.45    3.99
  -1   0  21    7.13    3.13
   1   0  22   92.34    8.74
  -1   0  22   88.79    8.82
  -1   0  23   10.02    5.14
   1   0  23   21.01    5.41
  -1   0  24  552.35   22.06
   1   0  24  568.94   22.38
   1   0  25   43.47    7.97
  -1   0  25   31.29    7.15
  -1   0  26  771.90   27.64
   1   0  26  747.61   27.14
  -1   0  27   28.12    6.51
   1   0  27   34.82    6.65
   1   0  28   14.73    4.58
  -1   0  28    9.50    4.85
  -1   0  29    3.65    3.97
   1   0  29   -3.40    3.84
  -1  -1   1  452.39    5.15
   1   1   2 3154.24   17.17
   1  -1   2 3011.55   18.90
   1  -1  -2 3082.25   16.16
   1   1   2 3040.31   19.02
   1   1   3  597.17    9.21
  -1  -1  -3  600.33    9.11
   1  -1  -3  613.64    7.96
   1  -1   3  618.90    9.31
  -1   1  -3  611.30    9.40
  -1  -1   3  584.26    9.26
   1  -1  -3  608.96    8.95
  -1   1   3  605.25    9.06
  -1  -1  -3  599.67    7.89
   1   1  -3  590.74    9.20
  -1   1   3  601.92    8.07
  -1   1   4  194.43    5.09
   1  -1  -4  191.89    4.97
   1  -1   4  189.81    5.66
  -1   1  -4  195.82    5.82
   1   1   4  196.09    5.79
  -1  -1   4  185.42    5.71
   1  -1  -4  190.02    5.51
  -1  -1  -4  194.19    4.96
   1   1  -4  182.30    5.60
  -1   1   4  199.97    5.58
   1   1   4  197.20    4.93
   1  -1  -5  730.42   10.73
   1   1   5  736.04   10.43
  -1   1   5  748.23   10.92
  -1   1  -5  737.90   12.14
  -1  -1   5  753.34   12.30
  -1  -1  -5  730.03   10.51
   1  -1  -5  705.55   11.51
  -1   1   5  746.91   11.70
   1   1   5  737.37   12.02
   1  -1   5  774.97   12.13
   1   1  -5  750.64   12.14
   1  -1  -6  162.69    5.91
   1  -1   6  165.76    6.11
  -1   1   6  171.52    6.03
   1   1   6  162.54    5.36
  -1   1  -6  166.56    6.16
  -1  -1  -6  162.21    5.43
   1  -1  -6  157.13    5.49
  -1   1   6  168.58    5.61
  -1  -1   6  163.26    6.22
   1   1  -6  169.06    6.27
   1  -1   7  426.73   10.33
  -1   1   7  437.97    9.80
  -1   1   7  442.86   10.27
  -1  -1  -7  420.75    9.42
  -1  -1   7  454.26   10.78
  -1   1   7  423.94    7.07
  -1   1  -7  439.06   10.52
  -1  -1   7  430.93   10.35
   1  -1  -7  429.99    9.73
   1   1   7  425.85    9.33
   1   1  -7  427.71   10.60
  -1  -1   8  477.21   11.57
  -1   1   8  500.36   10.93
  -1  -1   8  497.23   11.96
  -1   1   8  478.94    7.51
  -1   1   8  497.73   11.52
   1   1  -8  478.04   11.84
  -1   1   8  492.10   11.13
   1  -1   8  496.02   11.68
  -1  -1  -8  489.84   10.70
   1   1   8  469.14   10.40
  -1   1  -8  500.51   11.81
   1  -1   9  120.08    6.31
  -1   1   9  119.35    3.77
  -1  -1   9  128.66    6.50
  -1  -1  -9  122.00    5.70
  -1   1   9  118.91    5.75
  -1   1   9  131.46    6.09
   1   1   9  118.56    5.69
   1  -1  10   41.20    4.39
  -1   1  10   34.88    3.43
   1   1  10   42.23    3.76
  -1  -1  10   37.30    3.87
  -1   1  10   35.50    2.06
  -1  -1  11  332.47   11.34
  -1   1 -11  324.03    4.68
  -1   1  11  334.49   10.59
   1   1  11  337.82   10.43
   1  -1  11  336.64   11.31
  -1  -1  12   38.15    4.68
   1  -1  12   55.64    5.71
  -1   1  12   34.15    4.24
   1   1  12   52.59    5.01
   1  -1  13  772.54   18.54
  -1   1  13  816.41   18.15
  -1  -1  13  801.35   19.07
   1   1  13  798.37   17.63
  -1  -1 -14   79.42    2.82
   1  -1  14  113.14    8.29
  -1  -1  14   97.70    7.24
   1   1  14   99.46    7.27
  -1   1  14   85.97    6.86
   1   1  15  105.72    7.25
  -1   1  15  107.01    7.25
  -1  -1 -15   94.60    2.87
  -1  -1  15  110.49    7.85
   1  -1  15  111.85    7.95
  -1  -1  16  211.77   11.17
   1   1  16  232.55   10.93
  -1   1  16  221.90   10.70
   1  -1  16  230.65   11.67
  -1   1  17 1131.91   24.87
   1  -1  17 1171.27   26.13
  -1  -1  17 1125.96   26.10
   1   1  17 1160.30   24.91
  -1   1  18   48.74    6.59
   1  -1  18   58.21    7.05
   1   1  18   67.56    7.25
  -1  -1  18   62.35    6.96
  -1  -1  19   25.49    4.76
  -1   1  19   18.90    4.71
   1   1  19   31.68    5.49
   1  -1  20  728.86   22.87
   1   1  20  747.71   22.02
  -1  -1  20  700.55   22.46
  -1   1  20  713.46   21.68
  -1  -1  21   44.61    6.66
   1   1  21   32.71    6.50
   1  -1  21   42.16    6.49
  -1   1  21   20.37    5.56
  -1   1  22  185.24   11.96
   1  -1  22  191.30   12.59
  -1  -1  22  172.61   12.09
   1   1  22  178.46   11.85
  -1   1  23  162.81   11.54
   1   1  23  166.42   11.84
   1  -1  23  156.18   11.74
  -1  -1  23  166.52   12.19
  -1   1  24    5.95    3.47
  -1  -1  24    7.23    4.32
   1  -1  24   16.20    4.85
   1   1  24    5.10    3.96
  -1   1  25  145.89   11.66
   1   1  25  141.10   11.42
  -1  -1  25  152.14   12.33
   1  -1  25  136.13   11.58
  -1   1  26  157.64   12.39
  -1  -1  26  149.17   12.67
   1   1  26  155.57   12.33
   1  -1  26  169.77   13.25
   1  -1  27    5.94    4.89
  -1   1  27    6.35    3.81
  -1  -1  27    9.12    4.18
   1   1  27    7.48    3.58
   1  -1  28   -1.10    3.28
   1   1  28    2.59    3.02
  -1  -1  28    4.20    3.59
  -1   1  28    7.40    3.73
  -1   1  29   -4.37    3.88
   1  -1  29   -3.31    3.73
   1   1  29    4.37    3.86
  -1  -1  29    5.28    4.09
  -1   1  30    0.10    3.07
   1   1  30   -1.49    3.18
  -1  -2   0    0.25    0.44
  -1  -2   0    0.43    0.59
   1  -2   0    0.32    0.76
  -1   2   0   -0.03    0.60
   1   2   0    0.04    0.76
   1  -2   0   -0.06    0.64
   1   2   0    0.91    0.80
  -1  -2   0    0.27    0.69
   1   2   0    1.49    1.13
   1  -2   0    0.61    0.72
  -1  -2   0    1.02    0.92
   1  -2  -1  147.84    3.68
  -1  -2  -1  147.92    3.68
   1  -2  -1  151.99    3.10
   1   2   1  143.08    4.54
  -1  -2  -1  143.71    4.93
  -1   2   1  157.11    4.74
  -1  -2  -1  149.44    3.92
   1   2   1  146.96    4.92
  -1   2  -1  160.06    5.04
  -1  -2   1  143.40    4.23
  -1  -2  -1  150.08    4.91
   1  -2  -1  147.85    4.54
   1  -2  -1  148.36    4.64
  -1  -2   1  148.18    4.35
  -1  -2  -1  144.75    4.61
   1   2  -1  156.58    4.37
   1  -2   1  139.68    4.51
  -1   2   1  152.37    3.77
  -1  -2   1  143.03    4.63
  -1   2   1  160.38    5.14
  -1   2   1  146.96    3.74
  -1  -2  -1  156.03    4.75
   1   2   1  141.78    3.71
   1   2  -1  156.82    4.32
   1  -2   1  150.67    4.22
   1   2   1  148.14    3.88
  -1   2  -1  151.58    4.29
  -1   2   1  153.41    4.58
  -1  -2  -2  450.90    6.00
   1  -2  -2  440.14    8.27
  -1   2   2  475.76    8.67
  -1   2  -2  465.82    8.36
  -1   2   2  463.25    8.21
  -1  -2   2  436.03    7.94
  -1  -2  -2  461.92    8.93
  -1   2  -2  461.74    8.04
   1  -2  -2  461.99    5.68
   1   2   2  461.36    6.91
   1  -2   2  463.49    8.46
   1   2  -2  465.53    8.36
  -1  -2  -2  471.00    8.95
   1   2   2  467.80    9.09
  -1  -2   2  455.63    8.48
   1   2   2  465.55    8.42
  -1   2   2  462.69    7.36
   1  -2   2  466.75    8.03
   1   2   2  454.26    7.46
  -1  -2  -2  454.53    8.38
   1  -2  -2  476.59    8.31
  -1   2   2  464.29    8.31
  -1   2   2  447.40    5.64
  -1  -2  -2  454.13    7.33
   1   2  -2  473.39    8.02
  -1   2  -2  533.92    9.19
  -1  -2  -3 8542.92   40.20
   1  -2   3 8574.79   37.21
   1   2   3 8589.12   27.28
  -1  -2   3 8414.81   37.44
  -1   2   3 8680.88   27.67
  -1   2  -3 8528.28   37.80
   1  -2  -3 8667.26   39.99
   1   2  -3 8821.80   38.77
  -1   2   3 8750.06   38.20
  -1  -2  -3 8737.20   38.85
  -1   2  -3 8591.39   38.13
   1   2  -3 8754.95   37.41
  -1   2  -3 8527.39   35.14
  -1   2   3 8688.29   35.24
   1  -2  -3 8826.42   27.36
  -1   2   3 8711.98   37.40
   1   2   3 8739.42   35.96
   1  -2  -3 8743.28   36.92
   1   2   3 8794.18   40.86
   1  -2  -3 8543.70   38.38
   1   2   3 8748.10   38.41
   1   2   4  433.53    9.11
  -1   2  -4  424.49    9.07
   1   2  -4  413.65    8.85
  -1   2   4  441.09    9.50
   1  -2   4  421.44    9.03
  -1   2   4  417.20    6.92
   1  -2  -4  424.96    8.59
  -1  -2  -4  413.25    6.60
   1  -2  -4  429.10    6.79
   1   2   4  434.05    6.74
  -1   2  -4  462.72    8.57
  -1  -2  -4  436.93    9.51
  -1   2   4  422.68    8.37
  -1   2   4  416.91    9.00
   1   2   4  427.74    8.72
   1  -2  -4  427.24    9.34
  -1  -2   4  422.06    9.00
   1   2   4  419.56    9.49
  -1  -2  -5 7793.56   42.23
  -1   2   5 7890.99   36.39
  -1   2  -5 7768.68   33.08
  -1   2   5 7810.51   33.14
   1   2   5 7966.79   40.80
  -1  -2   5 8026.69   41.92
   1  -2   5 7799.75   40.79
  -1   2   5 7693.12   40.64
  -1   2  -5 7987.67   42.08
   1   2   5 7657.13   40.77
   1  -2  -5 7835.84   42.13
  -1  -2  -5 7747.28   31.73
   1   2  -5 7739.37   40.86
   1  -2  -5 7703.60   32.60
   1   2   5 8055.26   43.23
  -1   2   5 8140.38   42.68
   1   2   5 7855.46   31.53
  -1   2  -6 1210.80   17.36
  -1   2   6 1268.41   17.71
   1  -2   6 1222.03   17.11
  -1   2   6 1198.56   14.26
   1  -2  -6 1189.24   17.50
   1   2   6 1237.09   17.85
  -1  -2   6 1262.13   17.80
   1   2   6 1181.03   16.88
   1   2   6 1199.27   13.48
  -1   2  -6 1224.74   13.04
  -1  -2  -6 1199.54   13.73
  -1  -2   6 1213.53   17.15
   1  -2  -6 1181.33   14.05
  -1   2   6 1191.51   14.35
   1   2   6 1191.27   17.05
   1   2  -6 1197.50   17.23
   1   2   7  479.69   11.71
  -1  -2   7  443.58   11.27
  -1   2   7  443.20    9.39
   1  -2  -7  434.99   11.17
  -1   2   7  431.86    8.68
  -1   2   7  450.94   11.17
  -1  -2  -7  440.47    8.98
  -1   2  -7  439.88   11.06
   1  -2   7  454.89   11.05
  -1   2  -7  418.03    7.66
  -1  -2   7  452.21   11.07
   1   2   7  432.06    8.83
   1   2  -7  429.41   11.06
  -1   2   8   95.84    4.20
   1  -2   8  115.20    6.19
  -1  -2  -8  111.30    4.83
   1  -2  -8  102.59    5.81
   1   2   8  107.60    4.75
  -1   2   8  103.11    4.97
  -1   2  -8  108.11    3.86
  -1  -2   8  108.29    5.87
   1   2  -8  110.72    6.00
  -1   2  -9  631.58    9.06
   1   2   9  628.40   12.20
   1  -2   9  657.40   15.14
  -1  -2   9  650.79   14.88
  -1   2   9  626.48   12.45
  -1  -2  -9  632.96   12.37
  -1   2   9  637.65   12.97
  -1   2   9  638.99   10.62
   1  -2  10 3163.65   33.91
   1   2  10 3061.65   28.46
  -1  -2  10 3113.23   34.06
  -1  -2 -10 3184.12   29.22
  -1   2 -10 3157.47   19.48
  -1   2  10 3076.07   29.06
  -1   2  11  197.55    8.10
   1   2  11  224.42    8.46
  -1  -2  11  220.56   10.35
  -1   2  12   46.14    4.25
  -1  -2  12   44.24    4.77
   1   2  12   48.54    4.41
   1  -2  13  872.12   20.23
   1   2  13  847.04   17.49
  -1  -2  13  833.48   19.98
  -1   2  13  848.22   17.89
  -1  -2  13  794.42    8.05
  -1   2  14  100.07    6.70
  -1  -2  14  106.54    7.85
   1   2  14  114.56    7.30
  -1  -2 -14   90.90    4.00
   1  -2  14  126.59    9.12
  -1  -2  15  670.62   19.28
  -1  -2 -15  671.97   10.67
   1  -2  15  699.43   19.38
  -1   2  15  687.27   17.43
   1   2  15  689.89   17.27
  -1  -2 -16  217.73    5.90
   1   2  16  243.17   10.85
  -1  -2  16  234.86   12.04
  -1   2  16  222.51   10.54
   1  -2  16  252.35   12.41
  -1  -2  17  135.77    9.59
   1  -2  17  117.15    8.84
  -1  -2 -17  121.57    4.23
  -1   2  17  124.97    8.34
   1   2  17  139.19    8.68
   1  -2  18   22.61    4.75
   1   2  18   26.19    4.48
  -1  -2  18   20.76    4.68
  -1   2  18   27.69    4.52
   1  -2  19  135.70   10.65
  -1   2  19  102.50    8.44
  -1  -2  19  127.22   10.86
   1   2  19  124.80    9.23
   1  -2  20 1613.15   34.61
   1   2  20 1611.89   31.82
  -1   2  20 1587.29   31.65
  -1  -2  20 1614.45   34.51
  -1  -2  21  150.12   12.57
  -1   2  21  166.73   11.57
   1   2  21  158.67   10.71
   1   2  22   76.60    7.87
  -1   2  22   74.72    7.78
  -1  -2  22   73.42    8.36
   1  -2  22   82.85    9.02
  -1   2  23  135.04   10.33
  -1  -2  23  157.29   11.90
   1   2  23  145.24   10.65
   1  -2  23  156.00   11.97
  -1  -2  24   60.12    8.22
   1  -2  24   69.95    8.53
   1   2  24   65.21    7.74
  -1   2  24   63.66    7.59
  -1   2  25   17.77    4.85
   1   2  25    8.92    3.72
  -1  -2  25   14.68    4.85
   1  -2  25   16.62    5.39
  -1   2  26  109.73   10.21
   1  -2  26  125.51   11.81
   1   2  26  118.92   10.78
  -1  -2  26  137.10   12.44
   1   2  27  230.10   15.05
  -1  -2  27  229.06   15.90
  -1   2  27  247.19   15.61
   1  -2  27  224.43   15.97
   1   2  28   23.56    5.72
  -1   2  28   32.91    6.30
   1  -2  28   17.00    5.07
  -1  -2  28   22.77    6.34
  -1   2  29    8.84    4.25
   1   2  29   16.08    5.06
   1   2  30  146.46   13.02
  -1   2  30  165.62   13.60
  -1   3   0    1.64    0.84
  -1   3   0   -0.43    1.19
  -1  -3   0    2.48    0.90
   1   3   0    1.54    0.84
   1  -3   0   -0.19    1.14
  -1  -3   0    0.32    0.72
   1  -3   0    2.30    0.89
  -1  -3   0    4.73    1.51
   1  -3   0    0.33    1.14
   1   3   0    3.47    1.56
  -1  -3   0    0.91    1.00
  -1  -3   0    1.36    1.20
   1   3   0    2.77    1.46
  -1  -3  -1 2058.22   15.16
   1  -3   1 2072.92   16.80
  -1   3   1 2058.07   21.26
  -1  -3  -1 2041.55   20.77
  -1  -3  -1 2084.74   20.55
  -1  -3   1 2033.69   16.80
  -1   3   1 2016.14   14.31
   1   3   1 2069.60   20.76
  -1   3   1 2070.39   20.68
   1  -3  -1 2027.54   11.01
   1   3  -1 2050.86   19.76
   1   3  -1 2052.71   20.22
  -1   3   1 2053.77   20.32
  -1  -3   1 2054.74   21.00
  -1  -3  -1 2090.62   20.88
   1   3  -1 2045.34   16.61
  -1   3   1 2040.21   17.26
   1  -3  -1 2049.52   14.31
  -1  -3  -1 2095.42   21.61
   1   3   1 2079.65   15.04
   1  -3   1 2063.00   20.79
   1  -3   1 2070.26   20.55
  -1   3  -1 2105.80   20.95
   1   3   1 2054.58   20.41
   1  -3   1 2068.17   21.06
   1  -3  -1 2088.38   17.26
  -1  -3   1 2078.51   20.08
   1   3   1 2054.59   20.62
  -1  -3  -1 2020.96   16.78
   1  -3  -1 2106.82   21.42
  -1   3  -1 2023.31   16.83
   1  -3  -1 2041.23   20.54
  -1  -3  -2  427.42    8.34
  -1   3  -2  412.50    9.39
   1  -3  -2  428.49    9.58
  -1  -3  -2  430.61   10.01
   1   3  -2  422.52    8.97
  -1   3   2  412.57    9.36
   1   3   2  413.10    6.71
  -1   3   2  421.59    9.46
   1  -3   2  411.54    9.45
  -1   3  -2  470.52   10.13
   1  -3  -2  455.22   10.15
   1  -3   2  417.57    9.61
   1  -3   2  412.42    8.14
   1   3   2  431.45    8.37
  -1  -3  -2  424.22    9.77
   1  -3  -2  421.40    9.52
  -1   3   2  454.12   10.17
  -1   3   2  422.16    6.25
   1  -3  -2  415.36    8.25
  -1  -3   2  426.04    8.25
   1   3  -2  433.65    8.19
  -1   3  -2  434.02    8.45
   1   3   2  423.82    9.54
  -1   3   2  420.18    8.35
   1  -3   2  410.62    5.88
  -1  -3   2  428.14    9.74
  -1  -3  -2  421.47    9.55
  -1  -3  -2  436.11    9.86
  -1  -3   3 3011.43   26.56
   1  -3   3 2949.13   23.49
  -1  -3  -3 2949.94   26.82
   1  -3  -3 3002.49   26.50
  -1  -3   3 3003.32   23.45
   1  -3  -3 2967.37   13.86
  -1  -3  -3 2949.55   23.37
   1  -3  -3 3080.22   26.38
   1   3   3 3013.07   27.24
  -1   3  -3 2919.02   25.76
  -1   3  -3 3018.22   23.89
  -1   3   3 2925.74   25.69
  -1  -3  -3 3055.96   26.55
   1   3  -3 2966.63   25.97
  -1  -3  -3 2985.08   14.69
  -1   3   3 2970.47   25.72
   1   3  -3 2999.79   23.21
  -1  -3  -3 3021.04   26.90
  -1   3   3 3035.63   23.60
   1  -3   3 2987.99   26.16
   1  -3  -3 2913.32   23.19
   1   3   3 3014.73   23.62
   1  -3  -3 3043.98   25.83
   1  -3  -3 2993.65   26.04
   1   3   3 2960.22   25.89
  -1   3  -3 2992.62   24.80
   1   3   3 2996.90   18.65
  -1   3   3 2975.33   25.51
   1  -3  -4  376.22    5.71
   1   3  -4  369.90    8.85
   1  -3  -4  382.27    9.48
   1  -3  -4  373.83    9.64
   1  -3  -4  356.56    9.58
  -1  -3   4  369.05    8.92
  -1   3  -4  390.96    9.02
  -1   3   4  391.69    9.04
   1  -3   4  381.61    9.01
   1   3   4  368.66    5.55
  -1   3   4  364.84    5.77
  -1   3  -4  373.79    9.68
  -1   3  -4  328.82    4.67
  -1  -3  -4  369.62    9.84
   1   3   4  368.84    9.48
   1   3   4  380.79    9.01
  -1   3   4  374.76    9.60
  -1  -3  -4  384.32    9.75
  -1  -3  -4  369.29    5.56
  -1   3  -4  376.35    9.09
   1  -3  -4  390.57    9.55
  -1   3   4  373.05    9.50
  -1  -3  -4  364.54    8.87
   1   3   4  381.24   10.02
   1   3  -4  375.29    9.77
   1  -3  -5  973.22   10.55
   1   3   5  972.32   10.11
   1   3   5  954.17   16.07
  -1   3  -5  979.25   13.91
  -1   3   5  969.14   14.89
   1  -3  -5  976.27   15.01
   1   3  -5  977.33   15.19
   1  -3  -5  966.96   15.52
  -1   3   5  961.21   10.65
  -1  -3   5  975.87   15.10
   1  -3  -5  998.01   16.34
  -1  -3  -5  994.47   16.30
  -1   3   5  983.87   16.15
  -1  -3  -5  954.89    9.98
  -1  -3   5  981.28   15.41
  -1   3  -5  978.02   15.50
   1  -3  -5  988.50   16.42
   1   3  -5  959.91   16.16
   1  -3   5  989.77   15.41
  -1   3  -5  955.93   16.06
   1   3   5 1025.64   17.04
   1   3   5  980.10   15.37
  -1   3   5  986.07   15.28
  -1  -3  -5  989.31   16.65
  -1  -3  -6  629.45   13.90
  -1   3   6  619.86   12.94
   1   3  -6  639.11   13.06
  -1  -3   6  620.19   12.88
  -1   3  -6  608.45   11.04
  -1   3   6  650.98   13.74
  -1   3   6  616.40    9.55
  -1   3  -6  638.20   13.18
   1   3   6  629.25   13.57
  -1  -3   6  650.52   13.25
   1  -3   6  639.63   13.02
  -1   3   6  610.36   13.42
   1  -3  -6  616.25   13.63
  -1   3   6  615.85   12.02
  -1  -3  -6  615.23    8.90
   1   3   6  662.55   14.16
   1   3   6  637.50   13.03
   1   3   6  620.84    8.98
  -1   3  -7   60.75    3.56
   1   3   7   66.05    3.27
  -1  -3  -7   64.55    3.24
  -1   3   7   67.75    3.53
   1  -3   7   66.99    4.69
   1  -3  -7   66.45    4.97
  -1  -3   7   61.26    4.44
  -1   3   7   64.76    4.79
   1   3  -7   65.36    4.62
   1   3   7   68.90    4.90
  -1   3   7   61.85    3.90
  -1   3  -8 3164.46   24.70
  -1  -3   8 3212.28   32.38
  -1   3   8 3211.84   25.87
   1  -3   8 3211.66   32.40
  -1  -3  -8 3166.82   24.17
  -1   3   8 3171.17   33.19
   1   3   8 3167.18   24.03
   1   3   8 3220.59   33.25
   1  -3  -8 3206.33   33.66
  -1   3   9  293.67   10.73
   1  -3  -9  303.80   10.89
  -1  -3   9  287.72   10.49
   1  -3   9  327.75   11.75
   1   3   9  287.63    7.89
  -1   3   9  295.49    8.47
  -1   3   9  280.57    8.06
   1   3   9  303.95   10.83
  -1  -3  -9  291.38    7.88
   1  -3 -10  768.37   17.66
   1   3  10  741.72   17.43
  -1   3  10  743.91   13.79
  -1  -3 -10  776.74   13.73
   1   3  10  736.68   13.45
  -1   3  10  778.01   14.69
   1  -3  10  764.99   17.32
  -1  -3  10  737.41   17.18
  -1   3  11   82.55    5.01
  -1  -3 -11   88.09    5.05
   1  -3  11  104.96    7.39
  -1  -3  11   99.60    6.94
   1   3  11   88.52    4.98
   1   3  12  198.00    7.79
   1  -3  12  218.79   10.05
  -1  -3  12  196.14    9.68
  -1   3  12  194.77    7.92
  -1  -3  13    5.52    0.97
  -1   3  13    6.93    2.12
   1   3  13    6.26    2.11
   1  -3  13   10.33    3.67
  -1  -3  13    8.60    3.24
  -1  -3 -14  113.78    5.34
   1  -3  14  135.50    8.63
  -1   3  14  120.65    6.89
  -1  -3  14  126.55    8.60
  -1  -3  14  118.64    4.05
   1   3  14  119.26    6.66
  -1   3  15    9.91    2.68
   1   3  15    6.47    2.32
   1  -3  15    8.12    3.44
  -1  -3  15    4.76    3.09
  -1  -3  15    6.04    0.99
  -1  -3 -15    5.47    1.36
  -1  -3  16    2.70    2.77
  -1  -3 -16    1.64    0.91
  -1   3  16    5.74    2.41
   1   3  16    2.60    2.14
   1  -3  16    0.37    2.43
  -1   3  17   76.13    6.35
  -1  -3 -17   77.15    4.36
   1  -3  17   85.74    7.88
   1   3  17   78.41    6.26
  -1  -3  17   68.94    6.93
  -1  -3  18   99.94    8.88
   1  -3  18  115.48    9.41
   1   3  18  102.22    7.75
  -1   3  18   90.80    7.16
   1  -3  19  873.56   25.19
  -1   3  19  837.18   21.73
   1   3  19  850.55   22.08
  -1  -3  19  841.94   24.96
   1   3  20  144.39    9.71
  -1  -3  20  163.83   11.90
   1  -3  20  151.98   11.53
  -1   3  20  142.87    9.81
  -1   3  21  260.89   13.23
  -1  -3  21  291.01   15.58
   1   3  21  277.95   13.51
   1  -3  21  285.55   15.27
   1   3  22   60.16    6.77
   1  -3  22   60.92    7.88
  -1   3  22   64.74    7.19
  -1  -3  22   54.58    7.49
  -1   3  23  118.47    9.71
   1   3  23  112.47    9.30
   1  -3  23  112.83   10.64
  -1  -3  23  102.37   10.03
   1   3  24    2.76    2.57
   1  -3  24    6.72    4.31
  -1  -3  24    5.44    3.96
  -1   3  24    4.43    2.94
  -1  -3  25   59.61    8.27
   1   3  25   71.86    7.96
  -1   3  25   65.38    7.59
   1  -3  25   83.00    9.59
  -1  -3  26   35.74    7.06
  -1   3  26   27.96    5.55
   1  -3  26   37.24    7.21
   1   3  26   38.73    6.30
  -1  -3  27   14.39    5.24
   1  -3  27    3.01    2.78
   1   3  27    5.12    2.75
  -1   3  27    8.45    3.53
  -1   3  28    4.68    2.44
   1  -3  28    7.61    4.23
   1   3  28    7.98    3.88
  -1  -3  28    1.53    3.53
  -1   3  29   -3.17    3.19
   1   3  29   -4.92    3.54
  -1   3  30   14.83    4.86
  -1   4   0   -1.41    2.04
   1   4   0    0.84    0.80
   1  -4   0    2.63    1.63
  -1   4   0   -0.35    0.75
   1  -4   0   -0.34    0.86
   1  -4   0    1.74    1.43
  -1  -4   0    0.13    1.28
   1   4   0   -1.62    1.59
   1  -4   0    0.92    1.29
  -1  -4   0    1.70    1.18
  -1  -4   0    0.78    0.85
  -1   4   0    0.41    1.44
   1   4   0    0.36    1.40
  -1  -4   0   -0.30    1.22
   1   4   1   17.15    2.37
   1  -4   1   15.67    2.31
  -1  -4   1    8.99    1.57
   1   4  -1   14.88    1.63
  -1  -4  -1   14.51    1.46
  -1   4  -1   15.25    2.63
   1  -4  -1   15.41    1.48
  -1  -4  -1   11.97    2.17
   1   4   1   11.05    2.21
  -1  -4  -1   12.07    1.99
  -1  -4  -1   13.32    1.74
  -1   4   1   14.98    2.29
   1  -4   1   13.37    1.95
  -1  -4  -1   10.34    2.32
   1  -4  -1   14.39    2.21
  -1   4   1   13.32    2.35
   1  -4   1   13.97    1.59
   1  -4  -1   14.45    1.98
  -1   4  -1   13.17    1.57
   1  -4   1   19.83    1.93
   1   4   1   12.08    1.26
   1   4  -1   14.13    2.30
  -1   4   1   13.22    1.29
   1   4  -1   12.16    2.08
   1  -4  -1   19.04    2.94
  -1  -4   1   11.52    2.09
   1  -4   1   23.22    3.04
  -1   4   1   29.89    4.16
  -1  -4   1   13.24    1.58
  -1  -4  -1   17.31    2.35
  -1   4  -1   28.45    4.06
  -1   4  -2 2465.94   25.83
   1  -4   2 2420.43   17.94
  -1   4   2 2447.33   23.03
  -1  -4  -2 2438.15   26.34
   1  -4  -2 2457.91   26.31
  -1   4  -2 2439.43   21.20
   1   4  -2 2416.00   24.24
   1   4   2 2369.28   25.99
   1  -4  -2 2468.56   26.24
  -1  -4  -2 2422.54   25.86
  -1  -4  -2 2444.61   26.60
  -1  -4  -2 2510.00   26.40
  -1   4   2 2396.81   25.86
  -1  -4   2 2496.42   26.68
   1   4   2 2379.74   16.57
   1  -4   2 2382.54   20.89
  -1  -4   2 2413.10   20.20
  -1   4   2 2446.82   26.43
   1  -4   2 2457.37   26.40
   1   4  -2 2398.17   24.91
   1  -4   2 2429.73   25.81
  -1   4   2 2385.67   25.97
  -1  -4   2 2454.11   20.79
   1  -4  -2 2437.29   26.41
   1  -4  -2 2400.15   22.75
  -1   4   2 2386.08   15.30
  -1  -4  -2 2408.02   22.41
   1   4  -2 2403.56   20.61
   1   4  -3   35.73    3.28
   1   4  -3   34.71    3.22
  -1   4  -3   54.65    3.45
  -1  -4  -3   39.06    3.51
   1   4   3   36.81    3.49
  -1  -4  -3   40.16    3.15
  -1  -4  -3   35.99    1.51
   1   4  -3   36.46    2.88
  -1  -4   3   42.53    3.70
  -1   4   3   37.35    3.43
   1  -4   3   38.13    3.00
  -1  -4   3   37.08    2.86
   1  -4   3   45.36    3.85
   1   4   3   38.12    2.15
  -1   4  -3   33.42    3.20
   1  -4   3   41.54    3.61
  -1   4   3   42.14    3.24
   1  -4  -3   49.80    4.15
   1   4   3   39.72    3.09
   1  -4  -3   36.74    3.37
  -1  -4  -3   41.69    3.57
  -1  -4  -3   33.43    3.49
  -1  -4  -3   41.90    3.62
  -1  -4   3   35.35    2.81
  -1   4   3   34.47    3.84
  -1   4   3   37.37    1.87
  -1   4   3   42.07    3.71
  -1   4  -3   55.21    4.69
   1  -4  -3   41.40    3.37
   1  -4  -3   37.97    3.43
  -1   4   4  851.95   14.83
  -1  -4  -4  843.73   14.63
  -1   4  -4  820.46   15.96
  -1   4   4  824.32   15.91
   1   4   4  830.05   10.35
  -1  -4   4  810.35   13.64
  -1  -4  -4  837.49   16.40
   1   4  -4  825.80   13.81
   1  -4   4  838.60   15.10
   1  -4  -4  881.38   16.16
  -1   4   4  840.43   15.75
   1  -4   4  828.10   13.98
   1   4   4  829.97   16.11
   1   4  -4  845.53   16.20
  -1   4  -4  827.12   14.82
   1  -4  -4  849.88   14.70
   1   4   4  839.57   14.64
  -1  -4  -4  786.95    7.02
  -1  -4   4  858.99   14.03
  -1   4  -4  867.74   14.33
   1  -4  -4  823.03   15.95
   1  -4  -4  851.82   15.74
  -1  -4   5 1124.61   17.28
  -1   4  -5 1125.20   10.99
   1   4  -5 1112.24   19.15
  -1   4   5 1110.57   10.04
  -1   4   5 1093.98   18.83
  -1  -4  -5 1090.73    9.25
  -1   4  -5 1133.73   17.25
   1  -4  -5 1096.68   18.92
   1   4   5 1153.11   18.01
  -1   4   5 1125.07   17.84
   1   4  -5 1129.66   17.08
  -1  -4  -5 1101.89   19.21
   1  -4   5 1140.97   17.35
   1  -4   5 1105.64   17.23
   1   4   5 1115.59   19.11
   1  -4  -5 1137.39   18.31
  -1  -4  -5 1108.82   17.67
  -1   4  -5 1142.64   17.45
  -1  -4   5 1129.41   17.03
  -1   4  -5 1117.17   19.19
  -1   4   6  608.43    8.64
   1  -4   6  589.38   13.15
  -1  -4  -6  587.72    7.64
  -1  -4   6  609.03   13.36
  -1  -4  -6  602.79   14.66
  -1   4  -6  579.41   14.34
   1   4   6  575.44    7.65
  -1  -4  -6  585.49   13.57
   1   4  -6  581.21   14.36
   1   4   6  579.04   14.26
   1   4  -6  572.89   12.95
  -1   4   6  600.48   13.54
   1  -4  -6  601.69   13.35
  -1   4  -6  596.27    8.20
  -1   4   6  575.26   14.19
   1  -4  -6  603.01   14.50
  -1  -4   6  573.76   13.00
   1  -4  -7 1281.25   21.91
   1   4  -7 1266.27   21.98
  -1   4   7 1287.98   14.00
  -1  -4   7 1241.98   19.99
   1  -4   7 1254.52   20.16
  -1   4  -7 1278.38   21.91
   1   4  -7 1259.74   20.07
  -1   4   7 1285.89   21.75
  -1  -4  -7 1276.69   21.89
   1   4   7 1263.16   12.78
  -1  -4  -7 1239.18   12.63
   1   4   7 1269.41   21.70
  -1   4   8 2233.55   29.79
  -1  -4   8 2236.91   28.30
   1   4   8 2271.83   30.05
  -1  -4  -8 2246.67   18.68
   1  -4  -8 2288.93   30.38
  -1   4   8 2256.81   19.66
   1  -4   8 2278.16   28.46
  -1   4  -8 2254.31   30.02
  -1   4   8 2266.60   20.68
   1   4   8 2272.98   18.83
   1   4  -8 2273.00   30.21
  -1   4   9 1955.03   20.78
  -1  -4  -9 1970.51   19.07
   1   4   9 1985.53   29.06
   1  -4  -9 1973.41   29.00
   1   4   9 1957.41   18.97
   1  -4   9 2016.86   27.85
  -1   4   9 1919.01   19.63
  -1  -4   9 1983.34   27.66
  -1   4   9 1949.08   28.80
  -1   4  10  691.97   13.23
  -1   4  10  659.03   12.45
  -1   4  10  657.25   17.32
   1  -4 -10  677.83   17.75
   1  -4  10  704.65   17.31
   1   4  10  696.63   17.76
  -1  -4 -10  688.68   12.17
  -1  -4  10  693.08   17.19
   1   4  10  671.98   12.02
  -1   4  11    4.20    1.51
  -1   4  11    4.65    2.94
   1   4  11   -0.87    2.96
   1   4  11    3.73    1.47
  -1  -4  11    2.85    3.12
  -1  -4 -11    4.32    1.29
   1  -4 -11    3.30    2.10
  -1   4  11    4.00    1.32
  -1  -4  12  109.36    5.02
   1   4  12  113.76    5.71
   1   4  12  105.45    7.81
  -1   4  12  113.08    5.92
  -1  -4  12  115.91    7.91
  -1  -4 -12  112.21    5.63
   1  -4  12  106.89    7.50
  -1   4  12  117.97    8.18
  -1  -4  13   98.30    4.74
   1   4  13   97.80    5.65
  -1   4  13  103.32    8.33
  -1  -4  13   94.31    7.55
   1   4  13  101.59    7.96
  -1   4  13   98.52    5.86
   1  -4  13  103.99    7.87
  -1  -4  14  571.96   10.97
   1   4  14  582.70   18.60
  -1  -4  14  600.93   18.46
  -1   4  14  577.76   14.48
  -1   4  14  594.05   18.73
   1  -4  14  585.43   18.04
   1   4  14  574.27   14.09
   1   4  15   55.73    6.72
  -1   4  15   57.17    5.08
  -1  -4  15   62.67    3.56
   1  -4  15   71.07    7.54
  -1  -4  15   70.30    7.33
   1   4  15   60.82    5.10
  -1   4  15   51.38    6.18
  -1   4  16   45.89    4.57
   1   4  16   39.25    6.38
  -1  -4  16   48.86    6.31
  -1   4  16   46.76    6.51
   1   4  16   55.77    5.19
  -1  -4  16   48.05    2.98
   1  -4  16   46.86    5.97
   1   4  17  450.83   14.32
  -1  -4  17  440.71   17.42
  -1   4  17  466.94   18.34
   1  -4  17  439.54   17.39
  -1   4  17  446.85   14.40
   1   4  17  455.95   18.14
   1   4  18  311.41   12.45
  -1  -4  18  323.56   15.56
  -1   4  18  338.77   16.59
   1  -4  18  354.99   16.08
   1   4  18  360.28   16.73
  -1   4  18  336.18   13.11
   1  -4  19  191.93   12.26
   1   4  19  192.82   10.24
  -1  -4  19  184.87   12.15
  -1   4  19  191.36   10.31
   1   4  19  193.81   12.93
   1   4  20   13.55    3.70
  -1  -4  20   10.35    4.74
  -1   4  20    7.63    2.93
   1  -4  20   14.56    4.82
   1   4  20   15.47    5.77
  -1  -4  21  152.37   11.57
  -1   4  21  161.70   10.11
   1   4  21  148.31    9.55
   1  -4  21  151.17   11.67
   1   4  21  154.34   12.25
   1   4  22   98.16   10.27
   1  -4  22   94.31    9.85
  -1  -4  22   97.82    9.95
  -1   4  22   99.87    8.47
   1   4  22   82.20    7.53
   1   4  23  414.35   20.39
  -1   4  23  418.94   17.39
   1   4  23  381.74   16.35
   1  -4  23  406.44   19.74
  -1  -4  23  415.66   20.08
  -1   4  24    4.68    3.42
   1  -4  24    5.13    4.29
  -1  -4  24    0.35    4.22
   1   4  24    3.80    3.36
  -1   4  24    4.48    5.59
   1   4  24   19.64    5.94
  -1   4  25    5.66    5.03
   1   4  25    1.17    3.32
   1  -4  25    0.83    2.84
  -1  -4  25   -1.08    2.99
   1   4  25   -1.42    2.22
  -1   4  25    0.61    2.49
  -1  -4  26   44.27    7.32
  -1   4  26   38.30    6.11
  -1   4  26   48.33    8.36
   1   4  26   45.17    7.64
   1   4  26   37.99    5.87
   1  -4  26   34.56    6.60
   1  -4  27   46.87    7.78
   1   4  27   57.84    9.25
  -1   4  27   64.66    7.69
  -1   4  27   58.58    8.85
  -1  -4  27   55.94    8.41
   1  -5   0    1.36    1.31
   1   5   0    3.50    1.92
   1   5   0   -0.33    0.88
   1  -5   0   -0.07    0.76
  -1   5   0   -0.41    1.64
  -1   5   0   -0.21    0.70
  -1  -5   0    0.95    1.06
  -1  -5   0    0.70    0.78
   1   5   0    1.49    1.72
  -1   5  -1  889.98   12.52
   1   5  -1  869.24   16.22
   1  -5  -1  835.95   10.43
  -1   5   1  872.07   10.44
  -1  -5  -1  869.46   17.47
  -1  -5   1  853.05   12.18
   1   5   1  861.95   17.33
   1   5  -1  857.36   12.01
   1   5  -1  878.64   17.02
   1  -5   1  851.57   12.44
   1   5   1  876.92   10.59
  -1  -5   1  842.41   11.65
  -1  -5  -1  874.26   14.56
  -1   5   1  858.39   17.39
   1  -5   1  880.06   13.37
  -1   5  -1  855.42   17.33
  -1  -5  -1  875.25   10.80
   1  -5  -1  887.52   15.25
  -1  -5  -1  863.16    9.27
  -1   5   2   13.85    1.23
   1   5  -2   15.55    2.79
  -1   5  -2   13.63    1.79
   1  -5  -2   11.93    2.10
  -1  -5  -2    9.76    2.43
  -1   5   2   14.54    2.83
  -1  -5   2   15.06    1.87
   1   5   2   13.30    2.86
   1  -5   2   15.21    2.01
   1   5  -2   12.67    1.74
  -1  -5  -2   13.07    1.02
   1  -5   2   16.15    1.84
  -1   5   2   10.14    2.53
  -1  -5  -2   14.83    2.11
   1   5  -2   12.71    2.36
   1   5   2   11.05    1.21
  -1  -5   2   19.10    2.25
   1   5   3   37.17    3.90
   1   5  -3   25.92    2.65
   1  -5  -3   28.24    3.11
  -1   5  -3   27.33    2.58
   1   5  -3   28.04    2.96
   1   5  -3   26.50    3.35
   1   5   3   29.88    1.93
  -1  -5   3   31.97    2.72
  -1  -5  -3   27.49    2.86
  -1  -5  -3   27.52    3.53
  -1   5   3   26.37    1.59
  -1  -5   3   29.37    2.77
  -1   5   3   25.96    3.41
  -1   5   3   27.68    3.54
  -1   5   3   26.31    2.79
   1  -5   3   25.96    2.74
  -1   5   4  109.54    6.43
  -1   5   4  104.40    2.97
   1   5   4  110.38    3.69
  -1  -5   4  105.58    5.22
   1   5   4  104.96    6.45
   1  -5   4  110.86    5.47
  -1   5  -4  102.43    6.27
   1   5  -4   96.97    5.00
   1  -5  -4  113.05    6.60
  -1  -5   4  100.84    5.15
  -1   5  -4  109.52    5.36
   1   5  -4  106.96    6.14
  -1  -5  -4  108.20    5.78
   1  -5  -4  108.21    5.98
  -1   5   4  105.35    6.39
  -1  -5  -4   93.97    6.10
   1   5  -4  105.15    5.61
   1  -5   5   87.14    5.18
   1   5  -5   78.10    5.60
  -1  -5   5   92.55    5.24
  -1  -5  -5   86.45    5.44
   1  -5  -5   82.50    5.58
   1   5   5   84.23    3.47
  -1  -5   5   86.00    5.05
   1   5   5   87.06    6.07
   1   5  -5   85.71    5.02
   1  -5  -5   85.12    5.79
  -1   5   5   89.64    6.12
  -1  -5  -5   97.61    6.42
  -1   5  -5   88.50    6.01
  -1   5   5   89.08    2.81
  -1   5  -5   88.34    3.70
  -1  -5   6   96.88    5.62
   1  -5   6   95.08    5.68
  -1   5  -6  103.54    6.72
  -1  -5  -6   83.81    2.27
   1   5  -6   99.67    6.51
  -1  -5  -6   93.67    6.43
  -1  -5  -6   96.06    5.95
   1   5   6   97.75    6.54
   1   5   6   99.28    4.03
  -1   5  -6   95.34    3.88
  -1   5   6   89.26    6.20
  -1   5   6   94.66    2.90
   1  -5  -6   88.45    6.14
   1   5  -6   96.11    5.48
   1   5   7    0.32    0.42
  -1  -5  -7    3.60    2.82
   1  -5  -7   -0.99    2.09
  -1  -5   7    2.03    2.52
  -1  -5  -7    1.59    0.59
   1  -5   7    1.22    1.98
  -1   5   7    0.17    0.52
  -1   5   7   -3.43    2.64
   1   5   7    1.97    2.11
  -1   5   7   -0.77    0.67
   1   5  -7   -1.33    2.48
  -1   5  -7    0.67    2.23
  -1   5  -7    1.46    0.98
  -1  -5  -7    1.65    1.84
  -1   5  -8  816.02   19.34
  -1   5   8  814.72   11.27
  -1   5   8  776.75   18.80
   1   5   8  806.76   19.24
  -1  -5  -8  774.45   19.03
   1  -5  -8  813.57   19.29
  -1  -5  -8  793.29    9.65
  -1  -5  -8  803.89   18.27
  -1  -5   8  817.24   17.59
   1   5   8  788.99    9.74
   1   5  -8  797.22   19.18
   1  -5   8  826.61   17.84
  -1   5   8  791.53   10.75
   1   5  -9 1409.30   26.29
  -1   5  -9 1407.02   26.15
  -1  -5  -9 1449.21   14.49
   1   5   9 1454.94   14.74
   1   5   9 1424.44   26.13
  -1   5   9 1392.98   25.86
  -1  -5   9 1421.88   24.11
   1  -5  -9 1422.84   26.09
  -1   5   9 1409.60   15.63
   1  -5   9 1435.66   24.48
  -1   5   9 1436.47   16.47
   1  -5  10   10.07    3.94
   1   5  10    8.05    1.40
  -1   5  10    8.85    1.65
  -1   5  10    5.52    2.37
  -1   5 -10    9.03    3.03
   1   5  10    2.99    2.33
   1  -5 -10    5.09    2.53
  -1   5  10    8.75    1.66
   1   5 -10    2.44    2.28
  -1  -5  10   10.44    3.43
   1  -5 -11  172.53    9.85
   1   5 -11  160.73    9.54
   1   5  11  156.02    5.84
  -1   5  11  169.58    6.68
  -1   5  11  162.39    9.58
  -1   5  11  165.39    6.26
  -1  -5  11  169.09    9.11
   1   5  11  174.32    9.90
   1  -5  11  167.68    9.20
  -1   5 -11  167.72    9.78
  -1   5  12    2.39    2.99
   1  -5  12    7.35    3.35
   1  -5 -12    4.54    2.54
   1   5 -12   -0.12    2.37
  -1  -5  12    4.70    3.03
   1   5  12   -0.45    2.70
   1   5  12    1.85    1.23
  -1   5  12    1.13    1.13
  -1   5  13   92.36    5.33
  -1  -5  13  106.77    8.10
  -1   5  13   89.63    8.03
   1  -5  13   97.18    7.77
   1   5  13   92.03    7.83
   1   5  13   92.12    5.27
  -1  -5  14  274.00    8.82
   1  -5  14  282.83   13.12
  -1   5  14  262.48   13.23
  -1  -5  14  281.54   13.08
   1   5  14  263.35   13.16
  -1   5  14  272.11    9.53
   1   5  14  255.33    9.12
  -1  -5  15  160.69   10.33
  -1  -5  15  157.79    6.63
   1  -5  15  152.86   10.07
  -1   5  15  150.11    7.44
   1   5  15  150.76    7.28
  -1   5  15  144.29   10.27
   1   5  15  142.55   10.13
   1  -5  16  106.87    8.89
  -1   5  16   97.07    6.35
   1   5  16  102.23    6.39
   1   5  16   87.16    8.17
  -1   5  16   81.68    8.07
  -1  -5  16  115.74    9.31
  -1  -5  17   65.82    7.32
   1   5  17   53.73    6.63
   1   5  17   56.21    4.91
  -1   5  17   60.05    7.17
   1  -5  17   63.60    7.16
  -1   5  17   54.70    4.98
   1   5  18   -0.84    1.51
  -1  -5  18    4.55    3.09
   1  -5  18    1.91    2.79
  -1   5  18    2.17    1.67
   1   5  18   -0.67    3.28
  -1   5  18   -1.27    3.28
   1   5  19   48.44    5.04
   1   5  19   56.31    7.44
  -1  -5  19   68.16    7.90
   1  -5  19   49.24    6.63
  -1   5  19   55.08    7.37
  -1   5  19   51.89    5.25
  -1  -5  20  136.21   11.05
  -1   5  20  121.71   10.77
   1  -5  20  120.86   10.20
  -1   5  20  119.51    8.17
   1   5  20  114.86   10.49
   1   5  20  129.85    8.41
  -1  -5  21   84.06    9.30
   1  -5  21   90.57    9.46
  -1   5  21   85.66    7.33
   1   5  21   87.92    7.21
   1   5  21   87.33    9.50
  -1   5  21   94.32    9.93
   1  -5  22   14.64    5.21
  -1  -5  22   23.75    5.49
  -1   5  22   17.69    5.04
   1   5  22   19.81    4.94
   1   5  22   23.34    4.06
  -1   5  22   21.23    3.98
   1   5  23   58.40    6.26
   1  -5  23   62.19    8.30
  -1   5  23   74.09    7.16
  -1   5  23   58.32    8.14
  -1  -5  23   62.19    8.21
   1   5  23   61.62    8.58
  -1  -5  24   -2.44    3.05
   1   5  24    9.03    4.60
   1  -5  24    0.47    3.37
  -1   5  24    0.84    3.25
   1  -5  25    6.58    4.59
   1   5  25    3.88    4.14
  -1   5  25    0.20    3.29
  -1  -5  25    6.13    3.95
  -1  -5  26   65.81    8.98
  -1   5  26   66.95    9.45
   1   5  26   54.51    8.34
   1  -5  26   58.15    8.34
   1  -6   0   -0.83    1.06
   1  -6   0   -1.48    1.88
   1  -6   0    0.88    0.57
   1  -6   0    0.88    1.23
  -1   6   0   -3.96    2.65
   1   6   0    2.64    2.55
   1   6   0    0.53    0.76
  -1  -6   0   -0.89    2.20
  -1   6   0    0.36    0.88
  -1  -6   0    4.75    1.47
  -1  -6   0   -0.40    0.97
  -1   6  -1 2385.57   32.04
  -1  -6   1 2388.65   20.81
   1   6  -1 2415.98   21.07
   1  -6   1 2405.38   27.56
  -1  -6  -1 2466.81   27.10
  -1  -6  -1 2446.84   31.77
   1   6  -1 2467.32   31.75
   1  -6   1 2458.77   17.86
   1   6   1 2429.51   18.28
  -1   6   1 2445.12   32.39
  -1  -6   1 2417.73   21.42
  -1   6  -1 2439.95   21.77
   1  -6   1 2463.55   22.08
   1  -6   1 2470.90   25.11
  -1   6   1 2417.12   18.31
  -1  -6  -1 2431.44   18.56
   1  -6  -1 2443.74   18.66
   1   6  -1 2435.94   29.38
  -1  -6  -1 2453.17   16.39
   1   6   1 2452.94   31.91
   1  -6  -1 2446.11   28.12
  -1  -6  -2   61.53    4.59
   1   6  -2   58.37    3.61
   1   6  -2   60.03    5.09
  -1  -6  -2   56.98    2.10
   1  -6  -2   52.04    4.32
   1   6   2   55.39    2.64
   1   6   2   53.10    4.91
  -1  -6   2   64.28    3.72
   1  -6   2   59.24    3.82
   1   6   2   59.27    5.38
  -1   6   2   57.87    2.56
  -1   6   2   56.27    5.13
  -1  -6   2   68.23    4.16
   1  -6   2   57.79    3.20
  -1   6  -2   57.13    3.65
   1  -6   2   61.61    3.89
  -1   6  -2   57.71    5.27
  -1  -6  -2   61.95    5.40
  -1   6   2   57.62    5.25
   1   6  -2   55.75    4.53
  -1   6   3  651.56   16.95
  -1   6   3  622.57    7.32
  -1  -6  -3  623.80   14.55
   1  -6   3  618.99   12.85
  -1  -6  -3  638.52   16.61
  -1  -6   3  630.66   12.40
   1   6  -3  615.39   15.90
  -1  -6   3  635.17   12.39
  -1   6   3  653.10   16.71
   1  -6  -3  631.06   14.79
   1   6   3  616.12    8.36
   1  -6   3  643.28   11.44
   1   6  -3  640.90   14.83
   1   6  -3  622.31   12.23
   1   6   3  653.20   16.91
  -1   6  -3  640.79   12.76
   1   6   4   54.62    5.36
   1  -6   4   60.73    4.36
  -1  -6  -4   52.92    4.50
   1  -6  -4   59.33    4.94
  -1  -6   4   59.87    4.07
   1   6  -4   57.44    5.07
  -1   6   4   41.00    1.69
  -1   6  -4   53.59    4.04
   1  -6   4   56.81    3.87
   1   6  -4   53.56    4.50
  -1  -6  -4   53.00    5.13
   1   6   4   54.58    2.53
   1   6  -4   57.20    4.07
  -1   6   4   60.39    5.38
  -1  -6   4   67.73    4.56
   1  -6  -4   55.55    5.04
  -1   6   4   54.55    5.26
   1   6   5 1668.98   14.39
   1   6  -5 1676.83   23.75
  -1  -6  -5 1697.91   25.25
  -1  -6   5 1700.24   22.81
   1  -6  -5 1673.89   27.39
  -1  -6  -5 1705.21   27.83
  -1   6   5 1682.21   27.70
  -1  -6   5 1702.67   22.74
   1   6  -5 1661.01   26.42
   1  -6   5 1709.59   23.27
   1  -6  -5 1693.55   25.29
   1  -6   5 1720.20   21.60
   1   6   5 1671.70   27.90
  -1   6   6   69.26    5.89
   1  -6  -6   71.88    5.93
   1  -6  -6   79.34    6.10
  -1  -6  -6   77.17    5.65
  -1  -6   6   88.09    5.94
   1   6   6   70.92    6.08
  -1  -6  -6   71.66    6.05
   1  -6   6   68.16    5.00
  -1   6   6   66.41    2.09
   1   6  -6   71.93    5.08
   1   6   6   75.16    3.31
   1   6  -6   75.56    6.18
  -1   6  -6   71.03    5.96
   1   6   7  315.74    7.17
  -1   6   7  306.06   12.27
  -1   6  -7  319.93    7.92
  -1   6   7  292.18    4.97
   1  -6   7  297.61   10.87
   1  -6  -7  328.13   12.61
  -1   6   7  294.19    4.92
  -1   6  -7  295.39   12.16
  -1  -6   7  329.05   11.07
   1   6  -7  280.98   11.93
   1   6   7  323.79   12.67
  -1  -6  -7  305.69   11.61
  -1  -6  -7  314.06   12.62
  -1   6   8  244.10    5.08
   1  -6  -8  249.94   11.47
   1   6   8  254.21   11.58
  -1   6   8  246.64    5.32
  -1  -6  -8  254.58   10.96
   1   6  -8  244.20   11.35
   1  -6   8  230.69    9.84
  -1  -6  -8  246.01   11.47
  -1   6  -8  240.98   11.30
  -1  -6   8  248.88   10.17
  -1   6  -8  249.35    7.04
  -1   6   8  241.88   11.30
  -1  -6  -9  896.62   22.11
  -1  -6  -9  876.49   20.65
   1  -6  -9  843.17   21.37
  -1   6  -9  857.47   21.77
   1   6   9  890.76   21.88
  -1   6  -9  858.66   13.23
   1   6  -9  866.25   21.85
  -1  -6   9  867.35   19.47
  -1   6   9  863.62   21.76
  -1   6   9  855.71   10.60
   1  -6   9  876.33   19.73
  -1   6   9  869.75   11.50
  -1   6  10  241.24    6.79
   1   6  10  237.64    5.61
   1  -6 -10  264.97   12.25
  -1   6 -10  247.81   12.05
   1   6 -10  237.92   11.94
   1  -6  10  247.63   11.21
  -1  -6  10  256.44   11.17
  -1   6  10  244.62    6.28
   1   6  10  258.02   12.28
  -1   6  10  226.78   11.37
  -1   6 -10  237.23    7.19
  -1   6  11  573.09   10.45
  -1   6  11  596.06   11.53
   1  -6 -11  591.86   18.71
   1   6  11  557.05    9.70
  -1  -6  11  552.17   17.09
   1   6 -11  579.78   18.74
  -1   6  11  558.73   18.42
   1   6  11  550.45   18.36
   1  -6  11  574.22   17.32
  -1   6 -11  581.61   18.73
   1  -6  12  687.75   19.54
   1   6  12  646.76   11.61
   1  -6 -12  652.93   20.22
  -1   6  12  657.80   12.16
  -1  -6  12  646.39   19.05
  -1   6 -12  646.58   20.41
   1   6 -12  637.90   20.24
  -1   6  12  652.98   13.13
   1   6  12  653.83   20.30
  -1   6  12  658.23   20.32
   1   6  13  441.19   17.04
  -1   6 -13  388.05   16.29
   1   6  13  414.05    9.95
  -1  -6  13  418.61   15.90
   1  -6  13  389.05   15.33
  -1   6  13  394.98   16.42
  -1   6  13  403.27   10.27
   1   6 -13  379.64   16.04
   1  -6 -13  417.14   16.66
   1   6  14   57.09    4.02
   1  -6  14   57.87    6.36
  -1   6  14   54.10    6.18
   1   6  14   54.35    6.67
  -1   6  14   53.25    4.08
  -1   6 -14   47.67    6.39
  -1  -6  14   68.21    7.04
   1   6 -14   46.75    6.26
  -1  -6  15  312.13   14.53
   1  -6  15  303.14   14.19
  -1   6  15  305.51   10.01
   1   6  15  291.00   14.74
  -1   6 -15  285.38   14.64
   1   6  15  294.66    9.60
  -1   6  15  294.72   14.84
   1   6 -15  299.67   15.10
  -1   6 -16    4.29    3.08
   1  -6  16    7.23    3.09
   1   6  16    7.85    1.93
  -1   6  16    6.55    3.70
  -1   6  16    8.10    2.01
   1   6  16    3.05    2.85
   1   6 -16    5.68    3.13
  -1  -6  16    9.47    4.01
   1   6  17   -0.59    1.42
   1  -6  17    4.62    3.38
  -1   6  17    0.37    3.47
  -1   6  17    0.43    1.39
   1   6  17   -1.02    2.79
  -1  -6  17    0.60    3.02
   1   6 -17   -1.13    2.77
  -1  -6  18   29.94    5.24
  -1   6  18   33.46    5.70
   1   6  18   31.35    5.39
  -1   6  18   38.58    4.16
   1  -6  18   33.64    5.39
   1   6  18   39.63    4.16
   1   6  19   -5.17    3.27
  -1  -6  19    0.27    3.27
  -1   6  19   -1.80    1.73
  -1   6  19    2.37    3.55
   1  -6  19   -1.20    2.81
   1   6  19    1.38    1.58
   1   6  20  289.71   16.80
   1  -6  20  296.99   16.29
  -1   6  20  298.68   16.80
  -1  -6  20  295.31   16.37
   1  -6  21    3.13    3.34
  -1  -6  21    1.89    3.13
   1   6  21    1.56    4.16
  -1   6  21   -0.52    4.61
   1  -6  22  241.14   15.59
  -1   6  22  225.38   15.48
   1   6  22  241.72   16.01
  -1  -6  22  228.42   15.25
   1   6  23   22.58    6.11
   1  -6  23   22.72    5.41
  -1   6  23   19.35    5.06
  -1  -6  23   23.83    5.28
   1   6  24   53.30    8.42
  -1  -6  24   50.20    7.92
   1  -6  24   52.44    7.91
  -1   6  24   58.58    8.60
   1   6  25    9.22    3.75
  -1   6  25   11.53    4.44
  -1  -6  25   10.66    4.46
   1  -6  25   13.55    4.76
   1   6  26   13.52    4.81
   1   7   0    4.32    2.64
   1   7   0    0.41    0.77
   1  -7   0    0.12    0.85
  -1  -7   0    2.16    2.14
   1  -7   0    0.33    0.39
  -1   7   0   -1.37    1.98
   1  -7   0   -0.58    1.72
  -1   7   0    0.11    0.73
  -1  -7   0    0.19    0.74
  -1  -7   0    0.96    0.71
  -1  -7   0   -0.52    1.43
  -1   7  -1  243.10    7.24
   1   7   1  238.95   11.02
   1  -7  -1  248.87    9.96
   1  -7   1  233.39    7.29
  -1   7   1  246.54   11.26
  -1   7  -1  234.18   11.07
  -1  -7   1  240.02    6.86
  -1  -7  -1  235.36    5.83
   1   7   1  246.11    5.89
  -1  -7  -1  240.10    9.36
   1  -7   1  235.42    5.66
   1  -7  -1  243.68    6.17
  -1   7   1  235.97    5.95
   1   7  -1  243.04   10.93
  -1  -7  -1  236.46    5.39
   1   7  -1  241.78    6.81
  -1  -7  -1  233.30   10.75
   1  -7   1  247.11    9.82
  -1  -7   1  235.65    6.87
  -1  -7   2   10.05    1.56
  -1   7  -2   12.20    1.83
   1  -7   2   10.01    1.90
   1  -7   2    9.97    1.40
  -1  -7  -2   13.34    3.12
  -1  -7  -2    7.88    2.11
  -1  -7   2   11.01    1.80
   1   7   2   11.05    3.00
  -1   7   2    8.13    2.77
   1  -7   2   12.34    2.04
   1   7  -2   10.87    2.35
  -1   7  -2    9.27    3.15
   1   7  -2    8.71    2.34
   1   7   2    9.59    1.17
  -1   7   2   10.02    1.15
   1  -7  -2    9.84    2.28
  -1  -7  -2   10.36    0.94
  -1  -7   3   16.56    2.15
  -1   7   3   15.16    3.56
  -1  -7  -3   18.07    2.96
  -1   7  -3   20.17    3.56
   1  -7   3   17.05    2.05
   1  -7  -3   16.53    2.96
   1   7  -3   13.27    3.13
   1   7  -3   17.25    2.83
   1   7   3   17.79    1.43
  -1   7   3   15.16    1.15
  -1   7  -3   18.40    2.43
   1   7   3   16.73    3.53
   1  -7   3   17.69    2.55
  -1  -7  -3   17.11    3.15
  -1   7   3   15.76    3.36
   1  -7  -3   21.49    3.63
  -1  -7   3   15.39    2.17
   1   7  -4  205.85   10.19
  -1  -7   4  210.96    7.99
  -1  -7  -4  208.56   10.34
  -1  -7   4  213.62    7.89
  -1   7   4  205.03   10.37
   1   7   4  201.30    4.45
   1  -7   4  202.04    7.13
   1  -7  -4  206.21    9.39
   1  -7  -4  202.40   10.06
   1   7  -4  206.63    9.15
   1   7   4  207.94   10.64
   1  -7   4  211.85    8.16
  -1  -7  -4  213.66    9.42
  -1   7  -4  222.50   11.03
  -1   7   4  204.52   10.38
   1   7  -5  829.84   18.13
   1  -7   5  851.51   15.63
   1  -7  -5  843.26   20.74
   1   7   5  806.79    9.09
   1   7  -5  824.36   20.19
   1  -7  -5  847.85   19.46
  -1  -7  -5  805.28   20.56
   1   7   5  845.96   21.37
  -1  -7  -5  810.61   18.85
  -1   7   5  851.84   21.34
   1  -7   5  841.86   17.09
  -1  -7   5  822.54   16.46
  -1  -7   6  267.20    9.93
  -1   7   6  266.20   12.27
   1  -7  -6  263.67   11.83
   1  -7   6  269.59   10.22
   1   7   6  261.74    5.54
  -1  -7  -6  261.15   12.02
   1   7  -6  253.85    9.99
  -1  -7  -6  266.09   11.06
   1  -7  -6  273.47   11.37
   1   7   6  272.19   12.55
   1   7  -6  263.38   11.61
   1   7  -7    7.27    2.35
   1   7   7   11.16    3.56
  -1   7  -7    2.56    2.60
  -1  -7  -7    9.45    2.80
  -1  -7  -7   11.06    3.42
  -1   7   7    6.82    2.50
   1  -7  -7    7.34    2.70
   1   7   7    7.01    1.10
  -1  -7   7   15.73    2.90
   1   7  -7    6.65    2.01
   1  -7   7    6.74    2.28
  -1   7  -8  224.47    7.41
   1   7   8  210.17   11.23
   1  -7   8  223.95   10.28
  -1  -7  -8  236.19   11.00
   1   7  -8  211.16   11.28
   1  -7  -8  214.71   11.30
   1   7  -8  217.71    9.37
  -1   7  -8  227.08   11.69
   1   7   8  224.25    6.02
  -1   7   8  224.13   11.62
  -1  -7   8  233.99   10.11
  -1  -7  -8  209.75   11.40
   1  -7   9   69.85    6.21
   1   7   9   67.28    3.63
  -1  -7  -9   82.36    7.73
  -1   7  -9   63.71    3.92
  -1  -7  -9   54.88    5.95
   1   7  -9   62.79    6.28
   1   7   9   68.13    6.70
  -1   7   9   63.67    2.42
   1  -7  -9   65.92    6.59
   1   7  -9   63.15    5.28
  -1   7  -9   52.66    5.82
  -1   7   9   70.15    6.89
  -1  -7   9   72.35    6.14
  -1   7  10  169.05   10.57
   1  -7  10  156.06    9.12
  -1  -7  10  165.97    9.34
  -1  -7 -10  157.80    9.70
  -1   7 -10  153.75   10.07
  -1   7  10  144.81    3.81
  -1   7  10  157.48    4.65
   1   7  10  153.21   10.14
  -1   7 -10  157.32    6.20
   1   7 -10  154.00   10.13
   1  -7 -10  149.55   10.00
   1  -7 -11   20.98    4.26
  -1   7 -11   15.25    2.21
   1   7 -11   14.57    3.78
  -1   7 -11   12.44    3.77
   1  -7  11   20.71    4.05
   1   7  11   15.01    4.06
  -1  -7  11   18.40    3.75
  -1   7  11   17.64    1.66
  -1   7  11   25.58    5.15
  -1   7  12   22.43    2.08
  -1   7  12   26.45    5.46
  -1   7 -12   21.07    2.54
   1   7 -12   27.19    5.58
  -1  -7  12   23.64    4.49
   1   7  12   21.94    1.76
   1   7  12   18.92    4.36
   1  -7 -12   25.47    4.69
   1  -7  12   31.64    5.11
  -1   7 -12   19.20    4.72
  -1  -7  13  581.40   19.04
   1   7  13  577.33    9.90
  -1   7  13  559.35   20.26
   1  -7 -13  557.44   19.79
   1  -7  13  586.78   19.28
  -1   7 -13  544.20   20.04
   1   7 -13  557.29   20.27
   1   7  13  599.01   20.89
  -1   7  13  574.24   10.77
   1   7  14  879.55   25.76
  -1  -7  14  862.24   23.87
  -1   7  14  841.01   25.22
  -1   7 -14  860.38   25.42
   1   7 -14  834.63   25.29
   1  -7 -14  847.54   25.16
   1  -7  14  856.98   23.88
  -1   7  14  853.83   14.06
   1   7  15    6.06    3.84
   1  -7  15   11.29    4.41
  -1   7  15    6.90    3.44
   1   7 -15    3.27    3.07
  -1   7 -15    2.11    3.05
  -1  -7  15    6.55    3.70
   1   7  16    4.45    3.94
   1  -7  16    5.30    3.55
  -1  -7  16    0.90    3.08
  -1   7  16    4.47    4.29
  -1   7 -16   -0.52    2.45
   1   7 -16    0.34    4.08
  -1   7  17  352.17   17.68
   1   7  17  396.45   18.62
   1  -7  17  379.03   17.45
  -1  -7  17  380.16   17.32
  -1   7 -17  362.90   17.94
   1   7 -17  374.99   18.24
  -1   7 -18  119.37   11.04
   1   7  18  127.72   11.45
  -1  -7  18  124.23   10.66
   1   7 -18  127.52   11.24
   1  -7  18  121.61   10.44
  -1   7  18  118.50   10.65
   1   7  19  157.68   12.38
   1  -7  19  137.80   11.24
  -1  -7  19  154.39   11.92
   1   7 -19  156.36   12.49
  -1   7  19  149.42   12.13
  -1   7 -19  154.40   12.42
   1  -7  20    6.61    3.35
  -1   7 -20    8.82    3.48
   1   7  20    1.75    3.04
   1   7 -20    9.08    4.44
  -1  -7  20   10.32    4.01
  -1   7  20    8.35    3.57
  -1   7  21   11.61    4.06
  -1  -7  21   13.19    4.37
   1  -7  21   12.66    4.48
   1   7  21    9.80    3.95
   1   7 -21   13.62    3.82
  -1   7 -21   11.87    4.49
   1   7 -22   -4.54    4.27
   1   7  22   -6.08    5.74
  -1  -7  22    1.42    3.25
  -1   7 -22    1.10    3.01
   1  -7  22    0.79    2.84
  -1   7  22   -4.54    4.67
  -1   7  23  136.80   12.87
  -1  -7  23  140.51   12.68
   1   7 -23  135.38   12.66
   1  -7  23  137.47   12.43
  -1   7 -23  137.78   12.96
   1   7  23  115.91   11.67
   1  -7  24   -1.19    3.51
  -1   7 -24    2.21    3.84
  -1  -7  24   -3.39    4.23
  -1   7  24    1.36    3.70
   1   7 -24    2.18    2.75
   1   7  24   -1.74    4.04
   1  -7  25    5.20    3.88
  -1  -7  25   13.24    5.66
   1   7  25   11.01    5.01
  -1   8   0    0.17    2.44
  -1  -8   0    1.31    1.82
  -1  -8   0    2.18    1.04
   1   8   0    1.59    2.62
   1  -8   0   -0.37    0.87
   1  -8   0   -1.21    2.27
  -1  -8   0   -3.23    2.76
  -1  -8   0   -0.59    0.88
   1  -8   0    0.40    0.32
  -1  -8  -1 1454.55   14.50
  -1   8  -1 1449.53   29.14
  -1  -8  -1 1420.74   13.33
  -1  -8  -1 1452.58   24.80
  -1  -8   1 1483.26   17.69
  -1   8   1 1465.79   15.09
   1   8  -1 1453.29   28.74
   1  -8   1 1450.75   13.79
  -1   8  -1 1496.32   18.41
  -1  -8   1 1459.53   17.37
   1  -8   1 1475.31   18.53
   1  -8   1 1438.19   25.39
  -1  -8   1 1474.77   28.26
  -1   8   1 1447.35   29.18
   1  -8  -1 1456.26   25.86
  -1  -8  -1 1466.71   28.37
   1  -8  -1 1457.35   15.35
   1   8   1 1445.62   29.03
   1   8  -2  115.38    8.36
  -1  -8  -2  110.18    2.64
  -1   8  -2  128.64    8.91
   1  -8   2  129.47    4.82
  -1   8   2  122.75    8.68
   1  -8   2  123.55    7.41
   1   8   2  131.06    8.95
   1  -8   2  125.55    5.95
  -1  -8  -2  125.93    7.47
  -1   8  -2  127.05    5.86
   1  -8  -2  124.22    7.70
  -1  -8   2  121.20    5.39
  -1  -8  -2  124.79    8.40
  -1  -8   2  127.54    5.76
   1   8   3   35.14    1.80
  -1  -8   3   40.83    3.41
   1  -8   3   39.01    3.67
  -1  -8  -3   38.03    4.69
   1  -8  -3   39.26    4.64
   1  -8  -3   38.04    4.88
  -1   8   3   28.24    4.47
   1  -8   3   36.78    2.88
   1   8  -3   35.74    4.61
  -1  -8   3   45.24    3.74
  -1  -8  -3   39.62    4.37
  -1   8  -3   43.65    5.53
   1  -8   4    8.54    1.59
  -1   8  -4   10.71    3.62
   1   8   4    7.08    2.63
  -1  -8  -4   -0.34    3.24
  -1  -8  -4   10.18    2.76
  -1   8   4   11.70    3.67
  -1   8   4    3.09    3.09
  -1  -8   4    7.30    2.35
   1  -8  -4    8.96    2.79
   1   8  -4    8.15    2.32
   1   8  -4    5.89    2.50
   1  -8   4   10.55    2.34
   1  -8  -4    8.99    2.79
   1   8  -5 1301.87   23.95
   1  -8   5 1262.84   19.61
   1  -8  -5 1334.89   27.61
   1   8  -5 1251.17   27.04
  -1   8  -5 1273.50   28.05
  -1   8   5 1264.94   27.83
   1   8   5 1288.88   28.23
   1  -8   5 1305.33   22.08
  -1  -8   5 1283.15   21.38
  -1  -8  -5 1280.79   25.19
  -1  -8  -5 1268.28   27.40
   1  -8  -5 1249.85   25.27
  -1  -8   6   36.95    4.30
   1   8  -6   32.50    5.08
   1  -8  -6   42.52    5.43
   1  -8  -6   32.59    5.02
   1   8   6   28.60    4.75
  -1  -8  -6   29.44    4.76
  -1  -8  -6   39.76    5.08
   1  -8   6   25.76    3.70
  -1   8   6   30.11    4.85
   1   8  -6   30.86    3.96
   1   8  -7  493.54   17.12
  -1  -8  -7  509.04   16.75
  -1   8   7  492.24   17.87
   1  -8   7  493.81   14.89
  -1  -8   7  492.58   14.52
   1  -8  -7  495.02   17.38
   1  -8  -7  509.13   16.78
   1   8   7  483.17   17.85
   1   8   7  473.88    6.25
  -1  -8  -7  492.05   17.71
   1   8  -7  496.08   14.88
  -1   8   8   38.53    5.60
  -1  -8  -8   42.77    6.08
   1  -8   8   42.18    5.23
   1   8  -8   35.00    4.22
   1   8   8   39.12    2.14
  -1  -8  -8   49.39    5.71
  -1  -8   8   49.95    5.46
   1   8  -8   47.94    6.03
   1  -8  -8   44.93    5.83
   1   8   8   32.91    5.54
   1  -8   9 2621.23   36.69
  -1  -8  -9 2571.37   41.10
  -1   8   9 2628.98   42.31
   1   8  -9 2656.06   42.52
   1   8   9 2588.93   19.19
  -1   8  -9 2624.41   42.27
   1  -8  -9 2553.76   41.00
   1   8  -9 2536.08   34.06
   1   8   9 2572.79   42.17
  -1  -8   9 2574.41   35.91
  -1  -8  -9 2577.30   39.12
  -1  -8 -10   43.53    6.11
  -1   8 -10   48.40    3.90
   1   8  10   44.13    6.21
   1   8  10   49.16    2.99
  -1   8  10   52.99    7.29
   1  -8  10   43.61    5.51
  -1   8 -10   33.98    5.62
  -1  -8 -10   66.33    7.98
   1   8 -10   41.18    6.19
   1  -8 -10   48.79    6.29
  -1  -8  10   60.38    6.33
   1   8 -10   49.95    5.06
   1   8 -11   23.34    3.50
  -1   8 -11   23.72    2.65
   1   8  11   24.57    2.40
   1   8 -11   19.98    4.52
  -1   8  11   10.97    4.05
   1  -8 -11   21.23    4.82
   1  -8  11   17.74    3.84
  -1   8 -11   11.82    3.75
   1   8  11   18.82    4.42
  -1  -8  11   19.42    3.97
   1  -8  12  349.57   14.87
   1   8 -12  331.84   12.66
   1   8  12  343.56    9.11
  -1   8 -12  352.32   10.01
  -1   8 -12  328.12   15.79
   1   8 -12  321.32   15.77
  -1   8  12  330.35   15.78
   1   8  12  338.58   16.20
  -1  -8  12  331.93   14.43
   1  -8 -12  344.83   16.13
  -1  -8  13  220.47   12.00
  -1   8 -13  208.10   13.00
   1  -8  13  211.14   12.10
  -1   8  13  203.81   12.79
   1   8  13  204.37   12.83
   1   8 -13  210.79   12.95
  -1   8 -13  216.94    7.90
   1  -8 -13  207.67   12.88
   1  -8 -14    8.33    3.96
  -1  -8  14    9.32    2.78
  -1   8 -14    5.50    3.34
   1   8  14    5.79    2.90
   1  -8  14   12.40    3.65
  -1   8  14    3.86    3.14
   1   8 -14    4.06    2.84
  -1  -8  15  157.63   10.88
   1   8  15  153.79   11.55
  -1   8  15  157.37   11.77
   1  -8  15  152.23   10.85
  -1   8 -15  158.84   11.80
   1  -8 -15  144.24   11.26
   1   8 -15  153.76   11.70
   1   8  16    1.69    3.24
  -1   8 -16    7.20    3.62
  -1  -8  16    2.75    2.91
   1   8 -16    4.12    4.32
   1  -8  16    1.80    2.99
  -1   8  16    4.74    3.55
   1   8 -17  334.91   17.93
  -1  -8  17  334.02   16.67
  -1   8  17  312.75   17.32
   1  -8  17  313.09   16.18
  -1   8 -17  306.01   17.09
   1   8  17  346.09   18.01
  -1   8 -18    1.50    2.99
   1  -8  18    2.49    3.16
   1   8 -18    3.25    4.20
  -1  -8  18    8.48    4.22
  -1   8  18    0.67    2.97
   1   8  18   -2.38    4.83
   1   8 -19  498.01   22.78
   1   8  19  517.18   23.02
   1  -8  19  496.76   21.58
  -1   8 -19  509.48   22.88
  -1  -8  19  512.11   21.84
  -1   8  19  463.04   21.93
  -1  -8  20    2.20    4.01
   1  -8  20    6.03    4.25
  -1   8  20    1.73    4.82
   1   8 -20   -0.07    3.31
  -1   8 -20    6.20    4.86
   1   8  20    2.91    4.11
  -1  -8  21  179.20   13.81
   1  -8  21  182.92   13.79
  -1   8 -21  183.76   14.59
   1   8 -21  191.16   14.91
  -1   8  21  176.28   14.26
   1   8  21  188.10   14.55
   1  -8  22   15.43    5.08
   1   8 -22   19.92    5.87
  -1  -8  22   21.81    6.12
  -1   8 -22   19.38    5.93
   1   8  22   16.03    5.91
  -1   8  22   15.38    5.53
   1   8 -23  266.25   18.14
   1  -8  23  235.98   16.53
   1   8  23  255.84   17.80
  -1   8  23  234.90   16.95
  -1  -8  23  254.86   17.29
  -1   8 -23  246.67   17.71
   1  -8  24    2.37    3.39
  -1  -8  24    4.54    3.18
  -1  -9   0    0.88    0.90
  -1  -9   0   -3.29    3.12
   1  -9   0   -0.08    0.88
   1   9   0    0.73    2.37
  -1  -9   0   -0.37    1.65
  -1   9   0   -4.80    3.57
   1  -9   0   -0.63    2.07
   1   9   1   79.99    7.66
   1   9  -1   89.06    7.94
  -1  -9  -1   74.65    6.13
  -1  -9   1   92.89    7.87
  -1  -9  -1   81.56    3.11
   1  -9   1   88.48    4.76
  -1  -9   1   81.93    4.32
  -1  -9  -1   85.39    7.71
  -1   9   1   85.02    7.79
   1  -9   1   80.13    6.64
   1  -9  -1   81.00    6.76
  -1   9  -1   88.88    7.90
   1   9  -2  145.54    9.90
   1  -9  -2  141.90    8.81
  -1  -9  -2  149.23    8.82
  -1   9  -2  149.44   10.12
   1  -9   2  146.75    8.92
  -1   9   2  140.95   10.00
   1  -9   2  147.78    6.59
  -1  -9   2  150.82    9.82
  -1  -9   2  134.78    6.09
  -1  -9  -2  143.72    9.84
  -1  -9   3  254.38    8.99
   1  -9  -3  270.77   12.15
  -1  -9  -3  247.28   12.66
   1  -9   3  254.32   11.53
  -1  -9  -3  262.06   11.69
   1  -9  -3  252.12   12.53
   1   9  -3  252.88   12.88
   1  -9   3  264.77    9.27
  -1   9  -3  254.26   13.33
  -1   9   3  262.01   13.47
   1   9  -4   84.45    7.64
   1  -9   4  103.94    6.17
   1  -9  -4   96.52    8.14
  -1  -9  -4  103.53    7.66
  -1  -9  -4   84.89    7.57
  -1   9  -4  103.07    8.75
  -1  -9   4  101.16    5.99
   1  -9  -4   96.07    7.53
  -1   9   4  103.54    8.80
   1   9   5    5.55    3.75
   1   9  -5   15.29    4.21
   1  -9  -5   15.11    3.40
  -1  -9   5   20.36    3.21
   1  -9   5   14.97    2.67
  -1   9  -5   18.48    4.37
  -1  -9  -5   13.92    3.68
   1  -9  -5   26.49    4.60
  -1  -9  -5   18.00    3.73
  -1   9   5   12.77    3.59
   1  -9   6  146.61    8.16
   1  -9  -6  145.48    9.65
  -1   9  -6  145.68   10.58
   1   9   6  152.51   10.53
  -1   9   6  141.80   10.44
   1   9  -6  142.34    9.95
  -1  -9  -6  154.08    9.61
   1   9  -6  137.31    8.36
  -1  -9  -6  158.01   10.51
   1  -9  -6  126.42    9.35
  -1  -9   6  143.11    7.95
  -1  -9  -7   -2.27    2.28
  -1   9  -7    7.40    4.02
  -1  -9   7    2.20    2.20
   1  -9  -7   -3.68    2.95
   1   9  -7   -2.64    2.40
   1  -9   7    2.79    2.36
   1   9  -7   -3.80    3.19
   1  -9  -7    4.53    3.87
   1   9   7   -3.04    4.10
  -1  -9  -7    3.86    3.03
  -1   9   7   -1.92    4.01
  -1  -9  -8   85.59    8.13
   1   9  -8   72.27    6.38
   1  -9  -8   85.58    8.19
   1  -9   8   77.41    6.65
  -1  -9  -8   96.05    8.90
  -1   9   8   81.96    8.47
   1   9  -8   74.76    7.69
   1   9   8   88.27    8.91
  -1  -9   8   77.81    6.66
  -1  -9  -9 2157.87   37.65
  -1  -9  -9 2133.83   39.75
   1  -9  -9 2212.85   39.81
   1   9   9 2139.92   40.53
   1   9  -9 2042.26   38.15
  -1   9   9 2115.53   40.51
  -1  -9   9 2083.63   33.56
   1  -9   9 2114.72   34.08
   1   9  -9 2124.32   32.68
  -1  -9  10   49.27    6.09
   1   9 -10   33.94    4.51
   1  -9  10   48.41    6.27
   1  -9 -10   35.67    6.11
  -1  -9 -10   38.74    6.11
   1   9  10   37.96    6.62
  -1   9  10   37.07    6.26
   1   9 -10   46.93    6.64
  -1  -9 -10   46.52    7.15
  -1   9 -11   70.98    7.99
   1  -9 -11   59.24    7.07
   1   9  11   50.22    6.69
   1   9 -11   70.43    8.02
  -1   9  11   69.53    7.74
   1  -9  11   65.19    6.53
  -1  -9  11   70.14    7.01
   1   9 -11   69.97    6.11
  -1  -9 -11   52.54    6.55
   1   9 -12   12.31    2.67
  -1   9 -12   10.14    3.72
  -1  -9  12   20.00    4.04
   1  -9 -12   12.08    3.87
   1  -9  12   13.18    3.79
   1   9  12    9.47    3.19
   1   9 -12   12.30    3.78
  -1   9  12   17.42    3.95
   1   9 -13   11.59    2.83
  -1   9 -13   10.64    3.29
   1   9  13    8.95    4.14
   1  -9  13   13.10    4.07
  -1  -9  13   13.58    3.77
   1   9 -13    9.80    3.30
   1  -9 -13   19.40    4.87
  -1   9  13   11.64    4.06
   1   9 -14   13.68    2.91
   1  -9  14   13.59    3.91
   1  -9 -14   20.45    5.60
  -1   9  14   15.52    4.48
  -1   9 -14    6.68    3.86
   1   9 -14    9.75    3.36
   1   9  14    6.97    3.17
  -1  -9  14   18.72    4.50
   1   9 -15   67.67    6.35
   1   9 -15   62.43    8.08
   1  -9 -15   78.56    8.76
  -1   9 -15   75.66    8.77
  -1  -9  15   70.60    7.67
  -1   9  15   59.67    7.96
   1  -9  15   74.75    7.96
   1   9  15   71.01    8.67
   1   9 -16  142.47   11.87
  -1   9  16  157.71   12.61
   1   9  16  142.98   12.01
  -1   9 -16  135.84   11.81
   1  -9  16  151.61   11.39
  -1  -9  16  139.10   10.76
  -1   9  17   19.51    5.64
  -1   9 -17   15.45    4.53
   1   9  17   21.41    5.29
   1   9 -17   15.91    4.31
   1  -9  17   27.37    5.35
  -1  -9  17   30.59    5.63
  -1  -9  18  107.58   10.27
   1   9  18  117.66   11.53
  -1   9 -18  119.98   11.41
   1   9 -18  111.41   11.05
   1  -9  18  104.28   10.20
  -1   9  18  115.76   11.22
   1  -9  19  105.33   10.58
   1   9 -19   95.95   10.71
  -1   9 -19  100.54   10.99
   1   9  19  104.74   11.45
  -1  -9  19  110.52   10.64
  -1   9  19   94.90   10.48
  -1   9 -20   44.39    7.60
  -1  -9  20   56.41    8.32
   1   9  20   42.85    8.24
   1  -9  20   57.71    8.30
   1   9 -20   56.21    8.58
  -1   9  20   60.69    8.74
   1   9 -21  158.88   14.29
  -1   9  21  182.83   14.94
  -1  -9  21  177.17   13.94
   1   9  21  168.84   14.62
   1  -9  21  168.20   13.72
  -1   9 -21  157.77   13.99
  -1   9 -22   39.17    7.52
  -1  -9  22   41.25    7.55
   1   9 -22   30.17    6.86
  -1   9  22   34.04    7.04
   1  -9  22   33.88    6.68
   1   9  22   40.34    8.16
   1  -9  23   -1.33    3.81
  -1  -9  23    4.56    4.18
   1  10   0    2.30    2.99
  -1 -10   0   -2.29    3.13
  -1 -10   0   -1.74    2.30
  -1  10   0   -3.31    3.68
   1 -10   0   -1.39    2.65
   1 -10  -1  147.22    9.60
  -1 -10   1  167.25    9.54
  -1  10  -1  152.66   10.89
  -1 -10   1  150.18   10.51
   1  10   1  177.11   11.79
  -1 -10  -1  168.84    9.75
   1  10  -1  172.56   11.50
  -1  10   1  165.90   11.42
   1 -10   1  176.84    6.71
  -1 -10  -1  158.23   10.84
   1 -10   1  167.21    9.97
   1 -10   2   41.55    5.26
  -1 -10   2   38.75    5.71
  -1 -10   2   46.07    3.66
   1 -10   2   44.87    3.79
   1  10  -2   35.39    5.52
  -1  10  -2   47.75    6.54
  -1 -10  -2   42.61    5.13
   1 -10  -2   36.93    5.00
  -1 -10  -2   40.35    5.82
   1 -10  -2   37.39    5.25
  -1  10   2   40.66    6.17
  -1 -10   3  389.87   16.61
  -1 -10  -3  447.81   16.28
   1 -10  -3  421.58   17.11
  -1  10   3  448.52   18.50
   1  10  -3  398.84   17.34
  -1  10  -3  427.49   18.20
   1 -10   3  443.25   12.33
  -1 -10  -3  418.36   17.54
   1 -10  -3  416.73   16.27
  -1 -10   3  458.33   12.08
   1 -10   3  408.06   15.71
  -1 -10  -4    9.67    3.39
  -1 -10  -4   -2.53    3.97
   1 -10  -4    7.09    2.80
  -1 -10   4    8.98    2.20
   1  10  -4    3.10    2.83
   1 -10  -4   13.04    3.40
   1 -10   4   13.13    3.25
   1 -10   4    6.12    1.93
  -1  10  -4   10.14    4.14
  -1 -10  -5  395.84   17.21
  -1 -10  -5  389.20   15.77
   1 -10  -5  383.34   16.83
   1 -10  -5  380.11   15.70
  -1 -10   5  398.57   12.68
   1  10  -5  402.10   17.43
  -1  10  -5  393.24   17.63
   1 -10   5  394.01   13.05
   1 -10  -6  241.64   12.80
  -1 -10   6  216.53    9.89
   1  10   6  204.78   12.85
  -1  10   6  210.64   13.14
   1 -10   6  228.23   10.42
  -1 -10  -6  217.22   12.91
  -1 -10  -6  224.73   12.16
   1 -10  -6  212.40   12.63
   1  10  -6  212.55   12.86
  -1  10  -6  215.75   13.38
  -1 -10  -7  198.61   11.77
   1  10   7  213.07   13.31
  -1  10   7  196.90   12.84
  -1 -10  -7  189.19   12.52
  -1 -10   7  199.59    9.95
   1 -10  -7  207.01   12.67
   1 -10  -7  215.66   12.40
   1  10  -7  189.59   12.25
   1 -10   7  204.21   10.34
  -1  10  -7  199.44   13.02
   1  10   8   76.95    8.57
   1 -10  -8   67.58    7.67
  -1 -10  -8   72.55    7.33
  -1  10   8   75.60    8.54
   1  10  -8   79.58    8.26
  -1 -10  -8   72.64    8.14
  -1  10  -8   89.78    9.17
   1 -10   8   66.92    6.28
   1  10  -8   67.46    6.28
  -1 -10   8   77.77    6.56
   1  10  -9  194.40   10.53
  -1  10   9  174.12   12.48
   1 -10   9  197.59   10.84
   1 -10  -9  194.18   12.69
   1  10  -9  191.06   12.49
  -1 -10   9  191.07   10.53
  -1 -10  -9  180.30   12.41
   1  10   9  177.65   12.64
  -1  10  -9  197.22   13.31
  -1 -10  -9  196.22   12.40
  -1 -10  10  749.12   21.28
   1  10  10  776.85   26.29
   1 -10 -10  723.56   24.86
   1  10 -10  763.70   20.59
  -1 -10 -10  756.46   23.90
  -1  10  10  734.52   25.66
   1  10 -10  736.24   24.51
   1 -10  10  758.26   21.73
  -1 -10 -10  728.02   24.85
  -1  10  11   33.02    6.29
  -1 -10  11   41.85    5.82
   1 -10  11   45.57    6.07
   1  10  11   40.25    6.74
   1 -10 -11   32.65    5.84
   1  10 -11   25.15    5.27
   1  10 -11   40.64    4.99
  -1 -10 -11   29.92    5.22
   1  10 -12  165.35    9.65
   1  10  12  151.18   12.07
   1 -10  12  164.61   10.90
   1 -10 -12  152.98   11.87
  -1 -10  12  161.06   10.70
  -1  10  12  150.51   11.96
   1  10 -12  150.72   11.47
   1  10 -13  156.32    9.53
  -1 -10  13  159.24   10.84
   1 -10  13  177.14   11.67
   1  10  13  167.69   12.85
  -1  10  13  153.19   12.46
   1 -10 -13  170.87   12.59
  -1  10  14    5.82    3.63
   1 -10  14   13.91    3.75
   1  10  14    8.57    3.73
  -1 -10  14   10.71    3.45
   1 -10 -14   14.14    5.26
  -1  10 -14   10.22    3.31
   1  10 -14    9.89    3.48
   1  10  15   -2.29    3.80
  -1 -10  15    3.81    3.22
  -1  10 -15   -9.76    4.83
  -1  10  15   -0.92    3.39
   1  10 -15   -5.87    3.94
   1 -10 -15    5.77    3.86
   1 -10  15   -0.18    2.55
   1  10 -16  217.90   15.21
  -1 -10  16  240.08   14.62
   1  10  16  248.22   16.41
  -1  10 -16  246.88   16.31
   1 -10  16  231.77   14.40
  -1  10  16  225.99   15.54
   1  10 -17   51.17    7.85
  -1  10 -17   46.34    7.62
   1  10  17   46.13    7.83
  -1 -10  17   57.29    7.37
   1 -10  17   52.22    7.55
  -1  10  17   58.78    8.36
  -1  10 -18   28.35    5.87
   1 -10  18   29.91    5.90
   1  10 -18   33.24    6.33
  -1 -10  18   32.27    6.03
   1  10  18   33.63    7.22
  -1  10  18   35.53    6.72
  -1 -10  19   24.05    5.33
   1  10 -19   17.26    5.30
   1 -10  19   21.64    5.63
  -1  10 -19   15.38    4.95
  -1  10  19   17.55    5.81
   1  10  19   29.72    7.71
  -1  10 -20  374.87   21.33
  -1  10  20  398.65   22.09
   1 -10  20  371.48   19.93
   1  10  20  382.40   21.64
   1  10 -20  371.09   21.38
  -1 -10  20  379.87   20.16
  -1 -10  21    3.55    3.55
   1 -10  21    5.02    4.28
  -1 -10  22   40.98    7.34
   1 -10  22   46.24    7.92
   1 -11   0   -1.83    2.95
  -1 -11   0   -1.50    3.05
   1  11   0   -1.73    2.96
  -1  11   0   -5.29    3.77
  -1 -11   0   -0.84    2.19
   1 -11  -1    4.40    2.52
  -1 -11   1    8.02    3.56
  -1 -11  -1    8.53    3.40
  -1  11  -1    1.75    3.46
   1  11   1   12.11    4.08
  -1  11   1    9.54    3.90
  -1 -11   1    9.96    2.93
  -1 -11  -1    7.60    2.59
   1 -11  -1    5.88    2.79
   1 -11   1    6.46    2.81
   1  11  -1    8.04    3.05
  -1 -11   2   -1.77    3.02
  -1 -11  -2   -0.92    3.61
  -1 -11  -2    1.42    2.06
   1 -11  -2   -3.02    3.16
  -1  11   2   -2.51    3.83
   1 -11  -2   -1.12    2.91
  -1 -11   2    3.79    2.31
   1 -11   2   -1.74    2.78
   1  11  -2    1.94    3.17
  -1  11  -2   -1.79    3.29
  -1 -11  -3   88.78    8.68
   1 -11  -3  109.48    9.05
  -1 -11   3  107.19    9.41
  -1 -11  -3  124.36    9.14
   1  11  -3  104.59    9.59
   1 -11   3  102.13    8.47
  -1  11   3  106.75   10.01
  -1  11  -3  106.48    9.62
   1 -11  -3  115.53    9.69
  -1 -11   4   54.37    6.77
   1  11  -4   43.96    6.28
  -1 -11  -4   52.93    6.88
   1 -11  -4   46.02    6.12
  -1 -11  -4   62.33    6.86
   1 -11  -4   58.57    6.95
  -1  11  -4   67.05    8.14
   1 -11   4   60.28    6.53
   1 -11  -5    7.63    3.52
   1 -11   5    4.14    2.54
   1 -11  -5    5.19    2.96
  -1  11  -5    6.66    3.93
   1  11  -5    6.00    3.15
  -1 -11  -5    9.95    3.67
  -1 -11  -5    3.80    3.36
  -1  11  -6   39.03    6.57
  -1 -11  -6   40.48    5.67
   1 -11  -6   36.86    5.88
  -1 -11  -6   30.88    5.22
   1 -11  -6   36.81    5.74
   1 -11   6   36.98    4.51
   1  11  -6   28.58    5.44
   1  11  -7   36.75    6.05
  -1 -11   7   34.97    4.46
   1 -11   7   31.82    4.27
  -1 -11  -7   33.59    5.53
  -1 -11  -7   35.85    6.12
   1 -11  -7   37.30    6.04
   1 -11  -7   30.17    5.58
  -1  11   7   33.29    6.09
  -1  11  -7   38.57    6.69
   1  11  -8  286.03   15.99
  -1  11  -8  290.02   16.44
   1 -11  -8  300.52   16.01
  -1 -11  -8  291.06   15.04
   1 -11   8  291.37   12.99
   1  11   8  300.54   16.93
  -1  11   8  301.84   16.85
  -1 -11   8  303.31   12.97
  -1 -11  -8  284.28   15.93
   1 -11   9    8.10    3.25
  -1 -11  -9   10.52    4.57
  -1 -11   9    8.82    3.24
  -1  11   9    0.88    2.91
   1  11   9    4.94    3.17
   1  11  -9    5.15    3.90
  -1 -11  -9    4.19    3.21
   1 -11  -9   11.75    4.38
  -1  11  -9    7.53    3.74
   1  11 -10  396.30   15.51
   1 -11  10  391.97   16.07
   1 -11 -10  413.39   19.35
  -1 -11  10  380.40   15.56
  -1 -11 -10  401.39   19.43
   1  11 -10  386.01   18.82
  -1  11 -10  383.06   19.29
   1  11  10  402.05   19.84
  -1 -11 -10  377.43   17.90
  -1  11  10  388.67   19.69
  -1  11 -11    9.00    4.84
  -1 -11 -11   11.61    4.54
   1  11  11    6.16    4.24
  -1 -11  11    8.09    3.01
   1 -11  11    9.32    3.11
  -1  11  11    3.68    3.97
   1  11 -11    8.11    3.59
   1 -11 -11   14.27    5.35
  -1  11  12   95.44    9.94
   1 -11 -12  101.18   10.26
  -1  11 -12  108.07   10.76
   1  11 -12   96.98    9.73
   1 -11  12   90.36    8.31
  -1 -11  12   93.95    8.32
   1  11  12   99.11   10.51
   1 -11  13   26.63    4.59
   1 -11 -13   35.38    6.91
  -1 -11  13   36.15    5.75
  -1  11  13   31.63    6.46
   1  11 -13   39.88    6.81
   1  11  13   23.28    5.41
  -1  11  14    7.75    3.38
   1 -11  14    8.72    3.56
  -1 -11  14    9.62    3.24
   1  11  14    7.67    3.34
   1 -11 -14   11.59    4.30
   1  11 -14    7.16    3.82
   1  11 -15    1.92    3.12
   1  11  15   -3.55    4.38
  -1  11  15   -7.83    5.17
  -1 -11  15    4.81    3.49
   1 -11 -15    3.48    3.32
   1 -11  15   -2.13    3.51
  -1 -11  16   13.91    4.03
  -1  11  16    9.57    4.21
   1  11 -16   17.76    5.13
   1 -11  16   11.67    4.19
   1  11  16   10.72    4.47
  -1  11 -17   41.43    7.07
   1 -11  17   41.99    6.55
  -1  11  17   46.42    7.51
   1  11  17   49.57    8.04
   1  11 -17   35.00    6.25
  -1 -11  17   45.62    6.89
   1  11 -18   -0.70    4.50
  -1  11 -18   -8.72    6.15
  -1  11  18   -9.31    5.62
   1 -11  18    1.48    3.05
  -1 -11  18    4.77    3.71
   1  11  18    3.90    3.80
   1 -11  19   52.86    7.79
  -1 -11  19   62.01    8.38
   1 -11  20   47.26    7.61
  -1 -11  20   37.89    6.88
  -1 -11  21   39.59    7.46
  -1 -12   0   -3.24    2.74
   1 -12   0   -5.06    3.54
  -1  12   0    0.29    3.68
   1  12   0   -2.03    2.55
   1 -12   0    1.31    3.05
  -1 -12   0   -2.50    3.36
   1 -12   1   -3.48    3.33
   1 -12  -1    1.91    2.51
  -1 -12   1    5.84    3.24
  -1 -12  -1   -5.96    4.28
   1 -12  -1   -0.61    2.48
  -1  12   1    0.75    2.95
  -1 -12   1    3.27    2.70
  -1  12  -1   -4.90    3.80
  -1 -12  -1    0.34    1.89
   1  12  -1   -0.32    3.23
   1 -12   2   91.47    8.48
  -1 -12  -2   85.48    8.09
   1 -12  -2   82.56    8.58
  -1  12   2   85.77    9.64
  -1  12  -2  100.21   10.04
  -1 -12  -2   96.96    9.73
   1  12  -2   86.81    9.23
  -1 -12   2   78.99    8.62
  -1 -12   2   89.62    8.00
   1 -12  -2   84.08    8.25
   1 -12  -3   14.85    4.49
   1 -12   3    4.07    2.43
  -1 -12   3   19.30    4.79
  -1  12  -3    7.20    3.62
  -1 -12   3    9.27    2.90
   1 -12  -3    5.49    2.88
  -1 -12  -3   11.14    3.48
   1  12  -3    7.25    3.64
  -1 -12  -3    3.36    2.82
  -1  12  -4    1.24    3.26
   1 -12  -4    3.46    2.86
  -1 -12  -4   -1.28    2.50
   1  12  -4   -1.00    3.12
   1 -12   4    0.37    2.48
  -1 -12  -4    0.67    2.94
  -1 -12   4    4.63    3.37
   1 -12  -4    1.27    3.04
  -1  12  -5   15.24    4.65
   1 -12  -5   17.34    4.52
   1 -12   5   24.18    4.67
   1 -12  -5   17.34    4.50
  -1 -12  -5   18.98    4.57
   1  12  -5   18.49    5.13
  -1 -12  -5   23.08    4.48
  -1 -12   5   16.19    4.51
   1 -12   6   24.39    4.72
  -1  12  -6   18.64    5.23
   1  12  -6   20.08    4.74
  -1 -12  -6   12.73    3.90
  -1 -12  -6   17.54    4.23
   1 -12  -6   13.37    4.50
   1 -12  -6   18.60    4.54
   1 -12  -7   37.10    6.33
   1  12  -7   49.62    7.27
  -1  12  -7   43.91    7.20
  -1 -12  -7   52.21    6.73
  -1 -12  -7   47.08    7.04
   1 -12   7   46.51    6.24
   1 -12  -7   55.37    7.62
  -1  12  -8   62.19    8.32
  -1 -12  -8   65.59    8.56
  -1 -12  -8   69.87    8.02
   1 -12  -8   67.48    8.50
   1  12  -8   58.55    8.11
  -1 -12  -9  215.96   13.83
   1 -12  -9  203.48   14.22
   1  12  -9  194.50   14.21
  -1  12  -9  193.33   14.45
   1  12   9  203.30   14.81
  -1  12   9  198.96   14.61
  -1 -12  -9  195.57   14.16
  -1 -12 -10   23.42    5.24
  -1  12 -10   17.63    5.02
  -1 -12 -10   22.14    5.90
   1  12 -10   16.48    5.18
  -1  12  10   10.92    4.25
   1 -12 -10   16.90    4.81
   1  12  10   15.02    4.83
   1  12  11   12.36    4.52
   1 -12 -11   24.32    5.69
   1  12 -11   14.50    5.17
  -1 -12 -11   23.67    5.17
  -1  12  11   23.51    5.83
  -1  12 -11   24.39    6.23
   1 -12 -12   13.03    4.59
   1  12  12   13.68    4.86
  -1  12  12    5.67    4.46
   1 -12  12   13.26    3.57
  -1  12 -12   14.32    4.82
   1  12 -12   15.12    4.99
  -1  12  13  310.71   19.19
  -1 -12  13  322.60   16.12
   1  12 -13  309.43   18.27
   1  12  13  318.29   19.33
   1 -12 -13  321.49   18.98
  -1  12 -13  328.32   19.41
   1 -12  13  317.33   16.04
  -1  12 -14    1.31    3.91
  -1  12  14   -3.68    4.89
   1  12 -14    8.99    4.66
  -1 -12  14    9.40    3.52
   1 -12  14    4.23    3.20
   1  12  14    3.63    3.32
   1 -12 -14    0.39    3.80
  -1  12  15   -3.80    4.89
  -1  12 -15   -1.59    3.41
  -1 -12  15   -2.64    3.06
   1  12 -15    5.08    4.04
   1 -12  15   -3.34    3.34
   1 -12 -15   -2.58    3.62
   1  12  15   -0.64    4.10
   1 -12  16  143.28   11.81
   1  12 -16  145.15   13.13
  -1 -12  16  173.04   13.03
   1  12 -17   57.34    8.59
   1 -12  17   50.95    7.66
  -1 -12  17   50.01    7.35
  -1 -12  18   26.88    5.68
   1  12 -18   24.92    6.02
   1 -12  18   26.63    6.02
  -1 -12  19  127.13   11.96
   1 -12  19  128.34   12.16
  -1 -13   0   -1.29    2.04
  -1 -13   0   -0.51    2.92
   1 -13   0    7.12    3.89
  -1  13   0   -3.37    3.90
   1 -13   0   -1.23    2.35
  -1 -13   1   90.02    9.58
   1 -13  -1  104.28    9.73
  -1 -13  -1  109.78   10.77
  -1  13  -1   99.92   10.76
   1  13  -1  119.70   11.54
  -1  13   1   99.28   10.65
   1 -13  -1  125.14   10.90
   1 -13   1  109.85   10.27
   1 -13   1  116.56   10.09
  -1 -13   1  108.31    9.23
  -1 -13  -1  116.76    9.83
  -1 -13  -2   24.83    5.30
  -1 -13   2   26.74    5.55
   1 -13   2   23.92    4.83
   1  13  -2   31.57    6.25
  -1  13  -2   32.34    6.39
  -1 -13   2   31.97    5.14
   1 -13  -2   25.56    5.37
   1 -13  -2   37.14    6.17
  -1 -13  -2   32.51    5.51
  -1 -13   3   37.40    6.59
  -1 -13  -3   36.81    6.58
  -1 -13  -3   43.18    6.46
  -1 -13   3   39.14    5.81
   1 -13  -3   42.31    6.41
   1 -13  -3   33.19    5.75
   1  13  -3   37.41    6.82
  -1  13  -3   44.52    7.46
   1 -13   3   38.59    6.11
   1 -13   4   91.26    8.98
  -1 -13  -4   93.88    9.85
  -1 -13  -4   92.60    9.07
  -1 -13   4   94.54    8.38
   1 -13  -4  100.08   10.12
   1  13  -4   91.25   10.20
  -1  13  -4   96.30   10.69
   1 -13  -4   88.69    9.03
  -1 -13   4   88.80    9.34
   1 -13   5    3.41    2.61
  -1 -13  -5   11.12    3.85
   1  13  -5    4.19    3.59
  -1 -13   5   -0.94    2.51
  -1  13  -5    6.03    4.07
  -1 -13  -5    5.54    3.79
   1 -13  -5    3.95    3.10
   1 -13  -5    1.70    2.91
  -1  13  -6    1.54    3.26
   1 -13   6    1.20    2.66
   1  13  -6    4.58    3.48
  -1 -13  -6    8.01    3.48
  -1 -13  -6    4.54    2.70
  -1 -13   6    5.27    3.39
   1 -13  -6    5.48    3.42
   1 -13  -6    9.47    4.11
   1 -13  -7   23.63    5.63
  -1  13  -7   22.32    5.96
   1 -13  -7   24.48    5.71
   1 -13   7   19.00    4.46
  -1 -13  -7   24.24    5.47
  -1 -13   7   15.00    4.20
   1  13  -7   23.93    5.22
  -1 -13  -7   22.14    6.02
  -1 -13  -8    7.49    3.62
   1 -13  -8    8.16    4.02
  -1 -13  -8    5.91    3.39
   1  13  -8    3.76    3.50
  -1  13  -8    6.92    3.96
   1 -13   8    9.03    3.38
  -1 -13  -9  162.69   12.82
   1  13  -9  156.89   13.35
  -1  13  -9  173.25   14.41
  -1 -13  -9  152.88   13.38
   1 -13   9  161.19   12.03
   1 -13  -9  156.08   13.05
   1  13 -10    2.40    3.51
  -1 -13 -10   14.19    5.29
  -1  13 -10   13.54    5.69
  -1 -13 -10   12.35    4.58
   1 -13 -10    7.45    4.14
  -1 -13 -11    4.45    3.99
  -1  13  11    0.38    3.91
   1 -13 -11    1.69    2.89
   1  13  11   -1.71    4.02
   1  13 -11    5.19    4.16
  -1  13 -11    2.06    3.08
  -1  13  12   99.53   11.63
  -1  13 -12   78.40   10.05
   1  13 -12  102.06   11.18
   1  13  12   76.76   10.04
   1 -13 -12   78.07    9.93
   1 -13 -13    2.09    3.62
   1  13 -13    0.32    3.15
   1 -13 -14   48.43    7.97
   1  13 -14   31.48    6.80
   1 -14   0   -6.22    4.09
   1 -14   0    0.22    2.76
  -1 -14   0   -1.77    3.28
  -1  14   0   -2.14    3.71
   1 -14   1   55.36    7.58
  -1 -14   1   44.86    7.41
  -1  14   1   58.05    8.75
   1 -14  -1   49.49    7.32
   1 -14   1   52.01    7.10
   1 -14  -1   52.37    7.40
  -1 -14  -1   44.00    7.00
  -1 -14  -1   59.54    7.47
  -1  14  -1   57.71    8.52
  -1  14  -2   42.72    7.61
   1 -14  -2   36.37    6.23
  -1 -14   2   36.73    6.65
   1 -14  -2   35.09    6.27
   1 -14   2   31.16    5.78
  -1 -14  -2   30.99    6.26
   1 -14   2   43.25    7.02
   1  14  -2   34.86    6.78
  -1 -14  -2   38.48    6.19
  -1 -14   3   39.47    6.79
  -1 -14  -3   45.44    6.67
  -1  14  -3   49.57    7.90
   1 -14  -3   35.40    6.59
   1  14  -3   41.59    7.09
   1 -14  -3   47.24    7.25
   1 -14   3   38.31    6.09
  -1 -14  -3   47.15    7.68
   1  14  -4   -3.97    4.02
  -1 -14  -4    4.68    3.31
   1 -14  -4   -0.45    3.03
   1 -14  -4    4.08    3.88
  -1 -14   4   -3.32    3.53
  -1  14  -4    0.53    3.46
  -1 -14  -4   -5.01    4.17
   1  14  -5  189.10   14.94
   1 -14  -5  175.47   13.94
  -1 -14  -5  199.42   13.76
  -1  14  -5  193.27   15.46
  -1 -14  -5  180.36   14.43
   1 -14  -5  188.79   13.85
  -1 -14   5  171.91   13.64
   1 -14  -6  163.34   12.93
  -1 -14  -6  171.78   13.07
   1  14  -6  173.12   14.72
   1 -14  -6  152.80   13.05
  -1 -14   6  155.66   13.06
  -1  14  -6  168.76   14.50
  -1 -14  -6  163.14   13.78
  -1 -14   7    1.63    3.46
  -1 -14  -7    1.87    3.35
   1 -14  -7   -2.70    3.54
  -1  14  -7    5.43    4.26
  -1 -14  -7   -0.83    2.86
  -1 -14   8   -1.63    3.04
   1 -14  -8    2.72    3.28
  -1 -14  -8    6.01    3.82
  -1 -14  -8    6.74    4.11
   1  14  -8   -1.42    3.81
  -1 -14   9   40.89    7.10
  -1 -14  -9   51.21    8.92
   1 -14  -9   53.10    8.25
  -1 -14  -9   42.66    7.05
   1  14  -9   36.26    6.93
   1 -14 -10  117.41   12.03
  -1 -14 -10  105.47   10.88
  -1 -14 -11   17.26    5.19
   1 -15   0   -3.44    2.94
  -1 -15   0   -0.97    3.32
   1 -15  -1    4.95    3.40
  -1 -15   1   -3.65    3.55
   1 -15   1    0.27    3.29
  -1 -15  -1   -1.86    3.57
   1 -15   2  135.61   12.30
  -1 -15   2  121.21   12.29
   1 -15  -2  136.11   12.50
  -1 -15  -2  123.40   12.39
  -1 -15   3   49.21    7.99
   1 -15   3   45.36    7.46
  -1 -15  -3   47.84    8.01
   1 -15  -3   54.36    8.17
   1 -15   4   33.26    6.49
  -1 -15  -4   37.24    7.01
  -1 -15   4   34.92    6.77
   1 -15  -4   43.39    7.49
   1 -15  -5    2.03    3.05
  -1 -15   5    2.77    2.98
  -1 -15   6   52.39    8.19
   1 -15  -6   63.89    9.10
  -1 -15   7   57.91    8.67
  -1 -15  -8   37.13    6.51
  -1 -15  -9   49.98    7.65
   2   0   0  954.54   12.47
  -2   0   0  941.90   12.72
  -2   0  -1    0.98    0.85
   2   0  -1    0.02    1.25
  -2   0  -1    1.76    0.72
  -2   0   1    0.43    0.96
   2   0   1    3.07    1.43
   2   0   2 5856.88   32.03
  -2   0  -2 5929.28   23.63
   2   0  -2 5931.32   32.33
   2   0   2 5858.50   26.92
  -2   0   2 5736.05   32.28
  -2   0  -2 5915.41   32.60
   2   0   3   -1.01    0.96
   2   0  -3   -0.31    0.76
  -2   0  -3    1.46    1.09
   2   0  -3   -0.16    1.21
  -2   0   3    1.31    1.20
   2   0   3    1.87    1.55
   2   0   3   -0.93    1.02
  -2   0  -4 3312.86   21.28
  -2   0  -4 3285.56   26.06
   2   0   4 3322.60   21.73
   2   0  -4 3346.72   20.83
   2   0  -4 3301.16   26.14
   2   0   4 3282.32   25.97
  -2   0   4 3266.73   26.20
   2   0  -5    0.09    0.96
  -2   0  -5   -0.05    0.87
   2   0   5   -0.15    1.38
  -2   0   5    0.31    0.79
   2   0  -5    2.44    1.57
  -2   0   5    0.75    1.15
  -2   0  -5   -1.11    1.31
   2   0   5    1.50    1.20
   2   0  -6  545.59   10.06
  -2   0   6  570.21   10.21
   2   0   6  558.54   11.88
  -2   0   6  586.69   12.22
  -2   0  -6  584.79   11.93
   2   0  -6  558.43   11.86
  -2   0  -7    2.51    1.37
  -2   0   7    3.50    1.20
   2   0   7    5.99    2.20
   2   0  -7    1.39    1.32
  -2   0   7    2.30    1.44
   2   0  -8 2465.59   27.30
   2   0   8 2474.00   27.08
  -2   0   8 2467.25   24.33
   2   0   9    9.03    2.77
  -2   0   9    9.75    1.88
   2   0  -9    3.69    2.23
   2   0  10 6057.73   46.01
   2   0 -10 6167.65   47.32
   2   0 -11   -0.79    2.17
   2   0  11    5.29    3.62
  -2   0  12 1441.83   24.46
   2   0 -12 1458.90   24.93
   2   0  12 1416.08   24.12
   2   0  13   49.24    6.92
  -2   0  13    4.99    3.50
  -2   0  14 2211.42   32.55
   2   0  14 2212.42   32.26
  -2   0  15    6.40    3.80
  -2   0  15    1.56    0.81
  -2   0  16  131.34    8.80
   2   0  16  117.18    8.15
  -2   0  16  119.26    3.57
  -2   0  17   -0.46    2.58
   2   0  17    1.52    2.82
   2   0  18  186.59   10.97
  -2   0  18  190.71   11.15
  -2   0  19    3.73    3.14
   2   0  19    6.18    3.91
   2   0  20  100.56    8.65
  -2   0  20  101.73    8.91
  -2   0  21   -2.26    2.81
   2   0  21    1.67    2.77
  -2   0  22    2.66    2.80
   2   0  22    4.43    3.71
   2   0  23    0.00    2.87
  -2   0  23    1.85    3.05
  -2   0  24   47.35    7.15
   2   0  24   35.90    6.29
   2   0  25    5.39    3.22
  -2   0  25   -0.84    2.90
  -2   0  26   91.63    9.93
   2   0  26   86.75    9.58
   2   0  27    2.15    3.25
  -2   0  27    0.43    2.63
  -2   0  28    1.10    3.72
   2   0  28   13.24    4.98
   2   0  29    1.96    3.28
  -2   0  29   -2.07    2.96
  -2  -1   0 8866.44   40.09
  -2  -1   0 8655.67   24.95
   2  -1   0 8778.47   22.91
   2  -1   0 8857.61   37.78
  -2   1   0 8890.70   38.33
  -2   1   0 8848.62   39.40
   2   1   0 8727.12   38.95
  -2  -1   1 7309.52   20.87
  -2  -1  -1 7409.80   36.75
   2   1  -1 7450.36   36.64
   2   1   1 7489.27   23.78
  -2  -1   1 7502.73   24.22
  -2   1  -1 7430.36   36.66
   2   1   1 7374.15   35.96
   2  -1   1 7244.16   35.75
   2  -1  -1 7240.68   33.79
  -2  -1   1 7405.82   36.88
  -2   1   1 7578.41   22.81
  -2   1   1 7326.04   34.64
   2  -1  -1 7225.13   22.98
  -2   1  -1 7480.83   22.78
  -2  -1  -1 7298.09   23.99
   2  -1   1 7332.58   35.27
  -2  -1  -2   42.12    2.73
   2   1   2   41.77    3.02
   2  -1  -2   48.73    2.97
   2   1   2   50.18    2.27
  -2   1  -2   49.80    3.23
   2   1  -2   46.02    3.11
   2   1   2   44.82    3.08
  -2   1   2   43.58    2.88
   2   1  -2   51.34    2.33
  -2   1   2   47.32    2.01
  -2  -1  -2   47.42    2.97
  -2   1   2   49.04    2.26
  -2  -1   2   51.76    3.28
   2  -1   2   48.10    3.28
   2   1   3 3172.38   23.55
  -2  -1  -3 3122.77   22.90
   2   1   3 3207.34   23.78
   2   1   3 3156.00   23.00
   2  -1   3 3090.19   25.26
   2  -1  -3 3120.56   16.57
  -2  -1  -3 3195.98   23.90
  -2  -1   3 3206.45   25.84
   2  -1   3 3259.85   15.81
  -2   1   3 3218.07   23.88
   2   1  -3 3155.61   13.80
   2  -1  -3 3139.56   23.48
  -2  -1  -3 3157.60   23.77
   2   1   3 3162.28   19.45
   2   1  -3 3170.28   25.47
  -2   1  -3 3171.13   25.61
   2   1   4 2922.14   23.40
  -2  -1   4 2899.35   15.97
   2  -1  -4 2855.93   22.75
  -2   1  -4 2874.46   15.66
  -2  -1  -4 2888.85   23.51
   2   1  -4 2867.41   25.51
  -2  -1   4 2915.97   25.69
  -2   1   4 2871.51   23.60
  -2   1  -4 2879.42   25.34
  -2  -1  -4 2919.36   23.46
   2  -1  -4 2907.77   23.47
  -2  -1  -4 2880.99   23.00
   2  -1   4 2888.79   25.61
   2  -1  -4 2888.18   17.20
   2   1   4 2851.96   23.24
   2   1  -5    8.77    2.04
   2   1   5   10.21    1.77
  -2   1   5    9.75    1.72
   2   1   5    8.48    1.71
   2  -1  -5   10.82    1.85
   2  -1   5   13.63    2.25
  -2  -1  -5    9.62    1.63
   2  -1  -5   11.51    1.76
  -2  -1  -5   10.11    1.58
  -2  -1   5   13.40    2.01
  -2   1  -5    9.96    1.77
  -2  -1   5    9.28    1.18
  -2   1  -5   17.31    1.34
   2  -1   6   13.51    2.16
  -2   1   6   11.11    1.80
  -2  -1   6   12.09    1.43
   2   1   6   13.55    2.05
   2   1   6    9.65    1.84
   2  -1  -6    8.31    1.87
   2   1  -6   10.16    2.25
   2  -1  -6    8.78    1.70
  -2   1  -6    9.39    2.03
  -2  -1   6   12.67    2.10
  -2   1   6    8.24    1.63
  -2  -1  -6    9.43    1.66
  -2   1   7  174.49    6.60
   2   1   7  162.04    6.67
  -2   1  -7  157.13    6.84
  -2  -1   7  160.92    5.38
   2  -1  -7  150.71    6.42
   2   1  -7  148.20    6.86
  -2  -1  -7  169.31    6.51
  -2   1   7  162.05    6.50
   2   1   7  160.74    6.46
   2  -1   7  158.86    6.95
   2  -1  -7  159.49    6.40
   2  -1  -8 1392.29   19.98
  -2   1   8 1456.44   20.46
   2   1  -8 1428.54   21.52
   2   1   8 1411.53   19.88
   2  -1   8 1432.48   21.29
  -2  -1  -8 1422.96   19.78
  -2  -1   8 1408.20   17.18
   2  -1  -8 1376.94   19.69
   2   1   8 1425.29   20.53
  -2   1   8 1465.63   20.02
   2  -1   9    5.28    2.28
   2   1  -9    7.70    2.49
   2   1   9    9.21    2.12
   2  -1  -9   11.45    2.48
  -2  -1   9    8.25    1.76
   2   1  10  824.54   16.46
  -2  -1  10  842.64   15.24
   2  -1 -10  828.33   16.90
   2  -1  10  827.08   17.61
   2   1 -10  846.04   18.07
   2  -1 -11    5.68    2.34
   2   1 -11    5.85    2.89
   2   1  11   11.67    3.08
   2  -1 -12 2483.97   31.67
   2   1  12 2488.70   30.85
   2  -1  12 2461.83   32.66
   2   1 -12 2477.44   33.41
  -2  -1  12 2448.81   32.98
   2  -1  13   37.19    7.35
  -2  -1  13   17.34    3.60
  -2   1  13   14.82    1.88
   2   1  13   40.74    5.83
  -2   1  13   16.88    3.42
  -2   1  14 1230.41   23.86
  -2   1  14 1210.01   14.65
  -2  -1  14 1238.66   25.04
   2   1  14 1242.98   23.50
   2  -1  14 1254.71   24.97
  -2  -1  15  519.30   16.90
   2   1  15  540.65   16.54
  -2   1  15  514.04    9.31
   2  -1  15  587.80   17.96
  -2   1  15  524.25   16.23
  -2   1 -16  131.90    3.68
  -2   1  16  144.36    8.84
   2  -1  16  151.96   10.12
   2   1  16  150.00    9.14
  -2  -1  16  143.27    9.34
   2   1  17   76.97    7.98
  -2  -1  17   56.59    6.95
   2  -1  17   88.25    8.54
  -2   1  17   56.79    6.09
   2  -1  18 1722.94   33.33
   2   1  18 1732.56   31.87
  -2  -1  18 1665.77   33.38
  -2   1  18 1707.61   32.13
  -2  -1  19   18.25    7.56
  -2   1  19   32.31    5.72
   2  -1  20  187.84   11.74
  -2  -1  20  192.65   11.98
  -2   1  20  176.62   11.25
   2   1  20  186.25   11.53
   2   1  21  147.65   10.74
  -2  -1  21  137.21   10.98
  -2   1  21  128.04   10.31
   2  -1  21  138.92   10.81
  -2   1  22  396.50   17.51
  -2  -1  22  423.24   18.83
   2  -1  22  413.04   18.56
   2   1  22  401.81   17.62
   2  -1  23   94.81    9.43
  -2   1  23  102.44    9.35
   2   1  23   90.18    8.94
  -2  -1  23   88.20    9.13
   2  -1  24   34.79    6.78
  -2   1  24   20.30    5.09
  -2  -1  24   28.38    5.97
   2   1  24   34.38    6.49
  -2   1  25  217.59   14.35
   2   1  25  219.52   14.57
   2  -1  25  213.84   14.85
  -2  -1  25  201.76   14.56
  -2   1  26  735.85   26.99
  -2  -1  26  739.88   27.62
   2   1  26  763.65   27.03
   2  -1  26  713.47   27.20
   2   1  27  105.63   11.24
  -2  -1  27   99.95   11.28
   2  -1  27  100.99   11.57
  -2   1  28  618.66   26.16
   2   1  28  630.12   25.82
   2  -1  28  635.79   26.81
  -2  -1  28  657.27   27.39
   2  -1  29  363.77   20.79
  -2   1  29  360.02   20.33
   2   1  29  350.27   19.84
   2  -2   0 1366.83   14.62
  -2  -2   0 1405.11   16.26
  -2  -2   0 1385.16   14.03
  -2  -2   0 1400.12   13.75
   2   2   0 1389.95   16.16
   2  -2   0 1400.98   13.48
  -2   2   0 1416.55   16.04
  -2   2   1  297.73    4.61
   2  -2  -1  284.75    6.59
  -2   2   1  291.85    6.70
   2  -2   1  289.95    6.36
  -2  -2  -1  292.35    6.54
  -2   2  -1  291.73    7.53
  -2  -2   1  290.06    6.56
   2  -2   1  299.06    7.58
  -2   2   1  302.00    7.32
   2   2  -1  287.85    7.63
   2   2   1  291.70    7.40
  -2  -2   1  301.06    7.77
   2   2   1  302.56    8.26
  -2  -2   1  286.95    5.97
  -2   2   1  301.94    6.34
  -2   2   1  297.64    6.82
   2   2   1  293.79    6.50
   2  -2  -1  294.42    6.35
  -2  -2  -1  289.17    7.49
   2   2   2   14.60    2.02
  -2  -2   2   16.32    2.06
   2  -2  -2   16.76    1.77
  -2   2  -2   15.18    1.86
  -2  -2  -2   14.53    1.70
  -2  -2  -2   14.50    2.19
  -2  -2  -2   21.65    2.41
   2  -2   2   14.28    2.08
   2   2   2   15.87    2.28
   2  -2  -2   17.10    1.78
  -2   2  -2   18.93    2.22
   2   2  -2   18.79    1.58
  -2  -2   2   19.75    2.18
   2   2  -2   12.18    1.46
   2   2  -2   17.29    2.18
  -2   2   2   16.00    1.72
  -2   2   2   14.82    1.65
  -2  -2  -2   15.23    1.72
  -2   2   2   17.84    2.00
   2   2   2   13.51    1.69
   2   2  -3 3868.25   29.33
  -2  -2  -3 3921.98   26.00
   2  -2  -3 3830.32   24.32
  -2  -2  -3 3942.18   30.04
  -2   2  -3 3986.86   29.85
  -2   2   3 3887.44   25.52
   2   2   3 3901.99   25.78
   2  -2  -3 3933.21   25.68
  -2   2   3 3940.63   25.13
   2   2  -3 3953.16   21.25
   2  -2  -3 3931.96   24.87
  -2  -2   3 3905.78   29.87
  -2   2  -3 3888.10   25.58
   2  -2   3 3886.69   29.40
   2   2   3 3797.08   29.88
   2   2   3 3907.06   27.74
   2   2  -3 3886.59   25.85
   2   2   3 3990.27   29.88
  -2  -2  -3 3896.29   25.55
  -2   2   3 3892.83   24.39
  -2  -2  -3 3879.95   29.37
  -2  -2  -4 3273.07   28.15
   2   2   4 3240.54   23.86
  -2  -2  -4 3236.11   23.98
   2   2   4 3331.01   28.30
   2  -2  -4 3184.75   27.14
   2  -2   4 3222.66   28.28
   2   2  -4 3205.78   27.98
  -2   2  -4 3321.49   28.22
   2   2   4 3242.92   24.95
   2  -2  -4 3254.72   22.99
  -2  -2   4 3317.80   28.44
   2  -2  -4 3221.12   23.66
  -2   2   4 3242.19   24.93
  -2   2   4 3220.92   24.02
  -2  -2  -4 3226.80   27.67
   2   2  -4 3231.35   25.21
  -2  -2  -5 2014.56   22.76
   2  -2  -5 2061.85   22.66
   2  -2   5 2016.18   23.19
  -2  -2  -5 2087.50   19.84
   2   2  -5 2002.22   23.18
   2  -2  -5 2062.23   19.15
   2   2   5 2112.35   23.38
   2   2   5 2008.80   19.66
  -2   2  -5 2078.17   23.38
  -2   2   5 2072.41   20.01
  -2   2   5 2041.87   21.05
  -2  -2   5 2125.54   23.70
   2   2   5 2021.49   21.12
   2  -2  -5 2045.55   19.76
  -2  -2  -5 2107.97   23.23
  -2  -2  -6  574.43   12.75
  -2   2   6  565.87   11.93
   2  -2   6  575.10   13.01
  -2   2  -6  587.22   12.99
  -2  -2  -6  569.23   10.81
  -2  -2   6  559.27   12.76
   2  -2  -6  560.88   12.41
   2   2   6  566.34   11.83
  -2   2  -6  547.79    5.95
   2   2   6  591.62   12.89
  -2   2   6  559.24   10.96
   2   2   6  552.93   10.81
   2   2  -6  547.98   12.75
  -2  -2  -6  586.57   12.70
   2  -2  -6  572.07   11.01
   2   2   7  756.29   15.23
  -2   2   7  746.69   14.89
   2  -2  -7  727.60   14.66
   2   2  -7  727.87   15.33
   2  -2   7  732.96   15.16
   2  -2  -7  737.56   13.21
  -2  -2  -7  734.94   12.88
   2   2   7  727.63   13.14
  -2   2   7  736.03   13.32
  -2  -2  -8    6.14    1.46
   2  -2  -8    7.09    1.74
   2   2   8    6.03    1.76
   2   2  -8    6.51    2.19
   2  -2   8    5.19    2.07
   2  -2  -8   13.69    2.59
  -2   2   8    5.75    1.50
   2   2  -9   25.62    3.56
   2  -2  -9   27.18    3.08
  -2  -2  -9   27.69    2.88
  -2   2   9   21.85    2.51
   2   2   9   24.77    2.84
   2  -2   9   25.35    3.46
   2  -2  -9   24.66    3.41
   2   2  10   12.02    2.37
   2  -2 -10   10.74    2.61
  -2   2  10   12.07    2.03
   2   2 -10    9.77    2.55
   2  -2 -10   12.19    2.27
   2  -2  10   11.59    3.38
  -2  -2  11  721.47   17.64
   2   2  11  692.61   15.42
   2  -2 -11  706.19   15.93
   2   2 -11  699.29   17.76
   2  -2  11  717.53   17.68
  -2   2  11  701.21   12.93
   2  -2  12   15.97    4.61
  -2  -2  12    7.99    2.98
  -2   2  12    5.59    1.60
   2   2  12    5.52    2.04
   2   2 -12   14.52    3.75
  -2   2 -13 2151.17   19.45
   2   2  13 2177.93   29.21
  -2   2  13 2193.10   22.62
  -2   2  13 2191.61   29.88
   2  -2  13 2210.03   32.94
  -2  -2  13 2247.77   33.47
  -2  -2  14   18.70    5.23
   2   2  14   19.99    4.47
  -2   2  14   11.72    1.68
  -2   2  14   15.68    3.35
  -2   2 -14   16.30    1.84
   2  -2  15   36.58    5.22
   2   2  15   52.92    5.35
  -2   2  15   34.05    4.25
  -2  -2  15   39.35    4.94
  -2   2 -15   39.20    2.47
  -2   2  15   33.96    2.85
  -2   2 -16  129.42    4.08
   2   2  16  138.86    8.42
   2  -2  16  130.86    9.07
  -2   2  16  128.15    8.11
  -2  -2  16  132.19    9.18
   2  -2  17    0.28    2.82
  -2  -2  17   -3.75    3.07
  -2   2  17    0.06    2.18
   2   2  17    0.52    2.05
  -2  -2  18   59.70    6.80
  -2   2  18   52.38    5.94
   2  -2  18   55.57    6.57
   2   2  18   55.71    5.88
   2   2  19  103.76    8.16
  -2   2  19   92.69    7.89
  -2  -2  19  109.97    9.24
   2  -2  19  103.10    8.86
  -2   2  20   -0.06    2.25
   2   2  20    4.69    3.23
   2  -2  20    5.25    3.82
  -2  -2  20    6.53    3.76
   2  -2  21  186.78   12.33
  -2  -2  21  178.16   12.26
  -2   2  21  179.88   11.33
   2   2  21  182.88   11.48
  -2   2  22   95.49    8.72
  -2  -2  22  114.31   10.14
   2   2  22  107.80    9.12
   2  -2  22  107.54    9.85
   2  -2  23    7.18    4.33
   2   2  23    6.74    3.22
  -2   2  23    3.36    2.92
  -2  -2  23    2.86    3.80
   2   2  24    9.06    4.18
  -2  -2  24    3.79    2.84
  -2   2  24   10.58    3.67
   2  -2  24    3.32    2.58
   2  -2  25   -1.33    3.27
  -2   2  25    7.53    3.51
  -2  -2  25    4.28    4.10
   2   2  25   -1.96    2.71
  -2  -2  26   36.25    6.94
  -2   2  26   37.96    6.38
   2  -2  26   30.64    6.21
   2   2  26   28.55    5.54
   2   2  27   86.07    9.38
   2  -2  27   72.85    9.42
  -2  -2  27   65.66    9.21
  -2   2  27   74.38    8.82
  -2  -2  28   21.28    6.27
   2   2  28   17.29    5.31
   2  -2  28   26.23    6.40
  -2   2  28   25.35    5.92
  -2   2  29  103.28   10.80
   2   2  29   99.82   10.69
  -2   2  30   21.85    5.61
   2   2  30   18.82    5.19
   2  -3   0 1169.42   14.98
   2   3   0 1157.79   17.49
   2  -3   0 1184.66   10.38
  -2  -3   0 1129.92   14.94
   2  -3   0 1164.05   15.23
   2  -3   0 1132.09   13.29
  -2  -3   0 1186.96   10.18
  -2  -3   0 1189.27   15.79
  -2  -3   0 1162.27   15.23
  -2   3   0 1167.97   14.91
   2   3   0 1120.76   15.15
  -2  -3   1  660.47   11.82
   2   3   1  643.20    8.79
  -2  -3  -1  649.57   11.74
  -2  -3   1  671.67   11.96
  -2  -3   1  643.71    6.59
  -2   3  -1  662.86   11.64
  -2  -3  -1  667.20   11.93
   2  -3   1  637.61   11.43
  -2   3   1  649.22   11.40
  -2   3   1  641.74   11.85
   2   3  -1  656.47   11.76
  -2  -3   1  662.11   11.11
   2   3   1  656.29   11.33
  -2   3   1  629.77    8.45
   2  -3  -1  644.64    9.63
   2  -3   1  642.92   11.49
   2   3   1  650.17   11.64
   2  -3  -1  651.88   11.48
   2  -3   1  638.24   11.39
  -2  -3  -1  648.09   11.37
  -2  -3   1  630.67   11.72
  -2   3   1  646.85   10.92
   2   3  -1  650.17   11.00
   2   3   1  640.52   13.21
   2  -3   1  659.57    7.38
   2  -3   2   37.29    3.04
  -2  -3  -2   30.80    3.39
   2   3   2   38.57    2.48
  -2  -3   2   37.03    1.45
   2  -3  -2   32.71    2.70
  -2   3  -2   40.41    3.13
   2  -3   2   33.80    2.91
  -2   3   2   35.24    2.31
  -2   3   2   40.01    2.79
  -2  -3  -2   45.49    3.61
  -2  -3  -2   33.80    2.74
   2   3  -2   37.90    2.66
  -2   3   2   34.61    2.96
   2  -3  -2   36.25    2.34
   2   3   2   38.63    3.08
   2   3   2   39.15    2.89
  -2   3   2   32.51    2.30
   2   3  -2   35.25    3.00
  -2  -3  -2   38.42    2.99
  -2   3   2   40.42    3.18
   2   3   2   34.29    3.38
  -2  -3   2   37.49    3.00
  -2  -3   2   34.89    2.97
  -2   3  -3   90.59    4.62
  -2   3   3  106.00    5.02
  -2   3   3   82.26    3.77
   2   3   3   84.35    4.20
   2   3  -3   87.56    4.76
   2   3   3   86.93    3.98
  -2  -3   3   99.66    4.99
   2   3  -3   81.56    4.44
  -2   3  -3   87.15    4.64
   2  -3  -3   87.15    4.58
   2  -3   3   90.33    4.80
   2   3  -3   86.82    4.05
   2  -3  -3   87.63    3.63
  -2  -3   3   90.03    4.72
  -2  -3  -3   88.95    5.05
  -2   3   3   82.64    4.33
   2   3   3   87.58    4.61
  -2   3   3   84.24    3.61
   2  -3  -3   92.57    4.58
  -2  -3  -3   88.41    5.14
   2   3   3   93.39    5.17
  -2  -3  -3   87.10    3.78
  -2  -3  -3   93.01    4.75
  -2   3   4   32.35    2.34
   2   3  -4   29.92    2.93
  -2  -3   4   29.80    2.91
  -2  -3  -4   28.75    3.31
   2  -3  -4   29.44    3.27
   2   3   4   37.35    3.28
   2  -3  -4   50.46    3.42
   2  -3  -4   41.14    3.43
  -2   3  -4   33.36    3.06
  -2   3   4   30.21    2.82
   2  -3   4   38.83    3.41
   2  -3  -4   30.54    2.30
   2   3  -4   30.70    2.67
   2   3   4   34.69    2.94
  -2   3  -4   32.43    3.11
  -2  -3  -4   31.35    2.34
  -2  -3  -4   34.51    3.15
  -2   3   4   30.82    2.63
   2   3   4   35.46    3.36
  -2   3   4   34.28    3.63
   2   3   4   31.56    2.74
   2   3  -4   32.86    3.17
  -2   3   4   30.70    2.92
  -2  -3  -4   33.11    3.20
  -2  -3  -5  246.61    8.24
   2   3   5  250.92    8.23
   2  -3   5  239.78    8.33
  -2  -3  -5  258.21    6.71
   2   3   5  245.55    7.72
   2  -3  -5  247.00    7.69
  -2  -3  -5  251.16    8.99
   2   3  -5  235.49    8.06
   2  -3  -5  236.52    8.59
  -2  -3   5  252.93    8.47
  -2   3  -5  267.34    8.78
  -2   3   5  225.78    7.99
  -2   3   5  244.29    8.21
   2  -3  -5  239.42    6.45
   2   3  -5  242.48    8.37
   2   3   5  241.91    6.60
  -2   3  -5  251.76    8.41
  -2   3   5  241.05    6.48
   2   3  -6  387.45   11.06
   2  -3   6  385.38   11.07
  -2  -3  -6  401.62    8.70
   2  -3  -6  376.84    8.56
   2   3  -6  400.67   10.93
   2  -3  -6  412.04   10.28
   2   3   6  391.32    8.77
   2  -3  -6  396.20   11.32
  -2   3   6  399.64    8.88
  -2   3   6  406.08   10.94
  -2  -3  -6  397.60   11.58
   2   3   6  413.25   10.68
  -2   3   6  392.14   10.35
   2   3   6  394.26   10.82
  -2  -3  -7   17.95    2.05
  -2   3   7   15.43    1.94
   2   3   7   16.72    2.79
   2   3   7   18.15    2.18
   2  -3  -7   15.16    2.54
  -2  -3  -7   20.65    3.59
   2  -3   7   17.73    2.95
   2  -3  -7   19.88    2.33
   2  -3  -7   19.53    2.58
   2   3  -7   17.40    2.97
  -2   3   7   15.44    2.70
  -2   3   7   20.11    2.80
  -2   3  -7   17.79    2.55
   2  -3   8  724.63   16.23
   2   3   8  705.00   12.95
  -2   3   8  721.58   15.87
  -2   3   8  740.23   13.43
   2   3  -8  701.72   16.13
   2  -3  -8  702.06   13.10
   2  -3  -8  682.41   15.92
  -2   3  -8  710.99   13.13
  -2   3   8  703.69   14.14
  -2  -3  -8  715.09   12.84
   2   3   8  713.32   15.70
   2  -3  -9  421.20   12.93
  -2   3   9  402.40   12.46
   2   3  -9  406.85   12.78
   2  -3   9  417.52   13.03
  -2   3   9  424.86   10.83
   2   3   9  409.79   10.45
  -2   3  -9  421.67   10.05
   2   3   9  419.44   12.73
   2  -3  -9  421.84   10.76
  -2  -3  -9  435.52   10.56
  -2   3   9  406.58   10.82
  -2  -3 -10  192.78    7.42
  -2   3  10  190.61    9.10
  -2   3  10  187.18    7.42
   2   3  10  184.68    7.30
   2  -3 -10  190.18    9.24
  -2   3 -10  194.67    6.83
   2  -3 -10  180.38    7.52
   2   3 -10  175.09    8.86
   2   3  10  187.51    8.83
   2  -3  10  205.55    9.61
  -2  -3  10  186.70    9.08
   2  -3 -11  501.88   15.09
   2  -3  11  497.88   14.99
  -2   3  11  460.02   11.69
  -2  -3  11  493.05   14.97
   2   3 -11  479.74   14.96
  -2   3 -11  468.69   10.63
   2   3  11  475.85   14.56
   2   3  11  492.90   12.44
  -2  -3  12    9.29    3.01
  -2   3  12    5.01    1.41
   2  -3  12    5.49    3.04
   2   3 -12    6.45    2.73
   2   3  12    8.18    2.16
  -2   3 -12    8.32    1.72
   2  -3 -12    8.88    2.98
   2   3  13  127.36    6.98
   2  -3  13  137.53    8.59
  -2   3 -13  122.89    5.31
  -2   3  13  133.59    7.25
  -2   3  13  130.10    6.23
  -2  -3  13  146.71    8.90
  -2   3 -14   10.39    1.55
   2   3  14   14.56    2.77
  -2  -3  14   14.53    3.48
   2  -3  14   17.16    4.10
  -2   3  14    8.34    2.27
   2   3  15  105.87    6.89
  -2   3  15  110.89    7.25
  -2   3 -15  119.43    4.87
   2  -3  15  108.60    8.32
  -2  -3  15   96.71    8.10
  -2  -3  16   -1.99    2.39
  -2   3  16    3.77    2.06
   2   3  16    5.00    2.49
   2  -3  16    8.45    4.43
   2   3  17  471.01   15.46
   2  -3  17  445.37   17.23
  -2  -3  17  471.16   17.89
  -2   3  17  457.16   15.43
  -2  -3  18  188.18   12.14
   2  -3  18  193.03   12.07
  -2   3  18  192.75   10.63
   2   3  18  189.40   10.46
   2   3  19  379.19   14.74
   2  -3  19  339.12   16.16
  -2  -3  19  366.91   16.79
  -2   3  19  336.70   14.30
  -2  -3  20   73.60    8.20
   2   3  20   86.75    7.67
  -2   3  20   71.82    7.18
   2  -3  20   74.21    8.16
   2  -3  21    5.10    4.01
  -2   3  21    7.65    3.20
  -2  -3  21    2.20    3.11
   2   3  21    0.65    2.15
   2   3  22  119.68    9.22
  -2  -3  22  117.06   10.29
   2  -3  22  117.91   10.57
  -2   3  22  132.46    9.88
  -2  -3  23    6.55    3.64
  -2   3  23   -4.23    3.05
   2  -3  23    3.53    4.14
   2   3  23    1.32    2.32
  -2   3  24   34.73    5.54
  -2  -3  24   41.44    6.95
   2  -3  24   42.11    6.97
   2   3  24   49.74    6.71
  -2   3  25  345.47   17.24
  -2  -3  25  326.77   18.60
   2  -3  25  334.55   18.68
   2   3  25  345.90   17.05
  -2   3  26    5.76    4.08
  -2  -3  26   17.73    6.05
   2   3  26    6.63    3.46
   2  -3  26    9.67    4.15
   2   3  27   15.60    4.36
  -2   3  27   27.74    5.68
   2  -3  27   25.27    6.17
   2   3  28   92.29    9.80
  -2   3  28   81.94    9.54
  -2   3  29  301.61   17.78
   2   3  29  284.45   17.31
  -2   3  30   89.74   10.28
   2   4   0    1.57    1.26
  -2  -4   0    3.83    0.97
   2   4   0    2.02    1.49
   2  -4   0    2.12    0.94
   2  -4   0    4.68    1.27
  -2   4   0    2.93    1.13
  -2  -4   0    2.85    1.23
   2  -4   0    3.22    1.37
  -2  -4   0    3.25    1.13
   2   4   0    4.31    1.34
  -2  -4   0    3.46    1.56
  -2   4   0    2.74    1.38
   2  -4   0    3.99    1.17
  -2   4   0    4.73    2.05
  -2  -4   1    9.44    1.85
  -2  -4  -1    9.54    1.89
  -2  -4  -1    7.33    1.38
  -2   4  -1    6.80    1.42
  -2  -4   1    4.94    1.42
  -2  -4   1    6.61    1.01
   2  -4  -1    8.25    1.41
   2   4  -1    6.69    1.88
   2  -4   1    5.39    1.33
  -2   4   1    4.46    1.51
   2   4  -1    6.24    1.78
  -2   4   1    8.17    1.48
  -2  -4  -1    8.18    1.69
  -2   4   1   10.28    2.35
  -2   4  -1    7.24    2.47
  -2  -4  -1    8.22    1.43
   2  -4   1    7.82    1.65
   2  -4   1    4.71    1.34
   2   4   1    3.94    1.26
  -2  -4   1    7.57    1.55
  -2  -4   1    7.75    1.96
   2   4  -1    8.48    1.74
   2  -4  -1    7.18    1.19
   2  -4   1    5.51    1.20
  -2  -4  -1    2.98    2.01
   2  -4  -1    9.17    1.79
  -2   4   1    9.69    2.11
   2   4   1   10.18    2.44
   2   4   2  119.98    6.44
   2   4  -2  110.56    5.30
   2   4   2  110.24    4.81
   2   4   2  120.20    4.74
  -2   4  -2  115.32    5.22
  -2   4  -2  116.40    6.18
  -2  -4  -2  119.13    5.83
   2   4  -2  111.61    5.37
  -2   4   2  117.15    5.90
   2  -4   2  121.13    5.94
  -2   4   2  108.95    5.58
  -2  -4   2  116.50    5.33
   2   4  -2  118.41    6.13
   2  -4  -2  113.68    5.68
  -2   4   2  122.61    6.43
  -2   4   2  114.11    4.64
  -2   4   2  118.65    4.69
  -2  -4  -2  118.40    5.00
  -2  -4  -2  117.58    4.74
   2  -4  -2  115.12    3.87
  -2  -4  -2  110.81    6.23
   2  -4  -2  115.64    4.72
   2   4   2  115.87    5.90
  -2  -4   2  114.14    5.81
   2  -4   2  114.77    5.42
  -2  -4  -2  117.30    5.81
   2  -4   3  116.59    3.02
  -2   4   3  113.78    3.95
  -2   4   3  117.97    5.94
   2   4   3  121.99    5.14
  -2  -4   3  122.52    5.70
   2  -4  -3  116.94    3.92
  -2   4   3  111.87    4.52
   2   4  -3  115.44    5.61
  -2   4   3  109.59    5.71
  -2  -4   3  124.36    6.18
   2   4  -3  117.53    5.55
   2  -4  -3  125.36    5.99
  -2   4  -3  121.91    6.43
  -2   4  -3  124.46    5.70
  -2   4   3  127.47    6.70
   2  -4   3  115.50    5.58
   2   4   3  104.32    4.70
   2  -4   3  126.27    6.15
   2  -4  -3  114.77    5.81
  -2  -4  -3  114.60    4.21
  -2   4   3  113.97    4.89
   2   4   3  109.66    5.78
  -2  -4  -3  116.21    5.94
  -2  -4  -3  122.12    6.67
  -2   4  -4  385.66   11.06
  -2  -4  -4  394.51    7.80
   2  -4   4  408.82   10.91
  -2   4   4  402.03   11.01
  -2   4   4  407.24   11.02
  -2   4   4  397.64    9.67
   2   4  -4  398.11   10.64
   2  -4  -4  399.41    7.40
   2   4  -4  399.32   11.19
   2  -4  -4  425.45   11.42
   2  -4  -4  406.36   10.98
   2   4  -4  397.79   10.07
  -2  -4   4  407.71   10.76
   2   4   4  413.32   10.08
  -2   4  -4  393.70   11.00
   2   4   4  401.43    9.29
  -2   4  -4  422.72   10.95
  -2   4   4  398.64   11.59
  -2   4   4  402.32    7.49
  -2  -4  -4  391.15   11.90
   2   4   4  416.35   11.35
  -2   4   5   24.58    3.52
   2   4  -5   20.35    2.84
  -2   4   5   31.99    2.29
   2   4   5   24.74    2.68
  -2  -4  -5   25.39    3.49
  -2   4   5   24.89    2.64
   2   4   5   21.58    3.04
  -2   4  -5   29.76    3.52
   2  -4  -5   25.49    2.04
   2  -4   5   24.45    2.99
   2   4  -5   24.71    2.85
  -2   4  -5   24.18    3.10
  -2   4   5   24.16    3.22
   2  -4  -5   24.42    3.36
  -2  -4  -5   24.98    2.04
  -2   4   6  826.00   16.85
  -2   4   6  820.16   15.37
   2   4  -6  804.04   16.32
  -2  -4  -6  797.37   11.59
   2   4  -6  789.58   16.72
  -2   4  -6  814.94   16.83
  -2   4   6  803.62   16.47
  -2   4   6  821.04   11.93
   2  -4  -6  789.24   11.71
  -2  -4  -6  815.58   17.80
   2  -4  -6  824.68   17.81
   2   4   6  809.49   16.76
   2  -4   6  794.76   16.42
  -2   4  -6  823.95   15.77
  -2  -4  -7  396.21   12.92
   2  -4  -7  388.88    8.75
   2  -4  -7  415.94   12.93
   2   4   7  392.02   12.16
   2   4  -7  388.06   12.16
  -2   4   7  386.21   11.60
   2  -4   7  405.09   12.21
   2   4   7  384.32    8.63
  -2   4  -7  401.89   11.07
   2   4  -7  395.64   12.03
  -2  -4  -7  389.82    8.56
  -2   4  -7  411.82   12.55
  -2   4   7  392.07   12.13
  -2   4   7  400.36    8.90
   2  -4  -8 1126.72   15.81
  -2  -4  -8 1116.20   21.96
   2  -4  -8 1124.33   21.93
  -2   4  -8 1125.97   18.43
  -2  -4   8 1142.98   20.92
   2   4  -8 1160.66   21.26
   2  -4   8 1135.43   21.14
   2   4   8 1122.70   15.44
  -2   4   8 1158.08   16.00
   2   4   8 1123.92   21.24
  -2   4  -8 1106.35   21.14
   2   4  -8 1130.21   21.40
  -2   4   8 1145.62   21.30
  -2  -4  -8 1128.29   15.33
  -2   4   8 1104.83   19.48
  -2   4   9  223.42    9.91
   2   4  -9  224.32    9.96
  -2  -4  -9  236.48    7.37
   2  -4  -9  228.39   10.24
   2  -4  -9  227.66    7.65
   2  -4   9  234.90   10.06
  -2   4   9  230.55    7.66
  -2  -4   9  232.13    9.85
   2   4   9  224.45    7.37
   2   4   9  224.66    9.80
   2   4  -9  208.80    9.70
  -2   4   9  225.10    8.81
  -2   4  -9  231.40    8.24
   2  -4 -10  395.57   13.80
  -2   4 -10  370.06   10.43
   2   4  10  369.76   13.12
   2   4 -10  372.56   13.00
  -2   4  10  385.41   10.41
   2  -4  10  391.63   13.47
  -2  -4  10  392.60   13.31
  -2  -4 -10  380.69    9.90
  -2   4  10  368.11   11.40
   2   4  10  364.38    9.88
  -2   4  10  363.86   13.00
  -2  -4 -11   -0.09    0.88
  -2   4  11   -0.53    2.42
   2  -4 -11   -2.34    2.02
   2  -4  11    0.75    2.41
   2   4  11   -0.07    1.28
   2   4  11   -0.41    2.03
  -2   4 -11    1.18    1.19
  -2  -4  11    3.98    2.57
  -2   4  11   -0.66    1.91
   2   4 -11    1.39    1.91
  -2   4  12   21.86    3.97
   2  -4 -12   26.01    4.08
   2  -4  12   24.02    3.99
  -2   4  12   20.75    2.90
  -2  -4  12   20.07    3.61
  -2   4 -12   21.92    2.56
   2   4  12   21.58    2.78
  -2   4  12   18.37    2.76
   2   4  12   26.19    4.05
  -2  -4  13    6.32    2.95
  -2   4  13    5.84    1.92
   2   4  13    5.57    2.87
   2  -4 -13    5.54    2.22
   2   4  13    5.30    1.88
  -2   4  13    9.17    3.42
   2  -4  13    6.82    2.54
  -2   4 -13    4.33    1.28
   2  -4  14  148.47    9.58
   2   4  14  145.76    7.51
  -2   4  14  146.76    9.68
   2   4  14  153.13    9.95
  -2  -4  14  160.24    9.96
  -2   4  14  138.42    7.50
   2   4  15  484.36   14.13
   2   4  15  458.93   17.16
   2  -4  15  481.68   17.50
  -2   4  15  502.10   18.04
  -2   4  15  497.87   14.72
  -2  -4  15  486.47   17.65
   2   4  16   84.01    8.15
   2   4  16   81.89    6.16
  -2   4  16   78.40    7.64
   2  -4  16   77.56    7.59
  -2  -4  16   98.05    8.74
  -2   4  16   90.48    6.76
  -2  -4  17   -3.73    3.26
  -2   4  17    1.79    3.52
  -2   4  17    0.28    1.70
   2   4  17   -0.12    1.60
   2  -4  17    0.06    2.52
   2   4  17    4.14    3.93
  -2  -4  18   13.21    3.73
   2  -4  18    1.88    3.32
   2   4  18    8.93    3.34
  -2   4  18    7.40    2.20
   2   4  18   10.41    2.66
  -2   4  18   12.71    3.97
  -2   4  19    0.80    1.89
   2  -4  19    1.20    2.86
  -2  -4  19    0.10    2.60
   2   4  19    1.01    2.20
   2   4  19   -2.69    2.89
  -2   4  19    1.54    3.58
  -2   4  20  229.47   11.90
  -2  -4  20  234.45   14.29
   2   4  20  219.67   11.40
   2  -4  20  205.71   13.03
  -2   4  20  228.95   14.12
   2   4  20  211.18   13.59
  -2  -4  21   20.29    5.47
  -2   4  21   25.11    6.32
   2   4  21   15.92    3.79
   2  -4  21   23.42    5.72
   2   4  21   21.21    5.63
  -2   4  21    8.91    3.09
  -2   4  22   95.60    8.36
   2   4  22   92.51    8.02
  -2  -4  22  101.06    9.99
   2  -4  22   99.70   10.26
   2   4  22   91.50    9.67
  -2   4  22   98.92   10.05
   2   4  23   32.49    5.00
  -2   4  23   24.11    4.35
  -2  -4  23   39.21    6.81
   2  -4  23   35.67    6.73
   2   4  23   30.94    6.28
  -2   4  23   24.08    5.97
   2  -4  24   37.10    6.72
  -2  -4  24   40.11    7.35
  -2   4  24   44.56    6.19
   2   4  24   35.93    5.63
   2   4  24   44.31    7.29
  -2   4  24   35.13    6.67
   2  -4  25   74.41    9.30
   2   4  25   74.97    7.96
   2   4  25   79.35    9.69
  -2   4  25   66.37    9.10
  -2  -4  25   80.98    9.75
  -2   4  25   74.41    8.10
  -2  -4  26    4.07    3.62
  -2   4  26    4.42    4.46
   2  -4  26   -0.44    3.11
  -2   4  26    1.93    2.44
   2   4  26   -3.17    2.24
   2   4  26    1.38    3.65
  -2   4  27   43.30    7.86
  -2   4  27   47.01    6.77
  -2  -4  27   59.32    9.10
   2  -4  27   47.24    7.81
   2   4  27   49.89    8.39
  -2   5   0 4588.37   31.32
   2   5   0 4493.97   38.78
   2   5   0 4508.58   31.98
  -2   5   0 4473.71   40.34
  -2   5   0 4615.92   41.79
   2   5   0 4552.47   40.87
   2  -5   0 4321.34   31.49
  -2  -5   0 4629.96   32.39
   2  -5   0 4598.06   26.28
  -2  -5   0 4502.43   29.40
   2  -5   0 4575.07   30.93
  -2  -5   1   12.66    1.96
  -2   5   1   14.15    1.85
  -2  -5  -1   14.98    3.36
  -2   5   1   12.64    2.69
   2  -5   1   10.98    1.71
  -2   5   1   52.03    6.30
   2  -5   1    9.33    1.81
  -2  -5  -1    9.85    1.60
  -2   5  -1   54.24    6.27
   2  -5  -1   10.78    1.90
  -2   5  -1   16.77    2.14
   2   5  -1   16.83    3.05
   2  -5  -1   14.07    1.41
  -2  -5  -1   11.44    1.64
   2   5  -1   12.87    2.10
   2   5  -1   13.69    2.63
  -2   5  -1   15.81    3.01
   2   5   1   11.06    2.55
  -2  -5   1   10.44    1.52
   2   5   1   12.85    1.92
   2  -5   2  158.50    4.90
  -2  -5  -2  151.05    5.98
   2  -5  -2  156.93    6.24
  -2  -5  -2  145.54    7.84
   2   5  -2  153.07    6.35
  -2   5   2  164.06    8.06
   2   5  -2  153.68    7.14
   2   5   2  148.42    5.73
  -2   5  -2  160.85    6.44
  -2  -5   2  164.00    6.56
   2  -5  -2  150.34    4.19
  -2   5   2  153.44    7.44
  -2   5  -2  161.66    7.85
  -2   5   2  138.61    7.21
   2   5   2  147.00    7.37
   2  -5   2  152.33    6.37
  -2  -5  -2  150.96    5.68
   2   5  -2  148.64    7.46
  -2   5   2  153.61    5.38
   2  -5   3   83.40    3.25
   2  -5   3   79.05    4.90
  -2  -5  -3   83.22    6.07
  -2  -5  -3   82.60    4.74
   2   5  -3   80.27    4.93
  -2   5   3   83.32    5.58
  -2   5  -3   87.86    5.03
   2  -5  -3   82.35    3.01
  -2  -5   3   87.09    4.97
  -2   5   3   81.07    5.76
  -2   5   3   81.79    5.60
  -2   5   3   82.40    4.68
  -2  -5  -3   79.59    3.49
  -2   5  -3   84.29    5.82
   2   5  -3   81.28    5.33
   2   5   3   76.84    5.45
   2  -5  -3   81.43    4.86
   2   5   3   79.77    4.17
  -2   5   3   83.35    3.92
   2   5  -3   84.05    5.63
  -2  -5  -4  147.47    6.62
   2   5   4  143.41    5.58
   2   5   4  148.39    6.53
   2  -5   4  145.78    6.85
   2   5  -4  139.27    6.71
  -2   5   4  148.99    7.45
   2  -5  -4  142.91    4.03
   2   5   4  146.30    7.58
   2   5  -4  135.93    6.84
  -2   5   4  146.27    5.15
  -2   5  -4  149.70    7.59
  -2   5   4  145.15    7.37
  -2   5   4  151.67    7.85
  -2   5   4  140.08    6.36
  -2  -5  -4  143.70    4.50
  -2  -5  -4  149.52    7.97
   2   5   5  454.65   13.36
  -2   5   5  437.03   11.51
  -2   5   5  439.93    7.47
   2  -5   5  436.73   12.11
  -2  -5  -5  443.03    7.85
   2   5  -5  429.28   13.09
  -2   5  -5  412.33   12.77
   2  -5  -5  426.82    7.27
  -2   5   5  425.19   13.04
   2   5  -5  456.70   12.29
   2  -5  -5  456.83   13.87
   2   5   5  430.29    9.82
  -2   5  -5  420.92   12.63
  -2   5   5  447.60    9.03
  -2   5   5  407.21   12.58
  -2  -5  -5  421.10   13.57
   2   5  -5  434.81   11.96
  -2   5   6   65.70    5.47
   2  -5   6   59.43    4.85
  -2   5   6   69.30    5.62
  -2  -5  -6   59.63    5.41
   2  -5  -6   57.82    5.20
   2   5  -6   64.99    4.97
   2   5   6   61.46    5.17
  -2   5  -6   64.50    5.32
  -2  -5  -6   62.80    3.06
   2  -5  -6   58.94    2.95
   2   5  -6   70.13    5.55
   2   5   6   59.51    3.82
  -2   5   6   64.00    3.07
  -2   5  -6   64.79    5.17
  -2   5   7  586.76    9.95
   2  -5  -7  567.76   16.23
  -2   5   7  594.32   15.96
   2  -5   7  595.07   15.30
  -2   5   7  595.31   15.48
  -2   5  -7  586.27   14.53
  -2   5  -7  597.48   16.00
  -2  -5   7  597.93   15.05
   2  -5  -7  588.10    9.91
   2   5   7  577.36   15.97
   2   5  -7  576.51   15.84
   2   5  -7  596.77   15.19
  -2  -5  -7  583.94    9.71
  -2  -5  -7  574.81   16.40
   2   5   7  581.44   12.35
   2  -5  -8 2103.51   31.74
  -2  -5  -8 2037.72   31.45
  -2   5  -8 2047.60   27.17
   2   5  -8 2066.09   29.09
  -2   5  -8 2039.94   30.62
  -2   5   8 2045.67   20.19
   2   5  -8 2031.40   30.68
  -2  -5  -8 2105.00   19.30
  -2  -5   8 2043.12   29.01
  -2   5   8 2045.94   30.58
   2   5   8 2048.38   30.50
   2  -5   8 2050.04   29.29
  -2   5   8 2072.89   29.13
  -2   5   9   -0.69    1.78
  -2  -5  -9    2.04    0.82
  -2   5  -9    1.15    1.51
   2   5  -9    1.10    2.03
   2   5  -9    3.20    2.29
  -2   5  -9   -0.65    2.18
  -2  -5   9    2.35    2.48
  -2  -5  -9    4.78    3.40
   2   5   9   -0.28    2.16
  -2   5   9    0.57    1.00
   2  -5  -9    3.15    2.88
  -2   5  -9    0.99    0.38
   2   5   9    1.07    0.94
   2  -5   9    5.57    2.76
  -2   5   9    0.48    2.28
   2  -5 -10  343.44   13.71
  -2  -5 -10  344.00    8.82
   2  -5  10  346.03   13.06
   2   5 -10  338.59   12.76
  -2   5  10  349.42    9.41
  -2   5 -10  353.32   13.62
  -2  -5  10  345.78   12.91
   2   5 -10  330.44   13.20
  -2   5 -10  346.48   11.10
  -2   5  10  352.43   12.16
   2   5  10  349.80   13.48
   2   5  10  342.16    8.94
  -2   5  10  345.14   13.41
  -2   5 -10  328.35    5.54
   2  -5 -11  134.18    8.84
  -2   5  11  132.87    8.65
   2  -5  11  143.77    8.91
   2   5 -11  128.05    8.31
  -2   5 -11  135.42    6.87
  -2  -5 -11  144.18    6.06
  -2   5  11  138.91    6.31
   2   5 -11  134.21    8.73
  -2   5 -11  132.25    8.77
  -2  -5  11  128.90    8.28
   2   5  11  134.17    8.67
   2   5  11  133.94    5.94
   2  -5  12   28.62    4.68
  -2  -5 -12   33.71    3.18
   2  -5 -12   29.65    4.84
   2   5  12   28.31    3.12
   2   5 -12   21.65    4.03
  -2   5  12   28.24    3.05
   2   5  12   25.58    4.38
  -2   5  12   27.59    4.29
  -2  -5  12   33.23    4.85
  -2  -5  13  119.98    8.67
   2  -5 -13  133.21    9.41
  -2   5  13  119.75    6.52
  -2   5  13  110.57    8.59
   2   5 -13  112.20    8.51
   2   5  13  118.72    8.85
   2  -5  13  134.51    9.41
   2   5  13  112.50    6.08
   2   5  14  786.16   16.63
  -2   5  14  783.72   17.19
   2  -5  14  810.58   22.51
   2   5  14  799.25   22.64
   2  -5 -14  812.65   23.16
  -2  -5  14  835.86   22.82
  -2   5  14  785.44   22.63
  -2  -5  15  259.84   13.38
   2   5  15  259.57   10.01
  -2   5  15  272.81   10.64
  -2   5  15  257.49   13.45
   2  -5  15  277.77   13.73
   2   5  15  266.94   13.61
  -2  -5  16   16.59    4.33
   2   5  16   13.20    2.78
   2  -5  16   24.76    5.08
   2   5  16    9.56    4.07
  -2   5  16   18.96    4.68
  -2   5  16   14.18    3.09
  -2   5  17   34.03    4.18
  -2   5  17   35.71    5.90
  -2  -5  17   40.32    5.81
   2   5  17   37.34    4.35
   2  -5  17   38.15    5.77
   2   5  17   32.72    5.89
  -2  -5  18  180.55   12.16
  -2   5  18  162.71    9.18
   2  -5  18  171.66   11.67
   2   5  18  174.87    9.31
  -2   5  18  158.10   11.64
   2   5  18  155.55   11.49
  -2   5  19  240.31   14.42
  -2   5  19  235.79   11.36
  -2  -5  19  251.62   14.48
   2  -5  19  235.48   14.14
   2   5  19  247.54   11.44
   2   5  19  240.61   14.26
  -2  -5  20   74.96    8.33
  -2   5  20   71.16    6.69
   2  -5  20   68.88    8.20
   2   5  20   75.56    6.62
   2   5  20   69.33    8.04
  -2   5  20   67.78    8.24
  -2  -5  21   14.66    4.75
   2   5  21   14.31    3.44
  -2   5  21   16.73    3.78
  -2   5  21   12.88    5.34
   2  -5  21   20.17    5.56
   2   5  21    7.02    4.33
  -2   5  22  325.66   14.67
   2   5  22  310.04   13.94
  -2  -5  22  295.61   17.01
   2  -5  22  327.31   17.76
  -2   5  22  301.19   17.51
   2   5  22  335.34   18.39
  -2   5  23    0.28    4.43
   2  -5  23   12.11    5.30
  -2  -5  23    4.90    4.78
   2   5  23   -1.40    2.00
  -2   5  23    6.34    3.42
   2   5  23    0.57    3.94
  -2  -5  24   69.99    9.36
  -2   5  24   47.35    8.01
   2  -5  24   50.24    7.97
   2   5  24   41.11    7.00
  -2   5  25    4.80    4.46
   2   5  25    2.45    3.55
  -2  -5  25    5.36    4.40
   2  -5  25    0.19    2.63
   2  -5  26  128.46   12.49
   2   5  26  134.53   13.14
  -2   5  26  127.78   12.62
  -2  -5  26  123.18   12.37
   2   6   0  797.36   18.40
  -2  -6   0  807.73   14.05
   2  -6   0  785.10   13.70
   2   6   0  814.11   18.27
  -2   6   0  774.04   18.50
   2   6   0  816.72   13.93
  -2   6   0  815.10   13.69
  -2   6   0  791.32   18.66
   2  -6   0  803.90   10.89
   2  -6   0  807.86   14.85
  -2  -6   0  807.67   13.98
   2   6   1   28.50    3.86
   2  -6   1   26.21    2.74
  -2  -6  -1   23.82    3.70
  -2  -6   1   25.60    2.50
  -2  -6  -1   28.22    2.56
  -2  -6  -1   28.41    2.81
  -2   6   1   26.08    3.73
  -2   6  -1   28.53    3.92
  -2   6   1   27.42    2.51
   2   6  -1   25.21    2.72
  -2  -6   1   25.98    2.67
  -2   6   1   28.75    4.37
   2   6  -1   26.89    3.42
   2   6   1   26.94    2.57
   2  -6  -1   22.84    2.65
  -2   6  -1   38.22    3.17
   2  -6  -1   28.20    1.87
  -2   6  -1   25.86    3.97
   2   6  -1   34.57    4.10
   2  -6   1   25.23    2.76
   2  -6   2   22.52    2.25
  -2   6  -2   19.44    3.13
  -2  -6  -2   25.53    2.43
   2  -6   2   20.05    2.55
   2   6  -2   21.99    3.33
   2  -6  -2   25.68    2.99
  -2   6   2   24.09    2.23
  -2   6  -2   24.45    2.70
  -2  -6   2   24.16    2.63
   2   6  -2   22.95    2.76
   2  -6  -2   22.39    1.53
   2   6  -2   23.44    3.31
  -2   6  -2   22.00    3.61
  -2   6   2   20.23    3.20
  -2   6   2   22.82    3.33
   2  -6   2   24.18    2.83
  -2   6   2   26.66    3.66
   2   6   2   24.21    2.42
  -2  -6  -2   24.57    2.83
  -2  -6  -2   21.13    3.54
   2  -6   3   59.93    3.31
   2  -6   3   59.15    4.34
  -2   6   3   51.41    4.90
   2  -6  -3   61.26    4.59
  -2  -6   3   58.93    4.31
   2   6   3   55.03    5.11
   2   6  -3   57.13    4.19
  -2   6   3   59.47    5.25
  -2   6  -3   64.09    5.33
  -2  -6  -3   57.80    2.87
   2   6  -3   58.33    4.97
  -2   6   3   58.61    3.32
  -2   6   3   55.54    5.18
   2   6   3   64.03    3.80
   2  -6  -3   57.66    2.20
   2   6  -3   53.20    4.85
  -2  -6  -3   58.72    5.51
  -2  -6  -3   57.83    4.38
   2   6  -4  318.35   11.50
  -2  -6  -4  307.53    6.27
   2  -6  -4  323.55   10.58
  -2   6   4  332.19    7.62
   2   6  -4  328.37   10.31
  -2  -6  -4  322.92   10.31
   2  -6  -4  286.80    4.73
  -2   6   4  313.49   11.95
  -2   6   4  318.37   12.22
  -2   6   4  319.98   12.01
   2   6   4  311.72    8.28
  -2  -6   4  302.68    9.68
  -2   6  -4  308.57   11.65
   2  -6   4  322.76   10.48
  -2  -6  -4  310.30   12.30
   2   6   4  327.95   12.25
   2   6  -4  312.25   11.26
   2  -6   5  160.40    7.83
   2  -6  -5  156.08    8.84
  -2  -6  -5  149.74    8.55
   2   6  -5  148.26    7.26
  -2   6   5  151.11    8.42
   2  -6  -5  142.66    3.53
  -2  -6  -5  144.01    7.35
   2   6  -5  149.63    7.98
   2   6  -5  143.91    7.87
  -2   6  -5  151.79    8.20
  -2  -6   5  146.77    7.08
  -2   6   5  163.80    8.77
   2   6   5  147.61    8.39
  -2  -6  -5  149.30    4.17
  -2   6   5  148.14    8.32
  -2   6   5  156.01    5.18
   2   6   5  140.13    5.66
  -2   6   6   13.04    1.23
   2  -6   6    8.74    2.28
  -2  -6  -6   13.49    3.23
   2  -6  -6   13.51    3.19
  -2  -6   6   13.19    2.50
   2   6  -6   14.27    2.76
   2   6  -6    9.09    2.29
   2   6   6   13.18    1.95
  -2  -6  -6   13.76    1.32
   2   6   6   13.41    2.96
   2   6  -6   12.40    2.81
  -2   6   6   13.39    3.19
  -2   6  -6    7.62    2.06
  -2   6   6   15.86    1.75
  -2   6   6    7.75    2.38
  -2   6  -6   16.71    3.08
   2   6   7  224.16    7.55
  -2   6  -7  226.59    9.88
  -2  -6  -7  224.54   11.06
   2  -6  -7  210.83   10.60
   2   6  -7  219.86   10.56
   2  -6   7  226.14    9.80
   2   6  -7  226.84    9.75
  -2  -6   7  242.28    9.88
   2   6   7  223.33   10.70
  -2   6  -7  224.77   10.73
   2   6  -7  226.14    9.91
  -2   6   7  234.97    6.57
  -2   6   7  228.52    5.46
  -2   6   7  222.91   10.34
  -2   6   7  230.86   10.73
  -2  -6  -7  225.40    5.34
  -2  -6  -8   10.10    1.29
   2   6   8    8.27    2.63
   2   6  -8    6.60    2.55
   2   6  -8    6.43    2.46
  -2   6  -8    6.25    2.57
  -2  -6   8    5.81    2.29
  -2   6  -8    5.47    1.99
   2  -6  -8   10.18    3.05
  -2   6   8    9.16    1.31
  -2  -6  -8    8.62    3.37
   2   6   8    9.68    1.83
  -2   6   8    3.62    2.42
   2  -6   8    8.82    2.60
   2  -6  -9   18.89    3.60
  -2  -6  -9   26.31    2.09
  -2   6   9   20.11    3.76
   2   6   9   19.74    3.60
   2  -6   9   26.75    3.92
   2   6  -9   28.00    4.01
  -2  -6  -9   30.93    5.04
  -2   6  -9   16.63    3.35
   2   6   9   23.73    2.86
   2   6  -9   20.95    3.81
  -2   6   9   21.50    2.11
  -2  -6   9   20.38    3.62
  -2   6 -10   65.30    6.37
  -2  -6 -10   61.16    3.39
  -2  -6 -10   59.88    6.79
   2  -6 -10   61.22    6.58
  -2  -6  10   61.80    6.04
   2  -6  10   69.72    6.37
  -2   6  10   63.05    6.50
  -2   6  10   66.84    3.85
   2   6 -10   58.78    6.16
   2   6  10   66.40    6.65
  -2   6 -11  720.24    9.09
  -2  -6 -11  794.00   12.97
   2   6  11  742.29   21.17
   2  -6 -11  757.59   21.74
  -2   6  11  776.73   14.09
   2  -6  11  765.93   20.57
  -2   6  11  764.75   13.83
  -2   6 -11  761.86   21.43
   2   6 -11  755.00   21.51
   2   6  11  761.95   12.82
  -2   6  11  777.16   21.59
  -2  -6  11  780.39   20.57
  -2   6 -12  255.64    5.80
   2  -6 -12  256.81   13.13
  -2   6  12  261.41   12.98
  -2  -6  12  279.06   12.85
   2   6 -12  239.49   12.56
  -2   6  12  250.71    8.49
   2  -6  12  265.36   12.76
  -2   6  12  264.13    8.59
   2   6  12  266.33   12.85
  -2  -6 -12  262.34    7.97
   2   6  12  269.12    8.16
  -2   6 -12  261.94   12.98
  -2  -6  13  189.89   11.17
   2   6  13  182.87    7.16
  -2   6 -13  178.61   11.11
   2  -6  13  181.53   10.82
  -2   6  13  177.80   11.01
   2   6  13  176.39   11.04
  -2   6  13  178.14    7.57
   2   6 -13  171.11   10.89
   2  -6 -13  181.50   11.36
  -2   6  14  425.05   17.25
   2  -6 -14  440.84   17.80
   2  -6  14  442.84   17.06
  -2   6 -14  429.26   17.29
  -2   6  14  402.55   11.79
   2   6 -14  389.87   16.81
   2   6  14  411.32   11.31
   2   6  14  419.88   17.27
  -2  -6  14  420.03   16.76
   2   6 -15  221.07   12.94
  -2   6 -15  197.28   12.33
   2  -6  15  211.29   12.40
   2   6  15  200.89    8.31
  -2   6  15  189.98   12.14
  -2  -6  15  201.29   12.01
   2  -6 -15  201.53   12.58
   2   6  15  186.88   11.95
  -2   6  15  209.38    8.88
  -2  -6  16  274.81   14.12
  -2   6  16  259.05   14.42
   2   6  16  280.23   14.86
  -2   6 -16  277.80   14.83
  -2   6  16  281.56   10.67
   2   6 -16  277.12   14.72
   2  -6  16  279.59   14.55
   2   6  16  275.37   10.16
  -2   6 -17   -1.01    3.12
   2   6 -17    0.72    2.90
  -2   6  17    0.79    1.52
   2  -6  17    2.81    2.84
  -2  -6  17    1.48    2.51
   2   6  17    2.18    3.00
   2   6  17    6.21    2.17
  -2   6  17    0.59    2.86
  -2   6  18  133.78    7.92
  -2  -6  18  126.69   10.41
   2  -6  18  135.73   10.73
  -2   6  18  111.76    9.96
   2   6  18  133.28   10.60
   2   6  18  138.35    7.82
   2   6 -18  107.55    9.85
   2  -6  19   29.35    5.62
  -2   6  19   27.75    4.00
  -2  -6  19   28.52    5.67
  -2   6  19   30.97    5.75
   2   6  19   28.05    5.47
   2  -6  20   11.53    3.84
   2   6  20    2.50    2.97
  -2   6  20    1.08    1.64
  -2  -6  20   10.30    4.76
  -2   6  20    1.78    3.25
   2   6  21   12.28    3.79
  -2  -6  21   17.39    5.27
  -2   6  21   19.97    5.21
   2  -6  21   18.58    5.50
  -2  -6  22  159.05   12.80
   2   6  22  162.08   13.16
   2  -6  22  146.49   12.29
  -2   6  22  150.31   12.86
  -2   6  23   50.19    8.24
  -2  -6  23   54.03    8.38
   2  -6  23   43.79    7.33
   2   6  23   38.58    7.58
  -2  -6  24  235.60   16.48
   2  -6  24  238.17   16.60
  -2   6  24  222.43   16.24
   2   6  24  250.00   17.10
  -2  -6  25    6.26    4.62
   2  -6  25   18.21    6.27
   2   6  25    3.73    4.19
  -2   6  25    5.31    4.17
   2  -7   0   12.36    2.07
   2  -7   0   15.06    1.58
   2   7   0   15.94    2.25
  -2  -7   0   14.52    2.43
  -2   7   0   14.10    2.03
  -2  -7   0   14.70    2.05
  -2  -7   0   17.49    2.40
   2  -7   0   15.09    2.68
   2   7   0   15.31    3.36
  -2   7   0   13.05    3.44
   2  -7   0   13.30    2.26
  -2  -7   0   12.62    3.08
   2  -7  -1 1033.42   18.84
   2  -7   1 1056.71   17.08
  -2  -7  -1 1025.01   18.06
  -2  -7   1 1048.82   17.40
   2  -7  -1  994.28   10.01
   2  -7   1 1014.17   18.37
   2   7  -1 1065.22   22.59
   2  -7   1 1022.50   16.97
   2   7   1 1048.02   15.68
  -2   7   1 1034.65   23.02
  -2  -7   1 1044.60   15.64
  -2   7  -1 1047.43   23.27
  -2  -7   1 1028.05   16.57
  -2  -7  -1 1048.74   23.62
  -2   7   1 1051.73   15.13
   2   7  -1 1051.48   22.32
   2   7  -1 1029.20   16.76
  -2  -7  -1 1059.76   15.72
  -2   7  -1 1072.07   16.89
   2  -7   2  330.74    9.07
   2   7  -2  313.47   12.12
   2  -7  -2  319.65   10.65
  -2  -7  -2  311.71   10.27
  -2  -7   2  312.69    9.42
  -2  -7   2  321.59    9.33
   2   7  -2  309.16   12.22
  -2   7   2  327.54   13.00
   2  -7   2  310.67    9.81
  -2   7  -2  314.63   12.92
   2   7  -2  312.81    9.60
  -2  -7   2  318.62    9.74
  -2  -7  -2  311.12   13.03
  -2   7   2  313.16    7.93
   2   7   2  315.17    8.42
   2  -7   2  321.28   10.31
   2   7   3  863.22   13.64
   2  -7  -3  862.52   17.87
  -2  -7  -3  843.16   21.47
  -2   7  -3  852.15   21.30
   2  -7   3  844.69   16.77
  -2  -7   3  858.89   15.98
   2   7  -3  861.15   16.45
  -2  -7  -3  867.73   10.62
  -2   7   3  838.32   20.88
   2   7  -3  863.34   20.32
  -2   7   3  880.58   12.53
  -2  -7  -3  869.38   17.69
   2   7  -3  879.27   20.25
  -2   7   3  869.88   20.96
   2  -7   3  871.81   14.05
   2   7   3  867.15   21.16
   2   7  -4  202.49    9.73
   2  -7   4  212.93    8.82
   2   7   4  216.80   10.78
  -2  -7  -4  199.54    8.86
   2   7  -4  197.16    8.28
  -2   7   4  205.82   10.39
  -2   7   4  204.49    5.81
   2   7  -4  203.96    9.88
  -2   7   4  197.90   10.39
  -2  -7   4  208.47    8.40
  -2  -7  -4  215.50   10.93
   2   7   4  211.37    6.71
   2  -7  -4  220.10    9.35
  -2  -7  -4  202.30    4.62
   2   7  -5  276.86   11.32
  -2  -7  -5  258.26   12.15
  -2  -7   5  279.90   10.19
  -2  -7  -5  279.84   10.74
   2  -7  -5  277.05   12.29
  -2   7   5  269.18    6.55
   2   7  -5  285.52   10.24
  -2  -7  -5  258.95    4.61
   2   7  -5  270.51   11.52
  -2   7   5  266.40   12.09
   2   7   5  269.22    7.72
   2  -7   5  282.19   10.55
  -2   7   5  266.96   12.10
   2   7   5  264.97   12.18
   2  -7   6  390.69   12.87
  -2  -7  -6  401.66   13.28
  -2  -7   6  405.97   12.79
   2   7  -6  391.73   12.51
   2   7   6  389.49   14.91
  -2   7   6  384.73   14.71
   2   7  -6  382.57   13.86
   2  -7  -6  397.15   15.20
  -2   7   6  390.45    7.86
  -2  -7  -6  373.28    5.10
  -2  -7  -6  401.29   15.39
   2   7   6  395.27    9.52
   2   7  -6  402.73   13.67
   2   7  -7 1059.02   22.32
  -2  -7  -7 1069.16   25.07
  -2  -7  -7 1070.47   22.16
   2  -7  -7 1040.88   24.76
   2   7  -7 1027.17   21.04
   2   7  -7 1035.92   22.67
  -2  -7   7 1066.38   21.31
   2  -7   7 1056.38   21.81
   2   7   7 1065.65   24.90
  -2   7  -7 1040.87   24.31
  -2   7   7 1039.00   24.40
   2   7   7 1031.89   15.71
  -2   7   7 1046.39   12.87
   2  -7   8  201.08   10.10
   2   7  -8  189.68    9.98
   2   7  -8  194.97    9.48
   2   7   8  189.66   10.87
  -2   7   8  201.19   11.11
   2   7   8  197.91    7.08
   2  -7  -8  199.73   11.17
  -2  -7  -8  189.21    3.95
   2   7  -8  183.50   10.47
  -2   7  -8  182.92   10.50
  -2  -7   8  201.69    9.74
  -2   7   8  186.49    4.26
  -2   7   8  196.88    5.75
  -2  -7  -8  191.98   11.17
   2  -7  -9  166.44   10.46
   2   7   9  172.55    6.87
  -2   7  -9  157.34    9.93
  -2  -7  -9  163.38    4.07
   2  -7   9  166.20    9.55
   2   7  -9  145.31    9.72
  -2  -7  -9  169.37   10.63
  -2   7   9  170.36    5.55
  -2   7   9  167.30    4.72
  -2  -7   9  173.77    9.51
  -2   7   9  174.46   10.56
   2   7   9  175.23   10.56
   2  -7 -10  101.71    8.63
  -2   7 -10  104.58    8.60
   2  -7  10  120.65    9.18
   2   7 -10   98.61    8.60
  -2  -7 -10  129.05    9.99
  -2   7  10  102.47    4.56
  -2   7  10  103.61    8.93
   2   7  10  101.98    8.62
   2   7  10  104.83    5.72
  -2  -7  10  111.15    8.01
  -2   7  11 2887.35   25.06
   2   7 -11 2839.21   43.43
  -2   7  11 2814.93   43.41
   2  -7 -11 2799.42   43.77
   2  -7  11 2896.34   40.69
  -2   7 -11 2818.74   43.40
  -2  -7  11 2899.41   40.50
   2   7  11 2843.27   43.67
   2   7  11 2799.55   30.47
   2   7 -12  646.44   21.42
   2  -7 -12  661.53   21.70
   2   7  12  647.79   21.34
   2  -7  12  665.55   20.32
  -2  -7  12  670.76   20.44
  -2   7 -12  650.98   21.35
  -2   7  12  659.87   21.59
  -2   7  12  675.10   12.79
   2  -7 -13  230.54   13.19
  -2  -7  13  243.73   12.86
  -2   7  13  246.32    8.23
  -2   7  13  220.91   12.77
   2  -7  13  255.79   13.25
  -2   7 -13  241.86   13.37
   2   7 -13  246.49   13.46
   2   7  13  246.14   13.49
   2  -7 -14  185.84   12.22
   2  -7  14  194.12   11.68
  -2   7  14  174.37    7.23
   2   7 -14  171.96   11.52
  -2  -7  14  181.23   11.29
   2   7  14  185.54   11.96
  -2   7  14  177.22   11.85
  -2   7 -14  173.26   11.59
   2   7 -15   13.66    3.97
  -2   7  15   20.87    2.69
   2   7  15   18.65    5.06
   2  -7 -15   18.12    4.34
  -2   7 -15   23.46    5.02
   2  -7  15   25.79    5.35
  -2  -7  15   18.62    4.46
  -2   7  15   12.23    3.67
   2  -7 -16  253.58   14.86
  -2   7  16  256.07   14.77
  -2  -7  16  241.90   13.80
   2  -7  16  245.23   14.01
   2   7  16  258.88   14.80
   2   7 -16  268.26   15.19
  -2   7 -16  255.48   14.84
  -2  -7  17  297.89   15.73
   2  -7  17  301.59   15.68
   2   7 -17  297.62   16.21
   2   7  17  308.05   16.52
  -2   7 -17  304.40   16.46
  -2   7  17  308.15   16.68
  -2  -7  18  111.81   10.32
   2  -7  18  113.31   10.13
  -2   7 -18  110.10   10.46
   2   7 -18  117.78   10.64
   2   7  18  116.39   10.95
  -2   7  18  108.68   10.43
  -2  -7  19   89.37    9.35
  -2   7 -19  107.50   10.49
   2   7  19   97.23   10.04
  -2   7  19   97.79    9.92
   2  -7  19   89.55    9.34
   2   7 -19   89.72    9.50
  -2   7  20    0.81    3.95
   2   7 -20   -1.02    4.11
  -2  -7  20    8.64    4.81
  -2   7 -20   12.07    4.69
   2   7  20   -1.80    3.11
   2  -7  20    4.83    3.88
   2   7 -21  221.91   15.59
   2  -7  21  210.02   14.61
  -2  -7  21  214.89   14.90
  -2   7 -21  230.69   15.81
   2   7  21  212.98   15.12
  -2   7  21  226.18   15.66
  -2  -7  22    5.60    4.06
   2  -7  22    8.20    4.16
   2   7 -22    8.38    5.13
  -2   7 -22   13.54    5.47
   2   7  22    3.35    3.95
  -2   7  22    8.10    4.65
  -2  -7  23   -1.08    3.79
   2   7 -23    1.19    3.11
  -2   7 -23    4.27    3.47
  -2   7  23    5.74    4.34
   2  -7  23   -1.00    2.93
   2   7  23   -2.80    4.69
   2  -7  24    4.19    3.79
   2   7 -24    7.79    4.70
  -2   7  24    4.41    4.63
  -2  -7  24    3.14    3.29
   2   7  24    5.49    4.81
  -2   7 -24    6.63    4.24
  -2   8   0   27.12    2.69
  -2  -8   0   28.54    2.60
  -2  -8   0   26.72    3.25
   2  -8   0   27.94    1.88
  -2  -8   0   31.35    2.92
   2   8   0   27.18    2.74
  -2  -8   0   20.32    4.00
   2   8   0   24.09    4.19
  -2   8   0   27.40    4.63
   2  -8   0   26.95    3.51
   2  -8   0   24.94    1.80
   2  -8   0   24.72    2.70
   2  -8   1   19.60    2.69
  -2  -8   1   13.77    2.17
  -2   8  -1   12.68    3.18
  -2  -8  -1   13.89    2.58
  -2  -8  -1   18.26    3.98
   2  -8   1   18.63    2.93
   2  -8  -1   14.72    2.81
  -2   8  -1   17.95    2.36
  -2  -8  -1   15.88    1.87
  -2  -8  -1   15.75    2.09
   2  -8   1   14.84    1.69
  -2  -8   1   15.45    2.20
   2   8  -1   16.22    2.39
   2   8   1   14.31    2.06
   2   8  -1   18.25    3.98
  -2   8   1   17.16    3.75
  -2   8   1   14.64    1.89
  -2  -8   1   15.37    2.65
   2  -8   2   48.96    3.95
   2   8  -2   45.96    5.09
  -2  -8  -2   49.40    2.73
  -2  -8  -2   55.01    4.75
   2  -8   2   46.98    4.50
  -2  -8   2   48.81    4.17
   2  -8   2   56.98    3.49
   2   8  -2   55.96    4.27
  -2   8   2   56.51    6.13
   2   8   2   46.47    3.33
  -2   8   2   54.14    3.29
  -2  -8   2   51.19    3.99
   2   8  -2   45.87    5.20
  -2  -8  -2   48.93    5.53
   2  -8   2   51.25    4.31
  -2   8  -2   54.34    6.06
   2  -8  -2   52.08    4.77
   2  -8   3  266.89    8.65
   2   8   3  250.63    7.29
   2   8  -3  262.35    9.28
   2  -8   3  260.06    7.94
  -2   8   3  261.24   12.64
  -2   8  -3  247.11   12.60
  -2  -8  -3  251.82    5.17
   2   8  -3  261.63   12.21
  -2  -8  -3  259.46   10.47
   2   8  -3  250.92   11.61
  -2  -8  -3  244.40    5.22
   2  -8   3  249.65   10.05
   2  -8   3  255.85    9.65
  -2  -8   3  264.71    9.22
  -2   8   3  263.14    6.78
  -2  -8  -3  276.91   13.22
   2  -8  -3  248.99   10.49
   2  -8   4  266.95   10.21
  -2  -8  -4  271.19   10.92
   2  -8  -4  267.97   12.94
   2  -8   4  259.29    8.62
   2   8  -4  268.45    9.83
  -2   8   4  254.37   12.68
   2   8  -4  253.21   12.04
   2   8   4  266.25    7.38
  -2  -8   4  266.82    9.80
  -2   8  -4  267.09   13.06
   2   8  -4  257.23   11.74
  -2   8   4  256.72    6.25
  -2  -8  -4  269.32   13.04
   2   8   4  258.75   12.80
  -2   8   4  275.21   12.90
   2  -8  -4  276.30   11.23
  -2  -8  -5  317.26   12.12
   2  -8  -5  317.47   14.03
   2   8  -5  308.17   10.97
  -2   8   5  322.63   14.19
   2  -8   5  315.53   11.49
  -2   8   5  320.93   14.21
   2   8   5  324.58    8.11
   2   8  -5  333.26   13.18
  -2  -8  -5  322.18   14.40
  -2  -8   5  313.05   11.00
  -2   8   5  314.18    6.48
   2  -8  -5  320.12   12.38
   2   8  -5  312.07   13.44
   2   8   5  319.40   14.19
   2   8  -6    1.78    1.98
  -2  -8  -6    6.21    2.64
  -2  -8   6    7.78    2.58
  -2  -8  -6    1.69    3.02
   2  -8  -6    4.08    2.90
   2   8  -6    6.37    2.31
   2  -8   6    0.66    1.99
   2   8   6    4.56    1.24
   2   8  -6    5.70    2.20
  -2   8   6    1.23    3.19
  -2   8   6    3.66    0.70
   2   8   6   -0.55    2.63
  -2  -8  -7  121.70    8.02
   2   8  -7  106.26    8.16
   2   8   7  111.59    5.00
   2  -8   7  113.72    7.60
   2  -8  -7  107.99    8.65
   2   8   7  115.50    8.85
  -2  -8   7  117.17    7.52
  -2   8   7  116.34    8.82
  -2  -8  -7  107.24    8.76
   2   8  -7  110.82    7.98
   2   8  -8   -0.36    1.92
  -2  -8   8   -1.11    1.89
   2   8   8   -6.40    3.92
   2  -8  -8   -3.95    3.41
   2   8  -8    1.70    2.77
  -2  -8  -8    1.53    3.37
   2  -8   8   -2.19    2.38
  -2   8   8   -0.56    3.16
   2   8  -9  160.40    9.44
  -2  -8  -9  160.64   11.25
   2  -8  -9  165.11   10.97
  -2   8   9  152.29    4.36
   2   8   9  162.95   10.60
  -2   8  -9  136.47    9.67
  -2   8   9  160.89   10.69
   2   8  -9  156.34    9.84
  -2  -8   9  153.51    9.07
   2   8   9  151.61    6.20
   2  -8   9  147.84    9.27
   2  -8 -10  111.30    9.23
  -2   8 -10  101.16    8.70
   2   8 -10   91.39    8.27
   2   8 -10  104.25    7.74
  -2  -8  10  125.58    8.60
   2   8  10  110.47    5.50
   2   8 -10  113.18    8.70
  -2   8  10   94.02    8.45
   2   8  10  107.52    8.84
  -2  -8 -10  107.04    9.43
   2  -8  10  110.53    8.25
   2  -8  11    8.06    3.83
   2  -8 -11    2.27    2.70
  -2   8 -11    0.70    3.17
  -2  -8  11    5.86    3.29
  -2  -8 -11    9.74    4.56
   2   8  11    2.49    1.67
   2   8 -11    2.07    2.94
  -2   8  11    0.68    3.01
   2   8  11   -2.05    3.37
  -2   8  12   40.42    5.85
   2   8  12   43.24    3.88
  -2   8 -12   41.84    5.86
  -2  -8  12   43.82    5.84
   2  -8 -12   33.84    5.55
   2   8  12   32.50    5.34
   2  -8  12   43.78    5.74
   2   8 -12   31.79    5.50
  -2   8  13   12.06    3.96
   2  -8 -13   13.62    3.79
   2   8  13   17.79    2.70
   2   8  13   11.45    3.90
   2   8 -13   12.89    3.93
   2  -8  13   18.62    4.39
  -2  -8  13   20.68    4.42
  -2   8 -13   13.03    4.06
   2   8 -14   46.47    6.71
   2   8  14   39.05    5.94
   2  -8 -14   43.70    6.52
  -2  -8  14   52.04    6.36
  -2   8 -14   44.39    6.48
   2  -8  14   47.59    6.45
  -2   8  14   43.92    6.40
   2  -8 -15  468.90   20.36
   2   8 -15  456.91   20.03
  -2   8 -15  464.85   20.02
   2  -8  15  476.91   19.39
  -2   8  15  506.89   20.90
   2   8  15  484.32   20.38
  -2  -8  15  490.74   19.35
   2  -8 -16    8.85    4.56
  -2   8 -16   -2.91    3.59
   2   8 -16   -4.54    4.20
  -2  -8  16    7.98    4.25
   2  -8  16    7.89    3.93
   2   8  16   -0.82    3.54
  -2   8  16    5.29    3.54
   2  -8  17  179.60   12.70
  -2   8 -17  158.99   12.53
  -2  -8  17  169.68   12.19
   2   8  17  162.29   12.38
  -2   8  17  167.84   12.77
   2   8 -17  155.28   12.30
  -2  -8  18   68.90    8.05
  -2   8 -18   85.92    9.75
   2   8 -18   68.67    8.67
  -2   8  18   54.79    8.05
   2   8  18   74.21    9.39
   2  -8  18   78.29    8.98
  -2  -8  19  158.63   12.39
   2  -8  19  165.67   12.78
  -2   8 -19  136.74   12.09
   2   8 -19  153.70   12.78
   2   8  19  152.62   12.89
  -2   8  19  162.32   13.02
  -2  -8  20    4.86    4.00
   2   8 -20    0.59    2.77
   2   8  20   -0.13    3.31
   2  -8  20    3.44    3.58
  -2   8  20    1.03    3.08
  -2   8 -20    1.29    3.39
   2  -8  21  276.24   17.09
  -2   8 -21  290.53   18.20
   2   8  21  278.60   17.76
  -2   8  21  281.51   17.80
   2   8 -21  291.28   18.15
  -2  -8  21  296.45   17.71
   2  -8  22    4.87    3.44
   2   8 -22   11.27    4.91
  -2   8 -22   13.22    4.90
   2   8  22    8.22    4.46
  -2   8  22    4.35    3.94
  -2  -8  22   10.36    4.09
   2   8 -23   51.58    8.53
  -2  -8  23   56.00    8.39
  -2   8 -23   56.20    8.78
   2   8  23   56.71    8.71
   2  -8  23   56.65    8.42
  -2   8  23   56.18    8.87
  -2  -9   0   31.69    2.70
   2  -9   0   22.37    3.20
  -2  -9   0   30.61    3.75
   2   9   0   27.70    2.75
   2   9   0   23.80    4.84
  -2  -9   0   28.40    4.65
  -2   9   0   28.24    4.75
   2  -9   1  250.33   10.84
  -2  -9  -1  264.82    6.82
  -2  -9  -1  253.70   10.67
  -2  -9   1  246.48   10.16
   2   9  -1  250.59   12.77
  -2   9   1  268.03   13.78
  -2   9  -1  238.16   12.88
  -2  -9   1  263.88    8.22
  -2  -9   1  243.28   12.89
  -2  -9  -1  240.70   12.99
   2  -9   1  253.97    6.15
   2  -9  -1  249.18   11.00
   2  -9   1  257.42    9.05
   2   9   1  259.52    7.78
   2   9  -1  258.19    8.71
   2  -9   2   15.82    2.60
  -2  -9  -2   13.95    3.05
   2  -9  -2   12.69    2.85
  -2  -9   2   12.35    2.62
   2   9  -2   13.51    2.34
   2   9   2   16.25    1.98
  -2  -9  -2   12.14    3.61
   2   9  -2   11.35    2.99
  -2   9   2    8.59    3.08
  -2  -9   2   17.43    2.55
  -2   9  -2   14.65    4.18
  -2  -9  -2   17.53    1.58
   2  -9   2   16.05    2.99
  -2  -9   3  630.69   15.99
   2  -9  -3  632.46   17.83
   2   9  -3  628.53   14.71
   2   9   3  653.42   11.31
  -2  -9   3  638.57   14.60
  -2   9   3  647.18   21.24
   2   9  -3  627.91   20.20
  -2  -9  -3  662.84   21.55
   2  -9   3  636.87   17.41
  -2   9  -3  627.57   20.95
   2   9  -3  664.14   19.66
   2  -9   3  637.97   15.52
  -2  -9  -3  620.31   17.26
  -2  -9  -4  163.67   10.69
   2   9   4  167.55    5.50
  -2  -9  -4  162.10    9.15
  -2  -9   4  157.44    7.78
  -2   9   4  147.02   10.31
   2   9  -4  167.22   10.56
   2  -9   4  163.73    8.23
  -2   9  -4  158.72   10.83
   2  -9  -4  159.94   10.53
   2  -9  -4  150.90    9.13
   2   9  -4  168.01    9.95
   2  -9   4  160.85    8.89
   2   9  -5   13.77    3.25
   2   9  -5   17.48    3.67
  -2  -9  -5   26.78    4.29
  -2  -9  -5    7.09    4.24
   2   9   5   12.74    3.52
   2  -9  -5   25.46    4.52
   2  -9  -5   13.89    3.23
   2  -9   5   22.48    3.46
  -2   9  -5   24.40    5.19
  -2  -9   5   24.43    3.53
   2   9   5   21.77    1.95
  -2   9   5   15.62    3.21
   2  -9  -6  408.34   17.08
  -2  -9  -6  395.52   16.98
   2  -9   6  381.60   13.58
  -2  -9  -6  385.45   14.87
  -2   9  -6  396.73   17.34
  -2  -9   6  394.19   13.28
   2   9  -6  393.16   16.10
   2   9  -6  385.57   15.19
   2   9   6  387.84   16.73
  -2   9   6  377.28   16.46
  -2  -9  -7 1880.68   32.90
   2  -9   7 1840.76   30.95
   2   9   7 1833.20   36.79
   2  -9  -7 1813.31   36.38
   2   9  -7 1793.96   34.25
  -2  -9   7 1799.27   29.41
   2   9  -7 1825.34   32.59
  -2   9   7 1847.97   36.64
  -2  -9  -7 1839.45   36.79
   2   9  -8  690.81   20.05
  -2  -9  -8  718.49   23.33
  -2  -9  -8  755.49   21.46
   2  -9   8  707.67   20.00
   2  -9  -8  723.38   23.48
   2   9   8  705.48   23.15
  -2  -9   8  706.44   19.20
   2   9  -8  723.44   22.02
  -2   9   8  694.53   22.92
   2   9  -9   28.65    4.60
  -2  -9  -9   31.21    5.64
   2  -9  -9   31.74    5.72
  -2  -9   9   31.65    4.81
   2  -9   9   32.77    4.89
   2   9   9   28.28    5.55
   2   9  -9   29.72    4.99
  -2   9   9   28.08    5.48
   2   9 -10  607.39   19.09
  -2   9  10  632.69   22.32
   2  -9 -10  630.49   22.29
   2  -9  10  613.52   19.78
   2   9 -10  608.61   20.72
  -2  -9  10  612.77   19.09
  -2  -9 -10  603.83   22.21
   2   9  10  583.85   21.63
  -2  -9 -11  125.73   10.58
   2  -9 -11  114.39    9.95
   2  -9  11  119.88    9.11
  -2  -9  11  106.09    8.49
   2   9 -11  110.71    8.31
   2   9 -11  118.04    9.43
  -2   9  11  114.63    9.78
   2   9  11  123.50   10.42
  -2   9 -11  112.54    9.72
   2   9 -12    0.89    1.80
   2  -9 -12    3.65    2.89
   2   9 -12    0.27    3.04
  -2  -9  12    6.02    2.90
  -2   9  12   -4.02    4.12
   2   9  12    0.17    3.24
  -2   9 -12   -2.30    3.35
   2   9 -12   -2.75    3.32
   2  -9  12    3.98    2.52
   2   9 -13  292.08   16.15
   2   9 -13  289.94   13.58
  -2  -9  13  293.24   14.53
   2  -9  13  295.82   14.94
   2   9  13  296.75   16.42
   2  -9 -13  307.04   16.62
  -2   9 -13  292.88   15.96
  -2   9  13  301.51   16.16
   2  -9 -14   45.20    6.88
  -2  -9  14   39.14    6.08
   2   9  14   37.95    6.61
  -2   9 -14   37.27    6.23
   2   9 -14   33.36    5.92
   2  -9  14   34.71    5.55
  -2   9  14   37.88    6.37
   2   9 -14   46.75    5.80
   2   9 -15  182.34   13.28
   2  -9 -15  214.97   14.40
  -2  -9  15  210.68   12.99
   2  -9  15  211.86   13.36
  -2   9 -15  198.57   13.78
   2   9  15  201.85   14.06
  -2   9  15  206.14   14.13
  -2  -9  16   95.30    9.41
   2   9 -16   79.78    9.11
   2  -9 -16  106.23   10.52
  -2   9  16   93.52   10.22
   2   9  16   96.63   10.33
   2  -9  16   99.10    9.58
  -2   9 -16   96.48   10.01
  -2  -9  17  526.76   21.80
   2   9  17  498.98   22.87
   2  -9  17  531.54   21.77
  -2   9 -17  519.73   23.18
   2   9 -17  514.49   23.14
  -2   9  17  505.07   23.04
   2   9  18    8.68    3.95
  -2   9  18   11.41    5.20
  -2  -9  18   17.61    4.71
  -2   9 -18   12.27    5.31
   2   9 -18    9.16    4.38
   2  -9  18   18.39    5.45
  -2   9  19   71.67    9.13
  -2   9 -19   72.39    9.43
  -2  -9  19   65.14    8.47
   2  -9  19   58.55    7.74
   2   9  19   55.52    8.65
   2   9 -19   59.18    8.37
   2   9  20    3.73    3.96
   2  -9  20    9.78    4.11
   2   9 -20   -0.10    3.42
  -2   9  20    5.64    4.65
  -2   9 -20    1.19    3.63
  -2  -9  20    2.09    2.92
  -2  -9  21   83.83    9.95
  -2   9 -21   82.92   10.06
   2   9  21   85.80   10.79
  -2   9  21   83.41   10.50
   2   9 -21   82.67   10.19
   2  -9  21   87.02   10.26
   2   9 -22  111.76   12.02
   2  -9  22  106.71   11.46
  -2   9 -22  113.30   12.08
  -2   9  22  120.57   12.73
   2   9  22  127.01   13.00
  -2  -9  22  141.52   13.13
   2 -10   0   91.42    7.08
   2  10   0   99.16    8.79
  -2 -10   0   95.66    7.05
  -2  10   0   92.12    8.53
  -2 -10   0   79.47    8.07
  -2 -10   1   10.39    3.82
  -2 -10   1   12.56    2.97
  -2 -10  -1   10.27    3.55
   2 -10   1    8.91    2.34
  -2 -10  -1   12.20    2.92
   2 -10  -1   17.51    3.68
  -2  10  -1    9.36    3.08
   2  10  -1   11.08    3.59
  -2  10   1    9.41    3.35
   2 -10   1   12.81    2.27
   2 -10   2    1.13    1.56
  -2 -10   2   -2.60    3.47
  -2 -10  -2   -2.06    3.51
  -2 -10  -2    5.43    2.50
  -2 -10   2   -1.99    2.06
   2 -10  -2   -0.31    1.99
   2 -10   2   -2.54    2.34
   2  10  -2   -4.13    3.47
  -2  10   2    0.57    2.59
  -2  10  -2   -0.97    3.01
  -2 -10   2   -0.07    1.23
  -2  10  -3    2.05    3.19
   2 -10   3    2.75    1.98
   2 -10   3    3.60    2.04
  -2 -10   3    5.71    2.31
   2 -10  -3    0.24    3.58
   2 -10  -3    2.72    2.52
  -2 -10   3    6.26    1.59
  -2  10   3    0.58    3.25
   2  10  -3   -1.25    3.20
  -2 -10  -3    3.54    2.00
  -2 -10  -4  104.83    9.13
   2 -10  -4  103.06    8.17
  -2 -10  -4  100.34    7.57
  -2  10   4  107.99    9.37
   2  10  -4   98.80    8.59
   2 -10   4  107.25    7.77
  -2  10  -4  123.81   10.26
   2 -10   4  104.98    6.84
   2 -10  -4  104.21    8.82
  -2 -10   4  113.12    6.57
  -2 -10   5   32.57    3.85
  -2 -10  -5   31.80    4.94
  -2 -10  -5   24.92    4.71
   2 -10  -5   31.19    5.20
   2 -10  -5   32.73    5.10
   2 -10   5   33.45    4.02
   2 -10   5   31.26    4.35
  -2  10  -5   26.31    5.58
   2  10  -5   27.91    5.04
   2  10  -5   33.71    4.95
   2 -10   6  179.94    9.60
   2 -10  -6  169.11   11.65
  -2 -10  -6  171.72   11.99
  -2 -10  -6  189.68   10.85
  -2 -10   6  188.42    9.38
   2  10  -6  169.86   11.55
  -2  10  -6  169.06   12.17
  -2  10   6  175.92   12.07
   2  10  -6  175.53   10.75
   2  10  -7   -0.35    2.14
  -2 -10   7    0.08    1.80
  -2 -10  -7    2.77    2.80
   2 -10  -7    0.32    2.42
  -2 -10  -7    1.13    3.08
   2 -10   7    0.39    2.17
   2  10  -7    0.61    2.41
  -2  10  -7    0.36    3.31
  -2  10   7    0.59    3.27
   2  10   7   -1.64    3.92
  -2  10  -8    8.72    3.74
   2  10  -8    8.26    3.48
  -2 -10  -8   10.59    3.62
  -2 -10   8   15.58    3.77
   2 -10  -8   11.35    4.08
  -2 -10  -8   17.55    5.58
   2 -10   8    9.11    2.86
   2  10  -8   10.56    3.13
  -2  10   8   14.29    4.59
   2  10   8    7.34    3.76
   2  10  -9    1.08    1.93
  -2 -10   9   -1.70    2.64
   2 -10  -9    0.25    2.62
  -2 -10  -9    0.70    3.15
   2  10   9   -1.74    3.32
  -2  10   9    2.36    3.35
   2 -10   9   -0.66    2.17
   2  10  -9    2.25    2.95
   2  10 -10   -0.08    2.00
   2  10 -10   -0.49    2.69
   2 -10 -10   -0.02    2.86
  -2 -10  10   -0.29    2.55
   2  10  10   -3.37    3.75
  -2 -10 -10    3.31    3.30
   2 -10  10   -0.53    2.46
  -2  10  10   -3.61    3.62
  -2 -10  11  193.38   11.61
  -2 -10 -11  183.04   13.33
   2  10  11  182.82   13.06
   2  10 -11  203.36   11.73
   2  10 -11  194.62   12.79
   2 -10 -11  189.87   13.46
  -2  10  11  188.20   13.46
   2 -10  11  197.35   11.78
   2  10 -12   96.51    8.14
   2 -10 -12   98.46    9.70
   2  10 -12   94.61    9.22
   2 -10  12  103.96    8.91
   2  10  12   95.84    9.64
  -2  10  12  101.55   10.11
  -2 -10  12   96.32    8.44
   2  10  13   11.73    4.25
   2  10 -13    5.56    2.44
  -2  10  13    2.26    4.31
   2 -10 -13    8.99    3.90
   2 -10  13   10.12    3.47
   2  10 -13    4.35    3.24
  -2 -10  13    6.37    2.89
  -2  10 -14   33.60    5.82
   2 -10 -14   49.58    7.30
   2  10  14   47.04    7.39
  -2  10  14   45.66    6.91
   2 -10  14   61.43    7.25
  -2 -10  14   50.56    6.71
   2  10 -14   46.60    5.95
   2  10 -14   49.44    7.02
   2  10 -15   92.43    8.06
  -2 -10  15   95.55    9.26
   2 -10 -15   84.74    9.87
  -2  10 -15   77.96    9.09
   2 -10  15   97.58    9.39
   2  10 -15  111.01   10.16
   2  10 -15   87.31    9.59
  -2  10  15   88.25    9.79
   2  10  15   91.41    9.81
   2 -10 -16   49.04    8.11
  -2  10 -16   32.69    6.28
  -2  10  16   36.06    6.40
   2  10 -16   38.87    6.71
   2 -10  16   48.53    7.04
  -2 -10  16   28.44    5.47
   2  10  16   33.67    6.72
   2 -10 -17    9.90    4.79
   2  10 -17   -2.70    3.78
   2 -10  17    1.32    2.74
  -2  10 -17   -2.73    4.12
   2  10  17    0.74    3.55
  -2 -10  17   -0.57    2.91
  -2  10  17   -5.01    4.17
   2  10  18   62.60    8.68
  -2  10 -18   59.49    8.78
   2  10 -18   67.92    9.09
  -2  10  18   58.18    8.65
   2 -10  18   65.48    8.56
  -2 -10  18   67.66    8.39
   2  10 -19   89.43   10.62
   2 -10  19   90.57    9.96
  -2 -10  19   82.96    9.57
  -2  10 -19   97.58   11.04
   2  10  19  109.36   11.71
  -2  10  19   95.59   10.89
  -2  10 -20    7.07    3.91
   2 -10  20   12.60    4.40
   2  10 -20    7.70    3.97
  -2  10  20    5.23    3.51
  -2 -10  20   16.78    5.47
  -2 -10  21   42.02    7.43
   2 -10  21   46.17    8.12
   2 -11   0  413.22   16.10
  -2  11   0  419.77   18.99
  -2 -11   0  397.93   18.34
  -2 -11   0  426.08   15.58
  -2 -11   1   31.45    5.56
  -2 -11  -1   38.24    5.88
  -2 -11  -1   41.40    5.22
  -2 -11   1   38.59    4.73
   2 -11  -1   33.99    4.96
   2  11  -1   40.65    6.32
  -2  11   1   40.60    6.43
  -2  11  -1   46.96    7.04
   2 -11   1   45.43    5.49
  -2 -11   2   -0.53    3.19
   2 -11   2    0.67    2.50
  -2 -11  -2   -0.33    3.88
  -2 -11  -2    0.54    1.70
  -2 -11   2   -1.14    2.42
   2 -11  -2    0.79    2.21
   2 -11  -2   -4.81    4.19
   2  11  -2   -1.89    3.58
  -2  11   2   -0.31    3.38
  -2  11  -2    1.69    2.63
  -2 -11   3   19.50    5.04
   2 -11   3   19.15    4.02
  -2 -11  -3   19.89    5.14
  -2 -11  -3   22.73    4.28
  -2 -11   3   18.36    3.78
   2 -11  -3   11.07    4.05
   2 -11  -3   22.33    4.39
  -2  11  -3   12.41    4.52
   2  11  -3   14.02    4.22
  -2  11   3   18.94    5.41
   2 -11   4 1092.66   25.98
  -2 -11  -4 1148.61   27.14
  -2 -11   4 1134.22   24.40
  -2  11   4 1148.05   31.70
   2 -11  -4 1122.85   30.64
   2  11  -4 1090.36   30.13
  -2  11  -4 1099.90   31.46
   2 -11  -4 1101.86   27.17
  -2 -11  -4 1117.80   31.22
  -2 -11   4 1077.15   30.39
   2 -11   5   32.18    4.55
  -2 -11  -5   35.30    5.35
  -2 -11  -5   35.90    6.06
   2 -11  -5   37.71    6.07
   2 -11  -5   45.78    6.10
   2  11  -5   39.24    6.14
  -2  11  -5   43.21    7.11
   2 -11   6  241.94   11.28
  -2 -11  -6  233.87   12.79
   2 -11  -6  249.05   14.94
  -2  11  -6  270.81   15.97
   2 -11   6  226.24   12.04
   2  11  -6  226.34   13.87
  -2 -11  -6  227.14   14.53
   2 -11   7  324.02   14.37
   2 -11   7  357.86   14.31
   2 -11  -7  331.81   17.32
  -2 -11  -7  333.49   15.49
   2  11  -7  332.30   15.38
   2  11  -7  323.43   16.50
  -2  11  -7  313.96   17.22
  -2 -11  -7  322.09   17.27
  -2 -11   7  370.46   13.96
  -2  11   8   20.49    5.25
   2  11  -8   30.03    4.87
  -2 -11  -8   35.92    5.79
  -2 -11  -8   30.99    6.11
   2  11  -8   29.91    5.53
   2 -11   8   30.22    4.58
  -2  11  -8   29.95    6.33
  -2 -11   8   32.65    4.60
   2 -11  -8   25.35    5.47
   2  11   8   25.54    5.74
   2 -11  -9   80.50    8.90
   2 -11   9   82.41    7.46
  -2 -11  -9   73.39    8.77
   2  11  -9   87.10    9.02
  -2  11  -9   79.24    9.27
   2  11   9   72.32    8.50
  -2  11   9   77.63    9.04
   2  11  -9   79.63    7.76
  -2 -11   9   86.80    7.48
   2  11 -10  429.81   17.32
   2 -11 -10  423.37   20.30
   2  11 -10  427.58   19.49
   2  11  10  426.79   20.54
  -2  11  10  431.27   20.54
  -2  11 -10  431.05   20.64
  -2 -11  10  413.00   16.62
  -2 -11 -10  433.63   20.86
   2 -11  10  424.10   17.10
   2  11 -11    5.98    2.81
   2 -11 -11   12.76    4.83
  -2 -11 -11   13.01    4.83
  -2 -11  11   14.70    4.07
   2  11 -11   12.89    4.37
   2 -11  11    9.82    3.71
  -2  11  11    6.95    3.40
   2  11  11    6.38    3.95
   2 -11  12   89.25    8.49
   2  11 -12  110.42   10.49
   2  11 -12  102.20    8.68
   2 -11 -12   91.14    9.96
  -2  11  12   93.46   10.32
   2  11  12   90.95    9.85
  -2 -11  12   99.67    8.78
   2 -11 -13   66.20    8.73
   2  11  13   59.26    8.43
  -2  11  13   65.20    8.74
   2  11 -13   59.73    7.85
   2 -11  13   65.64    7.59
  -2 -11  13   84.19    8.41
   2 -11 -14  132.88   12.22
   2 -11  14  150.15   11.55
  -2 -11  14  144.86   11.32
   2  11 -14  150.32   12.29
   2  11  14  170.24   13.82
  -2  11  14  160.29   13.41
   2  11 -15   34.33    6.31
   2  11  15   39.05    7.28
  -2  11  15   25.39    6.12
  -2 -11  15   30.27    5.74
   2 -11  15   36.45    6.22
   2 -11 -15   35.27    6.66
   2 -11 -16   82.67   10.21
   2 -11  16   83.05    9.07
   2  11  16   91.77   10.90
  -2  11  16   81.93   10.19
   2  11 -16   81.91    9.45
  -2 -11  16   85.58    9.07
   2 -11 -17   14.15    5.09
  -2 -11  17   13.37    3.91
   2  11  17   19.29    6.37
   2  11 -17   19.53    5.28
   2 -11  17   10.48    4.22
  -2  11 -17    3.53    3.45
  -2  11  17    6.81    4.23
   2  11 -18   60.31    8.70
   2  11 -18   73.02    9.18
  -2 -11  18   72.94    8.97
  -2  11 -18   63.09    9.04
   2 -11  18   57.95    8.55
   2  11  18   71.33    9.91
  -2  11  18   68.12    9.74
  -2 -11  19    3.34    3.18
   2 -11  19    2.39    3.24
   2  11 -19    9.25    4.37
   2 -11  20   15.62    5.16
  -2 -11  20   11.57    4.52
  -2 -12   0  124.52   10.95
   2 -12   0  135.76    9.78
  -2 -12   0  140.54    9.52
  -2  12   0  136.24   11.78
  -2 -12  -1   32.20    4.92
  -2 -12   1   38.48    5.06
   2 -12  -1   34.85    5.35
  -2  12   1   35.14    6.13
  -2  12  -1   42.88    7.15
   2 -12   1   29.41    4.72
  -2 -12  -1   29.73    5.92
   2 -12  -1   37.35    6.24
  -2 -12   1   29.85    5.78
  -2 -12   2   39.49    6.45
  -2 -12   2   36.25    4.94
  -2 -12  -2   35.13    5.23
   2 -12  -2   31.74    5.79
   2  12  -2   34.38    6.05
  -2  12   2   41.75    7.20
  -2  12  -2   32.75    6.55
  -2 -12  -2   27.95    5.56
   2 -12   2   38.12    5.43
   2 -12  -2   36.59    5.70
  -2 -12   3   39.57    6.44
  -2 -12  -3   46.14    6.00
  -2 -12  -3   38.30    6.58
   2 -12  -3   42.06    6.61
   2 -12  -3   40.46    5.87
  -2  12   3   44.65    7.50
   2  12  -3   26.92    5.66
  -2  12  -3   43.26    7.03
   2 -12   3   40.41    5.57
  -2 -12   4   23.07    4.56
  -2 -12  -4   19.29    4.13
   2 -12  -4   23.57    5.14
  -2  12  -4   27.81    6.19
   2  12  -4   21.31    5.09
  -2 -12  -4   21.56    5.16
   2 -12   4   19.06    3.98
   2 -12  -4   28.76    5.22
  -2 -12  -5   15.63    4.94
   2  12  -5   14.03    4.37
   2 -12   5   18.30    4.30
  -2 -12  -5   20.62    4.48
   2 -12  -5   17.56    4.70
  -2  12  -5   16.17    5.27
  -2 -12   5   16.15    4.26
   2 -12  -5   23.57    4.88
   2 -12   6   -1.11    2.31
  -2 -12  -6   -1.66    2.38
   2 -12  -6   -4.26    3.41
  -2 -12  -6    0.29    3.09
  -2  12  -6   -0.47    2.90
   2  12  -6    3.19    2.84
  -2 -12  -7    3.26    3.83
   2 -12   7    2.49    2.25
   2 -12  -7    4.13    3.15
  -2  12  -7    0.72    2.85
   2  12  -7    3.98    3.23
  -2 -12  -7    4.18    2.70
  -2 -12  -8   19.23    4.52
   2 -12  -8   17.41    4.72
  -2  12  -8   23.11    5.92
  -2 -12  -8   19.05    5.38
   2  12  -8   15.45    4.64
   2 -12  -9   53.54    7.81
   2  12  -9   49.54    7.28
  -2  12  -9   58.03    8.06
  -2 -12  -9   57.28    8.29
   2 -12 -10    1.22    2.98
  -2  12  10   -1.97    3.26
  -2 -12 -10   -0.84    3.24
  -2  12 -10    0.47    3.41
   2  12  10   -7.40    4.93
   2  12 -10   -2.11    3.53
   2 -12 -11   61.14    8.30
  -2 -12 -11   71.29    9.30
  -2  12  11   47.18    7.59
   2  12 -11   63.31    8.33
   2  12  11   67.29    9.13
  -2  12 -11   67.32    9.14
  -2  12 -12   19.09    5.46
   2 -12 -12   20.78    5.24
   2 -12  12   20.86    4.74
   2  12 -12   20.03    5.14
   2  12  12   17.05    5.51
  -2  12  12   24.73    5.49
   2 -12 -13    8.20    4.41
   2  12  13   13.77    5.00
  -2  12 -13   11.48    5.22
   2 -12  13    8.91    3.31
   2  12 -13   11.43    4.14
  -2  12  13    0.28    4.55
   2 -12 -14   18.58    5.64
  -2  12 -14    7.18    4.33
   2 -12  14   10.96    3.72
  -2 -12  14    8.13    3.18
   2  12  14    2.62    3.41
   2  12 -14    4.52    3.42
  -2  12  14    8.13    4.03
   2 -12 -15   30.55    6.68
   2 -12  15   30.53    5.85
   2  12 -15   19.07    5.40
  -2 -12  15   21.75    4.83
  -2  12  15   21.03    5.81
   2  12  15   29.18    6.79
  -2 -12  16    7.46    3.59
   2  12 -16    1.26    2.93
   2 -12  16    7.52    3.99
   2 -12  17    1.14    2.85
   2  12 -17   -2.41    2.96
  -2 -12  17   -1.60    2.99
  -2 -12  18   18.90    4.98
   2 -12  18   19.92    5.29
   2  12 -18   22.14    5.65
  -2 -12  19   46.95    7.55
   2 -12  19   40.37    7.09
   2 -13   0  474.06   21.69
   2 -13   0  452.03   18.75
  -2  13   0  442.76   22.15
  -2 -13   0  421.84   20.94
   2 -13  -1   74.91    7.96
   2 -13  -1   86.55    9.65
  -2 -13   1   68.61    8.84
  -2 -13  -1   78.37    9.44
  -2  13   1   80.62    9.85
  -2  13  -1   73.99    9.38
  -2 -13   2    5.95    3.45
  -2 -13  -2   13.61    4.17
   2 -13  -2   15.64    4.97
   2 -13  -2   15.97    4.03
   2  13  -2   14.22    4.59
  -2  13   2   15.23    4.42
  -2  13  -2    9.52    4.45
  -2 -13   3    7.12    3.55
   2 -13  -3    9.70    4.45
   2 -13  -3   13.39    3.90
  -2 -13  -3   10.29    3.07
  -2 -13  -3    9.68    3.75
   2  13  -3   17.55    4.84
  -2  13  -3   13.69    4.93
   2 -13  -4   65.18    7.65
   2  13  -4   69.40    8.85
   2 -13  -4   63.34    8.54
  -2 -13  -4   63.66    8.31
  -2 -13  -4   73.50    7.83
  -2  13  -4   73.66    9.34
  -2 -13   4   54.71    7.59
  -2 -13   5    8.28    3.44
  -2 -13  -5   12.68    3.63
   2 -13  -5    9.03    4.08
  -2 -13  -5   10.30    4.04
   2 -13  -5   12.39    4.08
   2  13  -5    8.18    4.33
  -2  13  -5   16.56    5.45
  -2 -13   6   46.96    7.23
  -2 -13  -6   54.38    7.08
   2 -13  -6   58.01    8.43
  -2 -13  -6   59.35    8.33
   2  13  -6   55.02    8.24
  -2  13  -6   41.48    7.34
  -2 -13  -7  260.05   17.22
  -2 -13  -7  249.55   14.76
   2 -13  -7  268.79   17.19
   2  13  -7  247.05   16.40
  -2  13  -7  275.20   18.00
  -2 -13   7  262.37   16.75
  -2 -13  -8    1.12    3.30
   2 -13  -8    0.28    3.84
   2  13  -8   -1.31    3.32
  -2  13  -8    4.74    3.98
  -2 -13  -8   11.32    4.03
   2 -13  -9   98.94   10.77
   2  13  -9   96.78   10.37
  -2  13  -9   99.56   10.90
  -2 -13  -9  105.21   11.33
  -2 -13 -10   26.28    6.12
   2  13 -10   37.35    6.87
  -2  13 -10   33.17    6.78
   2 -13 -10   28.47    6.43
   2  13 -11  104.92   10.92
  -2 -13 -11  108.45   11.83
  -2  13 -11  104.85   11.45
   2 -13 -11   87.76   10.58
   2  13  12   31.40    7.16
   2 -13 -12   27.76    6.40
  -2  13  12   32.10    6.94
   2  13 -12   34.02    6.76
   2  13 -13   -0.23    2.88
   2  13 -14    2.26    3.72
   2  13 -15   42.62    7.79
   2 -14   0  124.35   11.88
  -2  14   0  119.63   12.48
  -2 -14   0  117.27   11.81
  -2 -14  -1    7.96    3.35
  -2 -14   1    9.98    4.24
   2 -14   1   20.13    6.23
   2 -14  -1   11.58    4.50
  -2  14   1   18.50    5.56
  -2  14  -1   19.86    6.11
  -2 -14   2    1.79    3.09
  -2 -14  -2   -3.18    3.23
   2 -14  -2    6.77    4.20
  -2  14  -2    2.70    3.94
  -2 -14   3   83.85   10.19
  -2 -14  -3   95.91   10.88
  -2  14  -3   84.22   10.41
   2 -14  -3   89.10   10.16
  -2 -14   4   25.89    5.93
   2 -14  -4   29.94    6.30
  -2 -14  -4   20.19    5.22
  -2  14  -4   39.16    7.21
   2  14  -4   34.80    6.78
  -2 -14   5    1.41    2.92
   2 -14  -5   -5.42    3.30
  -2 -14  -5   -0.12    3.41
   2  14  -5    3.44    4.16
  -2  14  -5   -2.60    4.65
  -2 -14   6    3.90    3.85
  -2 -14  -6   -3.83    3.20
   2  14  -6    1.68    2.78
   2 -14  -6   -3.17    2.95
  -2 -14   7   75.77    9.95
   2 -14  -7   75.70    9.75
  -2 -14  -7   83.29   10.40
   2  14  -7   71.46    9.68
   2 -14  -8   26.76    6.15
  -2 -14  -8   24.98    6.25
   2  14  -8   20.30    5.79
  -2 -14   8   22.78    6.06
   2  14  -9   10.89    4.82
  -2 -14   9    7.79    4.07
   2  14 -10    1.58    3.51
   2 -15   0   41.79    7.42
   2 -15  -1   11.04    4.42
   2 -15   1   18.37    5.49
   2 -15   2   19.55    5.02
   2 -15  -2   27.13    6.49
   2 -15   3   85.71   10.19
   3   0   0    6.55    1.78
  -3   0   0    4.94    1.70
   3   0   1    1.45    1.55
   3   0  -1    0.08    1.58
  -3   0   1    0.36    1.26
  -3   0  -1    0.28    1.33
  -3   0  -2 1172.27   12.36
   3   0   2 1172.54   17.61
  -3   0  -2 1205.11   17.67
   3   0  -2 1177.00   17.44
  -3   0   2 1153.70   17.37
   3   0   3    1.12    1.05
  -3   0  -3    0.90    1.41
  -3   0  -3   -0.52    1.12
   3   0  -3    0.99    1.44
  -3   0   3    0.29    1.00
   3   0   3   -2.23    1.87
   3   0   4   21.86    2.82
   3   0  -4   17.94    2.60
   3   0  -4   20.81    2.06
  -3   0   4   20.13    2.61
   3   0   4   21.09    2.02
  -3   0  -4   23.98    2.33
  -3   0  -4   21.94    2.62
   3   0   4   24.78    2.40
   3   0   5    3.03    1.67
   3   0   5    2.48    1.26
   3   0  -5    4.29    1.27
  -3   0  -5    2.28    1.30
   3   0  -5    2.98    1.71
  -3   0   5    4.59    1.61
  -3   0  -6   76.67    4.02
   3   0  -6   70.87    3.84
   3   0  -6   78.63    5.14
   3   0   6   76.95    4.12
   3   0   6   76.82    5.11
  -3   0  -7    1.51    1.13
   3   0  -7   -0.09    1.00
  -3   0   7    1.36    0.84
   3   0   7    1.10    1.04
   3   0   7    1.37    1.75
   3   0  -7    0.17    1.70
   3   0  -8   29.45    2.84
   3   0   8   29.90    3.03
   3   0   8   23.68    3.31
   3   0  -8   23.56    3.30
  -3   0   8   25.05    2.58
  -3   0  -8   31.16    2.80
  -3   0  -9    0.44    0.86
  -3   0   9    0.31    0.95
   3   0   9    3.92    2.03
   3   0  -9   -0.54    2.19
   3   0   9   -0.32    1.87
   3   0  10  204.16    9.24
   3   0 -10  196.18    9.31
   3   0 -11   -1.55    2.49
   3   0  11   -0.67    2.18
   3   0 -12   15.71    3.48
   3   0  12   11.08    2.88
   3   0  13   -1.55    2.32
   3   0 -13   -0.30    2.21
   3   0 -14    7.20    3.22
   3   0  14    0.34    2.27
   3   0 -15   -1.18    2.78
   3   0  15   -2.89    2.82
  -3   0  16   15.09    3.62
   3   0  16   13.67    3.44
   3   0  17    2.77    3.77
  -3   0  17    3.63    2.83
   3   0  18  825.19   23.32
  -3   0  18  817.73   23.39
  -3   0  18  803.16   12.32
   3   0  19   15.41    5.25
  -3   0  19   -1.29    4.07
  -3   0  20   -0.70    2.34
   3   0  20    0.28    2.72
  -3   0  21   -0.67    2.73
   3   0  21   -1.43    2.92
  -3   0  22    6.60    3.85
   3   0  22    6.68    3.39
  -3   0  23    3.96    3.90
   3   0  23   -4.99    3.45
   3   0  24   11.00    4.06
  -3   0  24   16.30    4.91
   3   0  25   -1.87    2.73
  -3   0  25   -0.78    3.04
  -3   0  26   47.00    7.42
   3   0  26   53.91    7.88
   3   0  27    7.31    3.75
  -3   0  27    3.86    4.17
  -3   0  28   -1.26    3.34
   3   0  28   -3.90    4.06
   3  -1   0    1.01    1.53
  -3  -1   0   -0.19    0.94
  -3  -1   0    0.53    0.45
  -3   1   0    1.21    1.34
  -3   1   0   -0.79    1.48
  -3  -1   0    0.10    0.43
   3  -1   1  899.94   15.20
  -3   1   1  922.14    7.68
   3  -1  -1  917.51   14.97
  -3   1   1  954.27   15.29
   3   1   1  920.71   15.63
   3   1  -1  915.53   15.62
  -3  -1  -1  958.85   16.07
  -3  -1   1  958.85   16.02
  -3   1  -1  973.02   16.08
   3  -1   1  906.70    7.37
  -3  -1  -1  907.01    8.26
  -3   1  -2 1945.55   13.26
  -3   1   2 1957.94   22.19
   3   1   2 1901.69   21.33
   3   1   2 1900.33   22.59
  -3  -1   2 2024.03   23.36
  -3   1   2 1943.07   13.31
   3   1  -2 1914.13   23.01
   3   1  -2 1989.82   13.45
  -3   1  -2 2003.78   23.25
  -3   1   2 1942.50   13.14
   3  -1  -2 1924.72   21.82
   3  -1   2 1907.54   22.63
   3  -1   2 1951.42   22.87
   3   1   2 1933.82   13.28
  -3  -1  -2 1995.61   22.52
  -3  -1  -2 1932.64   19.26
  -3  -1  -3 3873.38   27.89
   3   1  -3 3826.42   18.59
   3  -1   3 3809.02   32.94
  -3   1   3 3803.65   18.00
   3   1   3 3850.19   21.31
   3   1  -3 3871.51   33.04
   3   1   3 3834.39   30.06
   3  -1  -3 3830.03   31.35
   3   1  -3 3847.29   21.39
  -3  -1   3 4007.24   33.68
   3   1   3 3797.69   32.82
  -3   1   3 3941.05   31.73
  -3   1   3 3918.54   21.53
  -3  -1  -3 3972.52   32.01
   3  -1   3 3807.44   18.46
  -3   1  -3 3988.79   33.52
   3   1   4   10.51    1.80
   3  -1   4   12.50    2.51
   3   1  -4   10.28    2.35
   3  -1   4    9.69    1.18
   3   1  -4   10.04    1.10
  -3  -1  -4    8.80    1.87
  -3  -1  -4   13.04    2.13
  -3   1   4   10.03    1.98
  -3   1  -4    9.63    1.89
  -3  -1   4   11.94    2.41
   3  -1  -4    8.38    1.98
   3   1   4    8.05    1.99
   3  -1   4    8.34    1.30
   3   1   4   11.19    2.03
   3   1   5  642.12   12.29
   3  -1   5  608.04    9.47
  -3  -1  -5  586.97   11.87
   3   1  -5  607.27    8.79
   3  -1  -5  612.15   11.91
  -3  -1  -5  657.34   13.63
   3  -1  -5  598.31    7.89
   3   1  -5  631.84   14.11
   3   1   5  600.09   13.16
   3  -1  -5  588.54   12.95
  -3   1   5  631.88   13.40
  -3  -1  -5  626.28   12.50
   3  -1   5  614.92   14.02
  -3  -1  -6 2408.36   25.05
   3   1   6 2468.87   25.24
  -3  -1  -6 2383.11   26.93
   3  -1   6 2356.13   28.31
   3  -1  -6 2357.82   24.19
   3   1   6 2387.56   26.74
  -3  -1   6 2385.06   18.91
   3  -1  -6 2408.34   17.14
   3   1  -6 2394.89   28.51
   3  -1  -6 2340.61   26.72
   3  -1   6 2469.72   20.72
  -3   1  -7  374.61    7.90
   3  -1   7  383.08   11.80
   3   1   7  396.06   10.68
   3   1   7  368.88   10.89
   3  -1  -7  390.91   10.25
  -3  -1   7  382.18    8.25
   3   1  -7  360.62   11.41
   3  -1  -7  364.31   11.00
  -3  -1  -7  382.26   10.23
  -3   1  -8 1023.35   13.76
  -3  -1  -8 1055.98   17.54
   3  -1   8 1027.32   20.01
   3  -1  -8 1038.28   17.56
  -3  -1   8 1026.39   14.65
   3   1  -8 1014.86   19.95
   3  -1  -8 1008.85   18.75
  -3   1   8 1049.67   17.48
   3   1   8 1004.64   18.64
   3   1   9  416.56   12.53
  -3   1  -9  422.81    9.27
   3   1  -9  412.27   13.18
   3  -1   9  428.58   13.35
   3  -1  -9  415.90   11.56
  -3  -1   9  428.98   10.09
   3  -1  -9  417.38   12.37
   3   1  10 1173.29   21.45
   3  -1 -10 1138.67   20.04
  -3  -1  10 1165.47   17.71
   3   1 -10 1114.42   22.19
   3  -1 -10 1177.06   21.53
   3  -1  10 1170.04   22.52
   3   1  11    2.32    1.93
   3  -1 -11    2.19    1.99
   3   1 -11    3.85    2.30
   3   1  12 2160.70   30.81
   3  -1  12 2220.34   32.65
   3   1 -12 2182.35   33.04
   3  -1 -12 2119.55   30.93
   3  -1 -13  589.70   17.03
   3   1 -13  607.79   17.97
   3  -1  13  638.67   18.48
   3   1  13  601.33   16.97
   3  -1 -14   35.98    4.59
   3   1  14   40.74    5.21
   3   1 -14   47.75    5.63
   3  -1  14   51.05    6.06
   3   1  15  121.57    8.56
   3  -1  15  143.67   10.25
   3   1 -15  131.39    9.20
   3  -1 -15  127.24    8.68
  -3  -1  15  119.65    8.76
  -3   1  16 1470.88   28.91
   3  -1  16 1414.44   29.52
  -3  -1  16 1477.40   30.19
   3   1  16 1451.35   28.53
  -3   1  16 1425.09   19.01
  -3   1  17  195.79    6.99
   3  -1  17  232.95   12.48
   3   1  17  207.41   11.39
  -3   1  17  198.82   11.21
  -3  -1  17  196.07   11.62
  -3  -1  18    0.37    3.49
  -3   1  18    8.25    3.19
  -3   1  18    8.50    1.46
   3  -1  18    4.89    3.61
   3   1  18    2.94    3.08
   3   1  19   36.80    5.76
   3  -1  19   49.61    6.76
  -3  -1  19   27.95    5.48
  -3   1  19   35.03    5.22
   3   1  20  589.35   20.67
   3  -1  20  632.94   22.11
  -3  -1  20  637.97   22.32
  -3   1  20  623.09   21.27
   3  -1  21   58.49    8.26
  -3  -1  21   48.74    7.21
  -3   1  21   48.20    6.75
   3   1  21   52.40    6.90
  -3  -1  22  223.44   14.22
  -3   1  22  241.58   14.18
   3   1  22  239.52   14.04
   3  -1  22  266.02   15.25
   3   1  23  458.87   19.96
   3  -1  23  517.15   21.64
  -3  -1  23  502.06   21.49
  -3   1  23  487.13   20.41
   3   1  24  136.44   11.75
   3  -1  24  140.19   12.02
  -3  -1  24  154.06   12.36
  -3   1  24  128.13   10.91
   3   1  25   -1.27    2.94
  -3  -1  25   11.65    4.75
   3  -1  25    5.99    4.14
  -3   1  25    8.92    4.52
  -3  -1  26  276.44   17.08
   3   1  26  283.85   16.97
   3  -1  26  297.43   17.87
  -3   1  26  286.53   17.08
  -3   1  27  110.45   11.20
   3   1  27  107.71   11.09
   3  -1  27  106.11   11.36
  -3  -1  27  102.86   11.08
   3  -1  28   40.88    7.72
  -3   1  28   31.81    6.70
  -3  -1  28   32.33    6.90
   3   1  28   25.69    6.10
  -3   1  29   38.58    7.15
   3   1  29   36.61    7.02
   3  -2   0    0.26    0.62
  -3   2   0    0.53    1.25
   3  -2   0    1.18    0.76
   3   2   0   -0.94    1.29
  -3  -2   0    2.60    1.49
  -3  -2   0   -1.92    1.06
  -3  -2   0    0.13    0.68
   3  -2   1    3.85    0.91
  -3  -2  -1    2.21    1.26
   3  -2   1    4.20    1.43
  -3   2  -1    2.87    1.42
   3   2  -1    3.60    1.57
  -3  -2   1    5.24    1.20
   3   2   1    3.52    1.71
  -3  -2   1    2.44    0.73
  -3   2   1    5.02    1.43
  -3  -2   1    4.85    1.52
  -3  -2  -1    3.73    0.86
   3  -2  -1    4.52    1.48
  -3  -2   1    4.99    1.21
  -3   2   1    2.21    0.84
   3   2   1    2.81    1.48
  -3   2   1    6.70    1.75
   3  -2  -1    4.14    1.01
   3   2   2  293.48    9.30
  -3  -2  -2  299.42    8.73
   3  -2  -2  296.14    8.33
  -3   2  -2  309.95    9.35
   3   2   2  304.67    6.83
  -3  -2   2  302.94    9.35
  -3   2   2  303.31    6.97
  -3  -2   2  298.22    5.77
  -3   2   2  299.84    8.47
   3   2  -2  305.48    9.52
  -3   2   2  297.44    6.58
   3  -2   2  288.20    9.11
  -3  -2  -2  303.03    6.84
   3   2   2  286.93    8.96
   3  -2  -2  294.96    6.60
  -3   2  -2  288.19    6.47
  -3  -2  -2  299.87    8.66
  -3  -2  -3  638.56   12.96
  -3   2  -3  655.47   13.96
   3   2   3  653.02   13.52
  -3   2  -3  621.80   10.21
  -3   2   3  642.24   12.60
   3   2   3  647.49   10.48
  -3   2   3  631.02   10.21
   3   2  -3  641.19   10.46
   3   2  -3  635.28   13.83
   3  -2  -3  639.25   12.53
  -3   2   3  619.51    9.91
  -3  -2   3  655.74   14.05
   3   2   3  627.49   13.49
  -3  -2  -3  656.23   12.86
   3  -2   3  628.00   13.70
   3  -2   4 1031.11    9.68
   3   2   4 1023.85   17.41
  -3  -2  -4 1037.65   17.43
   3  -2   4 1002.69    9.05
   3  -2   4 1038.30   17.95
   3   2   4 1025.17   16.86
   3   2  -4 1000.88   10.05
   3   2  -4 1023.49   18.02
   3  -2  -4 1007.44   15.91
   3   2  -4 1032.17   14.14
  -3   2  -4 1037.10   14.11
   3   2   4  997.87   13.88
  -3  -2  -4 1003.33   16.62
   3   2   4 1008.53   17.29
  -3   2   4 1025.31   16.03
  -3   2   4 1006.31   13.86
  -3  -2  -4 1048.65   16.39
  -3  -2  -5  434.66   10.82
  -3  -2  -5  394.52   10.91
   3  -2  -5  404.82   10.47
   3  -2  -5  395.35   10.61
  -3   2   5  414.94    9.48
   3   2  -5  404.66   11.76
   3  -2  -5  417.03    8.37
   3   2  -5  397.58    6.62
   3   2  -5  413.86    9.60
  -3   2   5  403.59   10.37
   3   2   5  407.65    9.45
   3   2   5  393.76   10.34
  -3  -2  -5  403.17   10.87
   3   2   5  427.56   11.13
   3  -2   5  398.24   11.64
   3   2   6    4.48    1.66
  -3  -2   6    4.14    0.82
   3  -2  -6    4.88    1.88
  -3  -2  -6    3.79    1.74
   3  -2   6    4.33    2.18
   3   2  -6    3.26    1.79
   3  -2  -6    3.71    1.59
  -3  -2  -6    5.10    1.45
  -3   2   6    4.24    1.47
   3  -2  -6    3.84    1.06
   3   2   6    3.57    1.48
  -3   2   6    2.09    1.23
   3  -2  -7  295.77    9.89
  -3  -2  -7  299.88   10.01
  -3  -2   7  298.64    6.49
  -3  -2  -7  306.73    9.55
   3   2  -7  301.20   10.74
   3  -2  -7  297.09    7.77
   3  -2  -7  304.66    9.62
   3   2   7  299.88    9.13
   3  -2   7  303.26   10.85
   3   2   7  296.98    9.53
  -3   2  -8  455.66    7.48
   3  -2  -8  448.71   12.53
   3   2   8  473.23   11.95
   3   2  -8  450.23   13.51
   3  -2  -8  468.68   10.28
   3  -2  -8  443.33   12.12
  -3  -2   8  452.38    8.97
   3   2   8  460.11   12.19
   3  -2   8  459.71   13.83
  -3   2  -9    6.59    1.07
  -3  -2   9    5.69    1.35
   3  -2  -9    4.13    1.84
   3   2   9    4.18    1.69
   3   2  -9    3.94    1.89
   3  -2  -9    3.79    1.55
   3  -2   9    5.13    2.80
  -3   2 -10    0.98    0.73
   3  -2  10   -0.22    1.89
  -3  -2  10    0.12    0.85
   3   2  10    2.26    1.78
   3  -2 -10   -1.27    1.90
   3   2 -10   -1.61    2.39
   3  -2 -10    2.61    1.97
  -3  -2  11   36.43    3.27
   3  -2 -11   36.21    4.25
   3  -2 -11   28.54    3.78
   3   2 -11   29.27    4.46
   3   2  11   30.47    3.61
   3  -2  11   30.93    4.36
   3   2  12  122.49    7.35
   3  -2  12  108.98    7.59
   3  -2 -12  117.61    7.40
   3   2 -12  115.68    8.01
   3   2  13   66.22    5.71
   3  -2  13   69.25    6.50
   3  -2 -13   63.67    5.68
   3   2 -13   56.63    5.91
  -3   2  14  133.97    6.57
   3   2  14  133.72    8.24
   3  -2  14  137.38    9.18
   3  -2 -14  131.11    8.26
   3   2 -14  135.41    9.11
  -3  -2  14  136.58    8.98
   3   2  15  138.98    8.50
   3  -2  15  128.95    9.17
   3   2 -15  106.34    8.45
  -3   2  15  120.16    6.19
  -3  -2  15  118.73    8.73
   3  -2  16  222.47   12.16
   3   2  16  232.21   11.32
  -3  -2  16  238.05   12.59
  -3   2  16  223.02    8.27
  -3   2  16  220.89   11.11
   3   2  17  101.84    8.12
   3  -2  17   96.63    8.44
  -3   2  17  102.84    8.10
  -3   2 -17  116.47    5.19
  -3  -2  17   98.62    8.57
  -3   2  17  107.63    5.69
  -3  -2  18  155.68   10.85
   3   2  18  170.90   10.36
  -3   2  18  166.93    6.85
  -3   2  18  160.94   10.18
   3  -2  18  160.53   10.86
   3   2  19    0.11    2.53
  -3   2  19    5.37    2.97
  -3  -2  19    5.08    3.74
   3  -2  19    1.71    2.98
  -3   2  20   34.29    5.40
   3  -2  20   45.11    6.67
  -3  -2  20   48.62    6.71
   3   2  20   44.83    6.11
  -3   2  21   85.71    8.42
   3   2  21   90.02    8.18
  -3  -2  21   95.03    9.46
   3  -2  21   90.87    9.01
   3   2  22   19.98    4.49
  -3   2  22   19.78    4.80
  -3  -2  22   26.28    5.41
   3  -2  22   21.48    5.13
  -3   2  23    7.35    2.77
   3   2  23    6.08    2.98
  -3  -2  23    0.88    3.07
   3  -2  23    4.68    3.12
  -3   2  24    3.58    2.82
   3   2  24    1.71    2.46
   3  -2  24    2.12    3.30
  -3  -2  24    2.78    2.60
  -3   2  25    9.89    3.69
   3   2  25    8.60    3.75
   3  -2  25   10.24    4.64
  -3  -2  25   17.56    5.61
   3   2  26    1.24    3.04
  -3   2  26    4.67    3.40
  -3  -2  26    5.41    3.23
   3  -2  26    2.74    2.91
  -3   2  27   54.53    7.85
   3   2  27   48.27    7.31
  -3  -2  27   43.49    7.68
   3  -2  27   63.19    8.95
  -3   2  28   11.71    4.14
   3   2  28    9.06    4.49
  -3   2  29   -3.52    3.94
   3   2  29    3.47    2.56
  -3   3   0    1.40    1.06
   3   3   0    0.37    0.40
   3  -3   0   -1.07    1.16
   3  -3   0   -0.51    1.23
   3  -3   0    0.49    0.79
   3   3   0    0.39    1.26
  -3  -3   0    0.99    0.87
  -3  -3   0   -0.98    1.02
   3   3   0   -1.08    1.69
  -3  -3   0    0.64    1.10
   3   3   1  102.59    3.50
  -3  -3   1  108.50    5.68
   3   3   1   99.83    6.03
   3  -3   1  106.81    4.69
  -3  -3  -1  105.62    4.93
   3  -3   1  104.51    4.58
  -3  -3   1  104.65    4.51
   3   3   1  104.48    5.53
   3   3  -1  100.67    5.47
  -3  -3  -1  103.41    5.50
  -3  -3   1  109.79    4.93
  -3  -3   1  105.37    4.79
   3  -3  -1  101.61    4.52
  -3   3   1  100.04    4.54
   3  -3   1  115.80    5.78
  -3   3   1  105.56    5.41
  -3  -3  -1  106.89    4.82
   3  -3  -1  104.02    4.96
  -3   3   1   99.17    2.92
  -3   3   1  104.95    5.01
  -3   3  -1  111.65    5.65
   3  -3   1  102.78    5.21
  -3   3   2 1011.71   10.95
  -3   3   2 1063.11   16.79
   3   3   2 1021.17   12.49
   3   3   2 1027.91   15.01
   3  -3   2 1014.66   17.50
  -3   3   2 1017.70   14.56
  -3   3   2  999.65   15.09
   3   3   2 1005.79   16.79
  -3  -3   2 1022.74   13.47
   3   3  -2 1037.38   17.67
  -3  -3   2 1010.98   15.22
   3  -3  -2  992.18   15.04
   3   3   2 1015.22   18.39
  -3  -3  -2 1048.77   15.15
  -3   3   2 1041.60   15.48
   3  -3  -2 1015.49   14.67
  -3  -3  -2 1037.85   17.31
  -3  -3  -2 1018.70   17.98
   3   3   3  192.74    6.76
   3   3   3  198.87    8.36
   3  -3  -3  202.20    6.79
  -3   3   3  201.74    5.56
  -3   3   3  197.99    6.84
   3   3   3  185.78    7.37
   3   3  -3  191.17    5.76
  -3   3   3  191.63    6.57
   3   3  -3  194.92    8.00
   3  -3  -3  206.35    6.94
  -3   3  -3  194.81    6.64
  -3  -3  -3  204.19    8.25
   3  -3   3  212.44    8.18
  -3  -3  -3  201.80    7.08
  -3  -3  -3  210.25    7.01
  -3   3   3  202.16    6.76
  -3   3   4  650.09   12.42
   3   3   4  640.68   13.76
  -3  -3  -4  618.28   14.34
   3   3   4  647.99   15.14
  -3   3   4  641.08   12.12
   3   3  -4  650.46   10.52
   3   3  -4  627.81   14.53
   3  -3  -4  627.45   12.39
   3   3  -4  640.11   12.73
  -3   3  -4  628.55   12.40
  -3  -3  -4  639.77   12.74
   3   3   4  658.03   12.74
  -3   3   4  657.11   12.53
   3  -3   4  646.21   14.70
  -3  -3  -4  663.11   12.85
   3  -3   5 3647.72   35.90
  -3  -3  -5 3640.01   35.64
  -3   3  -5 3675.78   31.45
   3  -3  -5 3634.87   35.44
   3   3  -5 3711.36   31.63
   3   3  -5 3665.08   36.17
  -3   3   5 3705.84   30.48
   3   3  -5 3714.06   25.58
   3  -3  -5 3762.82   29.66
  -3   3   5 3712.77   31.26
   3   3   5 3635.54   33.75
   3  -3  -5 3651.72   30.32
   3   3   5 3669.88   31.58
  -3  -3  -5 3701.83   30.94
   3  -3   6 1088.71   20.32
   3   3  -6 1078.27   17.91
  -3  -3  -6 1087.32   19.80
  -3  -3  -6 1085.03   17.05
  -3  -3   6 1061.52    9.44
   3  -3  -6 1083.71   19.69
  -3   3   6 1105.89   17.12
   3   3  -6 1096.54   20.26
   3  -3  -6 1079.74   16.95
   3  -3  -6 1102.13   16.45
   3   3   6 1081.90   17.86
   3   3   6 1073.80   17.02
  -3   3  -6 1070.29   17.80
  -3   3   6 1082.23   17.77
   3  -3  -7   83.17    5.79
  -3  -3  -7   90.21    6.29
  -3  -3   7   82.64    3.18
   3  -3   7   96.86    6.44
  -3  -3  -7   80.61    4.80
  -3   3   7   87.89    5.02
   3   3  -7   90.05    6.22
   3  -3  -7   79.83    4.84
   3  -3  -7   89.96    4.86
   3   3   7   81.60    5.01
   3   3  -7   83.13    5.39
   3   3   7   81.25    5.24
  -3   3   7   76.29    5.12
  -3  -3   8  497.05    8.70
  -3  -3  -8  492.57   14.17
   3  -3   8  488.73   14.62
   3  -3  -8  465.71   13.73
   3   3  -8  468.16   14.24
   3  -3  -8  482.71   12.21
   3  -3  -8  497.62   11.79
   3   3   8  460.99   12.00
  -3   3   8  490.82   13.08
   3   3   8  488.48   13.18
   3   3   9 1401.64   21.46
  -3  -3   9 1443.14   16.45
   3  -3  -9 1415.84   24.42
   3  -3   9 1446.66   25.81
   3   3  -9 1396.78   25.35
   3  -3  -9 1443.83   21.76
   3   3   9 1441.44   23.44
  -3   3   9 1446.86   23.57
  -3   3 -10  235.49    4.93
   3  -3 -10  242.69   10.55
   3  -3  10  241.45   10.88
   3   3  10  249.14   10.16
   3  -3 -10  236.42    9.29
   3   3 -10  239.07   10.83
  -3   3  10  237.19    9.12
  -3   3  10  245.49   10.19
  -3  -3  10  241.08    7.32
   3   3  10  234.50    9.05
  -3   3 -11   41.41    2.38
  -3  -3  11   46.97    3.60
  -3   3  11   44.80    4.16
   3  -3 -11   36.27    4.33
   3   3  11   42.22    4.08
   3  -3  11   36.65    4.63
   3  -3 -11   41.84    4.30
   3   3 -11   41.78    4.99
   3   3  11   45.39    4.60
  -3   3  11   38.34    4.60
  -3   3  12    8.25    2.49
  -3  -3  12    5.43    1.64
   3  -3  12    2.27    3.59
   3   3  12    4.41    2.00
   3  -3 -12    6.30    2.53
   3   3 -12    3.07    2.68
   3  -3 -12    4.19    2.81
   3   3  12    7.23    3.40
   3  -3 -13  627.77   16.72
   3   3 -13  619.17   19.17
   3   3  13  642.37   16.57
   3  -3  13  643.19   19.15
  -3  -3  13  625.52   18.90
   3  -3 -13  612.84   18.22
   3   3  13  625.61   18.10
  -3   3  13  602.22   14.77
  -3  -3  14   -0.78    2.95
  -3   3 -14    3.31    2.00
   3  -3 -14    0.46    2.02
   3   3 -14   -2.60    2.89
   3   3  14    0.81    1.68
   3  -3  14    4.25    3.50
  -3   3  14    2.80    1.93
   3   3  15  457.81   14.91
   3   3 -15  491.28   17.91
   3  -3  15  492.47   17.67
  -3  -3  15  472.75   17.38
  -3   3 -15  467.95   11.60
  -3   3  15  460.26   12.92
  -3   3  16    2.74    2.29
  -3  -3  16    1.76    3.18
   3   3  16    7.51    3.34
  -3   3 -16    2.35    1.65
  -3   3  16    2.88    1.66
   3  -3  16    8.87    4.60
   3   3  17  622.27   18.49
  -3  -3  17  604.03   20.95
   3  -3  17  616.46   20.85
  -3   3  17  614.29   18.67
  -3   3 -17  621.01   12.63
  -3   3  17  601.09   14.45
  -3  -3  18  180.02   11.96
   3   3  18  209.88   11.23
  -3   3  18  187.43   10.97
   3  -3  18  226.41   13.39
   3   3  19  228.99   12.14
   3  -3  19  227.00   13.60
  -3   3  19  236.78   12.32
  -3  -3  19  258.87   14.42
  -3   3  20   14.02    3.83
   3  -3  20   13.20    5.03
  -3  -3  20   20.30    4.97
   3   3  20    9.79    3.47
   3   3  21  128.47    9.56
   3  -3  21  129.00   10.68
  -3   3  21  112.64    9.09
  -3  -3  21  123.66   10.62
  -3   3  22   51.78    6.69
   3  -3  22   60.33    8.15
   3   3  22   56.95    6.92
  -3  -3  22   55.40    7.76
   3  -3  23  201.23   14.11
  -3  -3  23  203.41   14.22
  -3   3  23  192.63   12.48
   3   3  23  197.75   12.60
   3  -3  24    7.24    3.93
   3   3  24    9.43    4.03
  -3  -3  24    6.18    3.51
  -3   3  24    8.21    3.77
  -3   3  25   21.34    4.85
   3  -3  25   13.28    4.71
   3   3  25   18.38    4.51
  -3  -3  25   28.54    6.46
  -3   3  26   59.97    7.98
  -3  -3  26   72.57    9.47
   3   3  26   62.38    7.84
   3  -3  26   69.41    9.17
   3   3  27  125.08   11.16
  -3   3  27  115.07   11.17
  -3  -3  27  123.17   12.34
   3  -3  27  121.82   12.44
  -3   3  28   40.65    7.15
   3   3  28   45.54    7.48
   3   3  29   23.99    5.51
  -3   3  29   22.49    5.25
   3   4   0    3.43    2.03
  -3   4   0    0.46    0.82
   3  -4   0   -2.54    1.38
   3   4   0    0.64    1.39
  -3  -4   0    1.11    1.21
   3  -4   0   -0.11    1.40
  -3  -4   0   -0.23    1.11
   3  -4   0    0.70    1.00
  -3  -4   0   -1.40    1.36
   3  -4   1  445.74    6.28
   3   4   1  453.64    8.03
   3  -4   1  458.57   11.17
   3  -4   1  443.40   10.93
  -3  -4   1  456.76   11.42
  -3  -4  -1  461.20   11.45
  -3   4   1  452.30   11.14
   3  -4   1  441.05   11.56
  -3  -4   1  447.72   10.71
  -3   4   1  444.32   11.64
   3   4  -1  440.34   11.71
   3   4   1  451.26   11.52
   3   4   1  441.85   13.12
  -3  -4   1  459.31   11.46
   3  -4  -1  443.69    9.94
  -3  -4  -1  453.63   11.32
   3  -4  -1  449.82   11.02
   3  -4   1  452.37   10.62
   3   4  -1  444.56   13.12
  -3  -4  -1  446.00   11.47
  -3  -4  -2    0.26    1.42
  -3   4   2    2.32    1.56
   3  -4   2    1.12    1.67
   3  -4   2    2.07    0.54
  -3   4   2    0.31    0.92
  -3  -4  -2   -0.16    1.70
  -3  -4  -2    0.60    0.97
   3   4   2    2.06    0.86
  -3  -4   2    3.97    1.52
   3   4   2   -0.04    1.48
   3   4   2   -1.10    1.94
   3   4  -2    1.40    1.11
   3   4  -2   -0.27    1.57
   3  -4   2    1.53    1.20
   3  -4  -2    2.46    1.05
   3   4   2    1.65    1.46
  -3  -4  -2    0.49    1.08
  -3  -4   2    2.28    1.23
   3  -4   2    2.33    1.40
  -3   4   2   -0.97    1.63
  -3   4   2    1.14    0.73
   3  -4  -2    0.40    1.27
  -3  -4  -3   87.32    5.97
  -3   4   3   81.89    3.89
  -3  -4  -3   88.33    4.67
   3   4   3   92.09    4.36
   3   4  -3   82.20    4.54
  -3   4   3   88.76    5.23
   3   4  -3   83.03    5.39
  -3   4   3   86.42    4.41
   3  -4  -3   82.78    4.37
  -3  -4   3   92.04    5.39
   3   4   3   91.50    5.21
   3  -4  -3   88.28    5.11
   3   4   3   90.02    5.33
  -3   4   3   93.95    5.07
  -3  -4  -3   86.51    5.19
  -3   4   3   87.41    5.10
   3  -4   3   85.55    5.51
   3   4   3   82.49    5.93
  -3   4   4 1377.56   17.81
   3   4   4 1385.60   18.20
   3   4   4 1362.63   20.65
   3  -4  -4 1417.76   20.65
   3  -4  -4 1364.12   17.52
  -3   4   4 1374.94   20.38
   3   4  -4 1331.70   18.10
   3   4  -4 1355.40   21.93
  -3  -4  -4 1358.99   23.21
   3  -4   4 1346.47   21.68
   3   4   4 1332.94   19.99
  -3   4   4 1375.67   20.36
  -3   4  -4 1370.38   20.43
  -3   4   4 1369.80   17.07
  -3  -4  -4 1389.25   18.36
   3   4  -5   26.58    3.04
   3   4   5   34.72    3.20
  -3  -4  -5   32.43    3.88
  -3   4   5   35.39    3.46
  -3   4   5   36.46    2.97
  -3   4  -5   32.48    3.48
   3  -4  -5   31.75    2.84
   3   4  -5   32.32    3.80
  -3   4   5   47.73    5.00
   3   4  -5   30.32    2.89
   3   4   5   30.34    3.42
  -3   4   5   34.39    3.58
   3  -4   5   29.86    3.55
   3   4   5   28.56    3.18
  -3   4   5   34.82    3.12
  -3  -4  -5   32.11    2.86
   3  -4   6  284.14   10.76
  -3  -4  -6  281.98   10.97
  -3  -4  -6  290.12    8.56
   3   4   6  269.88    9.81
  -3   4   6  281.87   10.00
   3  -4  -6  281.96   10.85
  -3   4   6  274.91   10.48
   3   4  -6  269.51   10.39
   3  -4  -6  278.41    8.29
   3   4  -6  271.90    8.47
   3   4  -6  284.31    9.97
  -3   4   6  274.79    8.27
  -3   4  -6  271.78    9.85
   3   4   6  279.11    9.51
  -3   4   6  297.25    9.15
  -3  -4  -7  158.64    8.55
  -3  -4  -7  152.05    6.32
   3  -4  -7  158.88    8.44
  -3   4   7  153.11    7.64
   3   4  -7  155.61    7.82
   3   4  -7  147.38    8.06
   3  -4  -7  160.74    6.57
  -3   4  -7  146.11    7.56
   3   4   7  153.46    7.64
   3  -4   7  144.57    7.92
  -3   4   7  154.22    6.39
  -3   4   7  161.77    8.09
   3   4   7  156.72    7.36
   3   4   8   89.30    5.13
  -3  -4  -8   81.74    6.82
   3  -4  -8   91.41    6.67
   3  -4   8   86.51    6.62
   3   4  -8   93.78    6.63
   3  -4  -8   78.85    4.86
  -3  -4  -8   93.56    5.12
  -3   4   8   87.04    5.03
  -3   4  -8   90.27    6.23
   3   4  -8   95.13    6.50
  -3   4   8   98.59    6.46
   3   4   8   84.80    6.02
  -3   4   8   88.67    6.10
   3  -4  -9 1002.32   21.82
   3  -4   9 1001.37   22.10
   3  -4  -9  997.93   17.50
   3   4  -9 1009.41   21.97
   3   4   9  998.85   17.45
  -3  -4  -9 1020.57   17.34
  -3   4  -9  991.97   20.63
  -3   4   9  998.97   20.63
   3   4  -9  997.22   20.87
  -3   4  -9  971.97   18.53
   3   4   9  997.19   20.64
  -3   4   9 1002.47   19.99
  -3  -4  -9  994.72   22.26
   3   4  10    1.00    1.32
   3  -4 -10    1.38    1.87
  -3   4  10    1.39    2.06
   3  -4 -10   -0.30    1.31
   3   4 -10    0.94    2.31
   3  -4  10    1.78    2.68
   3   4 -10    0.53    2.24
  -3   4  10    2.23    1.96
  -3   4 -10    0.81    1.94
   3   4  10   -1.15    2.36
   3   4  11    4.00    2.36
   3   4  11    1.48    1.67
  -3   4  11   -0.24    1.73
   3  -4 -11   -0.38    1.45
   3  -4 -11   -0.69    2.36
   3   4 -11   -0.40    2.34
  -3   4 -11    4.35    2.05
   3  -4  11    1.37    2.20
  -3   4  11    1.62    2.46
  -3   4 -12   19.36    1.37
   3  -4  12   17.32    3.91
   3   4  12   22.94    4.02
   3   4  12   19.12    3.02
  -3  -4  12   14.99    3.22
   3  -4 -12   17.00    2.91
   3  -4 -12   17.03    3.61
   3   4 -12   22.52    4.11
  -3   4 -12   19.34    2.96
  -3   4  12   18.13    3.04
  -3   4  12   19.84    3.94
   3  -4 -13    7.58    2.41
   3   4  13    6.41    2.01
   3  -4 -13   11.42    2.69
   3   4 -13   12.03    3.79
   3  -4  13   12.84    3.77
  -3   4  13    9.59    2.31
  -3   4 -13   12.02    2.44
   3   4  13    8.83    2.84
  -3  -4  13    8.82    3.21
  -3   4  13   13.95    3.68
  -3  -4  14    4.53    2.56
   3  -4 -14    3.02    2.11
   3   4  14   -0.16    1.72
   3   4 -14    5.17    3.42
  -3   4  14    3.14    1.93
  -3   4 -14    2.81    1.73
   3  -4  14    3.04    2.63
   3   4  14    2.24    2.66
  -3   4  14    3.55    3.23
   3   4  15    0.31    2.40
   3   4 -15   -1.32    2.94
   3   4  15    0.70    1.65
  -3  -4  15    2.62    3.28
  -3   4 -15    0.70    1.56
  -3   4  15    4.99    3.35
  -3   4  15    0.47    1.80
   3  -4  15    0.80    2.98
  -3   4  16   51.88    4.86
   3   4  16   60.70    5.64
   3  -4  16   56.37    6.56
  -3  -4  16   56.39    6.72
  -3   4  16   62.97    5.88
  -3   4  16   53.64    6.52
  -3   4 -16   62.87    4.63
   3   4  16   62.75    6.99
   3  -4  17   17.29    4.77
   3   4  17   19.31    3.45
  -3   4  17   17.88    3.38
   3   4  17   18.58    4.59
  -3   4 -17   15.99    2.29
  -3  -4  17   11.77    4.04
  -3   4  17   17.58    4.14
   3   4  18   -1.77    3.10
  -3   4  18   -0.29    1.95
   3   4  18    2.39    2.14
  -3  -4  18    0.19    3.06
   3  -4  18    0.72    2.89
  -3   4  18   -1.19    2.99
  -3  -4  19    7.88    3.39
   3   4  19    9.80    2.93
   3   4  19   13.08    4.41
  -3   4  19    5.34    2.25
   3  -4  19    7.67    3.42
  -3   4  19   11.88    4.28
   3   4  20   83.55    8.95
   3   4  20   93.20    7.97
  -3  -4  20   92.23    9.27
  -3   4  20   99.36    8.17
   3  -4  20   91.13    9.05
  -3   4  20   87.88    9.11
  -3   4  21   31.02    5.92
  -3   4  21   34.57    5.28
   3   4  21   33.24    4.96
   3   4  21   30.37    6.10
  -3  -4  21   31.58    5.95
   3  -4  21   34.49    6.47
  -3   4  22    1.36    3.00
   3   4  22    0.86    2.98
   3   4  22    0.77    2.08
  -3  -4  22    2.90    3.35
   3  -4  22    5.41    3.85
  -3   4  22    0.45    3.28
   3  -4  23   17.95    4.96
   3   4  23   19.86    4.54
  -3   4  23   20.04    5.25
  -3  -4  23   12.29    3.83
  -3   4  23   21.73    4.55
   3   4  23   22.13    5.21
   3   4  24    3.32    2.74
  -3  -4  24    2.35    2.99
  -3   4  24   -0.17    2.72
   3  -4  24   -3.41    3.24
   3   4  24   -3.52    3.96
  -3   4  24   -5.51    4.38
   3  -4  25   -3.90    3.54
   3   4  25    0.04    2.53
  -3   4  25    1.94    2.51
  -3  -4  25   -2.26    3.61
   3   4  25    1.81    3.14
  -3   4  25   -1.10    3.96
   3   4  26   14.90    5.20
  -3   4  26   19.08    4.40
  -3  -4  26   14.96    4.92
   3   4  26   23.30    5.11
   3  -4  26   13.89    4.67
  -3   4  26   15.07    4.71
  -3   4  27    8.63    3.33
   3   4  27   12.32    5.34
  -3   4  27    9.38    5.59
   3   5   0   -0.06    2.05
   3  -5   0    2.65    1.06
   3   5   0    1.22    1.52
  -3   5   0   -0.97    1.94
   3  -5   0    1.08    0.95
   3   5  -1  453.96   14.06
   3  -5   1  445.16    8.15
  -3  -5   1  438.45    7.50
   3  -5  -1  434.09    9.74
  -3   5   1  447.83   12.97
   3   5   1  443.53   11.62
  -3   5   1  466.92   11.62
   3   5   1  458.70   14.30
  -3   5  -1  462.13   14.13
  -3  -5  -1  431.68   13.90
   3  -5   1  451.46   11.94
   3  -5   1  443.78   10.64
   3   5  -1  430.96   11.91
  -3   5   1  457.91   14.22
   3   5  -2  809.56   18.60
   3  -5   2  790.78   10.80
   3   5   2  779.99   18.73
  -3  -5   2  786.50    9.21
  -3  -5  -2  797.67   15.58
   3   5  -2  807.20   16.00
  -3   5   2  795.34   18.61
  -3   5   2  782.23   16.99
   3   5  -2  756.77   16.26
   3   5   2  761.75   15.23
   3  -5  -2  779.55   12.70
  -3   5  -2  791.93   18.31
   3  -5   2  780.54   16.15
  -3   5   2  767.02   16.28
  -3   5   2  815.11   15.05
  -3  -5  -2  775.72   18.47
   3   5  -3   23.69    3.36
  -3  -5   3   23.11    1.59
  -3   5   3   20.64    3.13
   3  -5   3   23.28    1.90
  -3   5   3   24.05    2.47
  -3   5   3   25.44    2.73
   3   5   3   31.76    2.88
  -3  -5  -3   25.68    3.96
   3  -5   3   26.27    3.39
  -3   5  -3   37.09    4.83
  -3  -5  -3   24.23    2.55
   3   5   3   25.44    3.03
   3   5  -3   27.77    3.48
   3   5  -3   26.25    3.08
  -3   5   3   21.04    3.00
  -3   5   3   37.92    4.87
   3  -5  -3   21.97    2.29
   3   5   3   27.92    4.20
   3   5   3   24.86    3.36
  -3   5   4   24.01    2.71
  -3  -5  -4   22.22    2.40
   3   5   4   29.39    2.90
  -3  -5   4   22.14    1.46
  -3   5   4   23.62    2.63
  -3  -5  -4   24.86    3.69
  -3   5   4   23.33    3.19
   3   5  -4   20.04    3.14
  -3   5   4   22.54    3.28
   3   5   4   21.43    2.81
   3   5  -4   23.24    2.91
  -3   5  -4   37.20    4.78
  -3   5   4   31.22    4.41
   3  -5  -4   22.53    2.30
   3  -5   4   23.63    3.47
   3   5   4   23.10    3.09
  -3  -5  -5  455.74   14.64
  -3   5   5  478.36   11.63
  -3   5  -5  474.12   13.62
  -3   5   5  475.06   13.55
   3   5  -5  471.33   13.75
   3   5  -5  464.70   12.12
   3  -5  -5  476.14   10.10
   3   5   5  483.86   13.84
  -3   5  -5  467.13   14.01
   3   5   5  450.92   11.88
  -3   5   5  487.55   11.62
  -3   5   5  483.79   10.23
  -3   5   5  487.69   13.67
  -3  -5  -5  482.49   10.59
   3  -5   5  468.50   13.75
  -3   5   5  470.34   14.50
   3  -5   6  369.96   12.68
  -3  -5  -6  345.78   13.09
  -3  -5  -6  367.48    9.38
   3  -5  -6  363.27   13.26
  -3   5   6  357.15   12.71
   3   5  -6  353.82   12.29
   3  -5  -6  357.28    8.99
   3   5  -6  368.54   10.92
   3   5  -6  374.23   12.53
  -3   5  -6  354.69   12.15
  -3   5  -6  360.19   12.52
   3   5   6  355.01   10.76
  -3   5   6  354.04   12.05
  -3   5   6  372.70    9.11
   3   5   6  342.73   11.97
   3  -5  -7  162.83    9.13
  -3   5   7  163.51    8.80
  -3  -5  -7  174.52    9.40
   3  -5   7  162.80    8.65
  -3   5  -7  166.41    8.54
   3   5  -7  175.53    8.81
  -3  -5  -7  174.65    6.54
  -3   5   7  173.63    6.44
  -3   5  -7  178.32    8.74
   3   5  -7  154.34    8.37
   3  -5  -7  167.28    6.40
   3   5   7  170.20    8.75
   3   5  -7  173.95    7.63
   3   5   7  166.29    7.56
  -3   5   7  162.78    8.41
  -3   5  -8  484.85   15.01
  -3  -5  -8  495.69   16.23
   3  -5   8  495.21   15.54
   3  -5  -8  492.25   15.93
   3   5   8  496.61   15.09
   3   5  -8  491.88   15.36
  -3  -5  -8  499.01   11.32
  -3   5   8  499.96   11.33
  -3   5  -8  498.56   14.33
   3   5  -8  488.14   15.00
   3  -5  -8  486.39   11.28
  -3   5   8  494.35   15.10
   3   5   8  494.59   13.29
  -3   5   8  495.71   14.99
   3   5   9    2.78    1.88
  -3  -5  -9    0.69    0.88
   3  -5  -9   -0.61    2.42
  -3  -5  -9    2.63    2.83
   3  -5  -9    0.10    1.23
   3   5  -9   -0.06    2.28
  -3   5   9    0.57    0.90
  -3   5  -9   -1.47    1.79
  -3   5  -9   -1.90    1.84
   3  -5   9    2.11    2.03
   3   5  -9    0.57    1.75
  -3   5   9   -2.02    2.17
   3   5   9   -1.45    2.11
  -3   5   9   -1.47    2.68
  -3   5  10   27.28    4.36
  -3   5 -10   21.39    3.28
   3  -5  10   21.40    4.00
   3  -5 -10   19.30    3.77
  -3  -5 -10   25.36    4.95
   3  -5 -10   22.39    2.93
   3   5 -10   18.32    3.56
  -3  -5 -10   25.33    2.83
   3   5 -10   19.29    3.73
   3   5  10   20.30    2.66
  -3   5  10   22.12    3.58
  -3   5 -10   25.16    4.17
   3   5  10   16.12    3.42
   3  -5 -11  697.05   20.36
   3  -5  11  696.55   19.92
   3  -5 -11  718.81   15.64
   3   5 -11  703.51   19.98
  -3   5  11  745.79   18.60
   3   5  11  742.60   19.98
  -3   5 -11  752.04   20.17
   3   5 -11  730.36   20.12
  -3  -5  11  733.81   20.07
  -3   5 -11  734.96   17.27
   3   5  11  706.31   15.17
  -3   5  11  706.94   19.60
   3   5  12   40.54    5.26
   3   5 -12   30.39    4.96
  -3   5  12   29.23    4.02
  -3  -5  12   33.21    4.62
   3   5  12   35.61    3.80
  -3   5 -12   40.70    5.53
   3   5 -12   35.84    4.91
   3  -5 -12   39.07    5.30
   3  -5  12   31.52    5.09
  -3   5 -12   31.63    3.84
  -3   5  12   35.30    5.08
   3   5  13   65.44    6.65
   3   5 -13   75.97    7.24
   3  -5  13   65.74    6.65
   3   5  13   70.69    5.29
   3   5 -13   79.88    7.35
  -3   5 -13   71.56    5.46
  -3   5  13   70.12    5.92
  -3  -5  13   67.37    6.72
  -3   5  13   76.44    7.19
   3  -5 -13   69.61    6.85
   3   5  14   28.23    3.68
   3  -5 -14   24.92    4.70
   3   5 -14   27.05    4.77
  -3  -5  14   20.53    4.11
   3  -5  14   27.78    4.92
  -3   5  14   27.50    3.90
   3   5 -14   21.41    4.35
  -3   5 -14   23.88    3.32
   3   5  14   24.91    4.79
  -3   5  14   16.40    4.17
   3  -5 -15   92.22    8.44
  -3  -5  15  105.62    9.05
   3  -5  15   96.01    8.67
  -3   5 -15  100.68    6.41
  -3   5  15   98.97    6.88
  -3   5  15  108.37    7.34
   3   5  15   91.22    8.27
  -3   5  15   93.55    8.38
   3   5  15   88.99    6.33
   3   5  16  482.06   15.03
  -3   5  16  498.78   15.61
   3  -5  16  490.16   18.94
   3   5  16  498.40   19.19
  -3   5  16  481.76   18.73
  -3   5 -16  489.55   13.68
  -3  -5  16  487.52   19.10
  -3   5  17  219.16   10.91
   3  -5  17  214.13   13.18
   3   5  17  234.84   13.61
   3   5  17  225.19   10.61
  -3  -5  17  242.73   14.09
  -3   5  17  221.53   13.22
   3   5  18   34.12    4.55
  -3  -5  18   47.13    6.72
   3   5  18   42.12    6.33
   3  -5  18   33.51    5.82
  -3   5  18   32.42    5.80
  -3   5  18   40.27    4.91
   3  -5  19   42.31    6.50
  -3  -5  19   43.81    6.36
   3   5  19   43.25    5.14
  -3   5  19   36.01    4.78
   3   5  19   36.67    6.31
  -3   5  19   39.61    6.49
  -3   5  20  125.19    8.99
  -3  -5  20  125.36   11.02
   3  -5  20  119.09   10.71
   3   5  20  114.43   10.56
  -3   5  20  123.84   10.93
   3   5  20  136.30    9.12
   3   5  21  193.35   11.16
   3  -5  21  225.01   14.76
  -3  -5  21  204.89   14.21
  -3   5  21  200.41   11.60
   3   5  21  207.55   14.14
  -3   5  21  209.74   14.32
   3   5  22  136.47    9.69
   3   5  22  139.08   12.10
  -3   5  22  149.01   12.50
   3  -5  22  141.58   12.16
  -3  -5  22  145.46   12.80
  -3   5  22  147.50   10.31
   3  -5  23   15.33    5.12
  -3   5  23    4.95    2.99
  -3  -5  23   18.12    6.25
   3   5  23    5.89    4.56
  -3   5  23   11.79    5.69
   3   5  24  468.17   22.67
   3  -5  24  464.05   22.62
  -3  -5  24  397.99   21.05
  -3   5  24  465.76   22.74
  -3   5  25   27.50    7.32
  -3  -5  25   23.05    6.67
   3  -5  25   29.39    6.81
   3   5  25   23.27    6.40
   3   5  26  139.73   13.39
  -3   5  26  126.58   12.73
   3   6   0    0.14    2.04
  -3   6   0    1.11    2.12
   3  -6   0   -0.84    1.23
  -3   6   0    0.06    2.09
   3   6   0   -0.72    1.58
   3  -6   0   -0.49    1.27
  -3  -6   0    0.31    0.96
   3   6  -1    7.30    2.55
  -3  -6  -1    9.51    1.81
  -3  -6   1   10.07    1.56
   3  -6   1    9.31    1.65
  -3   6  -1   11.38    3.10
   3  -6  -1   10.54    2.08
   3   6  -1    7.96    1.91
  -3   6   1    7.63    2.63
  -3   6  -1   13.59    3.63
  -3   6   1    9.33    3.58
   3   6   1    7.12    2.01
   3  -6  -1    9.69    1.56
  -3  -6  -1    8.68    2.94
   3   6   1   10.74    2.90
   3  -6   1   10.62    1.91
   3  -6   1    6.64    1.98
   3   6  -2  565.96   16.72
   3   6   2  599.35   17.35
  -3   6  -2  583.06   17.06
  -3   6   2  618.03   13.24
  -3  -6   2  588.74    9.91
   3  -6   2  597.04   11.27
   3   6  -2  603.96   14.60
  -3   6   2  600.50   16.36
   3   6   2  591.37   13.64
   3  -6  -2  561.16   10.50
  -3   6   2  585.37   17.20
  -3  -6  -2  596.20   17.44
   3  -6   2  595.74   14.50
   3   6  -2  596.80   15.26
   3   6  -3   68.53    5.98
   3  -6   3   65.80    3.13
  -3  -6   3   65.35    3.24
  -3  -6  -3   56.18    5.60
   3   6  -3   72.08    5.55
  -3   6  -3   63.31    5.94
   3   6  -3   56.47    4.73
  -3   6   3   68.76    5.66
  -3   6   3   65.83    6.18
   3  -6  -3   59.46    3.40
  -3  -6  -3   65.92    4.01
   3   6   3   65.62    4.58
  -3   6   3   64.13    5.49
   3   6   3   68.87    5.78
   3  -6   3   71.35    5.41
   3  -6   3   65.50    3.79
  -3   6   3   64.58    4.34
   3  -6   4   59.91    2.53
  -3   6   4   67.31    6.15
  -3   6  -4   61.11    5.80
  -3  -6   4   59.59    3.00
  -3  -6  -4   56.00    5.68
   3   6   4   57.96    5.31
   3   6  -4   57.70    4.93
  -3   6   4   56.66    5.12
  -3   6   4   64.03    5.66
   3   6  -4   56.65    4.84
   3  -6  -4   63.07    3.44
  -3   6   4   62.04    4.38
   3   6   4   61.03    4.42
  -3  -6  -4   59.35    3.71
  -3   6   4   61.75    4.16
   3  -6   4   62.46    5.13
   3   6  -4   52.01    5.30
  -3   6  -5   57.10    5.70
  -3  -6  -5   57.51    5.81
  -3  -6  -5   53.76    3.49
   3   6  -5   53.24    4.83
   3  -6  -5   54.85    3.36
   3   6  -5   57.43    4.97
  -3   6   5   50.16    4.87
   3   6   5   54.49    4.21
  -3   6   5   64.79    6.08
   3   6   5   56.14    5.21
  -3   6   5   55.94    3.95
  -3   6   5   51.84    5.09
   3  -6   5   54.56    5.04
  -3  -6  -6  133.00    8.81
  -3  -6  -6  145.52    5.65
   3  -6  -6  150.68    9.11
  -3   6   6  133.70    8.55
  -3   6   6  133.62    6.13
   3  -6  -6  145.41    5.41
   3   6  -6  146.20    8.15
   3   6  -6  144.98    7.71
  -3   6  -6  139.64    8.34
   3   6   6  127.65    6.46
  -3   6  -6  143.19    8.26
   3  -6   6  141.99    8.23
   3   6   6  136.56    8.28
  -3   6   6  136.19    8.09
  -3   6   6  143.62    5.33
  -3   6  -7   -1.41    2.52
   3   6  -7   -3.59    2.64
   3  -6  -7   -5.11    3.03
  -3   6  -7   -1.40    2.09
  -3  -6  -7   -0.33    0.85
   3  -6  -7   -0.06    0.99
   3   6  -7    1.88    1.96
   3  -6   7   -1.34    2.18
   3   6  -7    0.36    1.77
  -3   6   7   -0.97    2.21
  -3   6   7    0.24    0.74
   3   6   7    0.77    1.36
   3   6   7    0.79    2.43
  -3   6   7    0.01    2.25
  -3  -6  -7   -1.51    3.01
  -3   6   7   -0.24    0.95
  -3   6   8   83.36    6.61
  -3  -6  -8   80.22    7.23
   3  -6  -8   80.93    7.27
   3  -6  -8   85.61    4.56
   3   6   8   87.22    5.71
   3   6  -8   88.54    6.80
   3  -6   8   79.96    6.65
  -3  -6  -8   85.19    4.49
   3   6  -8   88.13    6.17
   3   6  -8   85.29    6.80
  -3   6  -8   85.20    6.74
  -3   6  -8   77.88    6.34
  -3   6   8   87.50    4.47
  -3   6   8   77.08    6.50
   3   6   8   87.44    7.05
   3   6  -9   19.10    3.40
   3  -6  -9   19.27    3.67
  -3   6   9   26.07    3.95
  -3   6  -9   18.94    3.49
  -3  -6  -9   24.82    2.50
  -3  -6  -9   25.60    4.81
   3  -6  -9   22.07    2.53
   3   6  -9   18.29    3.80
   3   6  -9   23.31    3.49
   3  -6   9   28.07    4.41
  -3  -6   9   21.62    3.40
  -3   6  -9   21.29    3.48
  -3   6   9   22.19    2.40
   3   6   9   26.41    3.40
   3   6   9   21.78    4.08
  -3   6   9   20.30    3.78
  -3   6 -10    9.82    2.60
  -3  -6  10    7.95    2.16
  -3  -6 -10   13.67    2.02
   3  -6 -10   13.64    3.79
  -3  -6 -10   20.33    4.52
   3   6 -10   22.66    4.14
  -3   6  10   14.57    3.27
  -3   6  10   13.62    3.49
   3  -6  10   11.27    2.97
  -3   6 -10   10.10    2.97
   3   6 -10   15.15    3.49
   3  -6 -10   13.50    2.19
   3   6  10   12.98    3.49
   3   6  10   17.25    2.98
  -3   6  10   12.99    2.06
  -3  -6 -11   18.98    4.60
   3   6 -11   18.16    4.01
  -3  -6  11   11.43    2.89
   3  -6 -11   16.48    4.19
  -3   6  11   14.53    3.31
   3  -6  11   17.43    4.09
  -3   6  11   14.64    3.32
   3   6 -11   10.29    3.09
  -3   6 -11   13.72    3.48
   3   6  11   14.99    2.82
  -3   6 -11   16.67    3.17
   3   6  11   15.98    3.43
   3  -6 -12   -0.12    2.92
   3   6 -12    1.63    2.61
  -3  -6  12    0.20    2.94
  -3   6 -12    1.45    2.96
   3   6  12    1.27    1.37
   3   6 -12    4.55    2.45
  -3   6  12    2.64    2.03
   3   6  12    3.10    2.90
   3  -6  12   -1.51    2.45
  -3   6 -12   -1.34    2.22
  -3   6  12   -1.77    3.17
   3   6  13   88.79    5.55
   3   6  13   82.68    7.75
   3  -6 -13   93.17    8.46
  -3   6  13   89.21    7.16
  -3  -6  13   91.12    8.06
   3  -6  13   81.85    7.75
   3   6 -13   96.59    8.35
  -3   6 -13   94.32    8.27
   3   6 -13   92.49    8.07
  -3   6 -13   90.26    6.72
  -3   6  13   87.15    7.93
   3  -6 -14  137.92   10.37
  -3  -6  14  147.37   10.30
   3   6 -14  138.50   10.09
  -3   6 -14  140.80   10.24
   3  -6  14  125.71    9.64
  -3   6 -14  129.22    7.89
   3   6  14  132.15    6.99
   3   6  14  140.81   10.08
  -3   6  14  131.46    9.61
   3   6  15   14.15    2.44
  -3  -6  15   16.64    4.36
   3  -6 -15    9.59    3.38
   3   6  15   12.49    4.00
   3   6 -15   11.64    3.51
  -3   6 -15   17.16    4.17
  -3   6  15    4.39    2.92
  -3   6  15   15.76    2.97
   3  -6  15   19.02    4.38
   3   6  16    1.26    1.44
   3  -6 -16   -0.44    3.19
  -3   6  16    1.66    1.90
   3   6 -16   -0.97    3.11
  -3  -6  16   -0.46    3.03
   3  -6  16    1.84    2.73
  -3   6 -16    0.66    2.44
   3   6  16   -0.20    2.76
  -3   6  16    2.24    3.24
   3   6  17   17.06    2.88
  -3  -6  17   16.76    4.71
   3   6 -17   16.04    4.42
  -3   6 -17   17.34    4.82
   3   6  17   11.01    3.04
   3  -6  17   17.01    4.52
  -3   6  17   20.00    3.36
  -3   6  17   20.18    4.84
   3   6  18   16.38    3.10
  -3  -6  18   23.28    5.03
  -3   6  18   21.57    3.83
   3   6 -18   18.11    4.67
  -3   6 -18   15.64    4.72
   3  -6  18   12.57    4.27
   3   6  18    7.72    3.30
  -3   6  18   15.33    4.86
  -3  -6  19    7.93    3.93
  -3   6  19   11.08    2.86
   3   6 -19   14.23    4.37
   3  -6  19   12.28    4.30
   3   6  19    9.32    3.78
  -3   6  19   12.74    3.73
  -3  -6  20   34.37    6.64
   3   6  20   26.75    5.26
  -3   6  20   32.49    4.75
   3   6 -20   27.61    5.69
   3  -6  20   42.47    7.16
  -3   6  20   33.65    6.23
   3  -6  21    7.32    3.91
   3   6 -21    0.80    3.24
   3   6  21    3.76    3.86
  -3  -6  21    6.10    3.88
  -3   6  21    0.05    3.05
   3   6 -22   -2.35    3.20
  -3  -6  22    1.12    3.00
   3  -6  22   -2.16    3.53
   3   6  22   -1.17    3.92
  -3   6  22   -3.03    4.35
   3   6  23    5.88    4.08
  -3  -6  23    7.08    5.28
  -3   6  23    5.51    3.35
   3  -6  23   12.52    4.42
  -3   6  24   16.09    4.88
  -3  -6  24   31.77    6.87
   3  -6  24   19.93    5.66
   3   6  24   24.28    5.45
   3   6  25    0.62    4.08
  -3  -6  25   -1.52    3.70
  -3   6  25    3.78    3.84
  -3   7   0    5.54    3.73
   3  -7   0    0.97    1.00
  -3  -7   0    0.37    1.12
   3  -7   0    0.89    1.29
   3   7   0   -2.31    1.93
  -3   7   0    1.65    2.19
  -3  -7   0   -1.00    3.18
   3   7   0   -0.97    2.58
   3   7  -1  735.60   19.91
   3  -7   1  713.70   14.15
   3  -7  -1  730.82   14.74
  -3  -7  -1  719.50   14.27
  -3  -7   1  721.03   13.19
   3   7  -1  707.80   15.93
   3  -7   1  716.03   15.89
   3   7   1  743.93   20.22
  -3   7   1  710.10   19.33
   3   7   1  722.74   15.50
  -3   7  -1  695.63   19.64
  -3   7  -1  717.15   19.70
   3  -7   1  727.58   13.49
   3  -7  -1  730.79   11.86
  -3   7   1  727.96   20.23
  -3  -7  -1  713.72   20.33
   3  -7   2   55.22    3.87
   3  -7   2   53.83    3.59
   3   7  -2   56.95    5.74
   3  -7  -2   59.71    4.68
  -3  -7  -2   56.44    4.33
  -3  -7   2   53.59    3.52
  -3  -7  -2   58.85    6.37
  -3   7   2   59.77    6.67
  -3   7   2   53.88    3.99
   3   7  -2   47.90    4.34
   3   7   2   56.63    4.39
   3   7  -2   51.39    5.26
   3  -7  -2   54.36    3.16
  -3   7  -2   55.14    6.04
  -3   7   2   48.52    5.39
  -3   7  -2   65.13    6.80
   3  -7   2   54.05    4.60
  -3  -7  -3  979.70   24.21
   3  -7   3 1004.56   13.75
   3   7  -3 1014.27   23.22
  -3  -7   3  991.54   14.39
  -3   7   3  993.03   16.60
  -3   7   3  959.71   22.57
   3   7  -3  999.39   19.79
   3   7  -3  979.40   21.52
   3  -7  -3  977.33   12.42
  -3   7   3  992.01   23.93
   3   7   3  987.91   17.70
  -3   7  -3 1013.48   23.65
  -3  -7  -3  977.60   14.94
   3  -7   3  976.69   19.60
   3  -7   3  989.03   16.49
  -3  -7  -4 1386.93   29.05
  -3  -7   4 1449.55   17.20
   3   7  -4 1464.01   27.94
   3   7  -4 1435.21   24.27
  -3   7   4 1397.92   27.26
   3   7  -4 1417.23   25.72
   3  -7  -4 1419.84   14.60
   3   7   4 1426.81   21.32
  -3   7  -4 1415.98   28.08
  -3   7   4 1467.39   29.03
   3   7   4 1421.12   27.63
  -3   7   4 1422.05   27.15
  -3   7   4 1457.74   19.80
  -3  -7  -4 1452.47   17.58
   3  -7   4 1424.68   24.49
   3  -7   4 1412.16   20.03
   3   7  -5 1240.60   25.83
   3   7   5 1221.00   25.76
   3  -7  -5 1263.00   27.53
   3   7  -5 1225.62   23.19
   3  -7  -5 1197.95   13.38
   3   7  -5 1202.98   23.91
   3   7   5 1201.87   19.67
  -3   7   5 1244.85   26.83
  -3   7  -5 1279.86   26.44
  -3   7   5 1234.68   25.79
  -3   7   5 1215.17   25.56
  -3  -7  -5 1233.43   27.37
  -3  -7  -5 1239.07   15.82
  -3   7   5 1200.95   17.85
   3  -7   5 1238.97   23.49
   3   7  -6  271.19   12.34
   3   7   6  270.59   12.52
  -3  -7  -6  274.29   13.28
  -3  -7  -6  275.44    7.27
  -3   7  -6  258.73   12.14
  -3   7   6  260.54   12.57
   3  -7  -6  263.68    6.40
   3   7  -6  267.43   11.20
   3   7  -6  262.65   11.18
   3   7   6  256.30    9.24
  -3   7   6  254.07   11.95
  -3   7   6  259.43    8.22
   3  -7  -6  266.70   13.01
   3  -7   6  270.20   11.43
  -3   7   7    0.90    1.09
  -3  -7  -7   -6.44    4.39
   3  -7  -7   -1.53    2.87
  -3  -7   7    0.40    1.84
   3  -7  -7    1.08    0.75
   3   7  -7   -1.33    2.52
   3  -7   7    0.35    2.12
   3   7   7   -1.94    2.04
  -3   7  -7    2.19    2.60
   3   7  -7   -0.75    2.47
  -3   7   7    6.29    3.08
   3   7   7    0.49    2.27
  -3   7   7   -1.65    2.77
  -3  -7  -7    1.22    0.76
   3   7  -7   -1.00    2.63
  -3   7   8  423.66   15.96
  -3   7  -8  439.58   16.17
  -3  -7  -8  445.10   17.17
  -3  -7   8  446.05   14.98
   3  -7  -8  427.91   16.78
   3  -7  -8  441.96    9.00
   3  -7   8  444.06   15.75
   3   7  -8  441.31   15.25
   3   7  -8  446.19   14.76
   3   7   8  453.48   12.54
  -3   7   8  458.92   16.45
  -3   7  -8  453.44   15.77
   3   7   8  441.88   16.41
  -3   7   8  463.10    9.27
  -3   7   8  435.79   10.96
  -3  -7  -9  833.97   23.91
   3  -7  -9  845.97   23.78
   3   7  -9  834.65   21.45
   3  -7   9  836.41   21.96
  -3  -7   9  857.38   21.50
   3   7  -9  832.78   20.36
   3   7  -9  834.99   22.92
  -3   7  -9  823.25   21.05
  -3   7   9  820.45   22.19
   3   7   9  835.12   17.55
   3   7   9  852.90   22.85
  -3   7   9  824.45   22.63
  -3   7  -9  838.29   22.71
   3   7 -10   91.12    7.96
  -3  -7 -10   92.55    8.58
   3  -7 -10   89.21    8.17
   3  -7  10   92.33    7.70
   3   7 -10   96.05    7.69
  -3  -7  10   92.97    7.40
   3   7  10   87.82    5.94
   3   7 -10   92.56    7.18
  -3   7 -10   84.79    7.73
   3   7  10   86.64    7.85
  -3   7 -10   82.54    6.96
  -3   7  10   88.61    7.70
  -3   7  10   81.65    7.38
   3  -7 -11   11.15    3.46
  -3  -7 -11   16.57    5.24
   3   7 -11   18.34    3.90
  -3   7  11   12.63    3.77
   3   7  11    9.58    3.19
   3  -7  11   18.80    3.78
  -3   7 -11   11.81    3.24
   3   7 -11   13.58    3.64
  -3  -7  11    9.49    2.80
  -3   7 -11   11.66    2.56
   3   7  11   15.65    2.71
   3   7  12  167.09    8.66
   3  -7 -12  178.46   11.76
   3  -7  12  168.36   11.12
   3   7 -12  175.18   10.78
  -3  -7  12  173.22   10.64
   3   7 -12  156.60   10.66
  -3   7 -12  172.49   11.06
   3   7  12  164.57   11.07
  -3   7  12  170.14   11.18
   3  -7 -13 1206.71   30.59
   3  -7  13 1200.94   28.96
   3   7  13 1264.45   30.17
   3   7 -13 1227.04   29.86
  -3   7 -13 1189.87   29.18
  -3   7  13 1200.99   29.41
   3   7  13 1212.87   23.67
  -3  -7  13 1216.72   28.94
  -3   7  14   33.79    3.77
   3  -7 -14   32.66    6.13
  -3   7 -14   32.84    5.57
  -3  -7  14   37.25    6.04
   3   7 -14   27.42    5.47
   3  -7  14   32.29    6.11
   3   7  14   36.12    6.23
  -3   7  14   35.85    6.05
  -3   7  15    7.85    2.31
   3  -7 -15    7.07    3.92
  -3  -7  15   11.39    3.65
  -3   7 -15   13.95    4.27
   3   7 -15   12.62    4.19
   3  -7  15    8.73    3.49
   3   7  15   16.57    4.92
  -3   7  15    5.98    3.41
  -3  -7  16   34.51    5.96
   3   7 -16   45.40    6.88
   3  -7 -16   35.82    6.12
  -3   7 -16   45.23    6.96
   3  -7  16   35.14    5.85
   3   7  16   35.12    6.23
  -3   7  16   40.35    6.95
   3  -7 -17  585.11   23.06
   3  -7  17  546.84   21.74
  -3  -7  17  574.88   21.98
   3   7 -17  555.19   22.23
  -3   7 -17  539.19   21.91
   3   7  17  530.20   21.74
  -3   7  17  570.12   22.37
   3   7 -18    7.60    4.65
  -3  -7  18    1.94    3.32
   3   7  18    5.43    4.18
   3  -7  18   14.38    5.50
  -3   7 -18    9.04    4.46
  -3   7  18    8.24    4.28
   3  -7  19  401.61   19.41
  -3  -7  19  395.67   19.53
   3   7 -19  390.26   19.51
  -3   7 -19  373.93   19.24
   3   7  19  405.88   19.84
  -3   7  19  379.00   19.27
  -3   7  20   76.40    9.70
  -3   7 -20   79.95    9.42
   3   7 -20   73.25    9.23
  -3  -7  20   80.42    9.59
   3  -7  20   86.70    9.93
   3   7  20   89.21   10.28
  -3   7 -21  106.80   10.88
   3  -7  21  120.51   11.32
  -3  -7  21  117.62   11.18
   3   7  21  110.93   11.32
   3   7 -21  117.21   11.46
  -3   7  21  117.61   11.65
   3  -7  22   55.37    8.55
  -3   7  22   61.82    9.15
  -3   7 -22   49.13    8.16
   3   7 -22   48.18    8.23
  -3  -7  22   55.51    8.43
   3   7  22   52.05    8.65
  -3  -7  23  439.50   22.49
  -3   7  23  427.95   22.37
   3  -7  23  455.65   22.83
  -3   7 -23  434.88   22.79
   3   7 -23  438.20   22.62
   3   7  23  483.29   23.90
  -3   7 -24   11.64    5.54
  -3  -7  24    4.58    3.80
   3  -7  24    7.36    5.05
   3   7 -24    3.26    5.45
   3   7  24    2.93    3.80
  -3   7  24    9.68    5.75
  -3  -8   0   -4.35    3.76
  -3  -8   0    0.31    1.20
   3  -8   0    0.58    1.61
   3   8   0   -0.97    1.44
  -3   8   0    0.69    2.87
  -3   8   0   -3.45    3.50
   3  -8   0    0.98    0.87
   3   8   0   -5.14    3.27
  -3   8   1   10.76    3.07
   3  -8   1   12.64    2.14
   3   8  -1   14.13    3.29
  -3  -8  -1   15.15    3.79
  -3  -8  -1   13.85    2.60
  -3  -8   1   14.36    2.28
   3  -8  -1   10.83    2.54
   3  -8  -1   15.44    1.76
  -3   8  -1   13.29    3.01
   3   8  -1   14.87    2.60
   3   8   1   11.75    2.26
  -3   8  -1    7.16    3.35
   3  -8   1    9.54    2.34
  -3   8   1    8.28    2.66
   3  -8   1   11.73    2.02
   3  -8   1   16.77    2.89
   3  -8   2   -0.71    1.67
   3  -8   2    1.18    1.03
   3   8  -2    0.22    2.42
   3  -8   2    1.82    1.36
  -3  -8  -2    2.20    1.66
   3  -8   2    1.82    1.68
  -3  -8   2    0.14    1.29
   3  -8  -2    4.37    2.62
  -3  -8  -2   -0.05    3.31
   3   8  -2    1.25    1.68
   3   8  -2   -2.76    2.59
   3   8   2    0.62    1.24
  -3   8   2    0.47    2.75
   3  -8  -2   -0.16    0.67
  -3   8  -2   -3.01    2.76
  -3   8  -2   -8.14    4.32
  -3   8   2   -3.37    3.82
   3  -8   3  189.99    8.12
  -3  -8  -3  193.78   11.59
   3   8  -3  189.32   10.84
  -3  -8  -3  202.81    8.92
  -3  -8   3  194.82    7.29
   3   8  -3  201.01    9.05
   3   8  -3  193.50   10.58
  -3   8   3  192.45   11.06
  -3   8   3  196.79    7.33
   3  -8  -3  183.07    4.60
   3   8   3  196.39    8.02
  -3   8  -3  190.00   11.27
   3  -8   3  191.34    6.75
  -3   8  -3  187.03   10.81
  -3   8   3  178.76   10.80
  -3  -8   3  200.64    8.65
   3  -8   3  201.44    9.23
  -3  -8  -4   92.74    8.40
   3   8  -4   93.91    7.56
  -3   8   4   86.12    7.27
  -3  -8   4   91.86    4.97
   3   8  -4   93.56    6.41
   3  -8  -4   82.21    2.79
  -3   8   4   86.90    7.57
   3   8  -4   89.74    7.42
  -3   8  -4   90.71    7.78
   3   8   4   93.48    5.51
  -3   8  -4   96.45    8.48
  -3  -8   4   82.12    5.82
   3  -8   4   90.51    6.46
   3  -8   4   89.23    5.63
   3  -8   5   61.06    4.79
  -3   8   5   55.81    6.42
   3   8  -5   59.34    6.28
  -3  -8   5   63.64    4.21
  -3   8  -5   53.85    6.17
  -3  -8  -5   52.93    6.30
   3  -8  -5   58.10    6.89
   3   8  -5   62.55    5.55
   3  -8   5   57.96    5.80
  -3   8   5   54.00    6.29
  -3  -8   5   65.42    5.68
   3   8   5   57.07    4.43
   3   8   5   59.18    6.91
   3   8  -5   59.51    5.91
   3  -8  -5   48.39    1.98
  -3   8   5   65.21    6.77
   3   8  -6   93.98    7.67
  -3  -8  -6   71.21    7.31
   3  -8  -6   83.52    7.72
   3   8  -6   83.69    6.52
  -3   8   6   82.77    7.49
   3   8   6   88.79    7.83
  -3  -8   6   84.69    6.45
   3   8  -6   78.77    6.88
  -3   8  -6   76.00    6.93
   3   8   6   88.54    5.37
  -3   8   6   84.84    7.66
   3  -8   6   82.17    6.83
   3   8  -7   34.35    4.93
   3   8  -7   28.83    4.39
  -3   8  -7   25.17    4.36
  -3  -8  -7   17.45    4.19
   3  -8  -7   29.20    4.90
  -3  -8   7   27.14    3.93
   3   8  -7   36.97    4.66
   3  -8   7   32.57    4.62
   3   8   7   32.10    5.25
  -3   8   7   29.71    4.74
   3   8   7   30.65    3.29
   3  -8   8  155.64    9.59
   3  -8  -8  150.07   10.44
  -3  -8   8  144.41    8.90
   3   8  -8  148.64    9.10
   3   8   8  163.75   10.65
   3   8  -8  139.59    9.04
   3   8  -8  153.10    9.74
   3   8   8  156.38    7.30
  -3   8   8  145.39    9.99
  -3  -8  -8  142.04   10.53
   3   8  -9  191.86   11.08
  -3  -8   9  191.17   10.48
  -3  -8  -9  206.45   12.86
   3  -8   9  201.54   11.12
   3  -8  -9  191.89   12.21
   3   8  -9  185.24   10.34
   3   8  -9  187.98   10.69
   3   8   9  189.51   11.75
   3   8   9  194.19    8.32
  -3   8   9  187.98   11.48
   3  -8 -10   47.68    6.43
  -3  -8 -10   54.48    7.20
   3   8 -10   53.58    6.04
  -3   8  10   33.48    5.30
   3  -8  10   49.39    6.02
   3   8 -10   43.26    5.44
   3   8  10   42.23    5.66
  -3   8 -10   36.33    5.01
   3   8  10   45.33    4.16
  -3  -8  10   48.16    5.74
   3   8  11    9.85    3.13
   3  -8 -11   18.36    4.47
   3   8 -11   19.38    4.16
  -3  -8 -11   14.59    4.72
  -3   8  11   12.98    4.05
  -3   8 -11   11.22    3.05
  -3  -8  11   22.09    4.51
   3  -8  11   17.46    4.42
   3   8 -11   16.61    3.60
   3   8 -11   19.91    3.98
   3   8  11   16.31    2.78
   3  -8 -12   30.90    5.40
  -3  -8  12   34.63    5.10
   3  -8  12   31.67    5.45
  -3   8 -12   32.85    5.24
   3   8 -12   28.39    4.58
   3   8  12   37.91    4.13
  -3   8  12   27.56    4.97
   3   8 -12   32.83    5.06
   3   8  12   24.12    4.67
   3  -8 -13   12.81    4.20
  -3  -8  13   11.49    3.45
  -3   8 -13   10.84    3.63
   3   8 -13    6.23    2.77
   3   8  13   17.22    3.04
   3   8  13   12.91    3.81
  -3   8  13    4.49    2.76
   3  -8  13   12.66    3.70
   3  -8 -14   -1.29    2.50
  -3  -8  14   -0.89    2.56
  -3   8 -14    1.94    2.75
   3   8 -14   -1.32    2.56
   3  -8  14    3.26    2.55
   3   8  14    1.90    1.74
  -3   8  14   -3.37    3.45
   3   8  14    2.15    2.96
   3  -8 -15  106.38   10.02
  -3   8 -15  114.74   10.17
   3  -8  15  104.96    9.44
  -3   8  15   99.89    9.59
  -3  -8  15  108.55    9.53
   3   8 -15  107.41    9.78
   3   8  15  106.77    9.83
  -3  -8  16   -1.06    2.55
   3  -8 -16    0.31    2.94
   3   8 -16   -2.74    3.65
   3  -8  16   -0.49    3.11
  -3   8 -16   -3.07    2.96
   3   8  16    1.43    2.77
  -3   8  16   -3.36    3.15
   3   8 -17  118.72   10.76
   3  -8 -17  111.03   10.61
   3  -8  17  128.45   11.21
  -3   8  17  128.84   11.52
  -3  -8  17  130.50   11.01
  -3   8 -17  133.03   11.57
   3   8  17  132.10   11.53
   3   8 -18    9.26    4.00
  -3   8 -18    7.67    3.75
   3  -8  18   15.39    4.61
  -3   8  18    1.64    3.73
  -3  -8  18   11.81    4.46
   3   8  18    8.61    3.61
   3  -8  19   10.73    4.92
  -3   8 -19    4.53    3.04
  -3  -8  19    3.88    3.57
   3   8 -19    1.43    3.55
   3   8  19    6.34    3.44
  -3   8  19   -0.92    3.93
  -3  -8  20   66.94    8.99
   3   8  20   57.96    8.42
  -3   8 -20   51.52    7.81
   3  -8  20   49.43    7.78
   3   8 -20   45.44    7.74
  -3   8  20   57.92    8.56
   3  -8  21   -2.08    3.95
  -3  -8  21   -3.17    3.44
   3   8  21   -3.51    4.71
  -3   8 -21   -3.26    4.59
   3   8 -21   -4.08    3.69
  -3   8  21   -3.71    4.54
  -3  -8  22    5.12    3.35
   3   8  22   11.57    4.60
   3   8 -22    0.25    3.85
  -3   8 -22    2.97    2.77
   3  -8  22    4.29    3.97
  -3   8  22    4.58    3.73
  -3  -8  23   -3.81    4.06
   3   8  23    4.64    4.78
  -3   8 -23    3.50    3.49
   3   8 -23    2.93    3.22
   3  -8  23   -3.25    4.09
  -3   8  23   -7.62    5.03
  -3  -9   0   -4.96    3.54
  -3  -9   0    0.91    1.98
   3  -9   0   -2.25    2.63
  -3  -9   0    3.33    1.84
   3   9   0    1.37    1.68
  -3   9   0   -2.20    2.81
   3  -9   1 1036.44   20.72
   3  -9  -1 1055.12   21.27
  -3  -9  -1 1056.79   20.50
  -3  -9   1 1075.66   19.63
  -3  -9   1 1072.02   18.51
   3   9  -1 1087.71   20.28
  -3  -9  -1 1095.54   16.54
   3   9   1 1058.11   19.15
  -3   9   1 1046.61   26.98
  -3   9  -1 1053.51   27.24
   3  -9   1 1060.49   15.20
  -3  -9   1 1017.33   27.43
  -3  -9  -1 1060.15   27.98
   3  -9  -2   73.41    5.97
   3   9  -2   69.94    7.00
  -3  -9  -2   64.08    5.40
  -3  -9   2   71.66    4.97
  -3  -9  -2   73.64    7.89
  -3  -9   2   72.00    5.25
   3   9  -2   76.58    5.67
   3   9  -2   81.06    7.57
   3   9   2   69.40    4.93
  -3  -9  -2   77.79    4.19
  -3   9   2   82.64    7.65
  -3   9  -2   77.86    7.83
   3  -9   2   70.76    5.43
   3  -9   2   76.61    4.49
   3  -9   2   75.63    5.73
   3  -9   3    2.39    1.81
   3   9  -3   -2.63    3.01
   3  -9   3   -3.67    2.90
  -3  -9  -3   -4.16    3.84
  -3  -9  -3    1.62    1.66
  -3  -9   3    0.10    1.46
   3  -9  -3    7.05    2.85
   3   9  -3   -0.96    1.50
   3   9   3   -1.40    1.73
   3   9  -3   -1.52    2.72
  -3   9   3   -5.71    4.18
  -3   9  -3   -1.90    2.66
  -3  -9   3    1.19    1.91
  -3  -9   4  262.88   10.63
  -3  -9  -4  263.49   11.25
  -3  -9   4  275.10    9.38
   3   9  -4  248.78   10.76
  -3   9   4  259.04   13.64
  -3  -9  -4  231.92   13.27
   3   9  -4  238.01   12.44
   3   9   4  265.28    9.13
  -3   9  -4  253.22   13.84
   3  -9   4  252.02   10.93
   3   9  -4  246.31   13.07
   3  -9   4  249.40   10.22
   3  -9   5 1480.20   27.26
   3   9  -5 1563.32   32.05
  -3  -9  -5 1483.17   33.75
  -3  -9   5 1529.65   21.93
   3   9  -5 1491.63   26.75
   3  -9  -5 1531.79   33.56
  -3   9   5 1500.96   32.67
   3   9  -5 1490.60   30.88
   3   9   5 1526.45   21.43
  -3   9  -5 1454.47   33.21
   3  -9   5 1521.65   25.15
  -3  -9   5 1535.31   26.36
   3   9  -6  225.05   12.27
  -3  -9  -6  217.17   13.23
  -3   9   6  232.09   13.16
   3  -9  -6  216.84   13.06
   3   9  -6  208.01   10.45
   3   9  -6  217.50   12.06
   3   9   6  225.70   13.12
   3   9   6  233.15    8.50
   3  -9   6  209.75   10.76
   3  -9   6  214.03    9.81
  -3  -9   6  210.54   10.30
   3   9  -7  292.46   13.97
  -3  -9  -7  285.30   14.96
   3  -9  -7  279.43   14.82
  -3   9   7  282.32   14.51
   3   9  -7  266.59   12.09
   3   9  -7  274.90   13.56
   3   9   7  285.77    9.47
   3   9   7  280.00   14.73
  -3  -9   7  263.34   11.89
   3  -9   7  291.67   12.91
   3   9  -8  201.76   11.68
   3  -9   8  217.44   11.56
  -3  -9  -8  214.61   13.48
   3  -9  -8  208.97   13.16
   3   9   8  200.06   12.69
   3   9  -8  216.84   11.28
   3   9  -8  231.34   12.31
  -3   9   8  215.62   12.73
  -3  -9   8  206.28   10.98
   3   9  -9  673.82   21.38
  -3  -9  -9  667.39   23.62
   3  -9   9  664.26   20.67
   3  -9  -9  666.70   23.41
   3   9  -9  700.81   21.58
   3   9   9  704.60   23.58
  -3   9   9  689.54   23.20
  -3  -9   9  673.69   20.19
   3   9  -9  682.02   20.27
   3  -9  10  250.82   13.37
  -3  -9 -10  258.05   15.16
   3   9 -10  279.48   14.00
   3   9 -10  277.11   13.82
  -3  -9  10  241.95   12.58
   3   9  10  262.31   14.82
  -3   9  10  250.56   14.32
   3  -9 -10  262.21   14.93
   3  -9  11  103.34    8.87
  -3  -9 -11  108.69   10.19
   3  -9 -11  107.31    9.91
   3   9 -11  101.82    8.73
  -3  -9  11  110.93    8.96
  -3   9  11  102.03    9.34
   3   9  11   94.46    8.98
   3   9 -11  110.82    8.90
   3   9 -12    3.09    2.25
  -3  -9  12   -0.40    2.21
  -3   9 -12    1.66    2.57
   3  -9 -12    2.27    2.95
  -3  -9 -12    3.89    4.38
   3  -9  12    2.79    2.47
   3   9 -12    0.70    2.34
   3   9  12   -2.24    3.75
  -3   9  12    2.37    2.90
   3  -9 -13  227.11   14.67
   3  -9  13  238.02   13.87
   3   9 -13  229.91   12.96
  -3  -9  13  219.13   12.93
   3   9 -13  229.85   14.51
  -3   9 -13  233.15   14.45
  -3   9  13  227.75   14.36
   3   9  13  240.37   14.77
   3   9 -13  225.42   12.88
   3  -9 -14  101.57   10.23
   3  -9  14   93.73    9.16
  -3  -9  14   96.24    8.86
   3   9 -14  100.06    8.79
   3   9 -14   92.55    9.63
  -3   9 -14   76.25    8.48
   3   9  14   88.26    9.47
  -3   9  14   90.96    9.60
   3   9 -15    4.54    2.86
   3   9 -15    7.71    3.54
   3  -9 -15    8.79    4.25
  -3   9 -15   -3.49    4.07
   3  -9  15    8.30    4.42
  -3  -9  15    4.31    3.19
   3   9  15    1.47    3.34
  -3   9  15    7.51    4.24
   3  -9 -16  424.05   20.96
   3  -9  16  439.76   20.09
  -3  -9  16  428.56   19.53
   3   9 -16  433.33   20.93
  -3   9  16  460.44   21.28
   3   9  16  412.73   20.35
  -3   9 -16  430.72   20.55
  -3   9  17  388.94   20.19
   3  -9 -17  416.32   21.12
   3  -9  17  396.21   19.45
  -3  -9  17  380.95   18.88
  -3   9 -17  376.63   19.85
   3   9 -17  396.17   20.23
   3   9  17  396.82   20.37
   3   9 -18    9.89    4.04
   3  -9 -18   14.19    5.71
  -3  -9  18    6.21    3.19
   3  -9  18   17.29    5.32
  -3   9 -18   12.48    4.46
   3   9  18   17.78    5.87
  -3   9  18    7.57    3.98
   3  -9  19  260.73   16.76
  -3  -9  19  260.14   16.57
  -3   9 -19  253.49   16.79
   3   9 -19  275.86   17.68
   3   9  19  255.46   17.00
  -3   9  19  282.41   17.75
  -3   9 -20  166.27   14.12
  -3  -9  20  133.27   12.24
   3   9 -20  142.67   13.20
   3  -9  20  172.19   14.04
   3   9  20  161.43   14.02
  -3   9  20  162.32   13.98
  -3  -9  21  124.20   12.16
   3  -9  21  122.46   12.22
  -3   9  21  139.88   13.27
  -3   9 -21  131.36   12.89
   3   9 -21  134.55   12.84
   3   9  21  137.07   13.31
  -3  -9  22    0.01    2.82
   3  -9  22    0.73    2.75
  -3 -10   0    0.55    2.88
  -3 -10   0    0.06    1.63
   3 -10   0   -1.38    1.91
   3  10   0    1.85    1.55
  -3  10   0   -0.83    3.05
  -3 -10   1    6.34    3.26
  -3 -10  -1    6.15    3.64
  -3 -10  -1    4.59    2.05
  -3 -10   1    3.61    1.57
   3 -10   1    5.33    2.08
   3  10  -1    6.44    1.97
   3 -10  -1    9.85    2.91
  -3  10   1   -0.37    3.37
  -3  10  -1    4.15    2.69
  -3 -10   2    8.23    2.20
  -3 -10  -2   11.19    4.14
  -3 -10  -2    8.87    2.64
   3 -10   2    4.87    1.87
  -3 -10   2    5.23    1.88
   3 -10  -2    6.77    2.82
   3  10  -2    3.45    3.09
   3  10  -2    7.00    1.95
  -3  10   2    3.91    2.94
  -3  10  -2    4.04    3.48
   3 -10   2    6.69    1.99
  -3 -10   2    5.66    2.84
   3 -10   3   22.18    3.39
   3  10  -3   16.62    3.74
  -3 -10  -3   24.67    3.99
  -3 -10  -3   20.70    4.38
   3 -10   3   16.75    3.14
  -3 -10   3   16.98    2.80
   3 -10  -3   21.38    4.15
   3  10  -3   19.79    3.12
   3  10  -3   24.68    4.80
  -3  10   3   21.84    4.70
  -3 -10   3   16.42    2.83
  -3  10  -3   23.87    4.73
   3  10  -4   10.53    3.09
   3 -10   4    9.86    2.74
  -3 -10   4   17.64    3.08
   3 -10   4    9.62    2.53
  -3 -10  -4   11.98    2.94
  -3 -10  -4    1.10    3.25
  -3 -10   4   11.19    2.58
   3 -10  -4    6.42    2.98
   3  10  -4   13.49    2.84
  -3  10   4   12.60    3.71
   3  10  -4    7.85    3.09
  -3  10  -4   16.62    4.36
  -3  10  -5    2.23    3.70
   3  10  -5   -0.21    2.99
  -3 -10  -5    3.90    2.70
  -3 -10   5    0.24    1.63
   3 -10   5    2.08    1.79
   3 -10   5    1.35    2.20
  -3 -10  -5   -4.03    4.71
   3 -10  -5   -3.39    3.02
  -3  10   5   -4.05    3.10
   3  10  -5   -0.89    1.57
   3  10  -5   -0.45    2.48
   3  10  -6   15.43    3.81
  -3 -10   6   21.80    3.49
   3 -10   6   23.25    4.02
  -3 -10  -6   14.44    4.62
   3 -10  -6   27.91    5.59
   3  10  -6   21.70    3.80
   3  10  -6   24.87    4.75
  -3  10  -6   23.01    5.30
   3 -10   6   20.24    3.59
   3  10  -7   91.97    8.50
   3 -10   7   98.69    7.08
  -3 -10  -7  103.11   10.03
   3 -10  -7   93.15    9.45
   3  10  -7  112.12    9.34
  -3  10  -7  113.35   10.28
  -3 -10   7  106.14    7.70
   3  10   7  103.14    9.63
  -3  10   7   99.73    9.45
   3 -10   7   96.68    7.88
   3  10  -8  197.73   12.02
  -3  10   8  202.15   13.14
   3 -10  -8  214.78   13.87
   3  10  -8  226.35   13.16
  -3 -10   8  206.23   11.04
  -3 -10  -8  212.42   14.07
   3  10   8  200.14   13.28
   3 -10   8  219.54   11.84
   3 -10   9  151.10   10.20
  -3 -10  -9  120.66   10.92
   3 -10  -9  152.86   11.74
   3  10  -9  142.89   10.58
  -3 -10   9  125.36    8.95
   3  10  -9  158.33   10.83
   3  10   9  137.14   11.16
  -3  10   9  135.15   11.02
   3  10 -10   67.82    7.15
   3 -10 -10   56.90    7.23
  -3 -10 -10   73.16    8.73
   3 -10  10   66.97    7.17
  -3 -10  10   67.31    6.78
   3  10 -10   65.71    7.34
  -3  10  10   60.25    7.63
   3  10  10   60.11    7.61
   3  10 -11   11.88    3.66
   3 -10 -11   13.49    4.61
   3  10 -11    7.56    3.27
  -3 -10 -11    5.70    4.00
   3 -10  11   11.96    3.52
  -3 -10  11    8.52    3.22
   3  10  11   10.37    4.13
  -3  10  11   10.98    3.81
  -3  10  12    1.42    3.19
  -3 -10  12   -2.31    2.32
   3  10 -12   -0.24    2.38
   3 -10 -12   -3.62    3.75
  -3 -10 -12    4.05    3.08
   3 -10  12    0.69    2.52
   3  10  12   -2.65    4.03
   3  10 -12   -0.70    2.46
  -3  10  13   -0.03    3.67
   3 -10 -13    6.49    3.59
   3  10  13    5.68    2.79
   3  10 -13    0.44    2.81
   3 -10  13    7.32    3.83
   3  10 -13    5.14    2.59
  -3 -10  13    6.61    3.10
   3  10 -14   57.34    6.95
   3 -10 -14   55.18    7.91
   3 -10  14   50.21    6.78
  -3 -10  14   60.25    7.15
  -3  10  14   40.11    6.16
   3  10 -14   56.81    7.22
   3  10  14   52.10    7.68
   3  10 -15    2.49    2.53
   3 -10 -15    1.86    3.54
   3  10  15    1.04    3.32
  -3 -10  15    1.90    2.63
   3 -10  15    5.32    3.55
  -3  10 -15    0.36    2.54
   3  10 -15    3.68    2.60
  -3  10  15    1.12    3.20
   3  10 -16   60.98    7.29
  -3  10  16   61.21    8.53
   3 -10 -16   55.91    8.21
  -3 -10  16   57.38    7.62
   3 -10  16   68.21    8.57
  -3  10 -16   72.46    9.23
   3  10 -16   60.73    7.55
   3  10 -16   66.77    8.99
   3  10  16   64.14    8.63
   3  10 -17   51.74    6.81
   3 -10  17   50.96    7.62
  -3  10  17   44.54    7.78
   3 -10 -17   48.76    8.04
  -3 -10  17   41.57    6.95
   3  10 -17   55.86    7.63
   3  10 -17   51.17    7.85
  -3  10 -17   45.43    7.58
   3  10  17   57.44    8.54
   3 -10 -18  148.66   13.50
  -3 -10  18  150.27   12.46
   3 -10  18  132.81   12.15
   3  10 -18  140.40   11.64
  -3  10 -18  125.96   12.29
   3  10 -18  126.92   12.34
   3  10  18  130.65   12.47
  -3  10  18  150.26   13.33
  -3 -10  19   19.07    5.19
   3  10 -19   18.67    4.97
   3 -10  19   18.37    5.32
  -3  10 -19   11.44    4.65
   3  10 -19   11.86    4.18
   3  10  19   11.00    4.00
  -3  10  19   11.03    4.64
  -3 -10  20   34.56    6.64
   3  10 -20   60.25    9.06
   3 -10  20   72.30    9.40
   3  10  20   62.18    9.42
  -3  10  20   58.08    8.99
  -3 -10  21   33.78    7.26
   3 -10  21   27.27    6.58
  -3 -11   0   -6.76    4.79
  -3 -11   0   -0.75    1.58
   3 -11   0    0.37    2.01
  -3  11   0   -7.04    4.38
   3 -11   1   79.38    6.71
   3 -11  -1   75.66    6.63
  -3 -11  -1   78.61    6.61
  -3 -11   1   73.69    8.52
  -3  11  -1   77.54    8.93
  -3  11   1   84.13    8.90
  -3 -11  -1   72.57    8.31
  -3 -11  -2  285.86   16.24
   3 -11   2  297.46   12.74
  -3 -11  -2  303.88   12.79
   3 -11  -2  293.99   13.13
  -3  11   2  307.43   16.69
  -3  11  -2  305.71   16.83
  -3 -11   2  293.97   16.47
  -3 -11   3   36.96    6.20
  -3 -11  -3   49.76    5.44
  -3 -11  -3   38.95    6.38
   3 -11   3   35.06    4.45
   3 -11  -3   40.20    6.19
   3 -11  -3   52.04    5.88
   3  11  -3   41.25    6.27
  -3  11   3   51.83    7.58
  -3  11  -3   45.87    6.85
  -3 -11  -4   66.52    6.50
  -3 -11  -4   79.41    8.90
   3 -11  -4   75.48    8.52
  -3  11   4   74.38    8.66
   3  11  -4   70.64    7.97
  -3  11  -4   63.27    8.16
   3  11  -5   65.90    7.60
  -3 -11  -5   65.09    6.74
  -3 -11  -5   46.33    6.94
   3 -11  -5   59.52    7.70
   3  11  -5   53.34    6.98
  -3  11  -5   54.81    7.64
   3 -11   5   60.98    5.90
   3  11  -6  138.70   10.59
  -3 -11  -6  124.43   11.21
   3 -11  -6  112.26   10.48
   3  11  -6  122.95   10.48
  -3  11  -6  117.17   10.76
   3 -11   6  122.67    8.49
   3  11  -7   17.05    4.12
   3 -11   7   13.85    3.36
   3 -11  -7   15.89    4.43
  -3 -11  -7   20.45    4.76
  -3  11  -7   16.15    5.03
   3  11  -7   19.27    4.99
   3  11  -8    2.63    2.18
   3 -11  -8   11.37    4.47
   3 -11   8    3.68    2.39
  -3 -11  -8   -1.77    3.83
  -3 -11   8    8.17    2.37
   3  11  -8    9.50    3.64
  -3  11   8    9.11    4.28
  -3  11  -8    5.46    4.19
   3  11  -9    6.27    3.10
   3 -11  -9   11.79    3.80
  -3 -11  -9    9.40    4.09
   3 -11   9   10.75    3.13
  -3 -11   9    8.87    2.91
   3  11  -9    9.88    3.54
  -3  11  -9    9.65    4.21
   3  11   9   -0.04    4.15
  -3  11   9    7.53    3.43
   3  11 -10   29.11    4.88
   3 -11 -10   27.65    5.77
  -3 -11 -10   22.06    5.66
   3 -11  10   20.80    4.02
  -3 -11  10   22.15    4.12
   3  11 -10   26.59    5.32
  -3  11 -10   21.41    5.25
   3  11  10   18.98    4.55
  -3  11  10   18.17    4.47
   3  11 -11    3.23    2.17
   3 -11 -11    6.50    3.49
  -3 -11  11    9.09    3.46
  -3 -11 -11   11.91    4.51
   3 -11  11    6.83    2.98
   3  11 -11    9.36    4.02
  -3  11  11    9.29    4.37
   3  11  11    7.66    4.12
   3  11 -12  484.74   19.97
   3 -11  12  481.13   20.03
  -3 -11 -12  452.36   22.34
   3 -11 -12  489.26   22.89
  -3 -11  12  517.74   19.97
  -3  11  12  479.42   22.26
   3  11 -12  478.99   20.80
   3  11  12  496.93   22.81
   3 -11 -13   67.46    8.78
  -3 -11  13   59.56    7.26
   3 -11  13   63.20    7.59
   3  11 -13   59.20    7.08
   3  11 -13   64.43    7.93
   3  11  13   54.34    7.89
  -3  11  13   58.58    8.30
   3  11 -14   57.16    7.41
  -3 -11  14   58.05    7.47
   3  11  14   48.47    7.96
   3 -11 -14   51.61    8.15
   3 -11  14   63.00    7.76
  -3  11  14   50.74    7.91
   3  11 -14   48.43    7.08
  -3 -11  15   45.76    6.73
   3 -11 -15   42.52    7.90
   3 -11  15   44.33    6.75
   3  11  15   37.44    6.90
   3  11 -15   44.55    6.77
  -3  11  15   43.19    7.37
  -3 -11  16   32.27    6.15
   3 -11 -16   28.10    6.41
   3 -11  16   24.51    5.78
   3  11 -16   26.03    5.38
   3  11  16   26.79    6.20
  -3  11  16   18.33    5.29
  -3 -11  17   11.04    3.81
   3 -11 -17   10.14    4.55
  -3  11  17   -0.34    3.56
   3 -11  17   -0.75    3.09
   3  11 -17    4.87    3.42
   3  11  17    1.34    4.00
   3 -11  18   -0.35    2.91
   3  11 -18    1.76    2.58
  -3  11  18    4.15    4.50
  -3 -11  18    5.42    3.75
   3  11 -19   82.31    9.57
   3 -11  19   67.57    9.22
  -3 -11  19   84.52   10.10
  -3 -11  20  250.68   17.09
  -3 -12   0   -2.99    3.67
  -3  12   0   -6.63    4.63
  -3  12  -1   43.75    7.05
  -3 -12   1   27.11    5.69
  -3 -12  -1   28.59    6.14
  -3  12   1   32.23    6.25
  -3 -12   2   21.80    5.55
  -3 -12  -2   14.46    4.37
   3 -12  -2   22.89    5.37
  -3  12   2   26.70    6.01
  -3  12  -2   19.40    5.24
  -3  12  -3    4.73    3.92
  -3 -12   3    1.69    2.54
  -3 -12  -3    1.91    3.49
   3 -12  -3    2.89    3.80
  -3  12   3    9.88    4.64
  -3 -12   4    1.11    3.48
  -3 -12  -4   -2.45    3.39
  -3  12   4    2.58    3.29
   3 -12  -4   -0.36    3.03
   3  12  -4    0.26    2.64
  -3  12  -4   -3.08    4.11
  -3 -12  -5    0.66    2.12
  -3  12  -5   -0.29    3.40
  -3 -12  -5    4.05    3.91
   3 -12  -5   -1.80    3.57
   3  12  -5   -2.89    2.69
  -3 -12   5   -1.24    2.86
   3 -12  -6   17.76    5.23
  -3 -12  -6   18.22    5.25
   3  12  -6   17.35    5.02
  -3  12  -6   22.69    5.80
   3 -12  -7   19.69    5.30
  -3 -12  -7   17.10    4.81
  -3  12  -7   12.44    4.17
   3  12  -7   12.87    4.52
   3 -12  -8    2.98    3.62
  -3 -12  -8    4.74    3.32
   3  12  -8    1.43    2.58
   3  12  -8   -1.13    2.64
  -3  12  -8   -0.69    3.01
   3  12  -9   45.27    6.34
   3 -12  -9   43.49    7.37
  -3 -12  -9   55.06    8.03
   3  12  -9   39.79    6.33
  -3  12  -9   61.85    8.80
   3  12 -10   23.88    5.28
   3  12 -10   28.33    5.28
   3 -12 -10   26.09    6.13
  -3 -12 -10   32.16    6.61
  -3  12  10   24.01    5.69
  -3  12 -10   27.31    6.32
   3  12  11   -4.23    4.80
   3  12 -11    1.68    2.22
   3 -12 -11    0.95    3.66
  -3 -12 -11    5.68    4.22
  -3  12  11    0.64    3.47
   3  12 -11   -2.08    2.85
  -3  12 -11    1.30    3.30
   3 -12 -12   69.86    9.86
  -3 -12 -12   72.41    9.90
   3 -12  12   63.00    7.54
   3  12 -12   64.25    8.32
  -3  12 -12   71.61    9.57
   3  12  12   61.05    8.84
  -3  12  12   59.63    8.77
   3 -12 -13    3.19    3.71
  -3  12 -13    7.31    3.54
   3 -12  13    7.18    3.85
   3  12 -13    8.27    4.11
  -3  12  13    7.41    4.55
   3  12  13    3.05    3.61
   3  12 -14   40.93    6.86
   3 -12 -14   47.27    7.95
   3 -12  14   49.88    7.18
   3  12  14   37.68    7.22
  -3  12  14   39.16    7.11
   3  12 -15   18.53    5.10
   3 -12  15   18.98    4.95
  -3 -12  15   22.90    5.28
   3  12  15   18.63    5.46
  -3  12  15   22.42    5.72
   3 -12  16    8.46    3.91
   3  12 -16    4.79    3.26
  -3 -12  16    7.35    4.00
   3 -12  17  149.78   13.05
  -3 -12  17  145.80   12.50
   3  12 -17  135.99   12.20
   3  12 -18    1.17    2.56
   3 -12  18    0.49    2.99
  -3 -12  18    3.02    3.32
  -3 -13   0    0.97    3.98
  -3  13   0    1.99    3.19
  -3 -13   1  327.34   19.07
  -3 -13  -1  318.43   18.94
   3 -13  -1  375.05   20.15
  -3  13   1  346.14   19.84
  -3  13  -1  350.92   20.03
  -3 -13   2  324.93   19.19
  -3 -13  -2  338.22   19.71
   3 -13  -2  363.39   19.79
  -3  13   2  356.83   20.01
  -3  13  -2  364.93   20.38
  -3 -13  -3   -9.97    5.49
  -3 -13   3   -2.44    4.14
   3 -13  -3    1.46    3.83
  -3  13   3   -3.46    4.26
  -3  13  -3   -1.45    2.81
  -3 -13   4   87.55   10.38
  -3 -13  -4  103.81   11.02
  -3  13  -4   93.55   10.64
   3 -13  -4   93.75   10.34
  -3 -13  -5  203.39   15.46
   3 -13  -5  169.04   13.90
   3  13  -5  188.93   14.15
  -3  13  -5  212.31   15.80
  -3 -13   5  155.39   13.53
  -3 -13   6   -5.52    4.40
   3 -13  -6    1.60    3.38
  -3 -13  -6    0.42    2.86
   3  13  -6    3.76    3.54
  -3  13  -6   -5.69    4.91
  -3  13  -7   26.52    6.17
   3 -13  -7   24.90    5.91
  -3 -13  -7   24.16    6.18
   3  13  -7   27.88    5.86
  -3 -13  -8  102.54   11.42
  -3  13  -8  109.86   11.71
   3 -13  -8   98.82   10.92
   3  13  -8   94.03   10.14
  -3 -13  -9  230.47   16.86
   3 -13  -9  205.72   15.59
   3  13  -9  210.53   15.03
  -3  13  -9  221.97   16.52
   3 -13 -10    3.15    3.93
  -3 -13 -10    9.48    4.86
   3  13 -10    4.33    3.35
  -3  13 -10    6.07    4.04
   3  13 -11   74.61    9.16
   3  13 -12   17.73    5.40
   3  13 -13  292.35   18.38
   3  13 -14    2.30    3.04
   3  13 -15   12.55    4.99
  -3 -14   0    0.86    3.44
   3 -14   0    3.78    3.75
  -3  14   0    7.67    4.91
  -3 -14   1   56.38    8.63
  -3 -14  -1   43.17    7.83
   3 -14  -1   50.01    8.00
  -3  14   1   53.74    8.84
  -3  14  -1   49.23    8.71
  -3 -14   2    9.57    4.63
  -3 -14  -2    3.30    2.89
   3 -14  -2   19.74    5.72
  -3  14   2    8.96    4.32
  -3  14  -2   13.98    5.46
  -3 -14   3    3.14    3.82
  -3 -14  -3    7.00    4.43
   3 -14  -3   -0.47    3.08
  -3 -14   4   -2.72    4.33
  -3 -14  -4    0.20    3.14
   3 -14  -4    5.15    3.69
  -3 -14   5    9.97    5.30
   3 -14  -5    1.49    3.11
  -3 -14   6   67.07    9.40
   3 -14  -6   75.84   10.04
   3  14  -6   87.79   10.26
   3  14  -7   25.82    6.08
   3  14  -8   23.34    5.67
   3  14  -9   -1.99    3.36
   3  14 -10   28.56    6.27
   4   0   0 7748.17   51.60
   4   0  -1    4.24    2.51
   4   0   1    5.43    2.41
  -4   0  -1    1.06    1.11
  -4   0  -2  616.70   10.24
   4   0  -2  629.04   14.84
   4   0   2  621.41   14.90
   4   0   3    4.53    1.80
   4   0  -3   -0.28    1.89
  -4   0  -3    1.47    1.00
   4   0   3    2.26    2.11
   4   0   3    1.38    0.63
   4   0   4  612.36   12.48
  -4   0  -4  601.86   10.74
   4   0   4  586.06   15.10
   4   0  -4  592.43   14.78
   4   0   4  620.20   15.11
   4   0   5    1.52    1.16
   4   0   5    0.61    0.92
   4   0  -5    4.50    1.24
   4   0  -5    3.51    2.34
   4   0   5    4.69    2.22
   4   0   6   99.49    4.88
   4   0   6   97.04    5.10
   4   0  -6   93.68    4.69
   4   0  -6   92.39    6.19
   4   0   6   88.86    6.17
   4   0   7    1.25    1.98
   4   0   7    0.11    1.20
   4   0  -7   -0.43    0.94
   4   0  -7    0.16    1.74
   4   0  -8  490.13   14.68
   4   0   8  489.95   11.89
   4   0  -8  489.56   11.47
  -4   0  -8  497.96   11.83
   4   0   8  498.24   14.71
  -4   0  -9    0.32    1.00
   4   0  -9    1.62    1.25
   4   0   9    2.56    2.60
   4   0  -9   -0.68    2.23
   4   0 -10  324.28   12.58
   4   0  10  339.55   12.78
   4   0  11    1.91    2.69
   4   0 -11   -1.40    2.16
   4   0  12  262.82   11.99
   4   0 -12  252.70   11.87
   4   0  13    9.09    4.14
   4   0 -13    2.31    3.32
   4   0 -14 2649.90   40.00
   4   0  14 2728.98   40.05
   4   0 -15    3.55    3.78
   4   0  15   13.73    5.69
   4   0  16  549.65   19.03
   4   0 -16  553.70   19.33
   4   0 -17   -4.31    3.41
   4   0  17   -1.00    2.68
   4   0  18   86.36    8.14
   4   0 -18   71.05    7.56
  -4   0  18   85.42    8.14
  -4   0  19   -4.52    3.49
   4   0  19    1.10    2.69
   4   0  20   98.20    9.08
  -4   0  20   92.46    9.06
  -4   0  21    9.12    3.98
   4   0  21    2.22    3.87
  -4   0  22  143.37   11.51
   4   0  22  152.83   11.84
  -4   0  23    6.59    3.60
   4   0  23   -1.52    3.15
  -4   0  24    5.77    4.38
   4   0  24   -1.12    2.88
  -4   0  25   -0.39    3.36
   4   0  25   -1.38    3.31
  -4   0  26   -2.99    3.35
   4   0  26   -3.54    3.85
  -4   0  27   -0.78    4.02
   4   0  27   -3.54    3.44
   4   0  28  130.64   12.69
   4   1   0  206.47    8.56
   4  -1   0  214.51    8.51
   4  -1  -1  505.21   12.92
   4   1  -1  511.02   13.44
   4  -1   1  509.96   13.32
   4   1   1  498.03   13.39
  -4  -1   1  459.22    5.77
  -4   1  -1  503.14    7.18
  -4   1  -2  352.31    5.31
  -4  -1   2  331.78    4.46
   4   1  -2  365.07   11.65
   4  -1  -2  370.81   11.24
  -4   1   2  361.32    5.31
  -4   1  -2  363.83    6.10
   4   1   2  355.75    5.44
   4   1   2  364.96   11.59
   4  -1   2  359.77   11.21
  -4  -1  -2  364.10    9.20
   4   1   3  168.56    7.37
  -4  -1  -3  166.97    6.40
  -4   1   3  161.94    3.93
   4   1   3  164.87    8.12
   4   1  -3  170.17    8.15
   4  -1  -3  157.33    7.65
   4   1  -3  165.90    4.32
  -4   1   3  166.60    4.38
   4   1   3  165.85    4.30
   4  -1   3  171.35    8.07
   4   1   4 2821.68   29.30
  -4  -1  -4 2814.45   26.51
   4   1  -4 2812.06   19.67
   4   1  -4 2798.80   32.73
   4   1   4 2823.85   19.92
   4  -1  -4 2790.10   31.39
   4   1  -4 2814.56   20.00
   4  -1   4 2777.53   32.60
   4   1   4 2842.80   32.79
  -4   1   4 2791.26   20.29
   4  -1   4 2806.57   24.10
   4  -1   4 2777.41   32.49
   4  -1   5  270.44    7.60
   4   1   5  255.69    8.92
   4  -1   5  275.46    6.63
  -4  -1  -5  264.24    8.43
   4   1  -5  271.51    6.41
   4  -1  -5  283.22    8.71
   4   1  -5  276.74   10.70
   4  -1  -5  263.84    9.94
   4   1   5  273.56   10.08
   4  -1   5  285.17   10.74
   4   1   5  272.10   10.66
   4   1   5  265.39    6.85
   4  -1   6   43.40    2.88
  -4  -1  -6   50.37    3.99
   4  -1   6   45.97    4.61
   4   1  -6   45.11    2.81
   4  -1  -6   39.70    3.53
   4   1  -6   43.62    4.79
   4  -1  -6   42.13    4.20
   4   1   6   46.18    3.29
   4   1   6   50.11    4.56
   4   1   6   43.98    3.66
   4   1   7  176.74    7.42
   4  -1   7  170.30    6.11
   4   1  -7  167.19    5.74
   4  -1  -7  161.94    7.08
   4   1  -7  177.29    8.99
   4  -1  -7  171.43    8.41
   4  -1  -7  167.67    4.39
   4   1   7  157.72    8.23
   4  -1   7  163.60    8.63
   4  -1   8 1087.19   16.44
   4  -1  -8 1071.84   18.56
   4   1  -8 1084.90   22.21
   4  -1  -8 1076.84   12.16
   4  -1  -8 1072.98   21.27
   4   1   8 1101.69   21.44
   4  -1   8 1062.46   22.00
   4   1   9    8.53    2.54
   4  -1  -9   11.51    2.22
   4  -1   9   11.33    2.97
   4  -1   9   15.54    2.31
   4   1  -9   12.58    2.96
   4  -1  -9   10.95    2.75
   4  -1  -9   11.57    1.52
  -4   1  -9   13.27    1.96
   4  -1 -10  309.77   10.81
  -4  -1  10  304.03    9.08
   4   1 -10  309.03   12.67
   4  -1 -10  290.10   11.73
  -4   1 -10  313.44    8.85
   4  -1  10  291.35   12.34
   4   1  10  315.88   12.15
   4  -1  11  195.00   10.43
  -4   1 -11  199.49    7.33
   4  -1 -11  191.07    8.87
   4   1 -11  178.93    9.95
   4  -1 -11  180.33    9.59
   4   1  11  175.80    9.45
  -4   1 -12  243.42    8.45
   4  -1  12  246.79   11.83
   4   1  12  230.98   11.03
   4   1 -12  246.76   11.90
   4  -1 -12  220.72   10.77
   4  -1  13  127.63    9.00
   4  -1 -13  130.25    8.70
   4   1 -13  122.66    8.79
   4   1  13  116.41    8.16
   4   1  14  718.59   20.45
   4  -1  14  681.65   20.52
   4  -1 -14  709.47   20.32
   4   1 -14  674.37   20.77
   4   1  15 2039.60   35.09
   4  -1  15 2040.86   36.32
   4  -1 -15 2090.16   35.53
   4   1 -15 2078.37   36.88
   4  -1  16  434.26   17.73
   4  -1 -16  399.83   16.44
   4   1 -16  416.29   17.04
   4   1  16  406.87   16.18
   4   1  17   60.48    7.34
   4  -1 -17   56.89    6.69
   4   1 -17   56.34    6.85
   4   1  18  586.25   20.26
   4  -1  18  563.31   20.67
   4   1 -18  571.58   21.13
  -4   1  18  576.87   20.15
  -4  -1  18  551.97   20.39
  -4  -1  19   -3.86    3.57
  -4   1  19    0.90    2.90
   4   1  19    4.53    3.14
   4  -1  19    5.85    3.85
   4   1  20   40.92    6.10
  -4  -1  20   33.26    5.55
   4  -1  20   40.95    6.43
  -4   1  20   38.29    5.99
   4   1  21  117.72   10.13
   4  -1  21  120.46   10.79
  -4  -1  21   99.93   10.05
  -4   1  21   91.20    8.99
  -4  -1  22  559.90   22.85
  -4   1  22  564.64   22.16
   4   1  22  533.82   21.30
   4  -1  22  531.31   22.25
   4   1  23    7.36    4.41
  -4  -1  23    2.85    4.11
   4  -1  23    9.43    5.79
  -4   1  23   11.96    4.85
  -4  -1  24   25.31    5.75
  -4   1  24   17.14    4.80
   4   1  24   22.60    5.63
   4  -1  24   27.21    6.59
   4   1  25  178.17   13.65
   4  -1  25  190.53   14.45
  -4  -1  25  192.91   14.56
  -4   1  25  166.03   13.30
   4   1  26  432.69   21.49
   4  -1  26  421.78   21.74
  -4  -1  26  411.37   21.42
  -4   1  26  403.08   20.68
   4   1  27   12.88    5.51
   4  -1  27   15.16    5.27
  -4  -1  27    9.43    5.04
  -4   1  27   10.81    5.75
   4   1  28  188.09   14.83
  -4   1  28  159.79   13.58
   4  -2   0  525.66   13.13
  -4  -2   0  534.21    8.58
  -4  -2   0  537.65    8.70
   4   2   0  513.84   13.82
   4  -2   0  521.32    7.70
  -4  -2   1   13.01    1.44
  -4  -2   1   11.74    1.36
  -4  -2   1   12.29    1.54
   4  -2   1    9.66    2.16
   4   2  -1   13.90    2.68
   4  -2  -1   15.05    1.35
   4   2   1   13.86    2.57
   4  -2  -1    7.57    1.95
  -4  -2  -1   10.82    1.38
   4  -2   1   14.60    1.39
   4  -2  -1   10.57    1.30
   4   2   2  587.15   14.37
   4  -2   2  602.26    8.79
  -4  -2  -2  582.59   13.11
   4   2   2  593.78    9.39
  -4   2   2  589.68    8.98
  -4  -2   2  589.78    8.09
  -4   2   2  567.29   10.00
   4   2  -2  595.83   15.12
   4  -2  -2  600.50   13.94
   4   2   2  586.67   14.66
   4  -2   2  579.57   14.31
  -4  -2  -2  612.14    9.55
  -4  -2  -3 1165.91   18.91
   4   2   3 1154.01   20.41
   4   2  -3 1129.75    8.41
   4   2   3 1187.87   21.35
  -4   2   3 1121.76   13.71
   4   2  -3 1158.39   21.23
   4  -2  -3 1193.13   19.88
  -4   2  -3 1190.26   13.75
   4  -2   3 1188.65   20.79
   4   2   3 1148.07   13.83
  -4   2   3 1194.78   13.68
   4  -2   3 1176.93   21.23
   4  -2   4 2266.02   19.15
  -4  -2  -4 2183.21   26.19
   4   2  -4 2132.21   11.88
   4   2   4 2254.39   28.25
   4  -2   4 2250.90   29.76
  -4   2   4 2239.80   18.88
   4   2  -4 2192.24   29.85
   4  -2  -4 2253.57   27.52
  -4   2  -4 2226.88   20.48
   4   2  -4 2214.29   20.56
   4   2   4 2282.44   29.40
   4   2   4 2219.48   20.54
  -4   2   4 2289.41   20.57
   4  -2   5   96.97    3.91
  -4  -2  -5  102.81    5.92
   4  -2   5  101.25    6.68
   4   2  -5  106.03    4.89
   4  -2   5  101.94    3.34
   4   2   5   94.15    5.92
   4   2  -5  103.48    6.82
   4  -2  -5  101.10    6.13
   4   2   5  104.69    6.81
   4   2   5   95.53    4.66
  -4   2   5   97.81    4.69
  -4  -2  -6  233.78    9.01
   4  -2  -6  233.81    9.03
   4   2  -6  237.22    7.73
   4   2  -6  220.77    4.27
   4   2  -6  224.16   10.09
   4  -2  -6  237.39    9.49
   4   2   6  231.26    7.60
   4   2   6  230.47    9.89
   4  -2   6  244.32   10.34
   4  -2   6  237.60    5.84
  -4   2   6  234.86    7.66
   4  -2   7  951.87   20.65
   4  -2   7  956.01   13.10
  -4  -2  -7  932.34   18.34
   4  -2  -7  932.91   18.17
   4   2  -7  949.32   20.99
   4  -2  -7  967.67   19.29
   4   2  -7  941.65    9.69
   4  -2  -7  957.89   13.18
  -4   2   7  945.03   16.30
   4   2   7  920.42   18.75
   4   2   7  961.47   16.27
   4  -2  -8  168.42    8.00
   4   2   8  160.71    8.25
   4  -2   8  181.37    6.24
   4   2  -8  162.49    8.99
   4  -2  -8  168.57    8.47
   4  -2  -8  167.59    5.73
   4   2   8  156.83    7.08
  -4   2   8  171.03    7.38
   4  -2   8  173.76    9.27
   4   2   9   25.47    3.55
   4  -2   9   28.04    2.93
   4   2   9   22.43    3.19
  -4  -2   9   24.47    2.25
   4  -2  -9   26.23    3.53
   4  -2   9   30.97    4.23
   4  -2  -9   25.05    2.38
   4   2  -9   25.75    3.95
   4  -2  -9   18.04    2.92
   4   2  10   20.81    3.49
   4  -2 -10   14.94    2.94
  -4  -2  10   14.27    1.93
   4  -2  10   10.83    3.12
   4   2 -10   15.05    3.36
   4  -2 -10   11.47    2.72
   4  -2 -10   15.63    2.08
   4   2  10   16.20    2.90
  -4   2 -11   66.45    3.72
   4  -2  11   67.95    6.51
   4  -2 -11   72.01    5.81
  -4  -2  11   64.50    4.17
   4   2 -11   65.76    6.39
   4  -2 -11   68.15    5.83
   4  -2 -11   71.60    4.42
   4   2  11   68.82    5.89
  -4   2 -12  167.77    6.10
   4  -2  12  167.27   10.03
   4  -2 -12  163.45    8.96
  -4  -2  12  174.74    7.25
   4  -2 -12  160.15    9.14
   4   2 -12  164.35   10.00
   4   2  12  170.95    9.31
  -4   2 -13  139.01    5.83
   4  -2  13  128.48    9.14
   4  -2 -13  132.63    8.40
   4  -2 -13  133.69    8.48
   4   2 -13  124.45    9.24
   4   2  13  135.67    8.41
   4  -2  14   94.89    8.20
   4  -2 -14  101.99    7.82
   4   2 -14  103.52    8.26
  -4   2 -14  103.21    5.36
   4   2  14  107.00    7.82
   4  -2  15  153.13   10.43
   4  -2 -15  165.90    9.99
   4   2 -15  167.11   10.88
   4   2  15  165.90    9.76
   4   2  16   88.34    7.55
   4  -2  16   92.13    8.50
   4  -2 -16   92.87    7.87
   4   2 -16   76.56    7.62
   4   2  17   95.82    8.28
   4  -2  17  100.56    9.07
  -4   2  17   82.74    5.81
   4  -2 -17   94.00    8.17
   4   2 -17   85.73    8.14
  -4  -2  17  101.95    9.01
   4  -2  18  278.11   14.76
   4   2 -18  270.09   14.73
  -4  -2  18  261.42   14.37
  -4   2  18  276.75   10.17
  -4   2  18  261.20   13.43
   4   2  18  281.11   13.81
   4   2  19   -1.75    2.16
   4  -2  19    3.98    3.00
  -4   2  19    6.58    3.13
  -4  -2  19   -3.24    4.01
  -4  -2  20    3.09    3.01
   4   2  20    1.04    2.57
   4  -2  20    8.19    4.37
  -4   2  20    7.63    3.20
  -4   2  21   30.80    5.49
   4   2  21   38.96    5.76
   4  -2  21   36.27    6.19
  -4  -2  21   33.31    6.21
   4   2  22    7.15    3.17
  -4  -2  22   12.06    4.35
   4  -2  22   10.62    4.32
  -4   2  22   13.41    4.00
  -4   2  23   29.31    5.46
   4   2  23   39.51    6.19
  -4  -2  23   41.61    7.09
   4  -2  23   38.80    6.78
   4  -2  24    0.05    3.33
  -4  -2  24    3.52    3.92
  -4   2  24    2.12    2.90
   4   2  24   -1.28    3.33
  -4  -2  25    5.67    4.11
  -4   2  25    9.53    4.30
   4   2  25    9.57    4.00
   4  -2  25    2.74    3.53
  -4  -2  26   87.55   10.28
   4   2  26   75.58    9.09
  -4   2  26   92.91   10.10
   4  -2  26   88.55   10.42
   4   2  27    4.41    3.35
   4  -2  27   14.68    5.64
  -4   2  27    7.76    4.20
   4   2  28    4.35    3.46
  -4   2  28   -1.05    3.37
   4   2  29   34.40    6.72
   4  -3   0 1763.38   23.89
  -4  -3   0 1792.21   19.56
   4   3   0 1733.72   25.73
   4  -3   0 1801.52   18.34
  -4  -3   0 1750.28   19.50
  -4  -3   0 1800.56   19.37
   4  -3   0 1786.40   18.20
  -4   3   1   14.12    0.99
   4  -3   1   14.40    1.80
   4   3   1   21.41    3.36
   4  -3  -1   12.04    1.58
  -4  -3  -1   13.07    1.78
  -4  -3   1   13.84    1.81
  -4  -3   1   16.00    1.86
   4   3  -1   14.56    2.73
   4  -3  -1   16.72    1.87
   4   3   1   13.03    2.62
   4  -3  -1   18.56    2.61
   4  -3   1   15.46    2.58
  -4  -3   1   15.00    1.92
   4  -3   1   13.98    1.78
   4   3  -2   53.01    4.62
   4   3   2   54.55    4.95
  -4  -3   2   51.43    3.45
  -4   3   2   50.62    3.65
  -4  -3   2   57.07    3.20
  -4  -3   2   50.83    3.44
   4  -3  -2   47.43    4.00
  -4  -3  -2   50.51    3.41
   4   3   2   52.71    4.65
  -4   3   2   50.73    3.25
   4  -3   2   52.30    3.28
   4  -3   2   57.26    4.73
   4  -3  -2   58.11    3.45
  -4  -3  -2   53.57    4.48
  -4  -3  -3  629.62   15.08
   4   3   3  638.36   16.21
  -4   3   3  613.74   12.10
   4   3  -3  635.55   16.01
   4  -3  -3  630.82   14.39
   4   3   3  644.24   15.54
   4   3   3  615.58   11.99
  -4   3   3  627.97   11.74
   4  -3   3  617.17   15.63
   4  -3   3  631.58   15.29
  -4  -3  -3  633.60   12.22
   4  -3   4   12.26    2.63
   4   3   4    7.85    2.30
  -4  -3  -4    4.03    1.78
   4  -3  -4   12.00    2.36
  -4   3   4   11.87    2.00
  -4   3  -4   12.08    1.94
   4   3   4    9.73    1.75
   4   3   4    9.96    2.65
  -4   3   4    9.98    1.87
   4   3  -4    9.92    2.46
   4  -3   5  422.27    6.55
  -4  -3  -5  418.11   12.74
   4   3   5  427.01   13.35
   4  -3   5  411.09    5.44
  -4   3  -5  436.97   10.80
   4   3  -5  434.82    8.07
   4   3  -5  442.80   13.88
   4  -3  -5  425.23   12.00
   4   3  -5  421.03   10.68
   4   3   5  441.84   13.34
   4   3   5  440.82   10.99
  -4   3   5  424.91   10.60
   4  -3   5  448.85   13.94
  -4  -3  -6 1326.48   23.10
   4  -3   6 1349.01   12.48
   4  -3  -6 1312.33   22.85
   4   3  -6 1350.96   14.43
   4   3  -6 1348.58   24.58
   4  -3  -6 1325.10   21.40
   4   3   6 1320.34   19.72
  -4   3  -6 1342.82   19.91
   4   3  -6 1338.45   19.96
  -4   3   6 1311.94   19.53
   4   3   6 1309.86   23.28
   4  -3   6 1350.79   24.73
  -4  -3  -7  104.82    6.94
   4  -3  -7  115.83    7.13
   4   3  -7  113.70    7.49
   4  -3  -7  120.08    6.76
   4   3  -7  120.06    4.48
   4  -3  -7  126.93    5.69
   4   3  -7  116.66    6.27
  -4   3  -7  104.50    5.95
   4   3   7  111.93    6.07
  -4   3   7  110.85    6.16
   4   3   7  110.78    7.12
   4  -3   7  114.77    7.66
  -4  -3  -8  146.37    8.17
   4  -3  -8  150.44    8.22
   4   3  -8  143.01    8.49
   4  -3  -8  145.96    7.50
   4   3   8  144.97    7.19
   4  -3  -8  155.23    6.41
   4   3  -8  146.61    5.27
   4   3  -8  150.16    7.37
   4   3   8  150.32    7.60
  -4   3   8  153.98    7.44
   4  -3   8  158.66    9.02
  -4  -3  -9  203.70    9.90
   4  -3  -9  193.86    9.36
  -4  -3   9  201.05    5.59
   4   3  -9  197.66   10.35
   4  -3  -9  197.96    9.04
   4  -3  -9  201.69    7.52
   4   3   9  180.49    8.60
   4   3   9  204.11    8.97
  -4   3   9  197.29    8.81
   4  -3   9  195.28   10.26
   4  -3 -10   66.44    5.72
  -4  -3  10   68.50    3.64
   4   3 -10   69.70    6.44
   4  -3 -10   64.54    5.25
   4  -3  10   64.84    6.30
   4   3  10   55.90    5.06
   4   3  10   61.40    5.24
  -4   3  10   63.37    5.56
   4  -3  11  308.98   13.50
   4  -3 -11  303.95   12.54
  -4  -3  11  322.57    8.54
   4   3 -11  319.92   13.60
   4  -3 -11  302.53   11.68
   4   3  11  310.89   11.99
  -4   3  11  306.70   11.99
   4   3  11  314.10   11.94
   4  -3 -12   62.00    5.95
  -4  -3  12   57.91    3.95
   4   3  12   65.31    5.85
   4  -3 -12   62.83    5.54
   4   3 -12   57.38    6.09
   4  -3  12   53.41    6.18
  -4   3  12   60.26    5.76
   4   3  12   59.12    5.46
  -4   3 -13   17.45    1.78
   4  -3 -13   18.45    3.85
   4   3  13   17.07    3.42
  -4  -3  13   19.26    2.59
   4  -3 -13   19.38    3.53
   4   3 -13   15.21    3.51
   4  -3  13   16.49    4.07
   4   3  13   22.28    4.22
  -4   3  13   22.73    4.11
  -4   3 -14    6.49    1.33
   4  -3 -14    3.69    2.84
   4   3  14    5.51    2.66
   4  -3 -14    5.72    2.48
   4   3 -14    8.14    3.56
   4  -3  14    6.51    3.30
  -4   3  14    5.97    2.44
   4   3  14    5.44    3.18
   4  -3  15  147.92   10.38
   4  -3 -15  144.39    9.17
   4   3 -15  143.67   10.43
  -4   3  15  153.12    8.35
   4   3  15  149.32    9.23
   4   3  15  148.02    9.71
   4   3  16    0.24    2.10
   4  -3 -16   -1.34    2.26
   4   3 -16   -1.18    3.37
   4  -3  16   -0.21    3.31
  -4  -3  16    1.80    2.83
  -4   3  16    0.23    2.09
   4   3  16   -0.66    2.68
   4  -3  17  228.52   13.48
   4   3 -17  232.00   13.65
  -4   3  17  233.81   10.18
  -4   3 -17  242.84    9.45
  -4  -3  17  233.55   13.42
   4   3  17  237.08   12.92
   4   3  17  225.48   11.80
   4  -3  18  157.42   11.60
   4   3 -18  149.16   11.27
  -4  -3  18  156.23   11.36
   4   3  18  134.93    9.54
   4   3  18  144.57   10.41
  -4   3  18  136.56    7.71
  -4   3  18  134.52    9.59
   4  -3  19  184.00   12.69
  -4  -3  19  151.97   11.58
  -4   3  19  158.34   10.79
   4   3  19  156.81   11.32
   4   3  19  157.72   10.67
   4   3  20  130.51    9.99
  -4  -3  20  131.84   11.27
   4  -3  20  128.05   11.35
  -4   3  20  117.67    9.66
   4   3  21  929.99   26.85
   4  -3  21  906.93   29.19
  -4   3  21  896.32   26.47
  -4  -3  21  926.58   29.45
   4   3  22    9.38    4.09
  -4  -3  22    7.86    5.05
   4  -3  22   16.88    5.72
  -4   3  22    7.16    4.69
   4   3  23   88.96    8.75
  -4  -3  23   81.06    9.43
   4  -3  23   81.57    9.46
  -4   3  23   90.88    9.10
  -4  -3  24    2.73    3.79
  -4   3  24   -2.63    3.14
   4   3  24    3.02    3.31
   4  -3  24   -3.39    3.08
   4   3  24    1.75    3.81
   4   3  25  117.98   10.68
   4  -3  25  125.45   12.39
  -4  -3  25  101.19   10.96
  -4   3  25  114.90   10.61
   4   3  25  102.50   10.79
  -4  -3  26   59.42    8.90
  -4   3  26   51.50    7.49
   4   3  26   44.71    7.23
   4  -3  26   43.22    8.07
   4   3  26   58.43    9.24
   4   3  27   12.36    4.11
  -4   3  27   17.76    5.09
   4   3  27   18.76    5.61
   4   3  28   30.18    6.23
  -4   3  28   28.57    6.39
   4   4   0   30.50    3.95
   4   4   0   33.05    1.75
  -4  -4   0   33.86    3.20
   4  -4   0   30.94    2.85
   4   4   0   27.25    3.56
  -4  -4   0   29.72    3.08
   4  -4   0   28.81    2.80
  -4  -4   0   30.26    2.96
   4  -4   0   33.16    3.54
   4   4  -1   18.37    3.25
   4   4   1   16.45    3.13
   4  -4  -1   17.77    2.21
   4   4   1   17.12    1.54
  -4  -4   1   15.84    2.37
  -4  -4  -1   18.48    2.37
   4  -4   1   18.65    2.41
   4   4  -1   16.95    2.91
  -4  -4   1   18.20    2.36
   4  -4  -1   16.86    2.08
  -4   4   1   18.24    2.76
   4   4   1   18.78    2.99
  -4  -4  -1   16.19    2.21
   4  -4  -1   14.53    2.60
  -4  -4   1   17.94    2.42
   4  -4   1   23.21    3.08
   4  -4   1   15.64    2.15
  -4   4   2  169.82    4.59
   4   4   2  169.30    8.90
   4   4   2  171.84    5.52
  -4   4   2  158.90    7.10
  -4  -4   2  170.47    7.17
  -4  -4   2  176.10    6.57
   4   4  -2  167.33    8.31
  -4   4   2  163.82    6.70
  -4  -4   2  169.28    7.09
   4  -4  -2  174.14    7.42
   4   4   2  160.76    8.05
  -4  -4  -2  165.04    8.41
   4  -4   2  170.20    8.32
   4  -4   2  173.99    7.94
   4  -4  -2  170.21    6.84
  -4  -4  -2  170.63    7.07
   4  -4   2  175.04    6.90
  -4  -4  -3   73.43    5.80
   4   4   3   67.31    5.85
  -4   4   3   69.81    3.39
   4   4   3   71.73    3.96
   4  -4   3   64.94    4.33
  -4   4   3   67.53    4.64
   4   4  -3   66.07    5.50
   4  -4  -3   67.23    4.74
   4   4   3   66.67    5.20
   4   4   3   61.36    4.48
  -4   4   3   68.77    4.47
   4  -4   3   69.72    5.63
   4  -4  -3   63.96    4.32
  -4  -4  -4  223.07   10.02
   4   4   4  226.10   10.40
  -4   4   4  220.50    6.65
   4   4   4  230.23    7.57
  -4   4   4  229.05    8.31
   4  -4  -4  233.96    8.46
  -4   4   4  212.98    8.24
   4   4  -4  231.77   10.08
   4  -4  -4  213.41    8.24
   4   4   4  213.36    9.25
   4   4   4  208.98    8.23
   4  -4   4  223.36    9.82
   4   4   5 1111.21   22.97
  -4   4   5 1130.56   16.26
   4   4   5 1146.48   18.04
   4   4   5 1070.93   20.78
  -4  -4  -5 1108.72   22.37
  -4   4   5 1104.27   18.48
   4   4  -5 1103.36   15.76
   4   4  -5 1125.48   22.50
   4  -4  -5 1083.16   18.63
  -4   4  -5 1095.05   18.80
   4   4   5 1105.28   19.21
  -4   4   5 1101.59   18.74
   4  -4   5 1113.26   22.28
  -4  -4  -6  216.16   10.05
   4   4   6  210.05    9.45
   4  -4  -6  205.59    9.76
   4   4   6  203.25    8.52
  -4   4  -6  198.51    8.35
   4   4  -6  207.58    7.05
   4   4  -6  214.24   10.33
   4  -4  -6  215.08    8.45
   4   4  -6  203.77    8.54
  -4   4   6  206.72    8.57
   4  -4   6  222.96   10.50
  -4  -4  -7  255.00   11.19
   4  -4  -7  258.16   11.28
  -4   4   7  267.04   10.03
   4   4  -7  257.77   11.36
   4  -4  -7  253.71    9.48
   4   4  -7  264.54    7.95
  -4   4  -7  267.12    9.96
   4   4  -7  259.39   10.04
   4   4   7  272.97   10.81
   4   4   7  266.27   10.07
   4  -4   7  274.52   11.76
   4  -4  -8    2.72    2.09
  -4  -4   8    3.60    0.63
  -4  -4  -8    4.63    2.67
   4  -4   8    5.35    2.44
   4   4  -8    4.46    1.85
   4   4  -8   -0.42    2.64
   4  -4  -8    1.28    1.59
  -4   4  -8    6.13    2.37
   4   4  -8    3.55    1.38
  -4   4   8    2.59    1.86
   4   4   8    4.03    2.16
   4   4   8   -0.68    2.02
  -4  -4   9    0.49    0.51
   4  -4  -9   -1.69    2.25
  -4   4   9    0.17    1.69
  -4  -4  -9    4.50    2.90
   4  -4   9    2.01    2.29
   4   4  -9   -0.69    2.24
   4  -4  -9    0.20    1.54
   4   4  -9    5.57    2.52
   4   4  -9    0.36    1.26
  -4   4  -9    2.21    2.02
   4   4   9    5.26    1.94
   4   4   9   -0.09    1.80
  -4  -4 -10   68.39    6.58
  -4  -4  10   68.34    3.38
   4  -4 -10   64.48    5.89
   4   4 -10   67.14    6.47
   4  -4 -10   63.72    5.27
   4  -4  10   58.56    5.98
   4   4 -10   68.95    5.95
  -4   4 -10   61.85    5.67
   4   4  10   64.04    5.19
   4   4  10   67.31    5.77
  -4   4  10   59.10    5.34
   4   4  11   34.10    4.01
  -4  -4  11   37.75    2.86
   4  -4 -11   40.96    5.05
  -4   4  11   40.14    4.80
   4  -4 -11   29.44    3.71
   4   4 -11   33.36    4.92
   4  -4  11   33.07    5.20
   4   4 -11   37.94    4.73
   4   4  11   40.66    4.81
  -4   4  11   34.23    4.47
   4   4  12    2.59    2.15
   4  -4 -12    3.08    2.55
   4  -4 -12    6.27    2.28
   4   4 -12    6.67    2.98
   4  -4  12    5.31    3.15
   4   4 -12    6.93    2.55
  -4   4  12    6.87    2.90
  -4  -4  12    3.49    1.16
   4   4  12    0.62    2.54
  -4   4  12    2.48    2.29
  -4   4  13   22.11    3.82
   4   4  13   16.28    3.17
   4  -4 -13   16.82    4.03
   4  -4 -13   14.03    3.13
   4   4 -13   15.16    4.20
   4  -4  13   11.91    3.42
   4   4  13   21.65    4.49
  -4   4  13   12.62    3.43
   4  -4 -14  159.90   10.42
   4  -4  14  163.41   10.96
  -4   4  14  158.54    9.98
   4  -4 -14  157.22    9.18
   4   4 -14  168.63   11.00
   4   4  14  172.02   10.39
  -4   4 -14  145.20    8.03
   4   4  14  158.76    8.98
  -4   4  14  156.29    8.94
  -4   4  15   52.83    6.39
   4  -4 -15   59.92    6.72
   4  -4 -15   55.93    5.85
   4   4 -15   47.23    6.28
  -4  -4  15   56.88    6.62
   4  -4  15   51.87    6.85
  -4   4  15   50.08    5.37
  -4   4 -15   54.14    5.01
   4   4  15   55.36    5.65
   4   4  15   44.07    5.88
   4  -4  16   89.44    8.75
  -4  -4  16   93.25    8.56
   4   4 -16   73.75    8.09
  -4   4 -16   83.39    6.01
  -4   4  16   77.14    6.32
   4   4  16   85.55    7.95
  -4   4  16   82.05    7.77
   4   4  16   72.64    6.58
  -4  -4  17   35.81    6.25
   4   4  17   32.44    4.71
   4   4 -17   36.69    6.07
   4  -4  17   44.74    6.37
  -4   4  17   35.57    4.39
  -4   4 -17   40.83    4.20
   4   4  17   29.96    5.01
  -4   4  17   36.57    5.66
  -4   4  18   54.99    5.34
  -4  -4  18   61.48    7.55
   4  -4  18   63.07    7.99
  -4   4  18   58.61    6.34
   4   4  18   61.90    6.46
   4   4  18   65.14    7.48
  -4   4  18   48.23    6.68
  -4  -4  19  279.51   15.77
   4  -4  19  280.45   15.95
  -4   4  19  282.55   13.83
   4   4  19  276.61   13.45
  -4   4  19  289.39   15.58
   4   4  19  292.94   15.52
   4   4  20   -0.03    2.06
  -4   4  20    2.78    2.87
   4  -4  20    3.66    3.00
  -4  -4  20    1.75    3.35
   4   4  20   -1.33    2.87
  -4   4  20    4.38    4.18
   4   4  21   20.89    4.51
   4  -4  21   17.34    4.89
  -4   4  21   28.76    5.76
  -4  -4  21   15.85    4.95
   4   4  21   26.35    5.82
  -4   4  21   27.45    5.24
   4   4  22   52.58    6.48
  -4  -4  22   49.15    7.51
   4  -4  22   55.43    8.16
  -4   4  22   48.60    6.71
  -4   4  22   49.87    7.72
   4   4  22   50.97    7.39
  -4  -4  23    3.22    3.55
   4   4  23   -0.51    2.15
  -4   4  23    2.90    2.55
   4  -4  23    0.82    3.55
   4   4  23    5.55    3.53
  -4   4  23    4.32    3.54
  -4  -4  24   -1.63    3.80
  -4   4  24   -0.07    2.62
   4   4  24    1.97    2.61
   4  -4  24   -4.65    3.83
   4   4  24    0.66    3.57
  -4   4  24   -3.97    4.21
  -4  -4  25    6.82    3.79
  -4   4  25   -2.14    3.21
   4  -4  25   -0.62    3.50
   4   4  25    1.01    2.51
   4   4  25   -2.25    3.97
  -4   4  25    1.85    3.75
  -4   4  26   -1.89    3.01
   4   4  26    0.41    3.55
  -4   4  26   -1.87    3.88
  -4   4  27    4.36    2.84
   4   5   0  458.92   15.23
  -4   5   0  453.57   13.47
   4   5   0  458.91   13.60
   4  -5   0  457.89   12.10
   4   5  -1   -2.43    2.20
   4   5   1    1.09    1.97
   4   5  -1   -0.75    1.69
   4   5   1   -0.36    1.88
  -4   5   1    0.55    1.87
   4  -5  -1   -0.16    1.29
   4  -5   1    0.31    1.26
  -4  -5  -1   -0.25    2.47
   4   5  -2  214.02   10.55
   4   5   2  231.84   10.96
   4   5   2  229.64    6.72
  -4   5   2  218.44    9.38
   4   5  -2  213.47    9.69
   4   5   2  222.72    9.42
   4  -5  -2  226.33    8.29
   4  -5   2  222.63    9.06
   4  -5   2  228.89    9.96
  -4  -5  -2  231.52   10.77
  -4  -5  -3  339.35   13.05
   4   5   3  344.72   13.49
  -4   5   3  333.74   10.89
   4  -5   3  304.11    4.44
   4   5   3  343.07    8.95
  -4   5   3  328.85   11.23
   4   5  -3  333.61   12.26
   4   5   3  327.77   11.13
   4  -5  -3  338.16   10.12
   4   5   3  323.40   11.39
   4  -5   3  332.43   12.06
  -4   5   3  326.86    8.07
  -4  -5  -4  120.57    8.09
  -4   5   4  115.57    5.14
   4   5   4  126.31    5.86
   4   5  -4  118.89    6.17
  -4   5   4  115.49    6.73
   4   5  -4  117.77    7.52
   4   5   4  116.99    6.83
   4  -5  -4  113.58    5.93
   4   5   4  112.79    6.79
   4   5   4  124.09    8.19
  -4   5   4  115.67    6.67
   4  -5   4  131.23    7.79
   4  -5   4  109.30    3.03
   4  -5   5  160.25    8.79
  -4  -5  -5  150.52    8.99
  -4   5   5  148.28    6.29
  -4   5   5  160.94    7.94
   4   5  -5  156.06    6.90
   4   5  -5  155.62    8.68
   4  -5  -5  152.11    6.85
   4   5   5  153.49    8.05
  -4   5   5  164.02    9.39
   4   5   5  160.89    8.09
  -4   5   5  157.47    7.80
   4  -5   6   19.63    3.76
  -4  -5  -6   18.27    3.35
  -4   5   6   24.79    2.87
   4  -5  -6   24.32    4.02
   4   5   6   20.18    3.33
  -4   5  -6   23.66    3.35
   4   5  -6   22.25    3.71
   4  -5  -6   26.61    3.03
   4   5  -6   20.59    2.61
  -4   5   6   29.02    4.41
   4   5   6   21.02    3.37
  -4   5   6   26.59    3.63
  -4   5  -7    2.28    1.71
  -4  -5  -7    4.23    2.58
   4  -5   7    4.50    2.82
   4  -5  -7    2.54    1.94
   4   5  -7    2.49    2.08
   4  -5  -7    4.63    1.50
   4   5  -7    4.85    1.53
   4   5  -7    3.77    1.76
   4   5   7    5.15    1.96
   4   5   7    7.88    2.66
  -4   5   7    4.18    2.08
  -4   5   7    8.05    3.06
  -4  -5  -8  324.79   13.61
   4  -5  -8  315.48   13.36
   4   5  -8  326.12   13.42
  -4   5  -8  327.24   12.62
   4  -5  -8  332.16   10.68
   4   5  -8  331.36   10.40
  -4   5   8  334.60   12.47
  -4   5  -8  341.13   12.48
  -4   5   8  327.99   13.10
   4   5  -8  325.43   12.31
   4   5   8  331.00   12.51
   4   5   8  330.59   12.13
   4  -5   8  320.97   13.45
  -4   5   9  260.75   11.27
  -4  -5  -9  267.62   12.68
  -4  -5   9  256.26    5.35
   4  -5  -9  257.94   12.23
  -4   5  -9  264.90   11.39
  -4   5   9  265.44   12.03
   4   5  -9  264.79   12.47
   4  -5  -9  263.17    9.77
   4   5  -9  265.76    9.48
  -4   5  -9  259.32   11.22
   4   5  -9  256.07   11.26
   4   5   9  276.51   11.28
   4   5   9  256.64   11.33
   4  -5   9  258.37   12.29
   4  -5  10  549.94   18.32
  -4  -5 -10  516.02   17.83
  -4  -5  10  539.45    9.01
   4  -5 -10  550.76   18.26
  -4   5 -10  546.21   16.93
  -4   5  10  524.92   16.64
   4   5 -10  553.41   18.25
   4  -5 -10  534.90   14.40
   4   5 -10  548.88   13.79
   4   5 -10  559.53   16.93
  -4   5 -10  552.17   16.28
   4   5  10  550.99   16.83
  -4   5  10  563.32   17.00
   4   5  10  557.64   16.43
   4  -5 -11   56.59    6.56
   4  -5 -11   59.09    5.16
   4   5 -11   49.08    6.22
   4  -5  11   64.32    6.73
   4   5 -11   57.86    6.04
  -4   5 -11   60.36    6.14
  -4   5  11   58.70    6.03
  -4   5  11   51.94    5.77
  -4   5 -11   63.07    5.78
   4   5  11   56.86    5.91
   4   5  11   54.57    5.63
   4  -5  12  159.56   10.44
   4  -5 -12  165.51   10.52
   4  -5 -12  157.94    8.31
   4   5 -12  156.73   10.35
   4   5  12  185.40   10.41
  -4   5 -12  162.41    9.83
   4   5 -12  161.99    9.91
  -4   5 -12  158.49    8.87
  -4   5  12  164.36    9.63
   4   5  12  150.51    8.14
  -4   5  12  165.26   10.02
   4   5 -13   33.74    5.01
   4  -5 -13   37.75    5.65
   4  -5 -13   42.41    4.65
   4   5 -13   42.13    5.88
   4  -5  13   35.15    5.65
  -4   5 -13   33.21    5.19
  -4   5 -13   40.31    4.86
  -4   5  13   35.40    4.66
   4   5  13   34.30    5.22
  -4   5  13   35.03    5.02
   4   5  13   30.76    3.94
  -4   5  14  878.62   21.91
  -4   5 -14  879.30   24.01
   4  -5  14  889.02   25.58
   4  -5 -14  907.53   25.22
   4  -5 -14  877.28   20.84
   4   5 -14  865.88   25.25
  -4   5 -14  858.77   20.30
   4   5 -14  904.93   24.29
   4   5  14  861.39   20.43
   4   5  14  871.21   23.73
  -4   5  14  894.00   23.94
  -4  -5  14  888.16   25.15
   4   5  15    5.71    2.58
   4  -5 -15    4.54    3.59
   4   5 -15   18.48    5.41
   4  -5  15   23.90    6.47
  -4  -5  15   15.81    4.80
   4   5 -15   15.45    4.45
  -4   5 -15   10.87    3.03
  -4   5  15   12.61    3.39
   4   5  15   11.15    4.22
  -4   5  15    9.63    3.83
   4  -5 -16  297.57   15.32
   4  -5  16  302.72   15.68
   4   5  16  307.26   14.98
   4   5 -16  308.48   15.91
  -4  -5  16  313.76   15.77
  -4   5 -16  321.83   12.18
  -4   5  16  300.63   12.96
   4   5 -16  305.35   15.05
  -4   5  16  293.46   14.67
   4   5  16  303.18   12.80
   4  -5  17  130.01   10.89
   4   5 -17  128.44   10.68
  -4  -5  17  136.25   10.91
  -4   5  17  125.56   10.18
   4   5 -17  115.73    9.57
  -4   5 -17  129.67    7.70
  -4   5  17  127.90    8.40
   4   5  17  126.97   10.09
   4   5  17  124.37    8.51
  -4  -5  18  187.53   12.84
   4  -5  18  175.54   12.54
   4   5  18  177.31   12.16
  -4   5  18  191.97   12.71
  -4   5  18  176.72   10.57
  -4   5  18  178.54    9.87
   4   5  18  176.26   10.34
   4   5  19    1.44    2.26
   4  -5  19    7.16    4.63
  -4   5  19    1.44    1.98
  -4  -5  19   -4.43    2.86
   4   5  19    1.38    3.21
  -4   5  19   -4.73    2.97
   4  -5  20  180.01   13.63
  -4   5  20  178.89   11.16
   4   5  20  177.24   13.01
  -4   5  20  165.78   12.37
  -4  -5  20  176.78   13.25
   4   5  20  157.46   10.30
  -4   5  21   17.10    4.03
   4   5  21   15.15    4.09
  -4  -5  21   15.36    5.14
   4   5  21   24.97    6.12
   4  -5  21   16.18    5.17
  -4   5  21   19.56    5.61
   4  -5  22  328.37   18.85
  -4  -5  22  325.42   18.58
  -4   5  22  345.24   16.25
   4   5  22  341.80   18.75
  -4   5  22  317.14   18.06
   4   5  22  333.27   15.51
  -4  -5  23   51.66    8.20
  -4   5  23   47.90    6.63
   4  -5  23   58.25    8.59
   4   5  23   44.83    7.68
  -4   5  23   61.92    8.60
   4  -5  24  106.37   11.41
  -4  -5  24  124.75   12.39
   4   5  24  110.65   11.38
  -4   5  24  117.82   11.78
   4   5  25   54.72    8.43
  -4   5  25   60.78    9.00
   4   5  26   -0.35    3.99
  -4   5  26    2.65    3.41
   4   6   0  301.20   13.04
  -4   6   0  291.30   11.86
   4   6   0  292.99   11.19
  -4   6   0  302.06   13.10
   4  -6   0  296.08    9.69
   4   6  -1   42.74    5.17
   4   6   1   46.68    5.53
  -4  -6  -1   48.29    5.50
   4   6   1   47.71    4.54
   4  -6  -1   40.21    3.61
   4   6  -1   39.65    4.37
  -4   6   1   46.80    5.02
  -4   6  -1   56.00    6.13
  -4   6   1   51.65    6.02
   4  -6   1   43.10    3.96
  -4   6  -1   49.15    5.25
   4   6  -2  191.60   10.49
   4   6   2  192.62   10.53
   4  -6   2  202.73    5.27
  -4   6   2  202.80    9.77
   4   6  -2  190.95    9.31
   4   6   2  194.48    9.10
   4  -6  -2  194.52    7.53
  -4   6   2  190.30   10.58
  -4   6  -2  204.61   10.72
   4  -6   2  192.29    9.28
   4  -6   2  197.97    8.39
  -4  -6  -2  200.66   10.67
   4  -6   3    4.65    2.37
   4   6  -3    8.62    2.88
   4   6   3    2.82    2.24
  -4  -6  -3    3.62    2.51
   4  -6   3    2.89    0.75
  -4   6   3    7.08    3.64
   4   6  -3    6.35    2.34
  -4   6   3    2.49    2.02
  -4   6  -3    9.65    3.80
   4   6   3    1.07    1.66
   4  -6   3    8.11    2.44
   4  -6  -3    4.34    1.76
   4   6  -4  312.55   13.39
   4  -6   4  328.29    6.88
  -4  -6  -4  325.23   13.94
   4  -6   4  293.55    4.96
   4   6  -4  314.85   10.98
  -4   6   4  328.78   12.32
   4   6  -4  331.48   12.60
   4  -6  -4  307.98    9.43
   4   6   4  326.54   12.37
   4   6   4  335.85   11.71
  -4   6  -4  314.20   13.14
  -4   6   4  315.74   13.55
  -4   6   4  336.33   12.14
   4  -6   4  335.34   12.71
  -4   6   4  323.62    9.28
  -4   6   5   38.35    3.54
   4  -6   5   35.11    4.82
  -4  -6  -5   37.58    5.07
   4  -6  -5   41.36    3.56
   4   6  -5   40.34    4.59
  -4   6   5   39.80    4.53
   4   6  -5   43.03    4.19
  -4   6  -5   39.92    5.21
  -4   6   5   44.17    5.49
   4   6   5   35.52    3.78
  -4   6   5   32.19    4.24
   4   6   5   34.31    4.31
   4  -6   5   36.70    2.46
  -4  -6  -6  263.82   12.65
   4  -6  -6  278.43   12.98
   4  -6   6  272.16   12.13
   4   6  -6  267.41   11.86
   4   6  -6  269.98   10.17
   4  -6  -6  264.14    8.86
  -4   6   6  274.82   11.40
  -4   6  -6  280.24   12.30
  -4   6   6  271.04   12.57
   4   6   6  268.23   10.79
   4   6   6  261.75   11.50
  -4   6   6  277.51    9.05
   4  -6   7   51.94    5.67
  -4  -6  -7   51.37    5.96
   4  -6  -7   44.71    5.55
   4  -6  -7   47.38    3.91
   4   6  -7   49.47    4.46
   4   6  -7   44.13    5.31
  -4   6  -7   51.05    5.19
  -4   6  -7   53.67    5.83
  -4   6   7   42.09    5.41
   4   6   7   49.30    4.85
   4   6   7   50.79    5.20
  -4   6   7   44.83    5.04
  -4   6   8   -2.53    2.88
  -4   6  -8   -1.28    2.64
   4  -6  -8    0.45    2.32
  -4  -6  -8   -3.62    3.47
   4  -6   8   -3.29    2.95
   4   6  -8   -1.39    2.53
   4  -6  -8    4.32    1.59
   4   6  -8   -0.03    1.46
   4   6  -8   -4.00    2.70
  -4   6  -8    0.01    2.06
   4   6   8    0.30    1.62
   4   6   8   -0.45    2.29
  -4   6   8   -2.05    2.68
  -4   6  -9   10.11    2.93
   4  -6  -9   10.30    3.35
  -4  -6  -9    8.68    3.43
   4  -6   9    4.20    2.56
   4   6  -9    5.79    2.48
   4  -6  -9   12.06    2.37
   4   6  -9    6.32    2.04
   4   6  -9   10.64    2.73
  -4   6  -9    9.48    3.12
  -4   6   9   17.89    3.97
  -4   6   9   15.68    3.27
   4   6   9   13.41    3.01
   4   6   9    9.84    2.97
  -4   6 -10   45.90    5.26
   4  -6 -10   54.57    6.62
  -4  -6 -10   52.76    6.48
   4  -6 -10   54.33    4.64
  -4   6  10   48.46    5.67
   4  -6  10   40.36    5.36
   4   6 -10   45.83    5.54
   4   6 -10   44.97    4.52
   4   6 -10   43.42    5.16
  -4   6 -10   48.33    5.61
   4   6  10   47.57    5.09
   4   6  10   50.11    5.68
  -4   6  10   35.49    4.71
   4  -6 -11   34.79    5.32
  -4   6  11   25.67    4.12
  -4  -6 -11   33.69    6.03
   4  -6 -11   30.00    3.62
   4   6 -11   27.79    4.77
   4   6  11   29.51    4.24
   4  -6  11   27.31    4.80
   4   6 -11   31.16    4.80
   4   6 -11   28.55    3.72
  -4   6 -11   25.55    4.58
  -4   6 -11   34.55    4.87
   4   6  11   27.17    4.55
  -4   6  11   33.47    5.11
   4  -6  12  377.61   16.23
   4   6 -12  350.33   15.13
   4  -6 -12  353.87   16.10
   4  -6 -12  372.85   12.34
   4   6 -12  374.66   16.14
  -4   6 -12  371.11   14.22
   4   6 -12  369.30   13.01
  -4   6  12  357.71   14.68
  -4   6 -12  375.58   15.51
  -4  -6  12  368.18   15.66
   4   6  12  358.86   15.20
  -4   6  12  385.67   15.74
   4   6  12  359.12   13.86
   4  -6 -13    6.56    3.90
  -4  -6  13    0.49    2.53
   4  -6 -13    2.29    2.20
   4   6 -13    2.95    2.67
  -4   6 -13   -1.76    2.43
   4  -6  13    4.17    3.19
  -4   6 -13    1.22    2.23
   4   6 -13   -0.90    2.69
  -4   6  13    1.25    2.22
   4   6  13   -1.37    3.37
  -4   6  13   -1.96    3.33
   4   6  13   -0.20    2.32
   4   6  14   20.13    4.68
   4  -6 -14   14.11    4.34
  -4  -6  14   22.00    4.79
   4   6 -14   27.62    5.45
   4  -6  14   28.51    6.19
  -4   6 -14   18.83    3.65
   4   6 -14   12.88    3.47
  -4   6  14   20.82    4.16
  -4   6 -14   24.52    4.91
  -4   6  14   24.32    4.94
   4  -6 -15  575.39   21.51
   4  -6  15  597.76   21.99
   4   6 -15  570.49   21.43
  -4  -6  15  622.03   22.06
  -4   6 -15  569.30   20.77
  -4   6 -15  572.45   17.39
   4   6 -15  578.41   20.97
   4   6  15  591.45   21.01
  -4   6  15  600.86   19.35
   4   6  15  583.59   16.44
  -4   6  15  583.55   20.81
   4  -6 -16    1.27    2.94
  -4  -6  16   -0.51    2.67
   4   6 -16    2.10    2.81
  -4   6 -16    4.36    3.08
   4  -6  16    0.68    3.85
   4   6 -16   -1.24    3.14
  -4   6 -16    3.52    2.17
  -4   6  16    3.17    2.63
   4   6  16    1.13    2.67
   4   6  16    3.23    1.79
  -4   6  16   -3.06    3.34
   4  -6 -17   66.22    7.63
   4   6  17   59.35    7.33
   4  -6  17   67.15    8.27
  -4   6 -17   56.73    7.23
  -4  -6  17   60.75    7.57
   4   6 -17   58.99    7.24
  -4   6  17   62.38    6.02
   4   6  17   63.97    5.83
  -4   6  17   53.19    6.92
   4  -6  18   97.38   10.01
  -4   6  18   93.88    7.54
  -4   6 -18   92.52    9.28
  -4  -6  18   86.16    9.21
   4   6 -18   85.57    8.80
   4   6  18   98.65    7.50
   4   6  18   90.67    9.12
  -4   6  18   81.89    8.47
  -4   6  19   29.48    4.60
   4  -6  19   34.42    6.60
  -4  -6  19   41.65    6.81
  -4   6  19   27.21    5.43
  -4   6 -19   44.43    7.11
   4   6 -19   30.90    6.11
   4   6  19   42.21    6.57
  -4   6  20    5.24    3.30
   4  -6  20   18.73    5.85
  -4  -6  20    8.35    4.44
   4   6 -20    9.48    3.85
  -4   6  20    8.44    2.99
   4   6  20    3.77    2.98
  -4   6 -20   11.03    3.97
   4  -6  21  142.01   12.63
   4   6 -21  143.32   12.23
  -4   6 -21  129.19   11.58
  -4  -6  21  113.70   11.19
   4   6  21  129.78   11.66
  -4   6  21  154.80   12.75
   4  -6  22   46.48    7.81
  -4  -6  22   50.46    8.08
   4   6 -22   42.21    7.13
   4   6  22   38.11    6.67
  -4   6  22   50.46    7.93
  -4  -6  23   23.90    5.44
   4  -6  23   36.07    7.51
   4   6 -23   20.96    5.69
  -4   6  23   17.64    5.19
   4   6  23   21.87    5.54
  -4   6  24    3.61    3.49
   4   6 -24    3.00    3.03
   4  -6  24    4.77    4.05
   4   6  24    3.24    3.44
  -4  -6  24    1.45    3.75
   4   6 -25    6.63    4.54
  -4   6  25   13.24    5.64
   4   6  25   -0.64    4.26
   4   7   0  104.36    8.43
  -4   7   0  107.64    8.57
  -4   7   0  111.50    7.96
   4   7   0  101.49    6.90
   4  -7   0  112.90    5.94
  -4  -7   0  105.20    8.46
   4   7  -1  231.09   11.97
   4   7   1  202.65   11.30
   4  -7   1  215.75    6.76
  -4   7   1  199.85   10.52
   4   7  -1  208.84    9.72
  -4   7  -1  207.07   10.98
   4   7   1  212.56    9.63
   4  -7   1  207.55    8.35
  -4   7   1  223.71   12.03
  -4   7  -1  204.99   11.61
   4  -7  -1  209.60    7.74
  -4  -7  -1  206.16   11.51
  -4   7  -2   51.87    6.13
   4   7  -2   59.15    6.67
   4  -7   2   41.33    2.92
   4   7   2   48.54    6.01
  -4  -7  -2   40.60    5.53
   4   7   2   52.13    5.15
   4   7  -2   48.70    4.96
   4  -7   2   46.98    4.84
   4  -7  -2   42.56    3.58
  -4   7   2   48.94    5.70
  -4   7  -2   68.39    7.84
  -4   7   2   73.16    8.03
   4  -7   2   52.64    4.68
  -4  -7  -3 2331.31   38.84
   4  -7   3 2350.85   19.67
   4  -7   3 2408.44   21.92
   4   7  -3 2286.05   38.02
   4   7  -3 2408.00   33.77
  -4   7   3 2362.34   35.85
   4  -7  -3 2311.31   24.89
   4   7   3 2341.77   31.44
  -4   7   3 2314.65   38.35
  -4   7  -3 2393.01   38.25
   4  -7   3 2381.34   33.45
   4  -7   3 2369.35   29.92
   4  -7   4  758.28    9.15
   4   7  -4  818.99   22.44
   4  -7   4  837.54   13.08
  -4  -7  -4  832.27   23.21
  -4   7  -4  833.78   22.69
  -4   7   4  844.72   23.21
  -4   7   4  846.17   20.91
   4   7  -4  823.64   19.49
   4   7  -4  809.23   20.13
  -4   7   4  820.20   21.15
   4  -7  -4  810.48   14.62
   4   7   4  798.43   18.45
   4  -7   4  811.90   20.18
   4   7  -5   74.64    7.08
  -4   7   5   74.75    6.66
  -4  -7   5   64.67    2.43
  -4  -7  -5   72.06    7.28
  -4   7   5   73.81    6.44
   4   7  -5   68.78    6.18
   4   7  -5   70.97    6.14
   4  -7  -5   73.46    4.43
   4   7   5   71.34    5.50
  -4   7  -5   76.12    7.35
  -4   7   5   76.33    7.44
   4   7   5   72.72    6.66
   4  -7   5   75.61    6.47
   4  -7   5   73.25    3.97
   4   7  -6  175.15   10.69
  -4  -7  -6  176.18   11.17
  -4  -7   6  161.36    3.72
   4  -7  -6  158.70   10.48
   4   7  -6  162.17    9.46
   4   7  -6  173.59    9.01
   4  -7  -6  168.09    6.77
  -4   7  -6  161.44   10.14
   4   7   6  159.80    8.24
  -4   7   6  160.02   10.28
  -4   7   6  166.98    9.80
   4  -7   6  163.23    9.64
   4   7   6  169.44    9.99
  -4  -7  -7  435.38   17.32
  -4  -7   7  396.44    6.22
   4  -7  -7  416.06   17.03
   4   7  -7  425.26   15.60
   4  -7  -7  418.62   10.64
   4   7  -7  419.85   13.98
   4   7   7  428.12   13.63
  -4   7  -7  411.44   16.05
  -4   7   7  456.86   17.13
   4   7   7  441.16   16.19
  -4   7   7  419.57   15.58
   4  -7   7  451.27   16.06
   4  -7  -8    1.62    2.54
  -4  -7  -8    0.45    3.62
   4  -7   8   -1.91    3.24
   4   7  -8    1.22    1.86
   4   7  -8   -1.58    2.36
   4  -7  -8    2.06    1.34
  -4   7  -8   -0.67    2.24
  -4   7   8    0.05    2.54
   4   7   8    2.40    1.95
   4   7   8    1.02    2.31
  -4   7   8   -0.56    2.60
   4  -7  -9   15.15    4.09
  -4  -7  -9   14.65    4.19
   4  -7   9   14.06    3.24
   4  -7  -9   14.62    2.44
   4   7  -9    8.88    3.28
   4   7  -9   16.73    3.27
  -4   7  -9    8.56    2.29
  -4   7   9    9.45    3.37
  -4   7  -9   11.08    3.09
   4   7   9   18.42    3.27
   4   7   9   10.07    3.21
  -4   7   9   15.12    3.35
  -4   7 -10   25.07    4.39
   4  -7 -10   31.64    5.55
  -4  -7 -10   20.82    5.17
   4  -7 -10   28.53    3.25
   4  -7  10   32.81    5.35
   4   7 -10   25.83    4.71
  -4   7 -10   16.56    3.64
   4   7 -10   20.88    4.11
   4   7 -10   21.12    3.72
  -4   7  10   28.53    4.88
   4   7  10   25.68    3.85
   4   7  10   23.98    4.51
  -4   7  10   24.51    4.52
  -4  -7  10   25.60    4.20
   4   7  11  797.40   23.20
   4  -7  11  748.05   23.01
  -4  -7 -11  801.30   24.81
   4  -7 -11  743.49   23.85
  -4   7 -11  788.98   21.71
   4  -7 -11  790.19   16.40
   4   7 -11  762.09   22.66
   4   7 -11  771.52   19.79
  -4   7 -11  791.79   22.90
   4   7 -11  759.62   22.81
  -4   7  11  758.94   22.69
   4   7  11  754.95   19.45
  -4   7  11  744.29   22.33
  -4  -7  11  747.67   22.37
   4  -7 -12    8.10    3.65
  -4  -7  12   10.50    3.81
   4   7 -12    6.15    2.43
  -4  -7 -12   22.29    5.58
   4   7 -12   13.16    3.79
   4  -7  12   12.46    3.80
  -4   7 -12   13.75    3.87
  -4   7 -12   11.31    3.62
   4   7 -12   15.66    3.54
  -4   7  12   11.33    3.61
   4   7  12    9.21    2.82
   4   7  12   12.48    3.90
  -4   7  12   13.19    3.98
   4  -7  13  432.68   18.25
   4  -7 -13  411.21   18.31
   4   7 -13  407.06   17.64
  -4  -7  13  409.57   17.38
   4   7 -13  418.23   15.08
  -4   7 -13  415.89   15.86
  -4   7 -13  427.24   17.71
   4   7 -13  416.19   17.51
   4   7  13  402.23   17.43
  -4   7  13  381.30   16.07
   4   7  13  393.02   14.75
  -4   7  13  405.59   17.23
   4  -7  14   93.18    9.49
   4  -7 -14   82.81    8.89
   4   7 -14   79.19    8.64
  -4  -7  14   75.08    8.00
   4   7 -14   82.46    8.41
  -4   7 -14   71.93    8.02
  -4   7  14   87.77    8.03
  -4   7 -14   93.11    7.85
   4   7  14   80.58    8.53
  -4   7  14   80.78    8.50
   4   7  14   81.84    7.17
   4  -7  15  537.29   21.24
   4  -7 -15  517.25   21.57
  -4  -7  15  574.19   21.59
   4   7 -15  539.22   20.97
  -4   7 -15  590.16   21.83
   4   7 -15  560.35   21.36
  -4   7 -15  547.70   17.86
   4   7  15  559.61   18.48
   4   7  15  565.81   21.30
  -4   7  15  558.07   20.95
   4  -7 -16   53.31    7.51
   4   7  16   51.89    6.01
   4  -7  16   56.71    7.87
   4   7 -16   46.27    6.63
  -4   7 -16   43.62    6.57
  -4  -7  16   47.20    6.71
   4   7  16   61.67    7.73
  -4   7  16   54.65    7.11
   4  -7  17   31.86    6.13
  -4  -7  17   30.49    5.32
   4   7 -17   28.81    5.56
   4  -7 -17   40.59    6.61
  -4   7 -17   37.49    6.26
   4   7  17   23.00    4.87
  -4   7  17   28.13    5.45
   4   7  18   67.57    8.04
   4  -7 -18   97.76   10.13
   4  -7  18   80.93    9.20
   4   7 -18   82.16    8.98
  -4   7 -18   83.27    9.17
  -4  -7  18   92.41    9.72
  -4   7  18   83.00    9.10
   4  -7  19   97.10   10.24
  -4  -7  19   88.05    9.66
  -4   7  19   82.72    9.42
  -4   7 -19  104.83   10.47
   4   7 -19   87.83    9.84
   4   7  19   74.35    8.76
  -4   7 -20   25.56    6.05
  -4  -7  20   19.57    5.65
   4  -7  20   19.84    5.50
   4   7 -20   10.44    4.48
   4   7  20   19.05    5.51
  -4   7  20   20.81    5.42
   4  -7  21  396.06   21.02
  -4  -7  21  379.09   20.49
  -4   7 -21  407.12   21.11
   4   7 -21  385.40   20.41
   4   7  21  411.42   21.19
  -4   7  21  397.16   20.62
  -4  -7  22   80.07   10.12
  -4   7 -22   56.81    8.35
   4  -7  22   66.82    9.83
   4   7 -22   65.09    8.92
   4   7  22   61.16    9.08
  -4   7  22   61.79    8.57
  -4   7 -23   39.58    7.39
   4  -7  23   56.75    9.31
   4   7 -23   42.69    7.58
  -4  -7  23   42.42    7.80
   4   7  23   44.08    7.69
  -4   7  23   31.39    6.89
  -4   7  24  128.04   12.90
  -4   7 -24  135.85   13.19
   4   7 -24  137.41   13.50
   4   7  24  140.14   13.33
   4   8   0  298.25   14.35
  -4   8   0  292.83   14.35
   4   8   0  310.52   11.89
  -4   8   0  317.11   14.30
   4  -8   0  311.64    9.54
  -4  -8   0  298.56   14.66
   4   8  -1    7.60    3.24
   4   8   1    8.46    3.40
  -4  -8  -1    6.35    2.62
   4  -8   1   10.80    2.19
   4  -8  -1    6.75    1.67
   4   8  -1    7.84    2.36
  -4   8  -1    6.42    3.50
   4   8   1    9.87    2.56
  -4   8   1    5.58    3.16
  -4   8  -1    7.22    3.23
  -4   8   1    7.83    3.58
   4  -8   1   13.10    2.41
  -4   8  -2   -0.21    3.39
   4   8  -2    3.75    2.59
  -4  -8  -2   -2.10    3.20
   4  -8   2   -0.60    1.46
   4   8  -2   -0.52    1.90
   4   8   2   -0.07    1.61
  -4   8   2    1.07    2.76
   4  -8  -2    0.07    1.09
  -4   8  -2    3.24    3.09
  -4   8   2   -4.06    3.50
   4  -8   2   -0.31    1.96
   4  -8   2    1.24    1.50
  -4  -8  -3  363.04   16.40
   4   8  -3  355.66   15.40
   4  -8   3  361.86    9.87
  -4  -8   3  366.95    8.15
   4   8  -3  376.50   13.66
  -4   8   3  370.56   15.29
  -4   8  -3  362.34   15.78
   4   8   3  380.06   12.80
   4  -8  -3  369.30    9.26
   4  -8   3  349.79   13.34
  -4   8  -3  362.97   15.92
  -4   8   3  355.37   15.96
   4  -8   3  361.35   11.77
  -4  -8  -4  106.57    9.32
   4   8  -4  118.00    8.97
   4  -8   4  112.19    5.58
   4   8  -4  119.70    8.53
   4   8  -4  121.13    8.06
  -4   8   4  129.56    9.25
   4  -8  -4  121.25    5.26
  -4   8   4  120.88    9.50
   4   8   4  117.54    7.15
  -4   8  -4  113.59    9.19
   4  -8   4  116.82    8.07
   4   8  -5    3.57    2.89
   4  -8   5    2.26    2.26
   4  -8   5    1.14    1.19
  -4  -8  -5    0.43    3.65
   4   8  -5    3.75    2.71
   4  -8  -5    1.04    1.07
  -4   8   5   -0.73    2.44
   4   8  -5   -0.25    2.02
   4   8   5    1.69    1.77
  -4   8  -5    3.28    2.68
  -4   8   5   -0.71    2.53
  -4   8   5    2.45    2.61
   4   8  -6   91.46    8.11
  -4  -8  -6   89.35    8.73
   4  -8  -6  101.27    8.93
   4   8  -6  106.64    8.14
   4   8  -6  101.33    7.71
   4   8   6   95.57    6.52
  -4   8  -6   95.52    8.39
  -4   8   6   88.34    7.82
  -4   8   6   96.78    8.70
   4   8   6   95.65    8.13
   4  -8   6   86.38    7.37
   4  -8   6   88.20    5.07
   4   8  -7  209.26   12.12
  -4  -8  -7  201.14   12.61
   4  -8   7  211.72   11.49
   4  -8  -7  211.97   12.83
  -4   8  -7  209.81   12.18
   4   8  -7  209.15   11.21
   4   8  -7  200.14   10.51
  -4   8   7  218.33   12.58
   4   8   7  196.68    9.26
   4   8   7  217.48   12.25
  -4   8   7  224.29   12.23
   4   8  -8  192.61   11.87
  -4  -8  -8  193.60   12.56
   4  -8  -8  175.88   11.68
   4   8  -8  181.60   10.84
   4  -8   8  191.99   11.17
   4   8  -8  187.30   10.29
   4   8   8  196.74    9.32
  -4   8  -8  187.01   11.45
  -4   8   8  189.98   11.91
   4   8   8  189.98   11.62
  -4   8   8  196.28   11.53
  -4  -8   8  183.13   10.52
   4  -8  -9   24.18    4.63
  -4  -8  -9   24.83    4.85
   4  -8   9   31.17    4.98
  -4   8   9   31.09    5.22
   4   8  -9   29.40    4.74
   4   8   9   29.70    4.93
   4   8  -9   29.33    4.58
  -4   8  -9   26.44    4.43
  -4  -8   9   35.47    5.17
   4   8   9   21.06    3.03
  -4   8   9   28.59    4.70
   4   8  -9   29.68    4.91
  -4  -8  10   21.38    4.35
   4  -8 -10   23.87    4.76
  -4  -8 -10   25.47    5.18
   4  -8  10   25.39    4.71
   4   8 -10   21.15    4.30
   4   8 -10   23.18    3.92
  -4   8 -10   18.51    4.22
  -4   8  10   15.65    3.77
   4   8  10   20.68    3.34
   4   8  10   22.72    4.76
  -4   8  10   23.83    4.57
  -4   8 -11   27.67    4.47
   4  -8 -11   32.75    5.78
  -4  -8 -11   39.07    6.33
   4   8 -11   33.57    5.35
   4  -8  11   44.89    6.32
  -4   8  11   42.34    6.02
  -4  -8  11   31.48    4.81
   4   8 -11   43.57    5.45
  -4   8 -11   39.57    5.32
   4   8  11   41.71    4.70
   4   8  11   37.24    5.30
  -4   8  11   34.66    5.42
   4  -8 -12    9.61    3.75
  -4  -8  12   19.67    4.67
  -4  -8 -12   10.37    4.03
   4   8 -12    5.79    3.07
   4  -8  12   16.52    4.01
  -4   8 -12    9.60    3.04
   4   8 -12    8.53    2.62
   4   8 -12   14.25    3.26
  -4   8  12   15.60    3.91
  -4   8 -12   14.15    3.23
   4   8  12   14.62    2.91
   4   8  12   17.21    3.89
  -4   8  12    9.89    3.61
   4   8 -13   25.24    4.32
  -4   8 -13   20.42    3.69
   4  -8 -13   24.74    5.08
   4   8 -13   25.60    5.19
   4  -8  13   29.11    5.44
  -4   8 -13   28.46    4.99
   4   8 -13   29.93    5.35
   4   8  13   36.77    4.56
   4   8  13   32.24    5.68
  -4   8  13   33.35    5.49
  -4  -8  13   30.50    5.42
   4  -8 -14   14.81    4.25
   4   8 -14   19.38    3.77
   4   8 -14   17.08    4.33
   4  -8  14   12.52    3.63
  -4   8 -14   20.01    4.93
   4   8 -14   10.97    3.40
  -4  -8  14   16.06    4.06
   4   8  14   20.04    3.66
   4   8  14   16.81    4.80
  -4   8  14   22.41    4.58
   4  -8 -15   37.76    6.46
   4   8 -15   36.51    6.03
   4  -8  15   37.31    6.05
  -4   8 -15   32.94    5.82
  -4  -8  15   42.26    6.33
   4   8 -15   47.81    5.77
  -4   8  15   37.04    5.87
   4   8  15   39.79    5.01
   4   8  15   40.65    6.48
   4  -8 -16   13.60    4.63
  -4   8 -16   15.06    4.44
  -4  -8  16   14.25    4.19
   4  -8  16   13.91    4.24
   4   8 -16   19.39    4.71
   4   8 -16   12.99    3.65
   4   8  16   20.03    4.54
  -4   8  16   17.27    4.79
   4  -8  17  183.24   13.55
   4  -8 -17  144.08   12.34
  -4   8 -17  156.67   12.38
   4   8 -17  146.18   12.01
  -4  -8  17  135.40   11.56
   4   8  17  140.19   11.77
  -4   8  17  159.03   12.50
   4  -8 -18   26.32    5.90
  -4  -8  18   28.65    5.99
   4  -8  18   29.03    5.91
  -4   8 -18   21.99    4.95
   4   8 -18   19.37    4.80
   4   8  18   16.88    4.88
  -4   8  18   27.30    5.94
  -4  -8  19   36.59    6.92
   4   8  19   36.24    6.59
   4  -8  19   40.93    7.08
  -4   8 -19   28.86    5.59
   4   8 -19   30.84    5.99
  -4   8  19   29.18    5.92
  -4  -8  20    6.15    3.02
   4  -8  20    0.97    3.34
  -4   8 -20    0.46    3.34
   4   8 -20   10.21    5.21
   4   8  20    1.56    3.24
  -4   8  20    4.32    4.22
   4  -8  21  219.54   16.07
  -4  -8  21  226.64   16.16
  -4   8 -21  209.79   15.67
   4   8 -21  206.94   15.38
   4   8  21  199.55   15.16
  -4   8  21  187.13   14.67
   4   8  22    9.76    4.26
  -4   8  22    3.03    4.50
   4  -8  22   13.28    5.75
  -4   8 -22    6.62    3.83
   4   8 -22    4.97    3.78
  -4  -8  22    1.64    3.51
   4   8 -23   42.36    7.45
   4   8  23   40.83    7.71
   4   9   0  971.75   26.94
   4  -9   0  953.36   18.23
   4   9   0  937.15   20.80
  -4   9   0  918.46   25.75
  -4   9   0  927.29   26.82
  -4  -9   0  905.22   26.96
   4   9  -1  434.44   18.33
   4  -9   1  471.49   12.60
   4   9  -1  464.58   14.96
   4   9   1  450.17   14.24
  -4   9   1  465.47   18.30
  -4   9  -1  441.40   18.02
   4  -9   1  465.36   11.85
  -4   9  -1  479.23   19.27
  -4   9   1  458.40   18.97
  -4  -9   1  425.05   18.52
  -4  -9  -1  438.28   18.70
  -4  -9  -2  387.92   17.66
   4   9  -2  415.44   17.66
   4  -9   2  374.34   11.12
  -4   9  -2  383.52   17.34
   4   9  -2  383.74   13.88
  -4   9   2  386.32   16.67
   4   9   2  376.78   12.91
  -4   9  -2  381.51   16.90
  -4   9   2  377.57   17.29
   4  -9   2  375.45   11.26
   4   9  -3  767.50   23.83
   4  -9   3  781.06   16.05
   4   9  -3  760.34   19.86
  -4  -9  -3  784.55   25.10
  -4   9   3  760.28   23.32
   4   9   3  791.03   18.45
  -4   9  -3  767.07   24.23
  -4   9  -3  740.13   23.82
  -4   9   3  784.81   24.72
   4  -9   3  764.73   19.94
   4  -9   3  773.11   16.86
  -4  -9  -4  630.86   22.76
   4   9  -4  699.99   22.69
   4  -9   4  655.91   14.75
   4   9  -4  637.57   18.55
   4   9  -4  645.44   20.37
  -4   9   4  678.05   22.07
   4   9   4  662.92   16.79
  -4   9  -4  705.67   23.15
   4  -9   4  657.63   18.98
  -4   9  -4  663.43   22.26
  -4   9   4  668.12   23.02
   4  -9   4  673.20   16.55
   4   9  -5   -0.66    2.58
   4  -9   5    0.20    2.16
  -4  -9  -5   -4.60    3.36
   4  -9  -5   -0.18    2.73
  -4  -9   5    2.42    1.94
   4   9  -5   -2.02    2.58
  -4   9   5   -3.95    3.47
   4   9  -5    0.14    2.16
   4   9   5   -0.87    1.70
  -4   9  -5    3.19    3.88
  -4   9  -5   -1.90    2.85
  -4   9   5    0.19    3.01
   4   9  -6  250.78   13.86
  -4  -9  -6  232.47   14.08
   4  -9  -6  271.93   14.96
   4   9  -6  246.21   12.10
   4   9  -6  252.94   12.78
   4   9   6  241.31   10.24
  -4  -9   6  234.00   11.61
  -4   9  -6  234.43   13.59
  -4   9   6  240.83   14.06
  -4   9   6  253.25   13.70
   4  -9   6  249.45   12.39
   4   9  -7 1169.34   29.62
   4  -9  -7 1156.19   30.93
  -4  -9  -7 1118.64   30.72
   4   9  -7 1138.26   26.39
   4   9  -7 1173.18   27.14
  -4  -9   7 1164.85   25.96
   4   9   7 1204.06   22.56
  -4   9  -7 1163.24   29.53
  -4   9   7 1115.27   29.84
   4   9   7 1166.40   29.60
  -4   9   7 1170.46   29.31
   4  -9   7 1107.72   26.65
   4   9  -8   75.40    8.09
   4  -9  -8   86.28    9.08
  -4  -9  -8   84.13    9.01
   4   9  -8   87.01    7.67
  -4  -9   8   72.47    7.12
   4   9  -8   74.70    7.42
   4   9   8   75.89    5.90
  -4   9   8   89.74    8.84
  -4   9  -8   76.21    7.90
  -4   9   8   80.50    8.22
   4   9   8   71.80    7.83
   4  -9   8   77.57    7.45
   4   9  -9  123.63    9.95
  -4  -9  -9  110.67   10.32
   4  -9  -9  123.11   10.53
  -4  -9   9  120.42    8.99
   4   9  -9  115.77    8.85
   4   9  -9  119.03    8.96
   4   9   9  115.38    9.75
   4   9   9  125.01    7.45
  -4   9  -9  114.70    9.44
  -4   9   9  113.25    9.80
   4  -9   9  116.11    9.34
   4   9 -10    4.08    2.61
   4  -9 -10    4.16    3.45
  -4  -9 -10    2.83    3.05
   4  -9  10    4.01    2.69
   4   9 -10   -0.02    2.61
   4   9 -10    2.42    1.97
   4   9  10    3.77    3.34
  -4   9  10    3.63    2.76
  -4  -9  10    9.25    3.69
   4   9 -11  136.12   10.68
  -4  -9  11  151.10   10.59
  -4  -9 -11  147.05   11.97
   4  -9 -11  142.94   11.79
   4   9 -11  158.03   10.85
   4   9 -11  142.22    9.95
  -4   9  11  146.26   11.17
   4   9  11  137.28   10.89
   4  -9  11  139.33   10.67
   4  -9 -12   29.95    5.98
  -4  -9 -12   25.16    5.79
   4   9 -12   28.77    5.33
   4  -9  12   34.41    5.80
  -4  -9  12   30.50    5.28
   4   9 -12   31.10    5.02
  -4   9  12   33.83    5.68
   4   9  12   38.23    6.28
   4   9 -12   35.28    5.79
   4  -9 -13   51.19    7.48
   4  -9  13   35.78    5.88
   4   9 -13   41.97    5.77
  -4  -9  13   36.60    5.98
  -4   9 -13   37.46    6.13
  -4   9  13   40.87    6.43
   4   9  13   43.04    6.60
   4  -9  14   91.35    9.43
  -4  -9  14   98.94    9.53
   4  -9 -14   94.30   10.19
   4   9  14   93.60    9.66
   4   9 -14   90.30    8.36
  -4   9 -14   87.20    9.10
   4   9 -14   86.90    9.13
  -4   9  14   85.92    9.04
   4  -9  15  242.73   15.12
   4  -9 -15  223.97   15.40
   4   9 -15  236.37   13.32
  -4   9 -15  221.64   14.68
   4   9 -15  249.09   15.60
  -4  -9  15  251.67   15.02
  -4   9  15  241.28   15.31
   4   9  15  238.11   15.28
   4  -9 -16   17.91    5.31
  -4  -9  16   17.99    4.82
  -4   9 -16   13.59    3.97
   4  -9  16   11.78    4.89
   4   9 -16   13.74    4.57
   4   9 -16   22.28    4.76
   4   9  16   11.24    4.54
  -4   9  16   21.78    5.19
   4  -9  17  232.40   15.69
   4  -9 -17  233.51   16.21
   4   9 -17  244.32   13.88
  -4  -9  17  231.21   15.23
  -4   9 -17  230.62   15.52
   4   9 -17  230.57   15.63
   4   9  17  242.70   16.04
  -4   9  17  219.84   15.20
  -4  -9  18   81.03    9.47
   4  -9 -18   77.23   10.02
  -4   9  18   78.35    9.31
   4  -9  18   74.03    9.39
  -4   9 -18   79.29    9.47
   4   9 -18   70.76    8.98
   4   9  18   67.71    8.81
   4  -9 -19    2.35    3.42
   4  -9  19    0.80    3.64
   4   9 -19   -2.65    3.90
  -4   9 -19   -4.33    4.01
   4   9  19   -4.91    4.40
  -4   9  19   -2.67    3.22
  -4  -9  19    6.64    4.35
   4   9  20   14.04    5.33
   4  -9  20    7.51    4.68
  -4  -9  20    5.54    3.13
  -4   9 -20    6.21    3.22
   4   9 -20    5.60    3.02
  -4   9  20   10.25    4.64
  -4   9 -21  164.49   14.04
   4  -9  21  201.14   15.90
  -4  -9  21  186.17   14.78
   4   9  21  179.89   15.03
   4   9 -21  197.30   15.58
  -4   9  21  171.11   14.41
  -4 -10   0   55.58    7.33
   4  10   0   51.74    5.00
  -4  10   0   57.22    7.35
  -4 -10   1    6.16    3.63
  -4 -10  -1    8.78    4.02
   4  10  -1    8.79    2.54
  -4  10  -1    8.01    3.29
   4  10   1    7.04    1.98
  -4  10   1    1.69    3.32
   4  10  -2   18.13    4.35
  -4 -10   2   15.58    4.09
  -4 -10  -2   23.74    5.34
   4  10  -2   20.55    3.77
   4  10   2   18.96    2.99
  -4  10   2   16.78    4.57
  -4  10  -2   18.00    5.00
   4  10  -3   -4.90    4.00
   4 -10   3    1.21    2.22
  -4 -10  -3    2.95    3.86
   4  10  -3    2.73    2.35
  -4 -10   3    1.92    1.71
  -4  10   3    2.75    3.59
  -4  10  -3   -0.20    3.38
   4  10  -4    6.71    3.24
  -4  10  -4    4.95    3.12
  -4 -10  -4    9.23    3.36
  -4 -10   4    8.92    2.77
   4  10  -4    7.11    2.63
  -4  10   4   10.42    3.93
   4 -10   4    9.64    2.66
   4 -10   5    0.01    2.04
  -4 -10   5    0.07    1.70
   4  10  -5    1.15    2.60
  -4 -10  -5   -1.44    2.93
   4 -10  -5    1.10    3.35
  -4  10   5    3.35    2.80
   4  10  -5    4.50    2.28
   4  10  -5   -0.46    2.26
  -4  10  -5    2.30    3.33
   4  10  -6  228.02   13.68
  -4 -10  -6  229.19   14.83
  -4 -10   6  243.29   11.68
   4 -10  -6  223.57   14.41
   4  10  -6  241.53   12.05
   4  10  -6  233.64   13.16
  -4  10  -6  231.65   14.60
   4 -10   6  235.56   12.26
   4  10  -7    4.32    2.92
   4 -10   7    8.20    3.27
  -4 -10  -7    4.49    3.70
   4 -10  -7    3.39    4.03
   4  10  -7    7.16    2.92
   4  10  -7    8.50    3.59
  -4  10  -7   10.99    4.47
  -4 -10   7    6.51    3.09
   4  10  -8  271.95   15.10
  -4 -10  -8  254.34   15.87
   4 -10  -8  267.46   15.90
   4  10  -8  287.29   13.82
   4  10  -8  282.05   14.67
   4  10   8  279.19   15.69
  -4  10   8  268.89   15.25
   4 -10   8  281.22   14.02
  -4 -10   8  296.29   13.76
   4  10  -9   -1.55    2.88
   4  10   9    2.61    3.46
   4 -10   9    5.61    2.99
   4 -10  -9   -4.11    4.30
  -4 -10  -9    1.21    3.78
   4  10  -9   -2.39    2.96
  -4  10   9    1.87    2.77
  -4 -10   9    1.04    2.08
   4  10  -9    2.85    2.49
   4  10 -10   -4.39    3.07
   4 -10 -10    1.51    3.00
   4 -10  10    1.43    2.17
  -4 -10 -10   -2.13    3.38
   4  10 -10   -3.45    3.16
  -4 -10  10    0.57    2.26
   4  10 -10   -0.46    2.28
   4  10  10    2.60    3.08
  -4  10  10    0.41    3.14
   4  10 -11  174.77   12.21
  -4 -10 -11  166.65   13.44
   4 -10 -11  171.59   13.27
   4  10 -11  182.39   11.90
  -4 -10  11  184.94   12.08
   4  10  11  165.57   12.68
  -4  10  11  159.73   12.33
   4 -10  11  174.93   12.03
   4  10 -12   20.34    4.86
   4 -10 -12   20.27    5.49
  -4 -10  12   17.89    4.32
  -4 -10 -12   16.37    5.14
   4 -10  12   19.59    4.86
   4  10 -12   13.04    3.80
   4  10  12   15.87    4.55
  -4  10  12   13.22    4.20
   4  10 -13    9.42    3.61
  -4  10  13    4.51    3.35
  -4 -10  13    8.22    3.21
   4 -10 -13    8.91    4.39
   4 -10  13    5.34    3.14
   4  10 -13    7.48    3.36
   4  10  13   11.00    3.96
   4  10 -14   14.09    4.15
  -4 -10  14   10.74    3.49
   4 -10 -14    9.66    4.30
   4 -10  14   11.38    3.65
   4  10 -14   12.12    3.81
   4  10  14   14.31    4.91
  -4  10  14   17.74    4.62
  -4 -10  15    1.35    2.42
   4  10 -15   -3.50    2.98
   4 -10 -15    3.54    3.49
   4 -10  15    4.45    2.89
   4  10 -15    5.79    3.06
   4  10  15    6.47    4.05
  -4  10  15   -4.49    4.31
   4  10 -16   55.61    7.61
   4 -10 -16   59.74    8.81
   4 -10  16   53.04    7.85
  -4  10 -16   42.87    7.14
   4  10 -16   52.64    7.21
   4  10  16   46.75    7.55
  -4  10  16   57.56    8.20
  -4 -10  16   51.02    7.32
   4 -10 -17   15.28    4.93
   4 -10  17    6.71    3.76
  -4  10 -17    7.73    3.18
  -4  10  17    9.49    4.48
  -4 -10  17   12.35    4.52
   4  10  17    9.02    4.71
   4 -10 -18   77.89   10.10
  -4 -10  18   59.84    8.11
   4 -10  18   74.13    9.32
  -4  10 -18   50.09    7.83
   4  10 -18   70.60    9.54
  -4  10  18   68.01    9.17
   4  10  18   71.15    9.38
   4 -10  19   24.36    6.27
  -4 -10  19   19.42    5.36
  -4  10 -19   17.80    4.73
   4  10 -19   16.95    4.92
   4  10  19   18.29    5.75
  -4  10  19   32.40    6.88
  -4 -10  20   33.85    6.78
   4 -10  20   23.29    5.74
  -4  11   0  522.78   22.02
  -4 -11   0  502.70   22.27
  -4 -11   1   57.66    7.79
  -4 -11  -1   52.64    7.50
  -4  11   1   46.53    6.97
  -4  11  -1   49.50    7.18
  -4 -11   2    3.21    3.84
  -4 -11  -2   10.46    3.97
  -4  11   2    9.58    3.07
  -4  11  -2    9.74    3.33
  -4 -11   3   58.38    7.86
  -4 -11  -3   53.60    7.79
  -4  11   3   61.70    8.03
  -4  11  -3   57.83    7.72
   4  11  -4  711.73   25.00
   4 -11  -4  707.03   26.19
  -4  11   4  703.21   25.43
  -4  11  -4  740.42   26.52
  -4 -11  -4  687.70   26.20
  -4 -11  -5  169.09   13.45
   4  11  -5  173.60   12.54
   4 -11  -5  164.38   13.06
   4  11  -5  180.19   12.45
  -4  11  -5  170.68   13.29
   4 -11   5  173.28   10.47
   4  11  -6  569.16   22.58
  -4 -11  -6  571.83   24.32
   4 -11  -6  574.57   24.23
   4  11  -6  570.92   18.67
   4  11  -6  598.50   22.15
  -4  11  -6  577.72   23.99
   4 -11   6  605.84   19.96
   4  11  -7   10.70    3.79
   4 -11   7   17.88    4.15
  -4  11  -7   12.20    4.59
  -4 -11  -7    7.43    3.62
   4 -11  -7   15.04    5.10
   4  11  -7   13.61    3.37
   4  11  -7   19.07    5.18
   4  11  -8   27.05    5.06
   4 -11   8   32.62    5.32
  -4 -11   8   27.15    4.54
   4 -11  -8   26.28    5.73
  -4 -11  -8   25.10    5.82
   4  11  -8   22.78    4.35
   4  11  -8   26.37    4.98
  -4  11  -8   30.28    5.75
   4  11  -9   38.46    6.18
  -4 -11   9   43.28    5.93
   4 -11   9   37.68    6.04
   4 -11  -9   41.61    7.63
  -4 -11  -9   31.22    6.51
  -4  11  -9   40.40    6.94
   4  11  -9   27.59    5.23
  -4  11   9   29.56    5.71
   4  11 -10  450.06   20.11
  -4 -11 -10  459.76   22.49
   4 -11 -10  456.38   22.12
   4  11 -10  455.32   19.65
  -4 -11  10  448.57   18.09
   4  11  10  468.47   21.66
  -4  11  10  447.68   21.14
   4 -11  10  445.51   18.90
  -4 -11  11    3.52    2.65
   4  11 -11    3.05    3.32
   4 -11 -11    4.07    3.98
   4 -11  11    4.63    3.00
   4  11 -11    0.93    2.52
   4  11  11    3.34    3.15
  -4  11  11    1.72    3.53
   4  11 -12   43.77    6.45
   4 -11 -12   50.40    8.09
   4 -11  12   47.27    6.66
  -4 -11 -12   55.90    8.62
   4  11 -12   58.55    7.60
   4  11  12   47.22    7.37
  -4  11  12   49.88    7.45
  -4 -11  12   50.52    6.70
   4  11 -13   23.24    4.98
   4 -11 -13   39.32    7.46
   4 -11  13   28.57    5.65
   4  11 -13   30.75    5.63
  -4 -11  13   23.98    5.16
   4  11  13   18.07    5.06
  -4  11  13   29.67    6.29
   4  11 -14  209.51   14.09
   4 -11 -14  195.06   15.19
  -4 -11  14  182.25   12.88
   4  11 -14  188.80   13.13
   4  11  14  184.12   14.63
  -4  11  14  175.31   14.15
   4 -11  14  182.56   13.56
   4  11 -15   -0.40    2.62
   4  11 -15   -2.70    2.84
   4 -11 -15    5.36    3.91
   4 -11  15    0.45    2.55
  -4 -11  15   -1.94    2.97
   4  11  15    0.99    2.98
  -4  11  15   -1.09    3.44
   4  11 -16    2.30    2.54
   4 -11  16   -3.39    3.24
   4  11  16    0.81    4.20
  -4 -11  16   -2.88    3.17
  -4  11  16    0.66    4.01
   4 -11  17    3.66    3.22
  -4 -11  17   -2.71    3.72
   4  11  17    0.00    4.14
  -4  11  17    3.17    3.43
  -4 -11  18   23.31    5.28
   4 -11  18   22.36    5.41
  -4 -11  19    1.62    2.96
  -4 -12   0   66.08    8.66
  -4  12   0   60.85    8.22
  -4  12  -1    1.04    3.64
  -4 -12   1    7.00    3.54
  -4 -12  -1    4.23    3.77
  -4  12   1   -0.78    2.84
  -4 -12   2   16.80    5.23
  -4 -12  -2    7.51    3.68
  -4  12   2   17.12    5.36
  -4  12  -2    6.47    3.51
  -4 -12  -3   92.10   10.40
   4 -12  -3  116.59   11.38
  -4  12   3  111.43   10.99
  -4  12  -3  114.14   11.16
  -4 -12   3   96.54   10.58
  -4 -12   4    1.48    3.49
  -4 -12  -4   -2.37    3.10
   4 -12  -4    2.35    3.43
  -4  12   4    4.43    3.28
  -4  12  -4    7.39    4.20
  -4  12  -5   -1.50    3.30
  -4 -12  -5    3.43    3.87
   4 -12  -5    8.91    4.38
  -4 -12   5    1.88    3.55
   4  12  -6   49.07    6.96
  -4 -12  -6   59.60    8.54
   4 -12  -6   57.78    8.52
   4  12  -6   45.38    6.95
  -4  12  -6   47.03    7.46
   4  12  -7   28.77    5.46
   4 -12  -7   34.06    6.68
  -4 -12  -7   35.73    6.76
   4  12  -7   21.27    4.81
  -4  12  -7   24.53    6.03
   4  12  -8   41.10    6.61
   4 -12  -8   40.74    7.03
  -4 -12  -8   40.48    7.13
   4  12  -8   41.64    6.56
  -4  12  -8   31.08    6.37
   4  12  -9   42.96    6.67
   4 -12  -9   38.70    7.24
  -4 -12  -9   50.62    8.11
   4  12  -9   48.05    7.16
  -4  12  -9   55.58    8.63
   4  12 -10   25.50    5.19
   4 -12 -10   35.42    7.36
  -4 -12 -10   33.64    7.21
  -4  12 -10   26.54    6.59
   4  12 -10   21.23    5.33
  -4  12 -11   45.94    7.84
   4  12 -11   41.00    6.86
   4 -12 -11   49.10    8.23
  -4 -12 -11   47.88    8.27
   4  12 -11   37.67    6.39
  -4  12  11   35.32    6.84
   4  12 -12   21.79    4.98
   4 -12 -12   30.67    6.60
   4 -12  12   30.46    5.67
  -4 -12 -12   29.39    7.54
   4  12 -12   19.54    4.86
   4  12  12   20.49    5.88
  -4  12 -12   25.15    6.45
  -4  12  12   16.38    5.40
   4  12 -13   17.09    4.52
   4 -12  13   22.27    5.31
   4  12 -13   17.43    4.83
   4  12  13   22.40    6.06
  -4  12  13   26.25    6.36
   4 -12  14   39.10    6.60
   4  12 -14   39.09    6.70
   4  12  14   24.08    5.74
  -4  12  14   38.51    7.29
   4 -12  15   14.64    4.47
   4 -12  16   -2.67    3.12
  -4 -12  17    4.07    3.82
   4 -12  17   -3.37    3.37
  -4 -13   0   41.80    7.60
  -4  13   0   38.26    7.08
  -4 -13   1   89.92   10.64
  -4 -13  -1   95.52   10.83
  -4  13   1  108.40   11.44
  -4  13  -1  110.92   11.78
  -4  13  -2   13.90    5.35
  -4 -13   2   19.80    5.50
  -4 -13  -2   17.94    5.42
   4 -13  -2   15.74    5.40
  -4  13   2   19.31    6.21
  -4 -13  -3  318.10   19.78
   4 -13  -3  326.27   19.49
  -4  13   3  333.86   19.50
  -4  13  -3  321.10   19.39
  -4 -13   3  340.02   20.09
  -4  13  -4    6.51    4.97
  -4 -13   4   -2.02    3.85
  -4 -13  -4    5.98    4.39
   4 -13  -4    4.12    3.67
  -4  13  -5   20.97    5.93
  -4 -13   5   14.02    4.64
  -4 -13  -5   18.60    5.08
   4 -13  -5   17.28    5.34
  -4 -13   6    9.68    3.65
   4 -13  -6   19.65    5.96
  -4 -13  -6   14.71    4.71
  -4  13  -6   14.00    4.57
  -4 -13  -7  141.98   13.47
   4 -13  -7  161.77   14.01
   4  13  -7  161.31   12.98
  -4  13  -7  188.07   15.26
  -4 -13   7  156.43   14.00
   4 -13  -8  160.82   14.52
   4  13  -8  134.24   11.92
  -4  13  -8  154.80   14.05
   4  13  -9   24.66    5.64
   4  13  -9   21.91    5.68
   4  13 -10    6.11    2.75
   4  13 -10    4.78    3.96
   4  13 -11    2.26    2.86
   4  13 -12  164.03   13.38
   4  14  -9    0.60    2.96
   4  14 -10   20.08    5.40
   5   0   0   -2.80    2.38
  -5   0  -1   -3.49    1.92
   5   0  -1   -2.12    2.46
   5   0   1    1.62    2.00
  -5   0  -2 1335.58   16.80
   5   0   2 1387.26   25.05
   5   0  -2 1355.37   24.62
  -5   0  -3    0.67    1.17
   5   0  -3   14.40    4.35
   5   0   3   12.05    4.04
  -5   0   3    3.76    0.86
   5   0   3   13.56    3.06
   5   0   4 1939.61   25.15
  -5   0  -4 1925.21   20.71
   5   0  -4 1956.08   29.96
   5   0   4 1956.74   30.56
   5   0   4 1876.41   13.42
   5   0   5   -0.71    1.50
   5   0  -5   -0.28    1.09
  -5   0  -5   -0.80    1.16
   5   0  -5   -3.98    2.91
   5   0   5    1.41    2.43
   5   0   6 1662.30   23.12
   5   0  -6 1633.04   20.68
   5   0   6 1598.30   28.48
   5   0  -6 1618.80   28.24
   5   0   6 1651.04   28.54
   5   0   7    3.35    1.48
   5   0  -7   -2.42    1.64
   5   0  -7    0.58    2.25
   5   0   7    3.37    2.48
   5   0  -8  372.67   10.51
   5   0  -8  369.84   14.04
   5   0   8  368.89   13.97
   5   0   8  380.30   10.87
   5   0   9    1.16    2.43
   5   0  -9    3.33    1.58
   5   0  -9   -0.10    2.17
   5   0 -10  180.14    7.91
   5   0 -10  176.61   10.14
   5   0 -10  162.01    3.67
   5   0  10  171.69   10.03
   5   0  11   -0.25    2.71
   5   0 -11   -0.92    2.85
   5   0 -11    1.43    0.72
   5   0 -12  766.03   21.70
   5   0  12  773.84   21.62
   5   0  13    5.49    3.61
   5   0 -13    0.43    3.43
   5   0 -14  194.79   11.64
   5   0  14  202.60   11.69
   5   0  15    4.13    3.92
   5   0 -15   -0.36    2.61
   5   0 -16  963.17   26.67
   5   0  16 1002.93   26.85
   5   0  17   12.93    5.06
   5   0 -17   -1.26    2.64
   5   0  18   77.44    8.09
   5   0 -18   76.86    8.36
   5   0 -19    4.79    3.43
   5   0  19    7.01    3.75
   5   0  20  201.35   13.37
   5   0 -20  191.69   13.24
  -5   0  20  193.93   13.07
   5   0  21   -1.03    2.62
  -5   0  21   -5.26    3.81
   5   0  22   75.84    8.89
  -5   0  22   74.54    8.85
  -5   0  23    8.05    5.62
   5   0  23   11.94    6.32
   5   0  24  707.53   27.24
  -5   0  24  670.47   26.47
   5   0  25   29.28    7.34
  -5   0  25   11.13    5.26
   5   0  26  240.81   16.76
  -5   0  26  238.71   16.80
   5   0  27    6.37    4.12
   5   1   0    0.17    2.35
   5  -1   0   -0.36    2.25
   5  -1   1  116.20    7.27
   5   1  -1  127.86    7.76
   5  -1  -1  132.61    7.71
   5   1   1  123.52    7.47
  -5  -1  -1  119.83    5.86
  -5   1  -1  136.55    4.39
  -5  -1  -2    1.05    1.21
  -5   1  -2   -0.47    0.94
  -5  -1   2    0.39    0.33
   5   1  -2    0.70    2.28
   5  -1  -2   -1.04    2.53
   5   1   2   -2.11    2.57
   5  -1   2    3.96    2.41
  -5  -1   2    1.00    0.39
  -5  -1  -3   38.81    3.44
   5   1   3   40.31    1.93
   5   1   3   40.70    4.02
  -5   1  -3   44.62    2.66
  -5   1  -3   42.56    2.04
  -5   1   3   39.99    2.04
   5  -1  -3   43.16    4.58
   5   1  -3   41.43    4.86
  -5   1   3   38.28    1.91
   5   1   3   40.18    4.71
   5  -1   3   49.30    5.03
   5  -1   3   38.09    1.59
   5  -1   4    6.61    1.80
   5   1   4   10.57    2.46
  -5  -1  -4    5.92    1.59
   5   1  -4    7.23    1.36
  -5   1  -4    9.00    1.31
   5   1  -4   10.31    3.13
   5   1  -4    8.20    1.08
   5  -1  -4    6.66    2.53
   5   1   4    9.62    1.23
   5   1   4   12.00    3.20
   5  -1   4    9.54    2.80
  -5   1   4    6.66    1.08
   5  -1   5   30.29    3.16
   5   1   5   29.48    3.62
   5   1  -5   31.78    2.49
  -5  -1  -5   29.47    3.24
   5  -1  -5   38.17    4.54
   5   1  -5   30.34    2.30
   5   1  -5   32.42    4.61
   5  -1   5   31.22    4.45
   5   1   5   28.71    2.20
  -5   1   5   34.58    2.53
   5   1   5   33.78    4.53
   5  -1   5   31.11    4.53
   5  -1   6  561.17   12.43
   5   1   6  546.61   14.35
  -5  -1  -6  569.08   13.44
   5   1  -6  559.91   10.64
   5  -1  -6  563.10   13.52
   5   1  -6  548.87   16.71
   5  -1  -6  547.19   16.10
   5  -1   6  558.39   16.83
   5   1   6  552.63   16.79
   5   1   6  557.23   10.48
  -5   1   6  566.63   10.91
   5  -1   7   46.99    5.20
   5   1  -7   46.94    3.30
   5  -1  -7   48.58    4.17
   5   1  -7   53.86    5.84
   5  -1  -7   47.14    5.04
   5   1   7   44.64    5.18
   5   1   7   43.34    3.40
   5   1   7   45.28    5.34
   5  -1   7   49.36    3.41
   5  -1   8   33.60    3.04
   5  -1   8   41.20    5.13
   5   1  -8   35.25    3.01
   5  -1  -8   32.61    3.50
   5   1  -8   30.39    4.54
   5  -1  -8   26.68    4.14
   5   1   8   33.03    3.26
   5   1   8   30.86    4.26
   5  -1   9   82.77    4.93
   5  -1  -9   86.20    5.78
   5   1  -9   82.46    7.13
   5  -1  -9   87.74    7.07
   5  -1   9   82.52    6.98
   5   1   9   83.72    6.66
   5  -1 -10  842.29   18.26
   5   1 -10  851.40   22.40
   5  -1 -10  818.36   21.09
   5  -1 -10  840.27   10.77
   5   1  10  812.25   21.09
   5  -1  10  842.49   22.21
   5   1  11   35.82    5.07
   5  -1 -11   43.08    4.41
   5  -1  11   35.24    5.11
   5  -1 -11   36.85    2.54
   5   1 -11   33.47    4.98
   5  -1 -11   41.16    5.40
   5  -1 -12  375.24   13.09
   5   1 -12  368.24   15.52
   5  -1 -12  356.88   14.82
   5  -1 -12  379.89    8.68
   5   1  12  373.05   15.03
   5  -1  12  358.80   15.11
   5   1 -13  559.25   19.39
   5  -1 -13  524.46   18.12
   5   1  13  538.97   18.20
   5  -1  13  508.61   18.54
   5  -1 -14  229.34   12.24
   5   1 -14  252.91   13.33
   5   1  14  241.98   12.64
   5  -1  14  252.44   13.40
   5   1  15    7.38    3.51
   5  -1  15    6.75    4.31
   5  -1 -15    4.82    3.01
   5   1 -15    7.71    2.96
   5  -1 -16  349.10   15.96
   5   1 -16  379.08   17.12
   5   1  16  375.09   16.19
   5  -1  16  384.51   17.06
   5   1  17   45.62    6.45
   5  -1  17   37.68    5.98
   5  -1 -17   35.85    5.67
   5   1 -17   38.16    5.71
   5   1  18   37.33    5.63
   5  -1 -18   29.73    5.64
   5   1 -18   34.04    5.76
   5  -1  18   36.17    6.03
   5   1  19   32.62    5.74
   5  -1 -19   30.08    5.51
   5   1 -19   34.45    5.98
   5  -1  19   32.31    6.06
   5  -1  20  175.00   12.80
   5  -1 -20  205.50   13.39
   5   1 -20  184.76   13.19
  -5  -1  20  182.38   12.91
  -5   1  20  192.19   12.97
   5   1  20  192.16   12.77
  -5  -1  21   75.90    8.70
   5   1  21   72.87    8.25
   5  -1  21   80.86    8.95
  -5   1  21   66.97    7.95
   5   1  22    1.86    3.36
   5  -1  22   11.18    5.03
  -5  -1  22    6.69    4.12
  -5   1  22    8.21    4.40
   5  -1  23  227.38   15.50
  -5  -1  23  183.62   14.22
  -5   1  23  189.13   14.10
   5   1  23  210.91   14.46
  -5  -1  24  296.48   18.11
   5  -1  24  313.27   18.61
  -5   1  24  294.18   17.62
   5   1  24  298.69   17.69
  -5  -1  25   10.03    5.00
   5   1  25   14.40    4.82
   5  -1  25   15.04    5.99
  -5   1  25   22.41    5.55
   5   1  26   48.18    7.56
  -5  -1  26   82.28   10.23
   5  -1  26   76.29    9.81
  -5   1  26   68.32    9.09
  -5   1  27   31.04    6.47
   5   1  27   35.13    7.05
   5   2   0   -0.57    2.28
  -5   2   0   -0.08    0.36
  -5  -2   0    0.57    0.63
   5  -2   0    0.31    1.70
  -5  -2   0    0.33    0.51
  -5  -2  -1  111.08    3.93
   5  -2   1  105.59    6.74
  -5  -2   1  110.76    4.05
   5   2  -1  102.94    7.14
   5  -2  -1  105.93    6.64
   5   2   1  104.31    7.13
  -5  -2   1  112.41    3.85
   5  -2   1  107.05    3.15
  -5  -2  -1  110.18    3.76
  -5  -2  -1  103.54    5.90
   5   2   2  141.10    7.76
  -5  -2   2  128.05    3.82
  -5   2   2  141.23    5.19
   5   2  -2  142.85    8.46
   5  -2  -2  141.13    3.74
   5  -2  -2  130.62    7.56
   5   2   2  138.91    8.11
   5  -2   2  133.77    7.92
  -5  -2   2  139.89    4.55
   5  -2   2  133.00    3.72
  -5  -2  -2  135.15    6.79
  -5  -2  -3 1319.83   21.27
   5   2   3 1260.55   23.29
   5   2  -3 1247.82   11.57
  -5   2   3 1311.01   15.05
   5   2  -3 1321.19   25.12
   5  -2  -3 1295.86   23.52
   5   2   3 1287.07   14.16
   5   2   3 1310.55   24.62
   5  -2   3 1280.52   12.84
  -5   2   3 1307.69   13.64
   5  -2   3 1304.85   24.35
   5   2   4  878.12   19.36
  -5  -2  -4  914.27   18.08
   5   2  -4  894.14    9.62
  -5   2   4  889.39   12.06
   5   2  -4  888.82   20.95
   5  -2  -4  894.28   19.71
  -5   2  -4  903.49   12.61
   5   2   4  907.24   12.74
  -5   2   4  900.25   12.52
   5  -2   4  901.03   20.80
   5   2   4  922.83   21.08
   5  -2   5  872.74   14.11
   5   2   5  927.26   19.93
  -5  -2  -5  921.87   18.32
   5   2  -5  898.86    9.86
   5   2  -5  894.76   21.26
   5  -2  -5  913.32   20.26
  -5   2  -5  910.10   13.83
   5   2  -5  910.60   13.83
   5   2   5  918.86   21.12
   5  -2   5  901.30   21.27
   5   2   5  896.62   13.59
  -5   2   5  906.55   13.65
   5  -2   5  893.93   20.97
   5  -2   6  847.59   13.54
   5   2   6  816.31   18.96
  -5  -2  -6  835.56   17.99
   5  -2  -6  835.88   17.90
   5   2  -6  852.00   20.97
   5  -2  -6  863.10   19.64
  -5   2  -6  825.12   14.19
   5   2  -6  857.45   14.33
   5  -2   6  844.59   21.13
   5   2   6  832.57   14.14
  -5   2   6  855.37   14.35
   5   2   6  824.96   20.58
   5   2  -7   99.67    5.32
  -5  -2  -7  101.47    6.64
   5  -2  -7   89.69    6.12
   5   2  -7   93.13    7.41
   5  -2  -7   98.84    7.09
   5   2   7  105.46    7.82
   5   2   7   97.97    5.28
   5  -2   7  110.97    8.12
  -5   2   7   97.68    5.34
   5  -2   7  101.35    4.19
   5  -2   8    4.75    2.79
   5  -2   8    4.01    1.17
   5  -2  -8    4.86    2.07
  -5  -2  -8    6.16    2.70
   5   2  -8    7.01    3.24
   5  -2  -8    5.18    2.43
   5   2  -8   10.99    2.24
   5   2   8    1.94    2.23
   5   2   8    4.81    1.73
  -5   2   8    3.68    1.97
   5  -2   9  672.77   12.79
   5  -2  -9  633.94   16.58
   5   2  -9  637.52   19.41
   5  -2  -9  640.86   17.95
   5   2   9  637.24   17.90
   5   2   9  655.13   14.94
  -5   2   9  655.64   15.10
   5  -2   9  678.60   19.80
   5  -2  10  244.31    8.30
   5  -2 -10  246.16   10.60
   5   2  10  233.84   11.03
   5   2 -10  232.33   11.95
   5  -2 -10  225.41   10.88
   5  -2 -10  240.67    7.02
   5   2 -10  226.36    4.75
   5   2  10  237.59    9.53
  -5   2  10  229.20    9.63
   5  -2  10  244.16   12.12
   5   2  11   60.88    5.92
   5  -2 -11   65.91    5.98
   5  -2  11   66.98    6.75
   5  -2 -11   68.83    6.40
   5  -2 -11   73.62    4.14
   5   2 -11   67.08    6.78
   5   2  11   67.91    5.73
   5   2  12  225.20   11.43
   5  -2 -12  225.24   10.85
   5   2 -12  236.84   12.68
   5  -2 -12  217.84   11.32
   5  -2 -12  224.56    7.56
   5   2  12  234.93   10.41
   5  -2  12  239.29   12.80
   5  -2 -13  929.55   22.08
   5   2 -13  934.30   25.44
   5  -2 -13  921.60   23.61
   5  -2  13  934.64   25.41
   5   2  13  931.01   23.44
   5   2  13  887.67   21.10
   5  -2 -14   74.35    6.82
   5   2 -14   72.95    7.89
   5  -2  14   76.97    7.85
   5  -2 -14   65.12    6.91
   5   2  14   75.55    7.07
   5  -2 -15  287.95   13.91
   5   2 -15  283.91   14.75
   5   2  15  288.40   13.75
   5  -2  15  290.81   14.98
   5  -2  16  227.33   13.58
   5  -2 -16  213.55   12.29
   5   2 -16  203.97   13.12
   5   2  16  209.30   12.29
   5  -2  17  326.59   16.72
   5  -2 -17  341.43   15.84
   5   2 -17  291.36   15.53
   5   2  17  308.21   14.99
   5  -2  18  287.95   16.06
   5  -2 -18  270.58   14.75
   5   2 -18  284.21   15.62
   5   2  18  279.30   14.66
   5   2  19   41.39    6.10
  -5  -2  19   48.72    7.14
   5  -2 -19   40.79    5.94
   5   2 -19   40.45    6.84
   5  -2  19   43.62    7.09
   5  -2  20  308.54   17.14
   5   2 -20  328.81   17.89
  -5  -2  20  320.30   17.37
   5   2  20  300.71   15.74
  -5   2  20  304.62   15.89
   5   2  21   58.99    7.70
   5  -2  21   45.14    7.27
  -5   2  21   49.34    7.10
  -5  -2  21   55.80    8.15
   5   2  22   38.62    6.29
  -5  -2  22   48.13    7.74
   5  -2  22   33.91    6.31
  -5   2  22   33.60    6.11
  -5   2  23   32.20    5.97
   5   2  23   46.86    7.12
   5  -2  23   40.04    7.21
  -5  -2  23   49.33    7.83
   5   2  24   45.92    7.35
   5  -2  24   50.26    8.16
  -5  -2  24   31.41    6.39
  -5   2  24   42.96    7.16
   5   2  25    7.87    3.42
   5  -2  25    5.63    3.73
  -5  -2  25    5.67    4.14
  -5   2  25    2.46    3.26
   5   2  26   31.74    6.29
  -5   2  26   35.75    7.04
  -5   2  27  188.94   14.79
   5   2  27  195.10   14.83
  -5  -3   0    1.91    1.07
  -5  -3   0   -0.59    1.09
   5   3   0   -1.47    2.05
   5  -3   0   -1.22    1.76
  -5  -3   0   -0.36    1.16
   5  -3   0    0.16    0.77
   5   3   1   15.77    3.45
  -5  -3   1   14.97    1.96
  -5  -3   1   12.19    1.60
   5  -3  -1   15.43    1.73
  -5  -3  -1   10.47    1.64
   5   3  -1   10.89    2.97
   5   3   1   16.05    3.22
   5  -3  -1    8.52    2.16
   5  -3   1   14.46    2.95
  -5  -3   1   15.12    1.82
   5  -3   1   12.74    1.57
  -5  -3  -1   11.72    1.73
  -5  -3  -1    8.16    2.34
   5  -3  -1   15.39    1.85
   5   3   2  351.38   12.97
  -5  -3   2  353.80    7.86
  -5   3   2  344.70    9.53
   5   3  -2  362.55   13.32
   5  -3  -2  343.44   11.93
   5   3   2  353.17   12.97
   5  -3  -2  373.37    8.12
   5  -3   2  358.75   12.58
  -5  -3   2  358.51    8.94
   5  -3   2  353.06    7.98
  -5  -3  -2  358.18    8.79
  -5  -3  -2  350.87   12.03
   5   3   3    7.80    2.69
  -5  -3  -3   10.55    2.60
   5  -3   3    7.57    2.40
  -5   3   3    9.18    1.86
   5   3  -3    5.97    2.48
   5  -3  -3    8.50    2.67
   5   3   3    9.41    2.66
  -5  -3   3    9.80    1.81
  -5   3   3    8.39    1.48
   5  -3   3    9.61    1.52
   5   3   4    2.53    2.07
  -5  -3  -4   -2.59    2.23
  -5   3   4   -0.43    1.04
   5  -3   4   -1.21    2.36
   5   3  -4   -1.95    2.31
   5  -3  -4    1.79    1.80
   5   3   4    0.48    2.14
   5   3   4   -0.94    1.23
  -5   3   4    0.66    0.99
   5  -3   4    1.41    2.29
   5  -3   5  524.11    9.52
   5   3   5  526.05   16.27
   5   3   5  520.15   15.83
  -5  -3  -5  510.84   14.79
   5  -3   5  532.66   16.55
  -5   3  -5  511.59   11.55
   5   3  -5  508.71   16.44
   5  -3  -5  527.68   15.05
   5   3   5  500.42   11.67
  -5   3   5  521.28   11.55
   5  -3   5  532.90   16.12
  -5   3  -6   64.72    4.49
   5  -3   6   69.92    3.35
   5   3   6   61.64    5.78
  -5  -3  -6   60.27    5.31
   5  -3  -6   71.52    5.91
   5   3   6   64.28    5.98
   5   3  -6   65.59    6.54
   5  -3  -6   72.69    5.78
   5   3  -6   65.65    4.48
   5   3   6   66.71    4.56
  -5   3   6   74.23    4.69
   5  -3   6   76.96    6.84
   5  -3   7  341.08    6.42
  -5  -3  -7  347.02   12.60
   5  -3  -7  338.25   12.47
   5   3  -7  327.09   13.64
   5  -3  -7  362.84   12.73
  -5   3  -7  341.15   10.48
   5   3  -7  333.93   10.37
   5   3   7  336.96   13.23
   5   3   7  342.13   10.48
  -5   3   7  337.57   10.37
   5  -3   7  339.38   13.86
   5  -3   8   24.83    2.11
   5  -3   8   24.79    4.52
   5  -3  -8   23.15    3.69
  -5  -3  -8   24.98    4.43
   5   3  -8   23.39    1.77
   5   3  -8   23.47    4.03
   5  -3  -8   29.07    3.94
  -5   3  -8   26.39    3.27
   5   3  -8   22.84    3.10
   5   3   8   29.04    4.37
   5   3   8   22.91    3.11
  -5   3   8   22.09    3.03
   5  -3   9   30.40    2.65
   5  -3   9   35.24    5.33
   5  -3  -9   36.89    4.41
  -5  -3  -9   36.04    4.87
   5   3  -9   32.09    2.20
   5   3  -9   30.37    4.50
   5  -3  -9   29.41    4.03
   5   3  -9   32.14    3.80
   5   3   9   34.54    4.72
   5   3   9   28.76    3.65
  -5   3   9   33.88    3.93
   5  -3  10   11.00    3.45
   5  -3 -10   15.25    3.40
   5  -3  10   15.38    2.14
   5   3 -10   15.03    3.86
   5  -3 -10    9.58    2.94
   5   3 -10   11.99    2.68
   5   3 -10   13.66    1.54
   5  -3 -10   17.92    2.31
   5   3  10   12.83    3.01
   5   3  10   16.02    3.52
   5   3  10   17.58    3.12
  -5   3  10   14.74    2.82
   5  -3 -11    4.95    2.40
   5  -3  11    2.79    2.88
   5  -3  11    5.42    1.66
   5   3 -11    0.51    2.80
   5  -3 -11    2.31    2.14
   5  -3 -11    3.85    1.32
   5   3 -11    6.52    1.39
   5   3  11    6.40    2.45
  -5   3  11    7.19    2.67
   5   3  11    6.43    2.54
   5   3  12    5.35    2.68
   5  -3 -12    7.57    2.99
   5  -3  12    5.25    3.64
   5   3 -12    0.69    2.86
   5  -3 -12    7.34    2.94
   5   3  12    4.99    2.09
  -5   3  12    6.21    2.87
   5  -3 -13  285.00   13.02
   5   3 -13  274.73   14.19
   5  -3 -13  276.40   12.80
   5   3  13  279.78   12.83
   5   3  13  294.87   12.55
  -5   3  13  286.92   12.45
   5  -3  13  275.34   14.14
   5   3  14    3.43    2.30
   5  -3 -14    1.54    2.22
   5  -3  14    0.38    3.17
   5  -3 -14    2.79    2.83
   5   3 -14   -0.82    2.61
   5   3  14   -1.93    2.13
  -5   3  14    5.86    3.23
  -5   3  15  326.37   14.14
   5  -3 -15  318.74   14.46
   5  -3 -15  303.30   14.14
   5   3 -15  336.31   16.18
   5   3  15  306.36   13.83
   5   3  15  311.11   14.06
   5  -3  15  311.29   15.61
   5   3  16   67.96    6.90
   5  -3 -16   54.66    6.42
   5   3 -16   58.86    7.38
   5  -3  16   59.61    7.52
  -5   3  16   63.16    7.06
   5   3  16   53.53    6.19
   5   3  17    4.11    2.88
  -5   3  17    8.74    3.19
   5  -3 -17    4.53    2.74
   5   3 -17    5.62    3.08
   5  -3  17   10.52    3.83
   5   3  17    7.21    3.26
  -5   3  17   10.37    3.57
   5   3  18    2.56    2.51
   5  -3 -18    5.01    3.06
   5   3 -18    1.24    3.40
   5  -3  18    5.44    3.74
  -5  -3  18   -0.80    2.83
  -5   3  18    4.69    2.32
   5   3  18   -1.35    2.74
  -5   3  18    3.50    3.01
  -5  -3  19   43.40    6.59
   5   3  19   55.65    6.83
   5  -3 -19   42.41    6.16
   5   3 -19   41.42    6.65
   5  -3  19   52.16    7.38
   5   3  19   53.69    6.99
  -5   3  19   48.04    6.79
  -5  -3  20   30.65    5.82
   5   3  20   32.10    5.38
   5   3 -20   30.24    5.90
   5  -3  20   29.59    5.85
  -5   3  20   30.07    5.44
   5   3  20   37.59    6.27
   5   3  21   19.29    4.77
   5  -3  21   23.17    5.73
  -5  -3  21   19.26    5.41
  -5   3  21   24.99    5.40
   5   3  21   18.46    4.95
  -5  -3  22   18.46    4.97
   5   3  22   16.93    4.65
  -5   3  22   22.87    5.33
   5  -3  22   16.47    4.54
   5   3  22   14.86    4.59
  -5   3  23   49.70    7.32
   5   3  23   43.50    6.87
   5  -3  23   45.23    7.95
  -5  -3  23   45.12    7.86
   5   3  23   50.87    7.86
  -5   3  23   59.46    8.05
  -5   3  24  167.89   12.95
  -5  -3  24  210.19   15.74
   5  -3  24  164.08   14.01
   5   3  24  187.73   14.21
  -5   3  24  184.01   14.04
   5   3  24  171.10   12.75
   5   3  25   32.50    6.54
  -5  -3  25   25.77    6.18
   5  -3  25   29.34    6.53
  -5   3  25   25.37    5.95
   5   3  25   28.47    6.41
  -5   3  25   32.16    6.87
   5   3  26    4.38    3.32
  -5   3  26   -1.43    2.74
   5   3  26    0.86    3.17
  -5   3  26    0.62    3.01
   5   3  27  122.21   11.63
  -5   3  27  121.85   11.78
   5   3  27  141.92   13.37
   5   4   0    1.50    2.43
   5   4   0    0.33    0.33
  -5  -4   0    0.09    1.02
   5  -4   0   -0.21    0.88
  -5  -4   0   -1.30    1.58
   5   4   0   -1.35    2.48
   5  -4   0   -0.68    1.80
  -5  -4   0    0.76    1.00
   5  -4   0   -0.83    1.16
   5   4   1  370.44   14.01
   5   4   1  380.17    7.37
  -5  -4   1  392.08   10.57
  -5  -4   1  374.76    9.89
  -5   4   1  376.09   11.38
   5   4  -1  382.59   13.74
   5   4   1  362.48   13.38
  -5  -4   1  380.20   10.56
   5  -4  -1  368.72    9.56
   5  -4  -1  385.48   12.59
  -5  -4  -1  372.54   10.44
   5  -4   1  374.98    9.72
   5  -4   1  363.54   12.42
  -5  -4  -1  391.99   10.54
   5  -4  -1  368.24    9.71
  -5  -4  -1  340.66   12.78
   5   4  -1  382.35   14.22
   5   4   2    8.27    2.57
  -5  -4  -2    5.65    2.46
   5   4  -2    6.34    2.75
  -5   4   2    6.21    0.85
   5   4   2    6.00    1.27
   5  -4  -2    5.32    1.96
  -5  -4   2    6.26    1.61
   5  -4  -2    5.79    1.24
  -5  -4   2    7.91    1.63
   5   4   2    7.26    2.63
  -5   4   2    5.38    1.69
  -5  -4   2    8.30    1.93
   5  -4   2    9.51    2.72
   5  -4   2    4.40    1.24
  -5  -4  -2    4.52    1.25
   5  -4  -2    7.09    1.74
   5   4   3   13.13    3.09
  -5  -4  -3    8.68    2.43
   5   4   3   11.06    1.74
  -5   4   3    8.90    1.26
  -5   4   3   11.90    2.35
   5  -4  -3    8.95    2.34
  -5   4   3    8.95    1.84
   5   4   3    7.30    2.57
   5   4  -3   11.90    3.04
   5  -4   3    9.42    1.86
   5  -4   3    7.35    2.40
  -5  -4  -3    6.95    1.74
  -5  -4  -4  102.24    7.23
   5   4   4   97.55    7.37
   5  -4   4  104.18    7.16
  -5   4   4  107.67    4.53
  -5   4   4   99.10    5.64
   5   4  -4  102.71    7.58
   5  -4  -4  104.08    6.63
   5   4   4  102.95    7.16
   5  -4   4  106.03    5.59
   5   4   4   99.25    5.67
  -5   4   4  105.88    5.64
   5  -4   4  100.08    7.43
   5  -4   5   45.13    2.39
   5  -4   5   56.02    5.83
   5   4   5   48.19    5.48
  -5  -4  -5   48.16    5.08
  -5   4   5   46.34    4.03
   5  -4  -5   48.35    4.79
   5   4  -5   55.13    5.91
   5   4   5   48.13    4.23
  -5   4   5   45.98    4.12
   5   4   5   42.33    5.08
  -5  -4  -6  560.94   17.01
   5   4  -6  576.78   18.17
   5   4   6  578.89   17.13
   5  -4  -6  576.78   15.61
  -5   4  -6  582.04   14.18
   5   4   6  565.79   14.20
  -5   4   6  562.44   13.92
   5  -4   6  604.32   18.33
   5  -4   7  619.84    7.12
  -5  -4  -7  653.39   18.56
   5  -4  -7  666.07   18.80
   5   4  -7  672.50   19.65
   5  -4  -7  632.03   16.55
  -5   4  -7  643.32   15.46
   5   4   7  627.37   18.15
   5   4  -7  660.20   15.72
   5   4   7  640.12   15.60
  -5   4   7  630.98   15.27
   5  -4   7  666.07   19.71
   5  -4   8  191.43    5.14
  -5  -4  -8  185.64   10.37
   5  -4  -8  195.93   10.36
   5   4  -8  194.95    6.33
   5   4  -8  185.51   10.76
   5  -4  -8  196.43    9.58
  -5   4  -8  189.67    8.74
   5   4  -8  206.03    9.20
   5   4   8  185.27   10.12
   5   4   8  185.37    8.73
  -5   4   8  182.94    8.58
   5  -4   8  179.53   10.59
   5  -4   9   62.01    3.44
   5  -4   9   62.69    6.67
   5  -4  -9   54.58    5.76
  -5  -4  -9   62.11    6.33
   5   4  -9   59.28    3.62
   5   4  -9   57.30    6.14
   5  -4  -9   53.30    5.15
  -5   4  -9   63.69    5.46
   5   4  -9   57.66    5.26
   5   4   9   58.25    5.20
  -5   4   9   56.35    5.13
   5   4   9   56.17    5.77
   5  -4  10   -3.38    3.18
   5  -4 -10   -0.48    2.62
  -5  -4 -10    0.93    2.68
   5   4 -10   -2.58    3.31
   5  -4 -10   -1.15    2.17
   5   4 -10   -0.16    0.94
  -5   4 -10    3.44    2.31
   5   4 -10   -0.26    1.87
   5   4  10   -0.28    2.23
  -5   4  10    2.13    1.91
   5   4  10   -1.74    2.19
   5  -4 -11    7.58    2.97
   5  -4  11    6.75    3.04
   5   4 -11    7.78    3.41
   5  -4 -11    4.89    2.34
  -5   4 -11    6.71    2.84
   5   4 -11    7.77    3.10
   5   4 -11    4.56    1.46
   5   4  11    3.36    2.72
   5   4  11    1.90    2.21
  -5   4  11    2.65    2.30
   5  -4 -12  267.05   13.03
   5   4 -12  247.43   13.50
   5  -4 -12  240.61   11.47
   5   4 -12  265.46    8.52
   5   4 -12  251.14   11.73
   5   4  12  248.90   11.65
   5   4  12  256.89   11.71
  -5   4  12  259.88   11.82
   5  -4  12  262.13   13.74
   5  -4 -13   19.14    4.13
   5  -4  13   16.68    4.28
   5  -4 -13   13.47    3.36
   5   4 -13   16.70    4.25
   5   4 -13   21.20    3.99
   5   4  13   20.24    3.56
  -5   4  13   24.53    4.13
   5   4  13   21.80    4.00
   5  -4 -14  103.06    8.63
   5  -4 -14  107.45    8.31
   5   4 -14   93.09    8.62
   5   4 -14  107.45    8.23
  -5   4  14   96.31    7.68
   5   4  14   99.53    7.66
   5   4  14   95.93    7.77
  -5   4  14   97.00    7.94
   5  -4  14  104.79    9.18
   5   4  15   29.18    4.96
   5  -4 -15   35.54    5.52
   5  -4 -15   25.51    4.81
   5  -4  15   36.56    6.55
   5   4 -15   46.89    6.92
  -5   4  15   35.52    5.09
  -5   4  15   33.19    5.56
   5   4  15   28.92    4.84
   5  -4  16  399.33   18.52
   5  -4 -16  392.56   17.05
   5  -4 -16  370.64   15.58
   5   4 -16  390.37   18.11
  -5   4  16  368.66   14.65
   5   4  16  402.98   16.05
   5   4  16  393.24   16.48
  -5   4  16  379.75   16.44
   5  -4  17  204.72   13.74
  -5  -4  17  181.77   12.65
   5  -4 -17  206.19   11.99
   5   4 -17  167.63   12.39
  -5   4 -17  184.10    9.63
  -5   4  17  192.83   10.58
   5   4  17  205.81   12.29
   5   4  17  194.37   11.51
  -5   4  17  173.25   11.62
   5   4  18    2.85    2.36
   5  -4 -18    3.51    2.53
  -5  -4  18    3.02    3.02
   5   4 -18    6.98    3.24
   5  -4  18    9.41    4.42
  -5   4  18    3.12    2.52
   5   4  18    9.04    3.70
  -5   4  18    7.62    3.75
   5   4 -19   83.86    9.20
   5  -4  19   88.23    9.49
  -5  -4  19   85.68    9.19
   5   4  19   84.40    8.65
  -5   4  19   81.70    8.51
   5   4  19   83.84    7.82
   5   4  20   31.35    5.10
   5  -4  20   37.73    6.64
  -5  -4  20   39.20    6.81
  -5   4  20   36.79    5.98
   5   4  20   38.45    6.58
  -5   4  20   47.87    7.31
   5   4  21   26.73    5.05
  -5  -4  21   30.56    6.59
  -5   4  21   33.56    5.74
   5  -4  21   28.20    6.34
   5   4  21   27.18    5.58
  -5   4  21   40.50    6.53
   5   4  22    8.15    4.19
   5  -4  22    3.33    4.61
  -5   4  22    9.33    4.64
  -5  -4  22    4.06    4.45
   5   4  22    8.50    4.97
  -5   4  22    7.69    4.10
   5  -4  23  705.49   28.25
  -5   4  23  644.64   24.08
   5   4  23  666.76   26.16
  -5   4  23  642.57   25.88
   5   4  23  653.49   23.90
  -5  -4  23  655.59   27.30
   5   4  24   13.87    4.32
   5  -4  24   27.22    7.25
  -5  -4  24   12.17    6.43
  -5   4  24   13.33    4.87
   5   4  24   10.72    5.12
  -5   4  24    8.93    4.70
  -5   4  25   20.88    5.00
   5   4  25    9.16    4.49
  -5   4  25   11.87    4.79
  -5   4  26   37.42    6.48
   5   4  26   24.40    5.85
  -5   4  26   26.97    6.18
   5   5   0    1.41    2.30
   5   5   0   -1.39    2.04
  -5   5   0    2.25    2.49
   5  -5   0    0.00    1.58
   5   5  -1  621.27   19.09
   5   5   1  608.91   18.93
   5   5   1  648.67    9.54
   5  -5  -1  620.24   15.89
  -5   5   1  598.02   15.72
   5   5  -1  625.75   17.88
   5   5   1  612.03   17.62
   5  -5   1  614.73   16.30
  -5  -5  -1  597.87   18.17
   5   5  -2  324.31   13.94
   5   5   2  309.52   13.64
   5   5   2  340.87    7.97
  -5   5   2  318.02   11.36
   5   5  -2  361.92   13.73
   5   5   2  333.30   12.89
   5  -5   2  335.62   12.25
   5  -5  -2  331.76   11.55
  -5  -5  -2  322.40   13.37
   5   5   3   18.09    3.54
  -5   5   3   14.54    1.62
  -5  -5  -3    9.70    2.75
   5   5   3   16.21    2.00
   5   5  -3   14.14    3.39
  -5   5   3   13.14    2.64
   5  -5  -3   16.96    2.93
   5  -5   3   15.57    3.20
   5   5   3    9.03    2.22
  -5   5   4   44.28    3.03
   5   5   4   42.00    5.17
   5   5   4   48.12    3.65
  -5  -5  -4   40.52    5.08
  -5   5   4   44.68    4.50
   5   5  -4   52.17    5.73
   5  -5  -4   39.61    4.21
   5   5   4   42.22    4.18
  -5   5   4   43.55    4.13
   5   5   4   42.31    4.70
   5  -5   4   50.86    5.36
   5  -5   4   39.63    5.12
  -5  -5  -5  114.14    8.22
   5   5   5  114.60    8.61
  -5   5   5  107.90    5.18
  -5   5   5  120.79    6.94
   5   5  -5  119.66    8.30
   5  -5  -5  114.93    7.01
   5   5   5  117.58    7.86
   5   5   5  117.71    7.01
  -5   5   5  115.63    6.73
   5  -5   5  124.73    8.58
  -5  -5  -6  412.39   15.29
  -5   5   6  405.58   10.71
   5   5  -6  408.36   15.58
   5  -5  -6  410.91   13.03
   5   5   6  407.72   14.45
   5   5   6  408.11   13.17
  -5   5   6  418.35   13.01
   5  -5   6  441.35   15.89
  -5  -5  -7  329.41   13.98
   5  -5   7  301.14    4.52
   5  -5  -7  336.35   14.14
   5   5  -7  328.17    9.69
   5   5  -7  309.41   13.92
   5  -5  -7  325.54   11.79
  -5   5  -7  315.82   11.75
   5   5   7  302.42   12.79
   5   5   7  341.23   12.30
  -5   5   7  310.95   11.61
   5  -5   7  328.83   14.10
  -5  -5  -8  139.07    9.52
   5  -5  -8  145.35    9.60
   5   5  -8  137.96    9.74
   5   5  -8  136.54    6.41
   5  -5  -8  135.90    7.77
  -5   5  -8  142.06    8.21
   5   5  -8  145.76    8.34
   5   5   8  139.04    8.91
   5   5   8  149.82    8.41
  -5   5   8  146.13    8.29
   5  -5   8  144.48    9.83
   5  -5   9   18.37    4.24
   5  -5  -9   18.01    3.87
  -5  -5  -9   22.51    4.57
   5   5  -9   14.54    3.69
   5  -5  -9   19.37    3.20
   5   5  -9   20.45    2.67
  -5   5  -9   18.48    3.15
   5   5  -9   20.34    3.56
   5   5   9   19.25    3.52
   5   5   9   18.03    3.48
  -5   5   9   22.03    3.61
   5  -5  10   17.28    3.77
   5  -5 -10   16.19    3.79
  -5  -5 -10   13.56    3.78
   5   5 -10   18.20    4.23
   5  -5 -10   17.37    3.23
   5   5 -10   18.22    2.54
   5   5 -10   19.01    3.43
  -5   5  10   24.09    4.67
  -5   5 -10   21.07    3.69
   5   5  10   17.40    3.61
   5   5  10   14.03    3.14
  -5   5  10   17.88    3.35
  -5  -5 -11  108.04    9.11
   5  -5 -11  114.68    9.11
   5   5 -11   99.40    8.56
   5  -5 -11  106.97    7.41
  -5   5  11  121.19    8.82
   5   5 -11  118.77    6.25
  -5   5 -11  110.12    8.11
   5   5 -11  107.95    7.83
   5   5  11   99.95    8.04
   5   5  11  111.22    7.97
  -5   5  11  108.57    7.86
   5  -5  11  116.42    9.31
   5  -5 -12  398.77   16.61
   5   5 -12  385.48   16.91
   5  -5 -12  393.49   14.21
   5  -5  12  411.69   17.36
   5   5 -12  413.54   11.82
  -5   5 -12  400.71   15.24
   5   5 -12  392.42   15.19
  -5   5  12  384.11   15.59
   5   5  12  371.63   14.78
  -5   5  12  395.63   15.30
   5   5  12  369.09   15.31
  -5   5  13   -2.21    2.36
   5   5 -13    1.90    2.21
   5  -5 -13    2.69    2.39
   5  -5  13    4.04    3.43
   5  -5 -13    0.02    2.04
   5   5 -13   -0.02    2.95
   5   5 -13    3.52    1.81
  -5   5 -13    2.06    2.77
  -5   5 -13    3.92    2.82
   5   5  13   -2.66    2.96
   5   5  13    2.77    2.21
  -5   5  13    2.38    2.34
   5  -5 -14    9.51    3.14
   5  -5  14   13.36    3.57
   5  -5 -14   19.22    3.40
   5   5 -14    8.02    3.66
  -5   5 -14   12.19    3.59
   5   5 -14   11.69    3.25
  -5   5 -14   16.48    3.66
  -5   5  14   12.40    3.22
   5   5  14   12.30    3.01
  -5   5  14    8.95    2.94
   5  -5 -15   17.02    4.05
   5   5  15   16.30    3.79
   5  -5 -15   15.78    3.68
   5  -5  15   15.73    4.71
   5   5 -15   20.30    4.50
  -5   5 -15   21.56    4.60
   5   5 -15   18.22    3.88
  -5   5 -15   16.35    3.19
  -5   5  15   19.91    3.81
   5   5  15   22.41    3.91
  -5   5  15   16.45    3.71
   5  -5 -16   77.24    8.25
   5  -5 -16   77.00    7.06
   5   5 -16   73.49    8.48
   5  -5  16   82.15    8.98
  -5  -5  16   80.45    8.89
  -5   5 -16   84.09    8.17
  -5   5 -16   77.47    6.82
   5   5 -16   74.65    7.76
   5   5  16   77.71    7.12
  -5   5  16   80.97    7.27
   5   5  16   73.80    7.62
  -5   5  16   70.28    7.45
   5   5  17    2.12    2.41
   5  -5 -17    3.57    3.66
  -5  -5  17    3.81    3.19
   5  -5 -17    0.94    2.37
   5   5 -17    1.45    3.10
   5  -5  17    8.48    4.29
   5   5 -17    1.74    2.53
  -5   5 -17    0.76    1.98
  -5   5  17    2.00    1.95
   5   5  17    4.04    2.66
  -5   5  17    5.96    3.11
   5   5  18   16.31    3.69
  -5  -5  18   21.59    4.99
   5   5 -18   10.18    4.02
   5  -5  18   22.13    5.41
   5   5 -18   21.13    4.92
  -5   5  18   18.96    3.92
   5   5  18   13.02    3.87
  -5   5  18   22.70    4.82
   5   5  19   12.90    3.32
   5   5 -19    9.88    3.81
   5  -5  19   15.02    4.60
  -5  -5  19   17.71    4.98
   5   5 -19    6.81    2.99
   5   5  19   13.15    4.40
  -5   5  19    7.05    3.28
  -5   5  20    1.86    2.28
   5   5  20   -1.56    2.45
  -5  -5  20    0.52    3.54
   5  -5  20   -6.30    4.52
   5   5 -20   -0.14    2.27
   5   5  20   -2.76    3.34
  -5   5  20    3.00    3.25
   5  -5  21  166.36   13.67
  -5  -5  21  162.36   13.30
  -5   5  21  179.81   12.06
   5   5 -21  162.38   12.82
   5   5  21  178.64   13.42
   5   5  21  168.96   11.47
  -5   5  21  176.09   13.25
   5   5 -22   18.69    4.96
  -5   5  22   20.05    4.60
   5  -5  22   14.69    4.91
  -5  -5  22   14.24    5.00
   5   5  22   16.84    4.67
  -5   5  22   25.15    5.51
  -5   5  23   96.83    9.40
   5  -5  23   95.49   11.02
  -5   5  23  101.26   10.79
  -5  -5  23  112.92   11.80
   5   5  23   96.22   10.38
   5   5  24  177.46   14.27
  -5   5  24  171.62   14.03
   5   5  25   -1.33    3.61
  -5   5  25   12.89    5.30
   5   6   0   -1.61    2.80
   5   6   0   -0.38    2.24
  -5   6   0    1.03    2.04
   5  -6   0   -1.17    1.87
   5   6  -1  792.51   22.55
   5   6   1  794.46   22.46
  -5   6   1  811.82   19.90
   5  -6  -1  814.72   18.05
   5   6  -1  775.60   20.11
  -5   6  -1  799.31   20.31
   5   6   1  815.67   20.41
   5  -6   1  795.43   18.47
  -5  -6  -1  810.65   22.25
   5   6  -2  379.69   15.90
   5   6   2  393.87   15.91
  -5   6   2  384.57   13.68
   5   6  -2  381.78   14.45
   5   6   2  381.51   14.27
   5  -6  -2  353.32   11.89
  -5   6   2  408.24   16.43
   5  -6   2  369.72   13.03
  -5  -6  -2  374.32   15.48
  -5  -6  -3  493.54   17.51
   5   6  -3  517.45   18.18
   5   6   3  519.31   18.31
   5   6   3  518.17   11.22
  -5   6   3  488.05   15.46
   5   6  -3  497.68   16.61
   5  -6  -3  501.99   13.97
   5   6   3  489.79   15.85
  -5   6   3  495.70   17.82
   5  -6   3  503.51   15.40
   5   6  -4  154.15   10.19
  -5  -6  -4  152.36   10.07
   5   6   4  169.24   10.62
   5   6   4  157.83    6.76
  -5   6   4  167.39    9.03
   5   6  -4  144.78    9.28
   5  -6  -4  143.99    7.48
   5   6   4  157.75    8.99
  -5   6   4  159.83   10.42
   5  -6   4  159.74    9.82
   5  -6   4  151.75    8.76
  -5   6   4  149.13    5.88
  -5   6   5  232.43    7.93
  -5  -6  -5  219.77   12.01
  -5   6   5  243.19   10.85
   5   6  -5  231.43   11.85
  -5   6   5  224.49   12.38
   5  -6  -5  223.08    9.37
   5   6   5  235.03   11.02
   5   6   5  234.98   10.64
  -5   6   5  241.74   10.56
   5  -6   5  240.24   12.12
  -5   6  -5  238.09   12.42
   5  -6   6   32.07    4.83
  -5  -6  -6   25.82    4.63
   5   6  -6   28.99    4.85
   5  -6  -6   26.80    3.63
  -5   6  -6   38.98    5.68
  -5   6   6   37.43    5.93
   5   6   6   33.44    4.29
   5   6   6   41.73    4.92
  -5   6   6   29.56    4.25
   5  -6   7   32.83    4.86
  -5  -6  -7   32.00    4.95
   5  -6  -7   28.92    4.65
   5   6  -7   28.86    4.47
   5   6  -7   28.69    3.38
   5  -6  -7   26.81    3.39
  -5   6  -7   34.60    5.25
   5   6   7   31.13    4.56
  -5   6   7   34.68    5.55
   5   6   7   31.10    4.16
  -5   6   7   29.57    4.02
   5  -6   7   32.59    1.81
   5  -6   8   71.80    7.22
   5  -6  -8   56.93    6.57
  -5  -6  -8   68.29    6.98
   5   6  -8   68.95    5.22
   5  -6  -8   67.71    5.43
   5   6  -8   65.45    6.71
  -5   6   8   62.57    6.01
  -5   6  -8   65.28    6.06
  -5   6  -8   68.33    6.96
  -5   6   8   74.35    7.51
   5   6   8   58.18    6.00
   5   6   8   67.75    6.29
  -5  -6  -9  417.33   17.35
   5  -6  -9  450.87   17.69
   5   6  -9  443.84   17.26
   5  -6  -9  441.79   13.71
   5   6  -9  447.83   12.93
   5   6   9  428.25   15.58
  -5   6  -9  439.88   15.64
  -5   6  -9  440.79   16.52
  -5   6   9  432.91   17.00
   5   6   9  448.16   15.87
  -5   6   9  429.06   15.28
   5  -6   9  444.27   17.29
   5  -6  10    2.53    2.33
   5  -6 -10    4.07    2.59
  -5  -6 -10    6.73    3.51
   5   6 -10    6.99    3.38
   5  -6 -10    4.86    2.16
   5   6  10    1.97    2.34
   5   6 -10    3.75    1.71
  -5   6 -10    3.28    2.31
   5   6 -10    0.12    2.67
  -5   6 -10   13.99    4.01
  -5   6  10    5.10    3.24
   5   6  10    9.01    3.19
  -5   6  10    5.46    2.40
   5  -6 -11   60.18    7.10
   5  -6  11   67.69    7.34
  -5  -6 -11   63.69    7.75
   5  -6 -11   59.58    5.56
   5   6 -11   47.78    6.26
   5   6 -11   63.50    5.17
  -5   6 -11   65.55    6.63
   5   6 -11   53.88    6.01
  -5   6 -11   65.24    6.74
  -5   6  11   55.05    6.48
   5   6  11   59.63    6.30
   5   6  11   55.31    6.21
  -5   6  11   54.39    5.92
   5  -6 -12  286.39   14.87
   5   6  12  291.49   13.52
   5  -6 -12  283.22   11.86
   5   6 -12  300.43   15.30
   5   6 -12  290.26   11.03
  -5   6 -12  313.35   14.13
   5   6 -12  300.43   13.98
  -5   6 -12  294.95   13.45
  -5   6  12  302.13   14.32
   5   6  12  289.33   13.93
  -5   6  12  290.27   13.75
   5  -6  12  303.33   15.42
   5  -6 -13   86.41    8.53
   5  -6 -13   96.33    7.22
   5   6 -13   85.46    8.39
   5  -6  13   88.77    8.53
   5   6 -13   95.65    6.46
  -5   6 -13   91.95    8.14
   5   6 -13   91.49    8.04
  -5   6 -13   89.27    7.83
  -5   6  13   84.55    7.74
   5   6  13  102.82    8.27
   5   6  13   89.93    8.25
  -5   6  13   88.44    7.92
   5  -6 -14   16.66    4.84
   5  -6  14    9.01    4.56
   5  -6 -14   10.12    2.83
   5   6 -14   10.06    3.57
  -5   6 -14   10.26    3.01
   5   6 -14   10.55    3.21
  -5   6 -14    2.99    2.22
   5   6 -14   10.84    2.59
  -5   6  14    9.12    3.52
   5   6  14   11.22    3.28
   5   6  14   10.79    3.52
  -5   6  14    7.80    3.40
   5  -6  15  378.97   18.21
   5  -6 -15  336.93   16.81
   5  -6 -15  352.31   14.12
   5   6 -15  363.81   17.77
  -5   6 -15  360.24   16.40
   5   6 -15  340.72   16.07
  -5   6 -15  344.47   14.63
  -5   6  15  340.89   15.55
   5   6  15  369.95   16.60
  -5   6  15  329.99   15.81
   5   6  15  343.29   15.55
  -5  -6  15  339.57   17.04
  -5   6 -16    4.39    3.35
   5  -6 -16   10.46    4.06
   5   6 -16    9.14    4.41
   5  -6  16    9.18    4.54
   5   6 -16    6.62    3.27
  -5   6 -16    6.51    3.19
  -5  -6  16    5.86    3.33
  -5   6  16    8.81    3.38
   5   6  16    8.25    3.77
  -5   6  16    9.54    3.67
   5   6  16    8.57    3.73
   5  -6 -17    0.51    3.15
   5   6 -17   -2.21    4.35
   5  -6  17    2.66    3.21
  -5   6 -17    8.07    3.54
   5   6 -17    5.66    3.11
  -5   6  17    2.52    2.06
   5   6  17    5.33    2.73
  -5   6  17    3.47    2.84
  -5  -6  17    5.46    3.34
  -5   6  18    6.91    3.51
   5  -6 -18    4.55    2.79
   5   6 -18    0.31    3.56
   5  -6  18    4.81    3.59
  -5  -6  18    3.79    3.34
  -5   6 -18    7.37    3.72
   5   6 -18    1.33    2.81
  -5   6  18   -0.79    2.69
   5   6  18    0.04    3.08
  -5  -6  19   30.46    6.51
  -5   6 -19   41.31    6.88
   5  -6  19   29.23    6.14
   5   6 -19   37.32    6.65
  -5   6  19   31.16    5.07
   5   6  19   26.13    5.35
  -5   6  19   27.12    5.66
   5  -6  20  388.27   20.57
  -5  -6  20  413.18   20.93
  -5   6 -20  395.88   19.85
   5   6 -20  383.84   19.48
   5   6  20  397.66   19.73
  -5   6  20  366.95   19.01
   5  -6  21    7.86    5.47
  -5   6 -21    1.76    3.25
   5   6 -21    8.44    4.39
  -5  -6  21    8.19    4.12
   5   6  21   -0.21    3.05
  -5   6  21    6.40    4.50
   5  -6  22  415.35   22.10
  -5   6 -22  371.00   20.12
   5   6 -22  380.38   20.29
   5   6  22  366.17   19.87
  -5   6  22  343.53   19.25
  -5  -6  22  398.25   21.42
   5   6 -23   49.03    8.04
  -5   6 -23   47.91    8.15
   5   6  23   38.02    7.17
  -5   6  23   36.57    6.85
  -5   6 -24  100.60   11.28
   5   6 -24   88.10   10.36
   5   6  24   96.18   10.79
  -5   6  24   87.34   10.48
   5   6 -25   21.30    5.77
   5   6  25   14.28    5.09
   5   7   0    0.04    2.94
  -5  -7   0   -6.16    4.03
   5   7   0   -4.41    3.31
  -5   7   0   -0.08    2.63
  -5   7   0    1.24    2.85
   5  -7   0    0.46    1.79
   5   7  -1   54.99    6.67
   5   7   1   54.08    6.60
  -5  -7  -1   50.24    6.23
   5   7  -1   49.21    5.47
   5  -7  -1   53.61    4.69
   5   7   1   51.78    5.55
  -5   7   1   60.46    6.11
  -5   7   1   79.61    8.09
  -5   7  -1   52.65    6.05
  -5   7  -1   72.23    7.75
   5  -7   1   50.90    4.78
   5   7  -2  870.52   24.62
   5   7   2  845.17   24.42
  -5   7   2  842.66   21.69
   5   7  -2  845.95   21.66
  -5   7  -2  832.66   22.45
   5   7   2  841.86   21.05
   5  -7  -2  826.81   17.81
  -5   7  -2  848.92   24.03
  -5   7   2  835.10   24.30
   5  -7   2  860.80   19.61
  -5  -7  -2  833.62   24.30
  -5  -7  -3  302.20   14.90
   5   7  -3  297.97   14.56
   5   7   3  290.91   14.65
  -5   7   3  303.85   13.04
   5   7  -3  301.08   13.24
   5  -7  -3  289.00   10.44
   5   7   3  283.32   12.23
  -5   7  -3  321.64   15.11
  -5   7   3  315.28   15.01
   5  -7   3  305.74   11.93
   5   7  -4  315.70   14.92
  -5  -7  -4  279.24   14.05
  -5   7   4  296.86   12.87
   5   7  -4  306.99   13.50
   5  -7  -4  300.73   10.47
   5   7   4  297.45   12.49
  -5   7  -4  279.86   13.89
  -5   7   4  299.96   14.71
   5  -7   4  308.73   13.51
   5  -7   4  283.31   11.84
   5   7  -5   84.38    8.17
  -5  -7  -5   88.13    8.29
  -5   7   5   95.87    7.46
   5   7  -5   92.49    7.79
   5  -7  -5   97.74    6.16
   5   7   5   97.09    7.47
  -5   7  -5   88.96    8.19
  -5   7   5   91.97    8.29
  -5   7   5  101.89    7.62
   5  -7   5   97.70    7.98
   5  -7   5   91.49    7.07
   5   7  -6   -2.64    3.46
   5  -7   6    0.04    2.57
  -5  -7  -6   -2.31    3.49
   5  -7  -6    0.02    2.67
   5   7  -6   -0.64    2.88
   5  -7  -6   -1.17    1.47
  -5   7  -6   -2.80    2.93
  -5   7   6   -1.15    2.74
   5   7   6   -2.97    2.84
   5   7   6    5.47    2.57
  -5   7   6   -1.16    2.28
  -5   7   7    2.00    2.85
   5  -7   7    4.36    3.28
  -5  -7  -7   -1.64    3.33
   5  -7  -7   -4.35    3.67
  -5   7   7   -2.41    2.49
   5   7  -7   -0.68    2.78
   5   7  -7    0.64    1.83
   5  -7  -7    0.03    1.69
  -5   7  -7    2.05    2.66
   5   7   7   -7.52    3.43
   5   7   7    1.50    2.29
  -5  -7  -8  137.02   10.40
   5  -7  -8  113.26    9.47
   5   7  -8  120.48    9.19
   5   7  -8  136.29    7.99
   5  -7  -8  123.98    6.97
   5  -7   8  126.35    9.48
   5   7   8  134.81    8.61
  -5   7   8  133.26    9.98
   5   7   8  125.70    8.76
  -5   7   8  130.94    9.08
  -5   7  -8  132.13    9.68
  -5  -7  -9  303.39   15.55
   5  -7  -9  301.97   15.36
   5   7  -9  296.42   14.54
   5  -7  -9  316.93   11.23
   5   7  -9  311.39   11.98
   5   7   9  292.85   12.97
  -5   7  -9  315.37   14.69
  -5   7   9  322.38   15.29
   5   7   9  310.03   14.19
  -5   7   9  296.86   13.52
   5  -7   9  334.95   15.41
   5  -7  10    7.63    3.62
   5  -7 -10    1.32    2.70
  -5  -7 -10    1.20    3.19
   5   7 -10   -2.93    2.78
   5  -7 -10    1.60    1.70
   5   7 -10    0.50    1.53
  -5   7 -10   -3.49    2.95
  -5   7 -10    0.81    2.51
   5   7  10   -1.36    2.17
   5   7  10   -3.90    3.06
  -5   7  10    1.54    2.48
  -5   7  10    3.64    3.13
  -5  -7 -11  149.13   11.25
   5  -7 -11  152.17   11.20
   5  -7 -11  145.06    7.91
   5   7 -11  138.06   10.61
   5   7 -11  159.42    8.77
  -5   7 -11  149.72   10.13
   5   7 -11  145.32   10.09
  -5   7 -11  149.21   10.17
  -5   7  11  163.07   11.10
   5   7  11  140.98    9.27
  -5   7  11  143.17    9.89
   5   7  11  136.51    9.92
   5  -7  11  157.87   11.14
  -5   7 -12   63.90    7.09
   5  -7 -12   57.51    7.33
   5  -7  12   62.62    7.54
   5  -7 -12   62.71    5.53
  -5  -7 -12   62.42    7.83
   5   7 -12   56.75    7.09
   5   7 -12   61.95    5.61
   5   7 -12   68.31    7.15
  -5   7  12   55.43    6.70
   5   7  12   56.37    6.46
  -5   7 -12   64.17    6.91
   5   7  12   57.41    6.16
  -5   7  12   62.26    6.92
   5  -7 -13  159.61   11.98
   5   7 -13  183.35   12.45
   5   7 -13  184.63    9.70
  -5   7 -13  184.36   11.73
   5   7 -13  184.71   11.81
  -5   7 -13  176.99   11.08
  -5   7  13  170.97   11.54
   5   7  13  186.66   11.04
   5   7  13  183.89   11.94
  -5   7  13  178.79   11.56
  -5  -7  13  182.68   12.19
   5  -7  13  177.39   12.46
   5  -7 -14  116.56   10.53
   5   7 -14  105.66    9.84
  -5   7 -14  116.56    9.69
   5   7 -14  127.50   10.03
   5   7  14  121.21    9.08
  -5   7 -14  116.32    9.13
  -5   7  14  103.35    9.08
  -5  -7  14  128.90   10.45
   5   7  14  120.25    9.68
  -5   7  14  114.23    9.43
   5  -7  14  122.46   10.75
   5  -7 -15   16.18    4.88
  -5  -7  15   16.30    4.13
   5  -7  15   18.33    5.15
   5   7 -15   21.08    5.26
   5   7 -15   23.15    4.62
  -5   7 -15   21.47    4.12
  -5   7  15   19.21    4.43
  -5   7 -15   15.86    4.17
   5   7  15   19.46    4.05
   5   7  15   18.21    4.63
  -5   7  15   14.39    3.48
   5  -7 -16   42.87    6.74
   5   7 -16   37.33    6.43
   5  -7  16   46.19    7.31
   5   7 -16   44.89    6.71
  -5   7 -16   33.75    5.59
  -5  -7  16   47.66    7.10
  -5   7 -16   40.58    5.26
  -5   7  16   43.43    5.95
   5   7  16   41.49    5.68
   5   7  16   37.30    5.58
  -5   7  16   43.09    6.30
   5  -7 -17   -0.44    2.61
  -5  -7  17   -0.48    2.90
   5   7 -17   -1.20    3.37
   5  -7  17    1.86    2.94
  -5   7 -17   -1.63    3.02
   5   7 -17   -2.03    2.69
  -5   7  17    0.62    2.19
   5   7  17    1.07    2.97
   5   7  17    1.32    2.16
  -5   7  17   -4.73    3.72
   5  -7 -18    2.19    3.01
   5  -7  18   -2.33    4.17
  -5   7 -18    1.81    2.75
   5   7 -18   -2.14    3.56
   5   7  18   -0.61    2.64
  -5   7  18    0.10    2.76
   5   7  18    3.07    2.88
  -5  -7  18   -2.56    3.97
  -5  -7  19   19.99    5.31
   5  -7 -19   27.17    6.02
   5  -7  19   19.77    5.33
  -5   7  19   22.79    4.96
  -5   7 -19    8.44    4.02
   5   7 -19   15.54    4.31
   5   7  19   15.42    4.36
   5   7  19   22.10    5.00
   5  -7  20   -3.52    4.28
  -5  -7  20    0.44    3.64
  -5   7 -20    1.82    2.95
   5   7 -20   -3.00    3.70
   5   7  20   -1.31    4.35
  -5   7  20   -3.61    4.56
   5   7  20    2.82    2.75
   5  -7  21    6.60    3.90
  -5  -7  21    6.57    3.32
  -5   7 -21   13.16    4.78
   5   7 -21   12.09    3.74
   5   7  21    4.38    3.43
  -5   7  21   13.28    4.22
  -5  -7  22    8.58    4.51
  -5   7  22    6.47    3.58
  -5   7 -22   11.49    4.28
   5   7 -22    6.00    3.24
   5   7  22    4.70    2.98
   5   7 -23   29.69    6.71
  -5   7 -23   22.73    5.37
   5   7  23   19.47    5.63
  -5   7  23   14.13    4.90
   5   7 -24   32.90    6.76
   5   8   0    5.99    3.84
  -5  -8   0    1.58    3.29
   5   8   0    3.81    2.51
  -5   8   0   -1.77    2.52
  -5   8   0   10.49    5.38
   5  -8   0   -1.17    1.63
   5   8  -1 1111.20   28.90
   5   8   1 1116.66   29.39
  -5   8   1 1111.78   26.88
   5   8  -1 1079.58   24.86
  -5   8  -1 1102.63   28.86
  -5   8  -1 1056.07   26.92
   5   8   1 1099.16   24.43
   5  -8  -1 1119.67   20.47
   5  -8   1 1081.44   21.13
  -5   8   1 1084.46   28.81
  -5  -8   1 1071.23   28.79
  -5  -8  -1 1087.04   28.86
   5   8  -2  164.68   11.56
   5   8   2  172.76   11.85
  -5   8   2  159.16   10.40
   5   8  -2  172.23   10.16
  -5   8  -2  154.26   10.61
   5   8   2  166.90    9.60
   5  -8  -2  176.47    7.97
  -5   8  -2  164.87   11.34
  -5   8   2  168.47   11.75
   5  -8   2  179.07    9.01
  -5  -8  -2  174.03   11.81
  -5   8  -3    7.63    3.64
   5   8  -3    5.47    2.54
  -5  -8  -3    8.41    3.08
   5   8  -3   13.02    3.43
  -5   8  -3    7.16    2.82
  -5   8   3   14.13    3.60
   5   8   3   14.00    3.29
   5  -8  -3    5.68    1.72
   5  -8   3    9.60    2.63
  -5   8   3   12.57    4.31
   5   8  -4   74.26    8.10
  -5  -8  -4   69.72    8.09
  -5   8   4   64.09    7.10
   5   8  -4   65.45    6.72
   5  -8  -4   64.07    4.83
   5   8   4   66.97    6.37
  -5   8  -4   66.94    8.10
  -5   8   4   73.72    8.36
   5  -8   4   64.82    5.96
   5  -8   4   66.09    6.55
   5   8  -5 1951.02   38.64
  -5  -8  -5 1857.29   38.73
  -5   8   5 1905.95   35.06
   5   8  -5 1908.79   34.57
   5  -8  -5 1973.73   25.24
   5   8   5 1929.75   32.27
  -5   8  -5 1929.33   37.87
  -5   8   5 1981.02   38.98
   5  -8   5 1912.42   34.78
   5  -8   5 1869.32   31.28
   5   8  -6   90.48    8.92
  -5  -8  -6   89.11    9.00
   5  -8  -6   94.19    9.25
   5   8  -6   82.45    8.00
   5   8   6   83.77    6.99
  -5   8  -6   96.66    9.27
  -5   8   6   91.63    9.24
  -5   8   6   83.95    7.90
   5  -8   6   93.95    8.39
   5   8  -7    4.17    2.74
   5  -8   7    4.20    3.08
  -5   8   7    8.11    3.99
  -5  -8  -7    0.61    3.44
   5  -8  -7    7.50    4.16
   5   8  -7    8.01    3.47
   5   8  -7    2.50    1.83
  -5   8   7    3.48    2.93
  -5   8  -7    5.61    3.29
   5   8   7    2.46    1.82
   5   8   7    4.96    2.76
   5   8  -8   46.77    6.72
   5  -8   8   45.82    6.36
  -5  -8  -8   38.17    5.91
   5  -8  -8   36.29    6.32
   5   8  -8   45.09    6.47
  -5   8   8   49.93    7.02
   5   8  -8   41.06    5.18
  -5   8  -8   44.45    6.56
   5   8   8   33.94    4.65
   5   8   8   38.41    5.89
  -5   8   8   39.85    5.59
  -5  -8  -9 1048.99   29.90
   5  -8  -9 1065.90   29.94
   5   8  -9 1103.18   28.31
   5   8  -9 1082.43   24.29
   5   8   9 1057.58   24.26
  -5   8  -9 1046.16   27.93
  -5   8   9 1077.13   29.27
   5   8   9 1055.71   27.66
  -5   8   9 1094.09   27.37
   5  -8   9 1032.96   27.80
  -5  -8 -10  155.18   11.85
   5  -8 -10  180.79   12.71
   5   8 -10  178.38   11.89
   5   8 -10  168.51    9.74
  -5   8  10  173.42   12.06
   5   8  10  155.38    9.50
  -5   8 -10  164.64   11.21
   5   8  10  168.90   11.41
   5  -8  10  168.26   11.70
  -5   8  10  164.67   11.09
   5  -8  11   73.01    7.93
   5  -8 -11   64.51    7.85
  -5  -8 -11   61.65    7.98
   5   8 -11   72.87    7.74
   5   8 -11   70.64    6.35
   5   8  11   67.20    6.58
  -5   8 -11   73.74    7.58
  -5   8  11   68.39    7.66
   5   8  11   76.98    7.83
  -5   8  11   64.29    7.27
  -5  -8  11   77.28    7.97
   5  -8 -12   54.58    7.51
   5  -8  12   65.32    7.97
  -5  -8 -12   50.84    7.55
   5   8 -12   66.02    7.71
  -5  -8  12   76.48    8.31
   5   8 -12   61.72    6.20
  -5   8 -12   52.78    6.52
  -5   8 -12   56.62    6.94
   5   8  12   61.85    6.33
  -5   8  12   64.62    7.59
   5   8  12   62.50    7.34
  -5   8  12   61.15    7.18
   5  -8  13  487.72   20.95
   5  -8 -13  490.65   21.38
   5   8 -13  441.82   19.46
   5   8 -13  508.37   17.16
  -5  -8  13  461.50   19.73
  -5   8 -13  450.16   19.24
  -5   8 -13  465.15   18.55
  -5   8  13  482.03   19.91
   5   8  13  479.45   17.40
   5   8  13  496.35   20.16
  -5   8  13  494.97   20.01
  -5   8 -14   -0.57    2.79
   5  -8 -14    8.14    3.75
   5  -8  14    4.93    3.67
   5   8 -14   -0.76    2.66
  -5   8 -14    1.26    2.49
   5   8 -14    1.82    2.90
  -5  -8  14    2.21    3.13
  -5   8  14   -1.01    2.43
   5   8  14    0.65    2.10
   5   8  14    0.07    2.70
  -5   8  14    6.43    3.61
   5  -8 -15   11.13    3.88
  -5  -8  15    6.01    2.46
   5  -8  15    5.89    3.18
   5   8 -15    8.57    3.58
  -5   8 -15   12.40    3.91
   5   8 -15   13.99    3.87
  -5   8 -15    5.37    2.53
  -5   8  15    4.97    2.42
   5   8  15   14.19    3.60
   5   8  15   12.64    3.80
  -5   8  15   10.09    4.00
  -5  -8  16    5.03    3.62
   5  -8 -16    7.73    3.85
   5   8 -16    3.70    3.18
   5  -8  16    3.68    3.81
  -5   8 -16    4.34    3.34
   5   8 -16   10.47    3.93
   5   8  16    2.99    3.30
  -5   8  16   13.35    5.14
  -5  -8  17  330.63   18.43
   5  -8  17  355.81   19.27
   5  -8 -17  342.99   19.24
  -5   8 -17  334.52   17.85
   5   8 -17  329.45   17.89
   5   8  17  329.31   17.90
  -5   8  17  335.15   17.93
   5  -8 -18   10.83    4.64
   5  -8  18    0.52    2.91
  -5  -8  18    2.39    3.34
  -5   8 -18    1.55    2.83
   5   8 -18    0.71    3.13
   5   8  18    6.28    3.56
  -5   8  18    6.55    3.83
   5  -8  19  245.07   16.84
   5  -8 -19  248.15   17.20
  -5   8 -19  262.78   16.66
   5   8 -19  234.92   15.89
   5   8  19  249.46   16.27
  -5  -8  19  250.66   16.70
  -5   8  19  242.53   15.93
  -5  -8  20    6.28    3.99
   5  -8  20   13.58    5.51
  -5   8 -20    7.37    4.47
   5   8 -20   -0.93    2.96
   5   8  20   11.25    4.85
  -5   8  20   13.67    5.23
  -5   8 -21  115.89   11.57
   5   8 -21  102.02   10.89
  -5  -8  21  119.80   12.24
   5   8  21   97.94   10.97
  -5   8  21  108.97   11.32
  -5   8 -22   16.94    5.41
   5   8 -22   16.77    5.38
   5   8  22   11.99    5.56
  -5   8  22   10.72    4.65
   5   9   0    0.86    2.57
  -5  -9   0   -2.11    3.51
   5   9   0   -0.65    2.12
  -5   9   0    0.88    2.90
  -5   9   0    3.09    3.66
  -5   9   1  552.67   21.53
   5   9  -1  511.87   20.81
   5   9   1  569.74   21.79
   5   9  -1  551.31   17.86
  -5   9   1  517.71   19.58
   5   9   1  532.40   17.28
  -5   9  -1  532.09   20.21
  -5   9  -1  505.77   20.44
  -5  -9   1  498.46   20.80
  -5  -9  -1  502.82   20.95
   5   9  -2    9.41    4.22
  -5  -9  -2    8.82    3.63
   5   9  -2    4.27    2.61
   5   9   2    7.24    2.78
  -5   9   2    8.40    3.34
  -5   9  -2    8.39    3.85
  -5   9  -2   12.60    4.64
  -5   9   2   11.75    4.33
   5  -9   2    7.55    2.43
  -5  -9   2    6.26    3.72
   5   9  -3   12.05    4.27
  -5  -9  -3    5.92    3.16
   5   9  -3   13.91    3.52
  -5   9   3    8.96    3.37
   5   9   3   11.62    2.98
  -5   9  -3   13.92    3.97
  -5   9  -3   11.40    4.05
  -5   9   3    9.64    3.36
   5  -9   3    9.94    2.74
   5   9  -4   71.34    7.87
  -5  -9  -4   65.30    7.89
   5   9  -4   69.59    6.87
   5   9   4   76.49    6.44
  -5   9   4   58.99    6.90
  -5   9  -4   71.81    8.00
  -5   9  -4   74.05    8.09
  -5   9   4   72.94    8.29
   5  -9   4   69.69    6.78
   5  -9   4   74.21    6.28
   5   9  -5  124.63   10.44
  -5  -9  -5  106.33    9.91
   5   9  -5  127.47    9.34
  -5   9   5  130.77   10.07
  -5   9  -5  121.18   10.34
   5   9   5  116.32    8.04
  -5   9  -5  117.90   10.31
  -5   9   5  127.17   10.68
   5  -9   5  114.04    8.79
   5  -9   5  116.32    7.92
   5   9  -6  287.84   15.64
  -5  -9  -6  289.72   16.25
   5  -9  -6  307.21   16.57
   5   9  -6  282.84   13.99
   5   9   6  302.52   12.86
  -5   9  -6  285.45   15.48
  -5   9   6  297.90   16.11
   5  -9   6  280.75   14.08
   5  -9   6  305.74   13.08
   5  -9   7    0.54    2.54
  -5   9   7   -0.49    2.55
   5   9  -7   -1.84    2.30
  -5  -9  -7   -0.70    2.99
   5  -9  -7    5.96    4.04
   5   9  -7    2.45    2.45
   5   9  -7   -3.17    2.72
   5   9   7   -0.74    1.89
  -5   9  -7    0.14    2.76
  -5   9   7    2.91    3.03
  -5   9   8   44.26    6.67
   5   9  -8   35.19    5.99
   5  -9   8   45.79    6.29
   5  -9  -8   38.10    6.34
  -5  -9  -8   34.19    6.03
   5   9  -8   36.80    5.53
   5   9  -8   40.21    5.48
   5   9   8   37.44    4.77
  -5   9  -8   44.04    6.60
   5   9   8   35.71    5.87
  -5   9   8   37.89    5.92
   5   9  -9   90.95    9.02
  -5  -9  -9   99.24   10.09
   5  -9  -9   79.04    9.04
   5   9  -9  101.14    8.87
   5   9  -9   86.04    7.63
   5   9   9   95.58    7.43
  -5   9  -9   96.95    9.00
  -5   9   9   93.88    9.35
   5   9   9   97.27    9.01
  -5   9   9   91.41    8.62
  -5  -9   9  103.52    8.93
   5  -9   9   90.26    8.72
   5   9 -10   20.44    4.57
   5  -9  10   24.14    4.79
   5  -9 -10   19.70    4.95
  -5  -9 -10   21.81    5.30
   5   9 -10   23.16    4.77
  -5  -9  10   25.76    5.10
   5   9 -10   20.11    4.01
  -5   9 -10   19.01    4.50
   5   9  10   17.67    4.16
  -5   9  10   20.75    4.79
  -5   9  10   15.10    4.23
   5   9 -11   70.09    8.24
   5  -9  11   66.29    7.92
   5  -9 -11   78.52    9.20
  -5  -9 -11   74.59    9.18
   5   9 -11   66.25    7.38
   5   9 -11   77.86    7.28
  -5   9 -11   56.82    7.05
  -5   9  11   73.54    8.21
   5   9  11   70.87    7.99
  -5   9  11   64.53    7.50
  -5  -9  11   70.43    7.76
  -5  -9 -12  146.42   12.54
   5  -9 -12  154.03   12.66
   5   9 -12  165.47   11.90
  -5  -9  12  153.17   11.46
   5   9 -12  156.62   10.14
  -5   9 -12  153.08   11.36
  -5   9  12  147.32   11.65
   5   9  12  155.93   11.87
  -5   9  12  157.09   11.78
   5  -9  12  147.13   11.48
   5   9 -12  156.39   12.08
  -5  -9  13    2.89    2.57
  -5   9  13   -5.43    3.60
   5  -9 -13   -3.16    3.62
   5  -9  13   -3.71    3.70
  -5  -9 -13    1.70    3.50
   5   9 -13    3.45    2.70
  -5   9 -13   -0.82    2.38
   5   9  13   -1.56    3.18
  -5   9  13   -3.06    3.53
   5  -9 -14    3.36    3.91
   5  -9  14    6.97    3.69
   5   9 -14    5.38    3.62
  -5   9 -14    3.76    2.38
  -5   9 -14   -4.10    3.59
   5   9  14    9.42    4.03
  -5   9  14    4.49    2.57
  -5  -9  14    2.77    2.51
   5  -9 -15   90.96   10.48
   5   9 -15  101.80   10.35
  -5   9 -15  109.49   10.18
   5   9  15   97.58   10.11
  -5   9  15   96.93    9.81
  -5  -9  15   90.51    9.74
   5  -9  15  102.06   10.35
  -5   9  16   58.55    7.95
   5  -9 -16   73.48    9.57
   5  -9  16   55.70    7.99
  -5  -9  16   67.73    8.72
  -5   9 -16   70.74    8.91
   5   9 -16   56.65    7.97
   5   9  16   51.05    7.76
   5  -9 -17   43.05    7.74
   5  -9  17   31.43    6.24
  -5  -9  17   30.74    6.11
  -5   9 -17   32.71    6.09
   5   9 -17   40.24    6.73
   5   9  17   31.90    6.12
  -5   9  17   41.85    7.24
   5  -9 -18   -1.16    3.01
  -5  -9  18   -1.75    4.04
   5  -9  18    1.97    3.11
   5   9 -18   -0.98    3.34
  -5   9 -18   -1.66    3.63
   5   9  18   -1.94    3.19
  -5   9  18    0.52    2.76
   5  -9 -19   10.02    4.32
  -5  -9  19    7.68    3.90
   5  -9  19    1.46    3.40
  -5   9 -19   11.45    4.43
   5   9 -19    3.57    3.55
   5   9  19    8.76    3.97
  -5   9  19    8.24    3.58
  -5  -9  20   53.59    8.38
  -5   9 -20   61.25    8.81
   5   9 -20   42.42    7.21
   5   9  20   73.62    9.59
  -5   9  20   76.88    9.97
   5   9 -21    3.37    3.62
   5   9  21    2.49    3.54
  -5   9  21    7.93    5.00
  -5 -10   0   -5.18    4.75
   5  10   0    0.65    2.00
  -5  10   0   -2.43    3.28
  -5  10   0   -3.80    3.15
  -5 -10  -1  132.96   11.23
   5  10  -1  131.76   10.99
  -5  10   1  122.07   10.84
   5  10  -1  132.60    8.96
   5  10   1  136.21    8.81
  -5  10   1  116.26   10.06
  -5  10  -1  133.55   10.87
  -5  10  -1  129.33   10.82
  -5 -10   1  121.73   10.87
  -5 -10  -2  228.94   14.99
   5  10  -2  240.34   14.75
  -5  10  -2  229.88   14.68
   5  10  -2  229.05   11.89
  -5  10   2  236.23   14.50
   5  10   2  237.78   11.52
  -5  10  -2  234.56   14.37
  -5  10   2  217.85   14.48
  -5 -10   2  212.31   14.53
  -5 -10  -3  267.15   16.19
   5  10  -3  281.08   15.99
   5  10  -3  274.32   13.18
  -5  10   3  289.30   15.66
  -5  10  -3  269.02   15.75
  -5  10  -3  269.94   15.91
  -5  10   3  286.03   16.41
  -5 -10   3  266.47   16.31
  -5 -10  -4  549.02   23.34
   5  10  -4  579.78   22.75
   5  10  -4  570.77   19.33
  -5  10   4  577.65   21.94
  -5  10  -4  533.59   22.08
  -5  10  -4  565.84   22.92
  -5  10   4  588.24   23.36
   5  10  -5  569.88   22.91
  -5 -10  -5  622.27   24.83
   5 -10  -5  605.03   24.37
   5  10  -5  586.88   20.10
  -5  10   5  611.16   22.65
  -5  10  -5  617.56   23.71
  -5  10  -5  620.10   23.82
  -5  10   5  580.98   23.70
   5 -10   5  604.53   20.35
  -5 -10   5  632.92   19.56
   5  10  -6  283.56   16.31
  -5 -10  -6  276.56   16.77
   5 -10  -6  299.83   17.19
   5  10  -6  281.58   14.10
  -5  10  -6  304.01   17.06
  -5 -10   6  288.58   13.61
  -5  10  -6  292.11   16.48
  -5  10   6  291.06   16.86
   5 -10   6  318.18   15.10
   5 -10   7   37.01    6.06
   5  10  -7   30.52    5.90
  -5 -10  -7   24.09    5.45
  -5 -10   7   29.42    4.98
   5 -10  -7   28.63    5.77
   5  10  -7   26.44    4.88
  -5  10  -7   30.92    6.48
  -5  10  -7   23.22    5.02
  -5  10   7   23.10    5.20
   5  10  -8   15.86    4.41
   5 -10   8   22.76    4.52
   5 -10  -8   26.48    6.12
  -5 -10  -8   12.52    3.98
   5  10  -8   14.99    3.84
   5  10  -8   19.18    4.08
  -5  10  -8   14.51    4.43
  -5  10   8   15.89    4.60
  -5 -10   8   20.60    4.31
   5  10  -9    2.67    2.86
   5 -10   9   -0.92    2.52
   5 -10  -9   -3.78    3.41
  -5 -10  -9    1.65    4.29
   5  10  -9    3.46    2.89
  -5 -10   9   -1.16    2.12
   5  10  -9    0.34    2.04
  -5  10  -9   -3.47    3.87
  -5  10   9   -9.99    4.62
  -5  10   9    6.84    3.88
   5  10 -10    0.88    3.02
   5 -10  10    3.47    2.91
  -5 -10  10   10.32    3.43
   5 -10 -10    6.40    3.34
  -5 -10 -10    6.47    4.37
   5  10 -10    5.90    2.93
   5  10 -10    5.02    2.57
  -5  10 -10    5.35    3.73
   5  10  10    9.02    3.83
  -5  10  10    3.67    3.09
   5  10 -11  110.78   10.33
  -5 -10 -11  125.72   11.98
   5 -10 -11  110.86   11.17
  -5 -10  11  122.07   10.16
   5  10 -11  112.04   10.02
   5  10 -11  118.71    9.42
   5  10  11  111.94   10.57
  -5  10  11  114.32   10.52
   5 -10  11  102.73    9.78
   5  10 -12   18.50    4.90
   5 -10  12   32.74    6.18
   5 -10 -12   33.29    6.92
  -5 -10 -12   23.48    5.96
   5  10 -12   20.55    4.41
  -5 -10  12   35.61    6.03
   5  10  12   21.24    4.84
  -5  10  12   24.89    5.12
   5  10 -13  156.56   12.45
  -5 -10 -13  158.53   13.83
   5 -10 -13  174.61   14.14
   5  10 -13  154.50   12.07
   5  10  13  159.27   12.83
  -5  10  13  162.34   12.66
   5 -10  13  151.35   12.40
  -5 -10  13  167.48   12.45
   5  10 -14   -0.64    3.00
   5 -10 -14   -2.98    3.62
   5 -10  14   -2.20    2.79
  -5 -10  14   -0.06    2.84
   5  10  14    3.09    3.60
  -5  10  14   -1.62    2.82
   5  10 -15    4.65    3.32
   5 -10 -15    2.33    2.76
   5 -10  15   -0.29    3.05
  -5 -10  15   -0.42    2.92
   5  10  15    3.53    3.11
  -5  10  15   -2.04    3.38
   5 -10 -16  137.20   13.31
  -5 -10  16  141.44   12.29
   5  10  16  145.22   12.83
  -5  10  16  131.28   12.07
   5 -10  16  138.69   12.44
   5  10 -16  159.59   12.98
  -5 -10  17   22.30    5.32
   5 -10  17   14.31    4.99
   5  10  17   20.36    5.45
  -5  10  17    6.42    3.06
  -5 -10  18   -0.47    2.84
   5 -10  18   -0.62    3.37
  -5  10 -18    0.05    2.62
   5  10  18   -2.96    3.69
  -5  10  18   -3.48    3.74
  -5 -10  19   11.95    4.83
  -5  10 -19   16.22    5.58
   5  10  19   17.48    5.24
  -5  10  19    9.87    4.29
  -5 -11   0    2.76    3.52
  -5  11   0   -3.08    3.47
  -5  11   0   -0.98    3.43
  -5 -11   1   -3.84    3.69
  -5 -11  -1    0.96    3.30
  -5  11   1    1.20    3.09
  -5  11  -1    1.55    3.03
  -5  11  -1    5.78    3.78
  -5  11   1   -3.83    3.57
  -5 -11  -2  205.47   14.83
  -5  11   2  197.98   13.83
  -5  11  -2  212.84   14.42
  -5  11  -2  210.00   14.71
  -5 -11   2  197.21   14.65
   5  11  -3   21.76    5.22
  -5 -11   3   29.61    6.00
  -5 -11  -3   19.48    4.97
  -5  11   3   23.87    5.19
  -5  11  -3   29.20    6.30
   5  11  -4   -1.57    3.28
  -5 -11  -4   -4.80    4.13
   5 -11  -4   -7.14    4.65
  -5  11  -4    1.40    2.72
  -5  11   4    4.17    3.56
  -5 -11   4   -4.71    4.23
   5  11  -5   22.11    5.15
  -5 -11  -5   18.64    5.38
   5 -11  -5   22.40    5.71
  -5  11  -5   18.30    4.78
   5  11  -6   14.03    4.43
  -5 -11  -6   16.81    5.39
   5 -11  -6   14.07    4.93
   5  11  -6   15.55    3.76
  -5  11  -6   16.58    4.78
   5 -11   6   16.44    3.84
   5  11  -7  113.67   10.72
  -5 -11  -7  115.84   11.62
   5 -11  -7  105.17   10.99
   5  11  -7  118.95    9.42
  -5  11  -7  113.54   11.14
   5 -11   7  110.10    9.37
   5 -11   8   44.71    6.20
   5  11  -8   37.37    6.66
   5 -11  -8   43.86    7.44
  -5 -11  -8   40.34    6.95
  -5  11  -8   38.95    7.10
   5  11  -8   36.40    5.88
   5  11  -8   45.93    6.39
   5  11  -9  108.09   10.59
  -5 -11  -9  105.97   11.50
   5 -11  -9   90.20   10.41
   5  11  -9   98.37    9.00
   5  11  -9  102.80    9.42
  -5  11  -9   96.53   10.66
   5 -11   9   97.15    9.27
  -5 -11   9  107.01    9.29
   5  11 -10  110.18   10.87
  -5 -11 -10  122.62   12.36
   5 -11 -10  114.62   11.89
   5  11 -10  111.73    9.91
   5  11 -10  114.36    9.75
  -5  11  10  116.54   11.05
   5 -11  10  112.27   10.25
  -5 -11  10  114.95    9.77
   5  11 -11  142.67   12.39
  -5 -11 -11  147.24   13.57
   5 -11 -11  151.86   13.56
  -5 -11  11  136.74   10.97
   5  11 -11  136.94   11.08
  -5  11  11  133.95   11.80
   5  11  11  148.02   12.61
   5 -11  11  147.54   11.83
   5  11 -12  145.17   12.37
  -5 -11 -12  149.37   13.56
   5 -11 -12  165.03   14.20
  -5 -11  12  161.09   12.15
   5  11  12  168.94   13.54
  -5  11  12  164.89   13.38
   5 -11  12  154.40   12.46
   5  11 -13   -1.26    2.56
   5 -11  13    2.09    2.91
   5 -11 -13    4.25    4.78
  -5 -11  13   -0.82    2.91
  -5 -11 -13    9.89    5.34
   5  11  13   -0.17    2.82
  -5  11  13   -2.57    3.35
   5  11 -14    4.21    3.58
  -5 -11  14    3.65    2.81
   5 -11  14    3.95    3.18
   5  11  14   -0.32    3.18
  -5  11  14    0.66    2.95
   5  11 -15   17.33    4.45
  -5 -11  15   18.20    4.76
   5 -11  15   14.23    4.39
   5  11  15   16.26    4.84
  -5  11  15   10.94    4.41
   5  11 -16   81.85    9.43
  -5 -11  16   93.02   10.14
   5  11  16   86.48   10.70
  -5  11  16   76.50    9.76
   5 -11  16   98.18   10.59
   5  11 -17   20.59    5.28
   5 -11  17   10.11    4.37
  -5 -11  17   15.73    4.47
  -5 -12   0   -1.37    3.95
  -5  12   0    4.88    4.00
  -5 -12   1   77.15    9.78
  -5 -12  -1   83.10   10.09
  -5  12   1   78.36    9.51
  -5  12  -1   80.26    9.64
  -5 -12   2   20.89    5.56
  -5 -12  -2   26.25    5.87
  -5  12   2   26.11    5.78
  -5  12  -2   28.96    6.43
  -5 -12   3    0.04    3.49
  -5 -12  -3   -0.57    3.94
   5 -12  -3    3.24    3.49
  -5  12   3    9.83    4.46
  -5  12  -3    9.50    4.41
  -5 -12   4   24.00    6.04
  -5 -12  -4   20.29    5.28
   5 -12  -4   27.88    6.37
  -5  12   4   23.97    5.64
  -5  12  -4   22.76    5.44
   5  12  -5   72.47    8.92
  -5 -12   5   79.08    9.76
  -5 -12  -5   81.40   10.09
   5 -12  -5   90.30   10.35
  -5  12  -5   87.02   10.24
   5  12  -6   33.48    6.13
  -5 -12  -6   23.56    5.11
   5 -12  -6   28.54    6.72
  -5  12  -6   25.79    6.03
   5  12  -7   -0.29    2.51
   5 -12  -7    0.69    3.42
  -5 -12  -7   -1.08    3.76
  -5  12  -7    2.31    3.27
   5  12  -8   69.45    8.67
   5 -12  -8   58.23    8.65
  -5 -12  -8   68.65    9.44
  -5  12  -8   67.05    9.05
   5  12  -9    4.87    3.02
   5 -12  -9    1.47    2.86
  -5 -12  -9    3.42    3.77
   5  12  -9    2.57    2.41
  -5  12  -9   10.71    5.55
   5  12 -10   74.30    9.39
  -5  12 -10   71.21    9.97
   5  12 -11   14.39    4.85
   5  12 -12  170.20   13.72
  -5  12  12  153.10   13.24
   5  12 -13   66.56    8.81
   5  12  13   73.43    9.84
  -5  12  13   76.21   10.04
   5 -12  13   82.59    9.55
   5  12 -14   29.67    6.41
   5 -12  14   28.87    5.92
  -5  12  14   22.90    5.46
   5  12 -15   -0.25    2.28
   5 -12  15    2.30    3.50
   5 -12  16   19.81    5.15
  -5  13   0   -5.33    3.78
  -5  13   1   64.23    9.04
  -5  13  -1   82.35   10.30
   5 -13  -2   15.54    4.78
  -5  13   2   19.42    5.77
  -5  13  -2   25.83    6.15
   5 -13  -3   28.24    6.42
  -5  13   3   43.89    7.44
  -5  13  -3   33.34    7.00
  -5  13  -4   15.94    5.27
  -5  13  -5    1.88    3.89
   5  13  -7   -1.46    3.43
   5  13  -8   39.97    7.14
   5  13  -9  162.99   13.64
   5  13 -10   39.09    7.26
   5  13 -11    6.12    3.83
   6   0   0 6757.25   60.34
  -6   0  -1    6.65    1.95
   6   0   1   12.58    5.03
  -6   0  -2  247.77    7.94
   6   0  -2  238.93   11.60
   6   0   2  250.44   11.86
   6   0   3    5.61    3.05
  -6   0  -3   -1.09    1.58
   6   0  -3    4.65    3.41
   6   0   4 1318.48   23.01
  -6   0  -4 1308.77   18.41
  -6   0   4 1239.92   10.28
   6   0  -4 1280.55   26.92
   6   0   4 1285.05   27.17
   6   0   5   -0.33    1.67
   6   0  -5    0.47    1.48
  -6   0  -5    1.66    1.72
   6   0  -5   -1.83    2.95
   6   0  -5    0.48    0.50
   6   0   5    3.59    3.11
   6   0   5    0.13    0.56
   6   0   6  465.90   13.65
   6   0  -6  468.80   11.94
   6   0  -6  487.72   16.80
   6   0   6  472.83   17.12
   6   0   6  483.49    8.53
   6   0   7   19.83    4.30
   6   0  -7   11.80    2.94
   6   0  -7   15.36    5.66
   6   0   7   23.85    6.37
   6   0   7   11.38    2.41
   6   0  -8 2751.78   30.03
   6   0  -8 2760.30   40.99
   6   0   8 2760.37   40.83
   6   0   8 2766.61   41.79
   6   0  -9    1.66    3.15
   6   0   9   15.60    5.45
   6   0   9   15.62    5.38
   6   0 -10 3104.06   33.91
   6   0 -10 3159.71   45.09
   6   0  10 3103.56   44.96
   6   0  11   11.10    5.83
   6   0 -11   14.79    3.31
   6   0 -11   18.43    5.08
   6   0 -12  104.33    8.99
   6   0  12  104.20    9.12
   6   0  13   19.90    6.22
   6   0 -13   30.99    6.40
   6   0 -14 1673.82   35.40
   6   0  14 1623.78   34.80
   6   0  15    3.53    4.72
   6   0 -15    2.18    3.34
   6   0  16   44.09    6.35
   6   0 -16   53.60    7.10
   6   0  17    0.95    2.82
   6   0 -17   -4.23    3.77
   6   0 -18  112.34   10.06
   6   0  18  114.69   10.05
   6   0  19   -3.46    3.50
   6   0 -19   -1.18    3.95
   6   0  20   18.06    4.70
   6   0 -20   26.68    6.06
   6   0  21   -5.08    3.92
   6   0 -21    1.23    3.62
   6   0 -22  189.86   14.36
  -6   0  22  184.13   13.83
   6   0  22  183.05   13.96
   6   0  23   -0.45    3.23
  -6   0  23   -6.89    4.67
  -6   0  24   83.04   10.04
   6   0  24  107.36   11.17
  -6   0  25   -1.32    3.10
   6   0  25    3.32    4.25
   6   1   0   64.82    6.55
   6  -1   0   69.24    6.55
  -6   1   0   61.93    3.56
  -6   1  -1  132.52    4.93
   6  -1   1  147.20    9.04
   6   1  -1  128.76    8.67
   6  -1  -1  124.98    8.50
   6   1   1  136.71    8.87
  -6  -1  -1  126.11    6.48
  -6  -1  -2   -0.05    1.45
  -6   1  -2    0.45    0.84
  -6  -1   2    1.76    0.48
   6   1  -2   -0.72    2.91
   6  -1  -2   -1.05    2.41
   6   1   2    0.76    2.57
   6  -1   2   -1.35    3.16
   6   1   3   11.12    2.83
  -6  -1  -3   10.29    2.06
  -6   1  -3   13.39    1.89
  -6   1   3    9.61    1.08
   6   1  -3    8.05    2.64
   6  -1  -3   11.10    3.25
  -6  -1   3    8.31    0.80
   6  -1   3    9.62    2.98
   6   1   3    9.77    3.30
   6  -1   4  376.54   11.56
   6   1   4  395.27   13.26
  -6  -1  -4  383.31   11.28
   6  -1   4  366.92   14.63
   6   1   4  360.02   14.51
   6   1  -4  378.01   14.86
   6  -1  -4  383.09   14.48
  -6   1  -4  358.31    6.15
  -6   1   4  374.56    6.01
   6  -1   5   -0.52    1.51
   6   1   5    2.55    2.19
   6   1  -5    1.00    1.09
  -6  -1  -5   -0.12    1.51
   6   1  -5   -1.24    2.66
  -6   1  -5    2.88    1.03
   6  -1  -5    2.92    2.63
   6   1   5    2.13    3.07
   6   1   5    0.92    0.72
   6  -1   5    3.91    2.82
  -6   1   5   -0.14    0.85
   6  -1   6  350.55   11.09
   6   1   6  356.89   12.72
  -6  -1  -6  366.18   11.46
   6   1  -6  356.62    9.19
   6  -1  -6  347.33   11.47
   6   1  -6  381.13   15.09
   6  -1  -6  364.20   14.44
   6   1  -6  356.78    7.85
   6   1   6  357.64   14.82
   6  -1   6  376.65   15.13
   6   1   6  348.61    7.80
  -6   1   6  364.25    8.42
   6  -1   7   49.82    4.23
   6   1   7   52.87    5.13
  -6  -1  -7   52.22    4.79
   6   1  -7   50.69    3.67
   6  -1  -7   53.25    4.68
   6   1  -7   53.18    6.49
   6  -1  -7   59.08    6.38
   6   1  -7   46.08    3.29
   6  -1   7   55.53    6.59
   6   1   7   47.95    3.29
  -6   1   7   45.98    3.41
   6   1   7   49.92    6.25
   6  -1   7   62.99    6.88
   6   1  -8   21.52    2.54
   6  -1  -8   19.54    3.05
   6   1  -8   22.19    4.65
   6  -1  -8   17.73    4.04
   6   1   8   16.99    3.70
   6  -1   8   16.67    3.82
   6  -1   8   28.79    5.15
   6   1   8   19.55    2.43
  -6   1   8   19.55    2.59
   6  -1   9   30.83    5.37
   6   1  -9   29.98    3.04
   6  -1  -9   31.97    4.01
   6   1  -9   21.78    4.41
   6  -1  -9   23.33    4.21
   6   1   9   30.63    5.20
   6  -1   9   29.95    3.16
   6   1   9   28.33    3.11
   6  -1  10   -0.84    3.08
   6  -1 -10    2.59    1.88
   6   1 -10    2.49    2.52
   6  -1 -10    6.44    3.10
   6   1  10   -1.45    2.86
   6   1  10    1.86    2.88
   6   1  10    5.02    2.14
   6  -1  11    0.63    3.01
   6  -1 -11    4.90    2.28
   6   1 -11    6.23    3.83
   6  -1 -11    6.29    3.29
   6   1  11    4.45    2.99
   6   1  11    5.78    2.31
   6  -1  12   84.15    8.23
   6  -1 -12   88.27    6.75
   6   1 -12   77.26    7.96
   6  -1 -12   86.29    8.01
   6   1  12   85.31    8.08
   6  -1 -13  629.81   17.79
   6   1 -13  643.79   22.26
   6  -1 -13  641.83   21.34
   6   1  13  631.86   21.18
   6  -1  13  635.51   21.95
   6   1 -14  529.63   20.33
   6  -1 -14  538.10   19.90
   6   1  14  515.82   19.57
   6  -1  14  549.58   20.73
   6   1 -15  144.02   10.98
   6  -1 -15  156.53   11.15
   6   1  15  152.53   11.04
   6  -1  15  150.36   11.12
   6   1  16    2.18    3.19
   6  -1  16   -5.21    4.16
   6  -1 -16    2.78    2.50
   6   1 -16    0.41    3.51
   6   1  17   55.74    7.11
   6  -1  17   65.46    7.91
   6  -1 -17   55.44    7.17
   6   1 -17   51.23    7.17
   6   1  18   37.08    6.64
   6  -1  18   31.63    6.70
   6  -1 -18   29.67    5.78
   6   1 -18   33.85    6.55
   6  -1 -19  328.18   17.22
   6   1 -19  287.73   16.66
   6   1  19  292.20   16.21
   6  -1  19  301.48   16.97
   6   1  20    0.51    4.07
   6  -1  20    9.42    5.32
   6  -1 -20    0.69    3.45
   6   1 -20   -2.12    3.14
   6  -1 -21  230.96   15.24
   6   1 -21  209.52   14.89
   6   1  21  215.88   14.64
   6  -1  21  225.73   15.28
  -6  -1  21  216.73   14.91
   6   1  22   -2.08    3.57
   6  -1  22   -2.31    3.57
   6   1 -22   -3.72    3.16
  -6   1  22    0.61    3.20
  -6  -1  22    1.35    3.13
  -6  -1  23   -6.43    4.71
   6   1  23    0.66    3.06
   6  -1  23   -2.28    3.74
  -6   1  23   -0.81    3.86
   6   1  24   20.81    5.46
   6  -1  24   12.11    3.31
  -6  -1  24   23.91    5.76
  -6   1  24    9.89    4.57
  -6   1  25   51.64    8.21
   6   1  25   49.60    7.90
   6  -1  25   53.95    8.57
   6   1  26   18.77    5.72
   6   2   0  427.73   15.63
   6  -2   0  432.50   15.21
  -6   2   0  411.34    6.69
  -6   2  -1  196.21    4.05
  -6  -2   1  221.36    5.86
   6   2  -1  222.82   11.33
   6  -2  -1  223.51   11.07
   6   2   1  217.15   11.18
   6  -2   1  200.89   10.51
  -6  -2   1  208.05    4.63
  -6  -2  -1  214.14    9.19
   6   2   2   21.22    3.82
  -6  -2  -2   17.32    2.87
  -6  -2   2   17.86    1.52
   6  -2  -2   22.04    3.84
  -6  -2  -2   17.94    1.62
   6   2  -2   20.02    4.24
  -6   2   2   25.38    2.41
  -6  -2   2   20.70    1.62
   6   2   2   19.35    3.94
   6  -2   2   21.23    3.94
  -6  -2  -3  727.46   16.90
   6   2   3  743.10   19.22
  -6   2   3  752.49   11.64
   6   2  -3  750.84   20.97
   6  -2  -3  758.14   20.27
   6   2   3  732.78   20.65
   6  -2   3  758.84   20.76
  -6  -2   3  738.30   10.49
   6  -2   3  693.26    7.32
   6   2   4 1465.71   26.73
  -6  -2  -4 1445.98   24.04
   6   2  -4 1463.58   14.48
  -6   2   4 1420.26   15.09
   6   2  -4 1469.56   29.32
   6  -2  -4 1462.33   28.19
   6   2   4 1468.39   28.97
   6  -2   4 1451.01   28.41
  -6   2   4 1449.67   14.57
   6  -2   4 1423.07   12.84
   6  -2   4 1440.94   21.23
   6  -2   5  154.66    6.83
   6   2   5  157.09    8.93
  -6  -2  -5  150.57    7.89
   6   2  -5  143.89    4.51
  -6   2   5  150.37    5.31
   6   2  -5  146.74    9.77
   6  -2  -5  159.53    9.57
  -6   2  -5  153.79    5.44
   6   2   5  160.54    9.87
   6   2   5  159.94    5.47
   6  -2   5  159.96    9.87
   6  -2   6  561.76   12.74
   6   2   6  570.20   16.90
  -6  -2  -6  559.92   15.33
   6   2  -6  561.17    9.07
   6  -2  -6  566.34   15.53
   6   2  -6  575.18   18.86
   6   2  -6  571.16   11.28
   6  -2  -6  573.34   17.82
  -6   2  -6  548.39   11.23
   6   2   6  552.87   18.41
   6   2   6  563.68   11.05
  -6   2   6  555.58   11.24
   6  -2   6  580.82   18.68
   6  -2   7  833.39   15.19
   6   2   7  805.35   20.38
  -6  -2  -7  817.04   18.87
   6  -2  -7  831.42   19.28
   6   2  -7  835.52   22.93
   6  -2  -7  847.01   21.82
  -6   2  -7  816.81   14.77
   6   2  -7  830.51   14.61
   6   2   7  825.43   22.66
   6  -2   7  827.43   23.08
   6   2   7  838.06   14.53
  -6   2   7  815.48   14.55
   6  -2   7  794.04   22.48
  -6  -2  -8   98.30    7.20
   6  -2  -8   82.56    6.37
   6   2  -8   79.42    7.83
   6  -2  -8  101.30    8.12
   6   2  -8   89.15    5.28
   6   2   8  103.09    8.53
   6  -2   8  116.45    9.09
   6   2   8   87.44    5.26
  -6   2   8   91.64    5.39
   6  -2   9    8.16    3.23
   6  -2   9    8.49    1.75
   6  -2  -9    9.38    2.81
   6   2  -9    9.69    3.47
   6  -2  -9    6.90    2.74
   6   2  -9    8.16    2.13
   6   2   9   12.68    4.19
   6   2   9    9.96    2.45
  -6   2   9    6.36    2.05
   6  -2 -10  235.83   10.88
   6   2 -10  235.96   13.22
   6  -2 -10  236.37   12.33
   6   2 -10  246.27    9.68
   6  -2  10  259.41   13.74
   6   2  10  243.50    9.56
   6   2  10  233.86   13.03
  -6   2  10  235.08    9.60
   6  -2  10  235.18    8.04
   6  -2 -11 1141.87   24.34
   6   2 -11 1114.35   28.47
   6  -2 -11 1187.43   27.27
   6   2  11 1140.70   26.95
   6   2  11 1146.74   21.68
   6  -2  11 1164.68   28.91
  -6   2  11 1115.79   21.56
   6   2  11 1173.08   28.86
   6  -2 -12  136.98    8.82
   6   2 -12  136.81   10.49
   6  -2 -12  153.88   10.19
   6   2  12  137.59    8.03
  -6   2  12  142.35    8.30
   6  -2  12  136.27   10.52
   6   2  12  129.90    9.51
   6  -2 -13  776.14   20.92
   6   2 -13  778.60   24.41
   6  -2 -13  748.69   22.75
   6   2  13  781.94   23.16
   6   2  13  771.02   19.39
  -6   2  13  766.02   19.59
   6  -2  13  762.63   24.17
   6   2  14   53.71    6.69
   6  -2 -14   46.10    5.54
   6  -2  14   48.64    6.85
   6   2 -14   56.64    7.14
   6  -2 -14   44.92    6.35
   6   2  14   45.28    5.51
   6   2  15   19.68    4.33
   6  -2  15   25.24    5.27
   6   2 -15   22.97    4.85
   6  -2 -15   21.12    4.34
   6   2  15   25.92    4.40
   6  -2 -16  120.40    9.78
   6   2 -16  109.14    9.96
   6   2  16  117.59    9.87
   6   2  16  111.58    8.70
   6  -2  16  116.91   10.32
   6  -2 -17  131.71   10.58
   6   2 -17  108.89   10.32
   6   2  17  139.91   10.89
   6   2  17  122.03    9.30
   6  -2  17  142.47   11.73
   6  -2 -18  215.36   13.76
   6   2 -18  214.34   14.69
   6   2  18  213.00   13.48
   6   2  18  219.95   12.60
   6  -2  18  221.19   14.57
   6  -2 -19  146.11   11.51
   6   2 -19  159.13   12.88
   6   2  19  130.68   10.13
   6   2  19  153.08   11.74
   6  -2  19  138.38   11.95
   6   2  20    0.46    3.03
   6  -2  20    7.97    5.04
   6  -2 -20    1.09    3.38
   6   2 -20    0.60    3.50
   6   2  20   -1.50    2.92
   6  -2 -21  112.97   10.73
   6   2 -21  123.27   11.49
   6   2  21  126.02   10.60
   6   2  21  132.27   11.33
   6  -2  21  144.00   12.53
  -6  -2  21  125.54   11.72
   6   2  22   76.90    8.95
   6   2 -22   89.13   10.01
   6  -2  22   79.21    9.65
  -6  -2  22   81.15    9.69
   6   2  22   77.11    8.97
  -6   2  22   72.37    8.76
   6   2  23   14.25    4.88
   6  -2  23   18.42    5.77
  -6   2  23   22.82    5.87
  -6  -2  23   22.89    5.99
   6   2  23   20.41    5.00
   6   2  24    7.03    3.65
  -6  -2  24    8.91    4.24
   6  -2  24    1.83    3.82
  -6   2  24    4.47    3.89
   6   2  24   11.44    4.97
  -6   2  25  111.94   11.46
   6   2  25  112.66   11.21
   6   2  25  122.30   11.84
   6   2  26    4.71    2.74
   6   2  26    5.85    3.99
   6   2  27   33.87    6.92
  -6  -3   0    5.41    1.30
   6   3   0    0.41    2.12
   6  -3   0    1.64    2.10
  -6  -3   0    3.68    1.02
   6   3   1   72.50    6.74
  -6  -3   1   65.29    3.65
   6  -3  -1   66.33    6.03
  -6  -3  -1   63.99    3.65
   6  -3   1   66.87    6.01
   6   3  -1   65.58    6.46
  -6  -3   1   67.27    3.62
   6  -3   1   67.02    3.10
  -6  -3  -1   63.46    3.48
   6   3   1   67.23    6.35
  -6  -3  -1   59.32    5.56
   6   3   2    8.63    2.67
  -6  -3  -2   15.45    3.03
   6  -3  -2   16.30    1.59
  -6  -3  -2   13.44    1.76
   6   3  -2   15.56    3.46
  -6   3   2   17.57    2.37
  -6  -3   2   18.95    1.87
   6  -3  -2   10.61    3.02
   6   3   2   15.82    3.75
   6  -3   2    8.28    2.59
  -6  -3   2   13.49    1.73
   6  -3   2   17.92    1.69
   6   3   3    2.62    2.23
  -6  -3  -3   -0.95    2.10
  -6   3   3   -0.39    1.18
   6   3  -3    5.36    3.54
   6  -3  -3    2.44    0.93
   6  -3  -3    3.42    2.54
   6   3   3    2.93    2.75
  -6  -3   3    0.99    1.04
   6  -3   3    2.32    2.56
   6  -3   3    1.51    0.86
  -6  -3  -4  838.97   19.82
   6   3   4  775.78   20.86
  -6   3   4  834.92   14.30
   6   3  -4  828.68   22.30
   6  -3  -4  843.67   20.90
   6   3   4  844.23   22.15
  -6   3   4  825.86   13.29
  -6  -3   4  846.05   14.45
   6  -3   4  857.96   21.86
   6  -3   4  854.79   12.67
   6  -3   5  115.05    5.49
   6   3   5  121.07    8.38
  -6  -3  -5  116.88    7.84
   6   3  -5  107.55    8.65
   6  -3  -5  105.98    7.85
   6   3   5  110.26    8.36
   6  -3   5  115.41    5.09
   6   3   5  121.47    5.56
  -6   3   5  114.32    5.35
   6  -3   5  118.67    8.54
   6  -3   6   16.38    2.20
   6   3   6   16.42    3.43
  -6  -3  -6   14.98    3.20
   6   3  -6   21.48    5.08
   6  -3  -6   21.26    4.28
  -6   3  -6   18.33    2.39
   6  -3   6   30.02    5.57
   6   3   6   16.86    4.14
   6   3   6   14.88    2.27
  -6   3   6   16.83    2.50
   6  -3   6   22.97    4.89
  -6  -3  -7  469.74   15.27
   6  -3  -7  472.91   15.64
   6   3  -7  479.83   17.86
   6  -3  -7  480.90   16.43
  -6   3  -7  451.83   11.88
   6   3  -7  490.50   12.37
   6   3   7  484.42   17.38
   6   3   7  487.81   12.27
   6  -3   7  490.74   17.85
  -6   3   7  477.70   12.11
   6  -3   7  480.27   17.48
  -6  -3  -8  195.36   10.19
   6  -3  -8  188.30   10.02
   6   3  -8  179.96   11.17
   6  -3  -8  186.51   10.55
  -6   3  -8  188.67    8.14
   6   3  -8  184.32    8.01
   6   3   8  192.85   11.30
   6   3   8  186.38    8.03
   6  -3   8  199.40   11.70
  -6   3   8  173.32    7.75
   6  -3   9    0.16    2.71
   6  -3  -9    0.37    1.87
  -6  -3  -9    3.65    2.94
   6   3  -9    0.56    3.19
   6  -3  -9    1.34    2.42
   6   3  -9    0.47    1.48
  -6   3  -9   -1.18    1.74
   6   3   9    1.18    2.67
   6   3   9    0.07    1.57
  -6   3   9    2.40    1.69
   6  -3 -10  203.49   10.83
   6   3 -10  214.22   12.72
   6  -3 -10  211.83   11.35
  -6   3 -10  219.95    9.63
   6   3 -10  207.81    9.26
   6   3  10  217.65   12.40
   6   3  10  214.11    9.40
  -6   3  10  213.90    9.44
   6  -3  10  219.18   12.60
   6   3 -11   16.42    3.11
   6  -3  11   20.56    4.70
   6  -3 -11   11.64    3.38
   6   3 -11   15.68    4.18
   6  -3 -11   13.78    3.56
   6   3  11   11.69    3.26
   6   3  11   13.29    2.89
  -6   3  11   11.79    2.30
   6  -3 -12  327.83   14.11
   6   3 -12  315.62   15.73
   6  -3 -12  313.88   14.24
   6   3 -12  306.24   12.25
   6   3  12  315.57   12.42
  -6   3  12  315.83   12.49
   6   3  12  311.51   15.11
   6  -3  12  313.33   15.65
   6  -3  13   45.41    6.50
   6  -3 -13   40.84    5.41
   6   3 -13   42.17    6.22
   6  -3 -13   42.39    5.72
   6   3 -13   45.53    5.39
   6   3  13   40.08    5.62
   6   3  13   42.29    5.98
   6   3  13   42.78    5.04
  -6   3  13   40.86    5.02
   6  -3 -14   42.82    5.66
   6  -3  14   34.92    5.94
   6   3 -14   52.33    6.95
   6  -3 -14   32.37    4.91
   6   3  14   36.74    4.88
   6   3  14   39.06    5.40
  -6   3  14   39.20    5.09
   6   3  15   37.10    5.64
   6  -3 -15   41.06    5.87
   6  -3  15   45.34    6.88
   6  -3 -15   33.33    5.13
   6   3 -15   32.40    5.74
   6   3  15   35.19    4.97
  -6   3  15   42.23    5.60
   6  -3 -16  386.58   16.73
   6  -3 -16  401.81   17.47
   6   3 -16  413.57   19.40
   6   3  16  364.56   16.68
   6   3  16  404.92   16.22
  -6   3  16  385.05   15.88
   6  -3  16  396.48   18.83
   6   3  17   11.84    4.26
   6  -3  17   15.67    5.52
   6  -3 -17   13.12    4.21
   6   3 -17   10.81    4.79
   6   3  17    5.83    3.00
  -6   3  17   14.45    4.21
   6  -3 -18  288.65   15.68
   6   3 -18  301.93   17.22
  -6   3  18  290.25   13.37
   6   3  18  296.46   15.58
   6   3  18  305.48   15.15
  -6   3  18  298.14   15.05
   6  -3  18  293.21   17.03
   6  -3 -19  332.41   16.96
   6   3 -19  336.80   18.73
   6   3  19  336.63   16.81
   6   3  19  323.74   16.04
  -6   3  19  336.21   16.36
   6  -3  19  340.54   18.75
   6   3  20   37.55    6.17
   6  -3  20   35.17    6.81
   6  -3 -20   29.51    6.22
  -6  -3  20   22.21    5.88
   6   3 -20   36.17    6.82
   6   3  20   28.25    5.53
  -6   3  20   33.17    6.17
   6   3  21    7.64    3.49
   6  -3  21   20.53    5.94
   6   3 -21    8.43    4.53
  -6  -3  21   14.00    4.81
   6   3  21   11.93    4.36
  -6   3  21   14.51    4.70
  -6  -3  22  121.90   11.78
  -6   3  22  117.45   10.78
   6   3  22  138.98   11.62
   6   3  22   96.82    9.76
  -6   3  22  124.59   11.05
   6  -3  22  120.76   11.94
   6   3  23   21.42    5.32
  -6   3  23   21.03    5.47
   6  -3  23   20.12    5.52
  -6  -3  23    8.73    4.25
   6   3  23   19.29    5.18
  -6   3  23   22.95    5.85
   6   3  24   33.07    6.15
  -6   3  24   27.89    6.07
   6   3  24   35.30    6.56
  -6   3  24   19.02    5.29
  -6   3  25    5.49    3.28
   6   3  25   -4.19    3.53
   6   3  25   -0.56    4.06
  -6   3  25   -3.32    4.11
   6   3  26    0.49    2.46
  -6   3  26   -0.37    2.63
   6   3  26   -9.43    5.26
  -6   3  26   -6.62    4.87
   6   4   0  170.06   10.31
   6   4   0  175.83    4.35
  -6  -4   0  192.12    7.49
   6   4   0  184.90   10.66
  -6  -4   0  187.69    7.30
   6  -4   0  182.73    9.94
  -6  -4   0  172.84    6.89
   6  -4   0  188.18    6.54
   6   4  -1  167.12   10.21
   6   4   1  174.48   10.38
   6   4   1  172.99    5.24
  -6  -4   1  176.81    6.82
  -6   4   1  173.28    8.11
   6   4  -1  174.09   10.40
   6  -4  -1  181.19    6.39
   6   4   1  176.54   10.44
  -6  -4  -1  166.03    6.87
   6  -4  -1  168.10    9.50
   6  -4   1  166.48    9.57
  -6  -4   1  168.30    6.84
   6  -4   1  166.42    6.20
  -6  -4  -1  170.31    6.88
   6  -4  -1  160.01    6.12
  -6  -4  -1  155.52    9.28
   6   4   2    7.54    2.70
   6  -4  -2    7.77    1.41
  -6  -4  -2    4.35    2.01
  -6  -4   2    7.12    1.54
   6   4  -2    7.08    3.14
  -6  -4  -2    2.51    1.07
  -6   4   2    5.62    1.83
   6  -4  -2    6.31    2.49
   6   4   2    6.85    2.70
   6  -4   2    6.97    2.81
  -6  -4   2    5.17    1.44
   6  -4   2    5.07    1.24
  -6  -4  -2    7.06    1.70
  -6  -4  -3   83.78    6.93
   6   4   3   71.48    6.75
  -6   4   3   70.58    2.98
  -6   4   3   70.92    5.05
   6  -4  -3   70.42    6.21
   6  -4  -3   78.94    4.38
   6   4  -3   66.64    6.59
   6   4   3   73.60    6.75
   6  -4   3   69.91    4.15
   6  -4   3   63.06    6.06
   6   4   4   24.36    4.47
  -6  -4  -4   22.23    3.72
  -6   4   4   18.10    1.93
  -6   4   4   16.65    2.65
   6  -4  -4   20.16    3.71
   6   4  -4   14.55    3.71
   6   4   4   22.89    4.32
   6  -4   4   18.89    2.46
   6  -4   4   16.11    3.63
   6  -4   5    8.55    1.49
   6   4   5    9.54    3.10
  -6  -4  -5    6.95    2.24
  -6   4   5    8.30    2.01
   6   4  -5    2.10    2.65
   6  -4  -5    6.27    2.52
   6   4   5    5.81    1.71
   6   4   5    5.37    2.58
  -6   4   5    6.03    1.60
   6  -4   5    6.76    2.88
   6  -4   6    0.64    0.65
   6   4   6    0.77    2.51
  -6  -4  -6    5.46    2.90
   6   4  -6    2.66    3.17
   6  -4  -6    4.89    2.78
   6   4   6   -0.61    2.33
   6   4   6    0.10    1.77
  -6   4   6    0.24    1.30
   6  -4   6    4.95    2.99
   6  -4   6    3.36    2.58
  -6  -4  -7  478.20   16.73
   6  -4  -7  498.78   17.11
   6   4  -7  501.01   18.30
   6  -4  -7  508.81   16.40
  -6   4  -7  495.74   13.56
   6   4   7  504.48   17.72
   6   4   7  514.49   13.89
  -6   4   7  501.28   13.43
   6  -4   7  511.52   18.56
   6  -4   7  524.12   18.29
  -6  -4  -8  862.21   22.58
   6  -4  -8  888.18   22.77
   6   4  -8  885.14   24.67
   6  -4  -8  865.91   21.69
   6   4   8  877.83   18.73
  -6   4  -8  864.00   18.45
   6   4  -8  871.37   18.73
   6   4   8  847.01   23.54
  -6   4   8  869.41   18.42
   6  -4   8  884.83   24.78
  -6  -4  -9  174.26   10.61
   6  -4  -9  167.30   10.15
   6   4  -9  157.18   10.85
   6  -4  -9  158.54    9.58
  -6   4  -9  159.79    8.37
   6   4  -9  160.55    8.36
   6   4   9  159.04   10.39
   6   4   9  150.23    8.08
  -6   4   9  169.02    8.52
   6  -4   9  160.78   10.99
  -6  -4 -10  332.20   14.69
   6  -4 -10  319.36   14.33
   6   4 -10  320.01   15.47
   6  -4 -10  322.79   13.83
  -6   4 -10  336.54   12.48
   6   4 -10  343.76   12.70
   6   4  10  360.52   15.55
   6   4  10  331.95   12.52
  -6   4  10  335.42   12.37
   6  -4  10  346.34   16.06
   6  -4  11   24.75    4.99
   6  -4 -11   23.59    4.36
   6   4 -11   15.78    4.00
   6  -4 -11   16.49    3.71
  -6   4 -11   18.47    3.39
   6   4 -11   19.26    3.53
   6   4  11   18.72    4.00
   6   4  11   17.67    3.33
  -6   4  11   16.33    2.89
   6  -4  12   21.98    5.15
   6  -4 -12   16.29    3.82
   6   4 -12   26.11    5.26
   6  -4 -12   27.08    4.65
  -6   4 -12   28.62    4.22
   6   4 -12   25.83    3.92
   6   4  12   23.59    4.29
   6   4  12   21.35    3.61
  -6   4  12   24.65    3.77
   6  -4  13   53.21    7.13
   6  -4 -13   43.58    5.65
   6   4 -13   47.49    6.79
   6  -4 -13   37.39    5.21
  -6   4 -13   51.51    5.70
   6   4 -13   47.52    5.61
   6   4  13   45.41    6.25
   6   4  13   44.54    5.15
  -6   4  13   43.36    5.09
   6  -4 -14   49.19    6.50
   6  -4  14   47.61    6.99
   6   4 -14   41.16    6.36
   6  -4 -14   47.62    5.89
  -6   4 -14   53.68    5.95
   6   4 -14   46.85    5.74
   6   4  14   47.74    6.61
   6   4  14   44.38    5.40
  -6   4  14   52.70    6.05
   6  -4 -15  325.16   15.74
   6  -4 -15  335.92   15.32
   6   4 -15  333.63   17.31
   6   4 -15  323.31   14.50
   6   4  15  330.08   15.25
   6   4  15  304.24   14.16
  -6   4  15  334.76   14.67
   6  -4  15  325.72   17.13
   6   4  15  351.82   16.88
   6  -4 -16   88.58    8.47
   6  -4  16   77.98    8.87
   6  -4 -16   79.16    7.79
   6   4 -16   78.11    8.90
   6   4 -16   80.67    7.68
  -6   4  16   88.97    7.93
   6   4  16   81.26    7.82
   6   4  16   81.31    7.60
  -6   4  16   78.77    7.65
   6  -4 -17   90.43    8.99
   6  -4 -17   78.50    8.19
   6   4  17   87.73    8.41
   6   4 -17   88.79    9.73
   6   4 -17   87.61    8.44
  -6   4  17   87.48    7.94
   6   4  17   84.14    8.12
   6  -4  17   89.49    9.72
  -6   4  17   73.46    7.60
   6  -4 -18  237.34   13.84
   6   4 -18  255.73   16.08
   6   4 -18  232.39   13.66
  -6   4  18  250.84   13.08
   6   4  18  240.09   13.84
   6   4  18  235.32   13.63
  -6   4  18  246.96   13.89
   6  -4  18  247.62   15.88
   6   4  19   62.70    7.44
  -6  -4  19   73.17    9.13
   6  -4  19   62.67    8.61
   6  -4 -19   61.49    7.39
   6   4 -19   66.85    9.13
   6   4 -19   62.00    7.34
   6   4  19   69.93    7.94
  -6   4  19   53.22    7.11
   6   4  20    1.83    2.31
  -6  -4  20    5.15    3.92
   6  -4 -20   -0.11    2.68
   6  -4  20    1.12    3.52
   6   4 -20   -6.62    3.40
   6   4  20   -0.25    3.49
  -6   4  20    3.98    3.30
   6   4  21   76.84    8.47
  -6  -4  21   63.71    8.96
   6   4 -21   75.49    9.43
   6  -4  21   64.01    8.92
   6   4  21   79.77    8.89
  -6   4  21   75.99    8.66
   6  -4  22  102.19   11.09
  -6  -4  22   85.23   10.05
  -6   4  22   84.16    9.28
   6   4  22   96.09    9.44
   6   4  22   93.26    9.93
  -6   4  22   92.69    9.96
   6   4  23   68.06    8.38
  -6   4  23   71.00    8.65
  -6  -4  23   80.31   10.05
   6  -4  23   88.04   10.74
   6   4  23   68.47    8.58
  -6   4  23   71.86    9.00
   6   4  24    2.85    3.41
  -6   4  24   -0.21    3.24
   6   4  24   -3.66    3.24
  -6   4  24    4.54    3.69
  -6   4  25   70.77    8.91
   6   4  25   66.51    8.73
  -6   4  25   79.54    9.83
  -6   4  26   18.81    5.10
   6   4  26   26.55    6.38
   6   5   0    5.28    3.58
  -6   5   0    5.08    3.18
   6   5   0    3.10    3.01
   6  -5   0    0.90    2.52
  -6  -5   0   -0.01    2.58
   6   5  -1  333.34   14.93
   6   5   1  326.99   14.81
  -6   5   1  321.73   11.89
   6   5  -1  353.36   14.80
   6   5   1  334.42   14.24
   6  -5  -1  314.85   12.69
   6  -5   1  329.77   13.26
  -6  -5  -1  332.77   14.20
   6   5  -2   47.49    6.00
   6   5   2   60.38    6.54
  -6  -5  -2   53.94    5.89
  -6   5   2   61.78    5.27
   6  -5  -2   65.99    5.95
   6   5  -2   55.15    6.31
   6  -5   2   60.07    6.00
   6   5   2   56.06    6.06
   6   5   3    2.51    2.06
  -6  -5  -3    0.85    2.60
   6   5  -3    2.85    2.49
  -6   5   3   -0.14    1.78
   6  -5  -3   -3.91    2.06
   6   5   3   -1.38    2.67
   6  -5   3   -0.20    2.42
  -6   5   3    0.58    0.45
   6   5   4    2.71    2.69
  -6  -5  -4   -1.20    2.61
  -6   5   4    2.62    1.79
   6   5  -4    1.80    2.95
   6  -5  -4    1.83    2.13
   6   5   4    0.38    2.39
   6  -5   4    1.71    2.87
   6  -5   5  370.30    7.22
  -6  -5  -5  372.21   15.17
   6   5   5  360.78   15.70
  -6   5   5  380.26   12.40
   6   5  -5  401.64   16.36
   6  -5  -5  376.62   13.90
   6   5   5  358.49   14.86
  -6   5   5  374.35   11.84
   6  -5   5  373.56   15.08
  -6  -5  -6  156.59   10.21
   6   5  -6  151.98   10.56
   6  -5  -6  159.50    9.15
   6   5   6  147.64    9.61
   6   5   6  158.01    8.19
  -6   5   6  139.98    7.49
   6  -5   6  161.28   10.51
   6  -5   6  166.78   10.37
  -6  -5  -7  199.59   11.44
   6  -5  -7  202.73   11.62
   6   5  -7  200.68   12.06
   6  -5  -7  199.27   10.40
   6   5   7  205.75   11.42
   6   5   7  227.36   10.09
  -6   5   7  209.54    9.44
   6  -5   7  200.55   11.98
   6  -5   7  205.98   11.58
   6  -5   8   20.47    4.75
   6  -5  -8   20.01    4.27
  -6  -5  -8   23.96    4.48
   6   5  -8   21.22    4.93
   6  -5  -8   21.00    3.76
  -6   5  -8   12.69    2.38
   6   5   8   24.20    4.28
   6   5   8   19.86    3.28
  -6   5   8   19.17    3.37
  -6  -5  -9  243.26   12.92
   6  -5  -9  240.92   12.86
   6   5  -9  239.61   13.29
   6  -5  -9  258.44   11.93
  -6   5  -9  244.92   10.97
   6   5   9  239.87   12.55
   6   5   9  228.39   10.67
  -6   5   9  234.28   10.58
   6  -5   9  225.01   13.12
   6  -5  10   18.25    4.29
   6  -5 -10   23.68    4.70
  -6  -5 -10   24.14    4.87
   6   5 -10   20.20    4.61
   6  -5 -10   20.41    3.95
  -6   5 -10   20.44    3.79
   6   5 -10   15.12    3.09
   6   5  10   15.72    3.89
   6   5  10   19.76    3.60
  -6   5  10   18.01    3.49
   6  -5  11   20.33    4.19
   6  -5 -11   21.11    4.93
  -6  -5 -11   24.66    5.02
   6   5 -11   21.35    4.81
   6  -5 -11   21.01    3.91
  -6   5 -11   21.78    3.72
   6   5 -11   18.36    3.42
   6   5  11   20.11    4.24
   6   5  11   22.23    3.77
  -6   5  11   20.93    3.79
   6  -5  12   41.39    6.26
   6  -5 -12   43.49    5.87
   6   5 -12   40.97    6.25
   6  -5 -12   44.34    5.40
  -6   5 -12   40.24    4.93
   6   5 -12   42.97    5.19
   6   5  12   36.64    5.50
   6   5  12   40.94    5.12
  -6   5  12   38.92    4.89
   6  -5 -13  262.47   14.33
   6   5 -13  277.19   15.41
   6  -5 -13  269.34   13.20
  -6   5 -13  279.67   13.13
  -6   5  13  258.97   13.62
   6   5 -13  280.83   13.16
   6   5  13  273.64   14.60
   6   5  13  248.62   12.65
  -6   5  13  280.18   13.13
   6  -5  13  271.96   15.34
   6  -5 -14   70.95    7.71
   6  -5  14   73.54    8.55
   6  -5 -14   74.32    7.13
   6   5 -14   72.71    8.48
  -6   5  14   80.40    7.75
  -6   5 -14   79.68    7.68
   6   5 -14   75.92    7.19
   6   5  14   78.41    7.36
  -6   5  14   73.44    6.99
   6   5  14   72.12    7.63
   6  -5 -15   21.82    4.72
   6  -5  15   25.40    5.86
   6  -5 -15   26.43    4.60
   6   5 -15   33.17    5.97
  -6   5 -15   24.86    4.31
   6   5 -15   22.52    4.37
  -6   5  15   30.50    5.36
   6   5  15   26.52    5.02
   6   5  15   21.51    3.95
  -6   5  15   19.57    3.93
   6  -5 -16   32.02    5.62
   6  -5  16   33.96    6.38
   6  -5 -16   23.85    4.52
   6   5 -16   35.34    6.46
  -6   5 -16   21.26    4.35
   6   5 -16   26.72    4.57
  -6   5 -16   25.79    4.55
  -6   5  16   28.83    5.04
   6   5  16   29.20    5.06
   6   5  16   29.14    5.42
  -6   5  16   18.16    4.02
   6  -5 -17    2.18    2.84
   6  -5  17    8.83    4.56
   6  -5 -17   -0.51    2.08
   6   5 -17    4.51    4.00
  -6   5 -17    1.79    3.01
   6   5 -17    1.96    2.75
  -6   5  17    0.97    2.34
   6   5  17    1.81    2.72
   6   5  17    3.64    2.56
  -6   5  17   -3.94    3.55
   6  -5 -18  283.81   16.13
   6  -5 -18  267.87   14.58
   6   5 -18  293.53   17.43
  -6   5 -18  256.97   14.88
   6   5 -18  271.93   15.02
  -6   5  18  268.18   13.95
   6   5  18  274.88   14.42
   6   5  18  297.34   15.77
  -6   5  18  269.58   14.87
  -6  -5  18  275.77   16.79
   6  -5  18  292.39   17.58
  -6  -5  19   83.99    9.80
   6  -5 -19   69.57    7.59
   6  -5  19   75.97    9.51
   6   5 -19   77.87    9.71
  -6   5 -19   77.33    8.28
   6   5 -19   80.90    8.71
   6   5  19   72.20    7.74
   6   5  19   76.94    8.33
  -6   5  19   69.00    8.08
  -6  -5  20    2.20    2.92
   6  -5  20   -2.81    4.41
   6   5 -20    0.23    3.52
  -6   5 -20    0.21    2.73
   6   5 -20    0.43    2.87
   6   5  20   -0.55    2.64
   6   5  20   -1.87    2.62
  -6   5  20   -2.55    3.02
   6   5 -21   68.18    9.27
   6  -5  21   61.67    8.82
  -6  -5  21   45.58    7.42
   6   5 -21   55.07    7.69
   6   5  21   54.08    7.46
  -6   5  21   56.44    7.52
  -6   5  21   50.88    6.87
  -6  -5  22   -0.01    3.68
   6  -5  22   -4.88    5.07
  -6   5  22    0.90    2.80
   6   5 -22   -1.54    3.18
   6   5  22    1.86    2.76
  -6   5  22    1.10    2.65
   6   5 -23   13.48    4.21
  -6   5  23   17.68    4.78
   6   5  23   18.59    5.06
  -6   5  23   11.27    4.36
   6   5 -24  170.89   13.92
   6   5  24  177.33   14.14
  -6   5  24  174.63   14.12
   6   5  25   36.49    7.04
  -6   5  25   35.85    7.18
   6   6   0   11.28    4.28
  -6  -6   0    6.80    3.53
   6   6   0    7.00    3.50
  -6   6   0   13.99    3.72
   6  -6   0   11.41    3.63
   6   6  -1  276.44   14.41
   6   6   1  291.33   14.45
  -6   6   1  267.18   11.85
  -6   6  -1  277.00   12.24
   6   6  -1  277.61   13.27
   6   6   1  287.16   13.33
   6  -6  -1  276.25   11.85
   6  -6   1  268.40   11.92
  -6  -6  -1  284.17   13.94
   6   6  -2   22.44    4.49
   6   6   2   19.29    4.64
  -6  -6  -2   19.05    4.08
   6   6  -2   16.82    3.78
  -6   6   2   18.77    3.34
   6   6   2   17.27    3.40
   6  -6  -2   19.17    3.36
   6  -6   2   17.22    3.46
   6   6  -3   19.12    4.46
   6   6   3   18.25    4.19
  -6  -6  -3   16.61    4.07
   6   6  -3   32.15    5.31
  -6   6   3   14.75    3.20
   6  -6  -3   16.02    3.23
   6   6   3   16.16    3.68
   6  -6   3   21.49    4.19
   6   6  -4 1126.38   28.86
  -6  -6  -4 1098.43   27.43
   6   6   4 1096.84   28.36
  -6   6   4 1117.21   23.54
   6   6  -4 1109.83   27.00
   6  -6  -4 1110.59   23.43
   6   6   4 1094.05   25.94
   6  -6   4 1139.77   25.50
   6   6   5   81.69    7.97
  -6  -6  -5   74.60    7.58
  -6   6   5   68.68    6.04
   6  -6  -5   68.66    6.02
   6   6  -5   72.98    7.28
   6   6   5   69.28    6.89
   6  -6   5   69.89    6.77
  -6  -6  -6   44.30    6.08
   6  -6  -6   51.62    5.38
   6   6  -6   40.51    5.82
   6   6   6   38.15    5.12
  -6   6   6   42.58    4.72
   6  -6   6   44.28    5.71
   6  -6   6   36.81    5.52
  -6  -6  -7  336.83   15.62
   6  -6  -7  342.24   15.76
   6   6  -7  351.64   15.99
   6  -6  -7  344.54   13.26
   6   6   7  336.72   14.52
   6   6   7  357.43   13.67
  -6   6   7  344.76   13.05
   6  -6   7  355.12   15.94
   6  -6   7  354.93   15.14
   6  -6   8   32.30    5.42
   6  -6  -8   29.77    5.18
  -6  -6  -8   32.89    5.12
   6   6  -8   28.81    5.27
   6  -6  -8   28.03    3.97
  -6   6   8   33.73    5.92
   6   6   8   24.85    4.82
   6   6   8   27.52    4.21
  -6   6   8   28.69    4.07
   6  -6   9   10.90    3.79
   6  -6  -9   10.05    3.58
  -6  -6  -9   12.08    3.91
   6   6  -9    6.67    3.16
   6  -6  -9   13.89    3.13
  -6   6   9   13.15    4.05
   6   6   9   10.13    3.35
   6   6   9   14.23    3.44
  -6   6   9   12.36    2.98
  -6  -6 -10   84.28    8.46
   6  -6 -10   80.38    8.23
   6   6 -10   79.53    8.43
   6  -6 -10   76.79    6.67
  -6   6 -10   84.04    7.14
   6   6  10   87.69    8.15
   6   6  10   80.55    7.11
  -6   6  10   80.06    6.96
   6  -6  10   82.51    8.60
  -6   6  10   77.85    8.02
  -6  -6 -11  413.01   18.25
   6  -6 -11  447.03   18.84
   6   6 -11  413.66   18.67
   6  -6 -11  455.02   15.93
  -6   6 -11  439.24   16.38
   6   6 -11  419.54   16.15
  -6   6 -11  435.89   17.69
  -6   6  11  419.59   18.07
   6   6  11  430.13   17.50
   6   6  11  448.46   16.70
  -6   6  11  440.39   16.36
   6  -6  11  429.81   19.00
  -6  -6 -12  211.07   13.41
   6  -6 -12  201.89   12.83
   6   6 -12  210.47   13.44
   6  -6 -12  203.53   10.99
  -6   6 -12  206.91   11.61
   6   6 -12  206.81   11.82
  -6   6 -12  205.75   12.18
  -6   6  12  210.22   12.73
   6   6  12  208.40   12.54
   6   6  12  217.91   12.05
  -6   6  12  200.69   11.29
   6  -6  12  221.69   14.05
   6  -6  13   45.83    7.18
   6  -6 -13   52.90    7.26
   6  -6 -13   41.16    5.20
   6   6 -13   44.84    6.85
  -6   6 -13   34.25    5.02
   6   6 -13   44.49    6.09
  -6   6 -13   43.37    6.12
  -6   6  13   43.42    6.29
   6   6  13   37.85    5.79
   6   6  13   45.24    5.88
  -6   6  13   41.03    5.54
   6  -6 -14  601.34   22.81
   6  -6 -14  623.11   19.74
   6   6 -14  598.61   23.45
  -6   6 -14  596.12   20.67
   6   6 -14  587.65   20.73
  -6   6 -14  582.04   20.42
  -6   6  14  570.53   21.21
   6   6  14  609.06   21.54
   6   6  14  604.06   20.76
  -6   6  14  597.59   20.59
   6  -6  14  577.36   23.31
   6  -6 -15  189.06   13.39
   6  -6 -15  191.17   11.28
   6   6 -15  173.37   13.33
  -6   6 -15  189.05   12.29
   6   6 -15  191.53   12.13
  -6   6 -15  198.56   11.88
  -6   6  15  208.02   12.82
   6   6  15  181.84   12.20
   6   6  15  207.63   12.67
  -6   6  15  200.36   12.36
   6  -6  15  188.62   13.72
   6  -6 -16   70.18    8.25
   6  -6 -16   77.24    7.38
   6   6 -16   73.77    8.92
  -6   6 -16   70.31    7.84
   6   6 -16   73.13    7.72
  -6   6 -16   78.24    7.64
  -6   6  16   71.38    7.66
   6   6  16   76.52    8.18
   6  -6  16   82.31    9.49
   6   6  16   65.86    7.25
  -6   6  16   67.89    7.47
  -6  -6  17   38.62    6.51
   6  -6 -17   37.79    6.76
   6  -6  17   41.58    7.16
   6  -6 -17   46.11    6.42
   6   6 -17   32.57    6.42
  -6   6 -17   33.17    5.64
   6   6 -17   27.00    5.00
  -6   6  17   40.11    5.63
   6   6  17   41.25    6.11
   6   6  17   38.70    5.65
  -6   6  17   29.37    5.14
   6  -6 -18  149.95   12.23
   6   6 -18  148.89   12.88
   6   6 -18  148.95   11.54
  -6   6 -18  158.93   11.90
  -6   6  18  153.96   11.04
  -6  -6  18  145.97   12.60
   6   6  18  143.13   11.33
  -6   6  18  134.06   10.94
   6   6  18  155.18   11.88
   6  -6  18  147.01   12.77
  -6  -6  19   25.34    5.77
   6  -6  19   35.19    6.83
   6   6 -19   38.97    7.19
  -6   6 -19   34.45    6.19
   6   6 -19   37.79    6.39
   6   6  19   33.32    5.89
   6   6  19   38.57    6.53
  -6   6  19   42.47    6.63
   6   6 -20    5.87    3.21
   6  -6  20    8.43    4.50
  -6  -6  20    8.46    3.39
  -6   6 -20   11.26    3.83
   6   6 -20   10.11    3.75
   6   6  20    8.83    3.40
   6   6  20    6.92    3.26
  -6   6  20    4.25    2.87
  -6  -6  21   37.56    7.03
   6  -6  21   48.31    8.43
  -6   6 -21   35.29    6.56
   6   6 -21   31.90    5.98
   6   6  21   33.90    6.41
  -6   6  21   27.57    5.80
   6   6  21   44.30    7.21
  -6   6 -22  125.43   11.80
   6   6 -22  121.77   11.73
   6   6  22  129.74   11.83
  -6   6  22  130.66   11.90
  -6   6 -23   75.29    9.39
   6   6 -23   68.45    9.03
   6   6  23   59.49    8.76
  -6   6  23   60.46    8.64
  -6   6 -24  158.72   13.77
   6   6 -24  152.77   13.42
   6   6  24  151.83   13.54
  -6   6  24  136.07   12.92
   6   7   0  309.83   15.72
  -6   7   0  309.37   13.78
   6   7   0  278.80   13.33
   6  -7   0  273.38   11.80
  -6   7   0  295.74   15.29
  -6  -7   0  276.05   14.69
   6   7  -1  209.01   12.95
   6   7   1  214.48   13.06
  -6   7   1  203.78   11.05
   6   7  -1  211.34   11.69
  -6   7  -1  213.32   11.68
   6   7   1  215.30   11.83
   6  -7  -1  208.85   10.26
   6  -7   1  211.46   10.57
  -6   7  -1  206.27   12.77
  -6   7   1  206.36   12.85
  -6  -7   1  194.11   12.41
  -6  -7  -1  201.33   12.64
   6   7  -2  381.38   17.33
   6   7   2  375.80   17.31
  -6   7   2  348.18   14.50
   6   7  -2  359.63   15.45
  -6   7  -2  342.40   15.05
   6   7   2  376.06   15.45
   6  -7  -2  368.30   13.50
  -6   7  -2  341.83   16.28
  -6   7   2  365.77   16.92
   6  -7   2  356.81   14.01
  -6  -7  -2  345.19   16.39
  -6  -7  -3  114.21    9.54
   6   7  -3  107.36    9.54
   6   7   3  123.35   10.09
  -6   7   3  123.71    8.69
   6   7  -3  127.26    9.56
   6  -7  -3  132.33    8.10
   6   7   3  125.60    9.02
  -6   7  -3  119.29    9.86
  -6   7   3  124.51   10.19
   6  -7   3  125.17    8.56
   6   7  -4   -1.91    2.94
   6   7   4   -2.29    3.26
  -6  -7  -4   -3.50    3.13
   6   7  -4    4.27    3.16
  -6   7   4   -1.13    2.04
   6  -7  -4   -1.43    2.12
   6   7   4   -1.33    2.38
  -6   7  -4   -2.49    3.10
  -6   7   4   -0.49    3.03
   6  -7   4    0.79    2.30
   6   7  -5   39.18    5.78
  -6  -7  -5   24.84    4.80
  -6   7   5   37.90    4.73
   6   7  -5   42.31    6.02
   6  -7  -5   40.18    4.66
  -6   7  -5   46.10    6.35
  -6   7   5   35.57    5.55
   6   7   5   39.32    5.13
   6  -7   5   51.80    5.80
   6   7  -6    0.48    3.46
  -6  -7  -6    5.10    2.82
   6   7  -6    9.65    3.26
   6  -7  -6    8.92    2.47
  -6   7  -6    9.91    3.88
  -6   7   6    3.16    3.47
   6   7   6    4.11    2.16
   6  -7   6    3.77    1.99
   6  -7   6    7.81    3.19
  -6  -7  -7   -0.43    2.56
   6  -7  -7   -0.99    3.51
   6   7  -7   -2.69    3.65
   6  -7  -7    2.17    1.79
  -6   7  -7   -1.47    3.44
  -6   7   7    4.18    2.86
   6   7   7    0.69    2.40
   6   7   7   -1.79    2.92
  -6   7   7   -0.55    2.00
   6  -7   7    1.83    2.25
   6  -7   7   -0.88    2.84
   6  -7   8   -2.59    3.57
  -6   7   8   -2.27    3.24
  -6  -7  -8   -1.56    2.89
   6  -7  -8    1.23    2.84
   6   7  -8   -4.79    3.07
   6  -7  -8    0.62    1.60
  -6   7  -8    0.59    2.88
   6   7   8    1.07    2.17
   6   7   8   -2.65    3.20
  -6   7   8    0.47    2.16
   6  -7   9    8.94    3.44
   6  -7  -9   17.31    4.46
  -6  -7  -9   12.17    3.85
   6   7  -9   11.40    3.64
   6  -7  -9   15.45    3.18
  -6   7  -9   10.23    3.65
  -6   7   9    7.80    3.34
   6   7   9   11.82    3.49
   6   7   9    9.12    2.85
  -6   7   9   14.50    3.41
  -6  -7 -10  128.92   10.70
   6  -7 -10  119.68   10.31
   6   7 -10  117.04   10.12
   6  -7 -10  134.35    8.30
   6   7  10  125.96    9.38
  -6   7 -10  114.60    9.52
  -6   7  10  132.58   10.62
   6   7  10  123.84    9.08
  -6   7  10  106.76    8.45
   6  -7  10  107.78    9.87
   6  -7  11    2.23    3.23
   6  -7 -11    3.16    3.07
  -6  -7 -11    3.84    3.80
   6   7 -11   -1.54    2.97
   6  -7 -11    4.07    2.20
  -6   7 -11    2.66    2.81
  -6   7  11   -0.70    2.87
   6   7  11   -0.10    2.40
   6   7  11   -2.58    2.43
  -6   7  11    6.88    3.13
   6  -7  12   25.33    5.23
   6  -7 -12   28.18    5.52
  -6   7 -12   14.70    3.61
  -6  -7 -12   31.91    6.33
   6   7 -12   19.31    4.60
  -6   7 -12   26.66    4.87
  -6   7  12   21.36    4.54
   6   7  12   21.48    4.29
   6   7  12   22.53    4.82
  -6   7  12   28.32    4.74
   6  -7  13   26.44    5.59
   6  -7 -13   18.60    5.30
   6   7 -13   23.32    5.57
  -6   7 -13   13.82    3.71
   6   7 -13    4.93    2.26
  -6   7 -13   21.17    4.92
  -6   7  13   12.95    4.13
   6   7  13   18.54    4.40
   6   7  13   20.08    4.10
  -6   7  13   16.56    4.16
   6  -7 -14   94.69    9.73
   6   7 -14  107.16   10.41
  -6   7 -14   92.72    8.57
   6   7 -14   86.52    8.34
  -6   7 -14   96.88    8.76
  -6   7  14  100.35    9.38
   6   7  14   88.25    8.37
   6   7  14   94.13    9.02
  -6   7  14   93.09    8.64
   6  -7  14  103.80   10.25
  -6  -7  15   29.05    5.73
   6  -7 -15   21.68    5.05
   6  -7  15   41.31    7.07
   6   7 -15   30.90    6.18
  -6   7 -15   25.75    5.21
   6   7 -15   28.56    5.26
  -6   7 -15   26.03    4.87
  -6   7  15   27.93    5.14
   6   7  15   35.60    5.81
   6   7  15   34.56    6.03
  -6   7  15   37.92    5.90
   6  -7 -16   19.08    5.31
   6  -7  16   20.82    5.45
   6   7 -16   15.67    4.33
  -6  -7  16   13.70    4.29
  -6   7 -16    8.57    3.43
   6   7 -16   11.24    3.69
  -6   7 -16   14.53    3.63
  -6   7  16   11.22    3.38
   6   7  16   18.62    4.58
   6   7  16   13.20    3.91
  -6   7  16   11.54    3.69
   6  -7 -17   17.64    4.80
   6  -7  17   22.80    5.35
   6   7 -17   23.23    5.64
  -6  -7  17   25.04    6.04
  -6   7 -17   19.09    4.41
   6   7 -17   22.55    4.79
  -6   7  17   17.96    4.34
   6   7  17   23.95    5.13
   6   7  17   13.29    4.07
  -6   7  17   16.98    4.53
   6  -7 -18   33.85    6.18
   6  -7  18   30.38    6.25
   6   7 -18   44.16    7.27
  -6   7 -18   44.57    6.82
   6   7 -18   43.04    6.61
  -6   7  18   42.05    6.34
  -6  -7  18   38.94    7.03
   6   7  18   42.42    6.50
   6   7  18   33.54    6.27
  -6   7  18   30.34    5.76
   6  -7 -19    2.33    3.66
   6  -7  19    1.03    3.59
   6   7 -19    8.93    4.48
  -6  -7  19    8.79    4.15
  -6   7 -19    1.25    3.22
   6   7 -19    4.26    2.64
   6   7  19   -1.70    2.61
   6   7  19    6.81    4.30
  -6   7  19    0.95    3.22
  -6  -7  20   12.94    4.58
   6  -7  20    7.56    3.75
  -6   7 -20    3.83    2.75
   6   7 -20    8.90    3.42
   6   7  20   11.10    3.83
   6   7  20   10.19    4.28
  -6   7  20    4.20    3.51
  -6   7 -21    3.45    2.71
   6   7 -21   -2.50    3.40
   6   7  21   -4.62    4.04
  -6   7  21   -1.36    3.10
  -6   7 -22   32.74    6.35
   6   7 -22   38.33    6.95
   6   7  22   25.90    5.78
  -6   7  22   22.93    5.25
  -6   7 -23   -1.88    3.19
   6   7 -23   -0.22    3.34
   6   7  23   -1.76    4.06
  -6   7  23   -1.51    3.62
   6   8   0   16.48    4.72
  -6  -8   0    7.63    3.47
   6   8   0   11.70    3.39
  -6   8   0   16.89    4.29
  -6   8   0   16.67    4.46
   6  -8   0   14.81    3.07
   6   8  -1   25.05    5.15
   6   8   1   28.81    5.46
  -6  -8   1   20.05    4.63
  -6  -8  -1   14.42    3.65
   6   8  -1   18.35    4.01
   6   8   1   20.52    4.32
  -6   8   1   19.62    4.16
  -6   8  -1   18.57    4.22
  -6   8  -1   19.61    4.67
  -6   8   1   17.60    4.25
   6  -8  -1   15.19    2.88
   6  -8   1   24.04    3.74
   6   8  -2   32.19    5.50
   6   8   2   39.21    6.20
  -6  -8  -2   38.37    6.00
   6   8  -2   36.58    5.03
  -6   8   2   42.35    5.92
   6   8   2   44.49    5.64
   6  -8  -2   41.07    4.60
  -6   8  -2   41.82    5.97
  -6   8  -2   40.10    6.29
  -6   8   2   43.33    6.84
   6  -8   2   34.55    4.47
  -6  -8  -3  353.10   17.36
   6   8  -3  364.37   17.80
   6   8   3  383.80   18.16
  -6   8   3  362.84   15.63
   6   8  -3  348.43   15.87
  -6   8  -3  377.24   16.70
   6   8   3  362.95   15.38
   6  -8  -3  384.98   13.25
  -6   8  -3  352.19   17.41
  -6   8   3  347.15   17.29
   6  -8   3  380.27   14.56
   6   8  -4   92.40    9.53
  -6  -8  -4   93.90    9.26
  -6   8   4   96.16    8.31
   6   8  -4   93.36    8.51
   6  -8  -4   91.95    6.61
  -6   8  -4   98.21    9.61
   6   8   4   91.86    8.04
  -6   8   4   95.01    9.73
   6  -8   4   98.61    7.93
   6   8  -5  346.93   17.54
  -6  -8  -5  327.38   16.91
  -6   8   5  354.63   15.45
   6   8  -5  329.97   15.76
   6   8   5  335.81   14.85
  -6   8  -5  339.56   16.96
  -6   8   5  366.88   17.73
   6  -8   5  347.99   14.44
   6   8  -6   -0.05    3.09
  -6  -8  -6   -2.66    3.84
   6  -8  -6    1.75    3.24
   6   8  -6   -3.25    3.03
   6   8   6   -1.07    2.30
  -6   8  -6    8.71    4.26
  -6   8   6    3.39    4.26
   6  -8   6    0.17    2.45
   6  -8   6   -0.56    2.05
   6   8  -7  742.96   25.48
  -6  -8  -7  678.62   24.76
   6  -8  -7  718.03   25.11
   6   8  -7  678.70   23.11
   6   8   7  714.96   21.68
   6  -8   7  721.69   23.66
  -6   8  -7  724.23   24.58
  -6   8   7  728.82   25.32
   6  -8   7  711.69   21.80
   6  -8   8    5.51    3.62
   6   8  -8    4.53    3.21
  -6  -8  -8    0.80    3.47
   6  -8  -8    0.78    2.84
   6   8  -8    7.20    4.19
  -6   8  -8   -0.31    2.99
  -6   8   8   -0.41    3.55
   6   8   8   -1.25    2.39
   6   8   8   -1.70    2.45
  -6   8   8    3.51    2.71
   6  -8   9   62.30    7.50
   6  -8  -9   55.07    7.48
  -6  -8  -9   51.38    7.46
   6   8  -9   53.31    6.72
  -6   8  -9   65.32    7.68
  -6   8   9   61.55    7.70
   6   8   9   58.41    6.36
   6   8   9   51.12    6.36
  -6   8   9   49.37    6.22
   6   8  -9   49.92    7.30
   6  -8  10   31.95    6.05
   6  -8 -10   35.24    6.16
  -6  -8 -10   29.34    6.11
   6   8 -10   39.02    6.45
  -6   8 -10   33.55    5.75
  -6   8  10   31.30    5.77
   6   8  10   33.22    5.10
   6   8  10   31.11    4.89
  -6   8  10   29.44    4.72
  -6  -8 -11  307.92   17.33
   6  -8 -11  313.71   17.40
   6   8 -11  315.75   16.81
   6   8  11  329.56   15.25
  -6   8 -11  298.74   15.85
  -6   8  11  307.96   16.62
   6   8  11  298.57   15.34
  -6   8  11  290.18   14.78
   6  -8  11  306.52   16.84
   6  -8  12    9.89    4.03
   6  -8 -12    6.16    3.51
  -6  -8 -12   14.27    4.89
   6   8 -12    4.33    3.23
  -6   8 -12   11.50    3.62
  -6   8  12    3.95    3.47
   6   8  12    6.93    3.10
   6   8  12   10.35    3.59
  -6   8  12    5.28    2.89
   6  -8  13    4.49    3.21
   6  -8 -13    3.29    3.73
   6   8 -13    1.95    3.23
  -6   8 -13   -0.09    3.27
  -6   8  13    2.51    3.07
   6   8  13    2.82    2.34
   6   8  13    6.42    3.28
  -6   8  13    3.79    2.47
   6  -8  14   30.21    6.48
   6  -8 -14   28.79    6.27
   6   8 -14   18.18    5.65
  -6  -8  14   30.88    6.52
  -6   8 -14   24.81    5.08
  -6   8 -14   23.76    4.87
  -6   8  14   18.43    4.92
   6   8  14   25.14    5.06
   6   8  14   26.87    5.41
  -6   8  14   30.03    5.86
   6  -8 -15  673.45   26.79
   6   8 -15  685.48   26.48
  -6   8 -15  704.31   24.83
  -6  -8  15  651.78   25.47
  -6   8 -15  713.55   24.16
  -6   8  15  696.66   25.18
   6   8  15  683.00   23.16
   6   8  15  698.39   24.91
  -6   8  15  673.15   24.43
   6  -8  15  718.80   27.52
   6  -8 -16   17.06    5.51
   6  -8  16   15.26    5.99
   6   8 -16   15.87    5.07
  -6   8 -16   12.92    4.23
   6   8 -16   17.27    4.82
  -6   8  16   15.17    4.51
   6   8  16   11.41    4.41
   6   8  16   13.34    4.38
  -6   8  16   17.71    4.96
  -6  -8  16   21.14    5.52
   6  -8 -17  271.69   17.73
   6   8 -17  292.66   17.82
  -6  -8  17  283.24   17.52
  -6   8 -17  287.96   16.74
   6   8 -17  282.40   16.58
  -6   8  17  286.58   16.28
   6   8  17  307.24   17.52
  -6   8  17  286.22   16.62
   6  -8  17  310.18   18.81
  -6  -8  18    0.78    3.21
   6  -8 -18    0.84    3.29
   6  -8  18    3.61    4.14
   6   8 -18   -0.38    3.85
  -6   8 -18   -2.51    3.00
   6   8 -18    1.38    3.55
  -6   8  18    2.43    3.60
   6   8  18    1.53    3.42
  -6   8  18   -1.26    2.70
  -6  -8  19  198.58   15.30
   6  -8 -19  203.78   15.71
  -6   8 -19  190.77   14.36
   6   8 -19  178.66   13.93
   6   8  19  203.67   14.64
  -6   8  19  182.37   13.94
   6  -8  19  198.48   15.58
  -6   8 -20   33.98    6.70
   6   8 -20   27.91    5.97
   6   8  20   36.98    7.09
  -6   8  20   38.60    7.16
  -6   8 -21  270.22   17.49
   6   8 -21  284.04   17.93
   6   8  21  256.24   17.42
  -6   8  21  244.52   16.64
   6   8 -22   47.06    7.84
   6   8  22   40.78    7.56
   6   9   0  130.38   11.00
  -6   9   0  137.36   10.48
   6   9   0  146.36   10.10
  -6   9   0  130.11   11.11
  -6  -9   0  139.17   11.32
   6   9  -1   -1.02    3.72
   6   9   1    0.29    2.67
  -6  -9   1   -0.58    3.30
  -6  -9  -1    2.48    2.74
   6   9  -1    1.04    2.06
   6   9   1    3.10    2.12
  -6   9   1    2.17    2.48
  -6   9  -1    2.60    2.63
  -6   9  -1   -2.18    3.93
  -6   9   1   -1.95    3.35
   6   9  -2   -0.77    3.01
   6   9   2    2.52    2.78
  -6  -9   2   -0.94    3.90
  -6  -9  -2    2.55    3.07
   6   9  -2    2.63    2.35
  -6   9   2   -0.67    2.92
   6   9   2    4.76    2.77
  -6   9  -2   -5.46    4.14
  -6   9  -2    2.79    3.06
  -6   9   2   -0.66    3.16
   6   9  -3   -2.01    3.47
  -6  -9  -3    1.12    2.77
   6   9  -3    2.72    2.35
  -6   9   3    1.79    2.82
   6   9   3    1.10    1.89
  -6   9  -3    0.52    2.63
  -6   9  -3   -0.02    2.78
  -6   9   3    0.26    3.25
   6   9  -4    1.37    3.05
  -6  -9  -4   -4.10    4.30
   6   9  -4    2.21    2.65
  -6   9   4    2.68    3.11
   6   9   4    1.35    2.04
  -6   9  -4    5.83    4.05
  -6   9  -4    1.10    2.91
  -6   9   4    0.89    2.88
   6  -9   4    5.05    2.76
   6   9  -5  282.96   16.55
  -6  -9  -5  266.71   16.19
  -6   9   5  306.76   15.24
   6   9  -5  278.16   14.73
  -6   9  -5  286.54   15.88
   6   9   5  275.49   13.55
  -6   9  -5  284.87   16.14
  -6   9   5  282.82   16.38
   6  -9   5  290.92   13.27
   6   9  -6  103.38   10.44
  -6  -9  -6  105.16   10.38
   6  -9  -6   90.00    9.75
   6   9  -6   97.16    8.92
   6   9   6   96.43    8.13
  -6   9  -6  106.39   10.07
  -6   9   6   90.66    9.38
   6  -9   6  108.42    9.49
   6  -9   6  102.72    8.19
   6   9  -7    3.50    3.17
  -6  -9  -7    0.66    3.96
   6  -9  -7    8.57    5.16
   6   9  -7    2.35    3.06
   6   9   7    0.49    2.12
  -6   9  -7    2.92    3.31
  -6   9   7    9.21    4.18
   6  -9   7   10.66    3.36
   6  -9   7    6.98    3.81
   6  -9   8   55.11    6.93
   6   9  -8   51.24    7.38
   6  -9  -8   51.82    7.58
  -6  -9  -8   51.94    7.57
   6   9  -8   52.51    6.76
   6   9   8   52.90    6.01
  -6   9  -8   43.71    6.51
  -6   9   8   56.78    7.80
   6  -9   8   64.34    7.01
   6  -9   9   24.00    5.18
   6   9  -9   25.15    5.94
   6  -9  -9   22.40    5.02
  -6  -9  -9   15.39    4.98
   6   9  -9   16.95    4.42
   6   9   9   20.96    4.31
  -6   9  -9   13.29    3.54
  -6   9   9   11.04    3.35
  -6   9   9   16.99    4.10
   6   9 -10   21.26    5.12
   6  -9  10   24.70    4.92
   6  -9 -10   17.61    4.73
  -6  -9 -10   20.80    5.23
   6   9 -10   20.80    4.88
  -6   9 -10   15.58    4.11
  -6   9  10   22.38    5.51
   6   9  10   20.96    4.05
   6   9  10   25.03    5.00
  -6   9  10   18.10    4.22
   6   9 -11   15.35    4.53
   6  -9  11   21.75    5.15
  -6  -9  11   25.80    5.19
   6  -9 -11   23.45    5.55
  -6  -9 -11   29.22    6.52
   6   9 -11   25.79    5.19
  -6   9 -11   20.76    4.51
  -6   9  11   26.53    5.42
   6   9  11   25.59    5.17
  -6   9  11   22.50    4.70
   6  -9  12   26.98    5.75
   6  -9 -12   20.27    5.38
  -6  -9 -12   23.53    5.83
  -6  -9  12   24.83    5.10
   6   9 -12   20.25    4.83
  -6   9 -12   12.86    4.27
  -6   9  12   22.87    5.33
   6   9  12   21.93    4.66
  -6   9  12   11.79    3.64
   6   9 -12   24.06    5.43
   6  -9  13   25.84    5.79
   6  -9 -13   13.76    4.87
  -6  -9 -13   23.49    6.23
   6   9 -13   13.27    4.37
  -6  -9  13   15.27    4.39
  -6   9 -13   11.92    3.78
  -6   9  13   20.77    5.17
   6   9  13   15.62    4.48
  -6   9  13   10.70    3.23
   6  -9  14   52.83    7.80
   6  -9 -14   41.76    7.66
   6   9 -14   40.54    6.55
  -6   9 -14   53.95    7.09
  -6   9  14   42.70    7.06
  -6  -9  14   50.19    7.17
   6   9  14   46.71    7.08
  -6   9  14   43.73    6.53
   6  -9  15    9.14    4.83
   6  -9 -15   -0.80    3.28
   6   9 -15    3.60    3.71
  -6  -9  15    3.81    3.65
  -6   9 -15    0.03    2.49
  -6   9  15   -2.39    3.33
   6   9  15   -1.37    3.04
  -6   9  15   -6.61    4.15
  -6  -9  16   10.32    4.66
   6  -9 -16    9.60    3.91
   6  -9  16    6.02    4.04
   6   9 -16   10.71    4.01
  -6   9 -16    8.56    3.42
  -6   9  16    3.52    3.19
   6   9  16   12.64    4.73
  -6   9  16    8.27    4.28
   6  -9 -17   20.38    5.79
   6  -9  17   26.36    6.41
   6   9 -17   25.02    5.97
  -6   9 -17   27.79    5.71
   6   9  17   28.27    6.10
  -6  -9  17   30.01    6.79
  -6   9  17   17.11    4.72
   6  -9  18   -0.95    3.18
  -6   9 -18    0.32    2.88
  -6  -9  18    4.88    3.80
   6   9  18   -0.55    2.76
  -6   9  18   -1.63    2.93
  -6   9 -19    4.37    3.37
   6   9 -19   -1.45    4.73
   6   9  19   -3.27    3.33
  -6   9  19    1.41    2.95
  -6   9 -20   43.46    7.31
   6   9 -20   34.34    6.59
   6   9  20   44.00    7.49
  -6   9  20   36.60    7.15
   6  10   0  169.61   13.22
   6  10   0  176.48   11.12
  -6  10   0  173.09   12.33
  -6  10   0  178.57   13.50
  -6 -10   0  172.17   13.48
   6  10  -1   16.27    4.37
  -6 -10   1   10.35    3.73
  -6 -10  -1   17.32    4.55
   6  10  -1   23.55    4.72
   6  10   1   23.40    4.59
  -6  10   1   17.51    4.34
  -6  10  -1   22.87    5.06
  -6  10  -1   23.07    5.33
  -6  10   1   26.11    5.59
   6  10  -2    8.63    3.18
  -6 -10   2   -0.76    3.62
  -6 -10  -2   12.00    4.29
   6  10  -2   12.90    3.47
   6  10   2   13.16    3.63
  -6  10   2    9.35    3.50
  -6  10  -2   11.20    4.24
  -6  10  -2    7.42    3.97
  -6  10   2    6.57    3.56
  -6 -10  -3   94.73   10.32
   6  10  -3   97.84   10.11
  -6 -10   3   95.07   10.04
   6  10  -3  101.88    8.82
  -6  10   3   86.64    9.11
   6  10   3   96.49    8.18
  -6  10  -3   88.41    9.11
  -6  10  -3   98.13   10.21
  -6  10   3   90.75    9.99
  -6 -10  -4  198.91   14.65
   6  10  -4  234.56   15.46
   6  10  -4  228.99   13.22
  -6  10   4  222.03   14.11
  -6  10  -4  203.02   14.13
  -6  10  -4  231.57   15.21
  -6  10   4  221.56   15.05
   6  10  -5   13.84    3.95
  -6 -10  -5   10.30    4.02
   6 -10  -5   16.66    5.30
  -6  10   5   19.10    4.80
   6  10  -5   19.44    4.72
  -6  10  -5   15.40    5.03
  -6  10  -5   14.83    4.89
  -6  10   5    8.48    4.33
   6  10  -6   87.21    9.60
   6 -10  -6  109.25   10.89
  -6 -10  -6   98.57   10.54
   6  10  -6   95.20    8.94
  -6  10  -6  102.69   10.42
  -6  10  -6   88.38    9.80
  -6  10   6   97.97   10.23
   6  10  -7   13.74    5.01
  -6 -10  -7   13.25    4.49
   6 -10  -7   10.52    4.36
   6  10  -7   15.46    4.02
  -6  10  -7   17.50    4.79
  -6  10   7   15.70    5.14
  -6  10  -7   14.90    5.02
   6 -10   7   15.62    4.70
   6  10  -8  219.83   15.19
  -6 -10  -8  250.03   16.61
   6 -10  -8  246.69   16.41
   6  10  -8  250.39   14.70
  -6  10  -8  245.83   15.71
  -6  10   8  239.62   16.08
   6 -10   8  232.48   14.23
   6 -10   9    3.35    3.44
   6  10  -9    5.81    3.42
   6 -10  -9    3.31    3.46
  -6 -10  -9    5.97    3.43
   6  10  -9   -2.31    3.12
  -6 -10   9   -0.39    2.82
  -6  10  -9   -2.82    3.87
  -6  10   9   -4.55    3.67
   6 -10  10   61.66    7.78
   6  10 -10   60.00    8.23
   6 -10 -10   69.79    9.08
  -6 -10 -10   55.45    8.28
   6  10 -10   70.59    8.26
  -6 -10  10   58.45    7.42
  -6  10 -10   45.20    7.08
  -6  10  10   54.11    7.72
  -6  10  10   54.41    6.89
   6  10 -11  237.89   16.43
  -6 -10 -11  226.48   16.18
   6 -10 -11  227.76   16.22
   6  10 -11  227.02   14.96
  -6 -10  11  236.13   14.73
  -6  10 -11  226.71   14.92
  -6  10  11  234.19   15.80
   6  10  11  238.69   15.19
  -6  10  11  232.84   14.71
   6 -10  11  230.31   15.28
   6  10 -12  134.50   12.06
  -6 -10 -12  163.07   14.27
   6 -10 -12  150.20   13.44
   6  10 -12  135.92   11.78
  -6 -10  12  145.95   11.86
  -6  10 -12  133.85   11.54
  -6  10  12  135.41   12.43
   6  10  12  152.01   12.42
  -6  10  12  136.32   11.51
   6 -10  12  155.57   12.78
   6  10 -13    3.96    4.01
   6 -10  13    3.27    3.95
   6 -10 -13   -2.74    3.22
  -6 -10  13   -0.93    3.10
  -6 -10 -13    2.03    4.22
   6  10 -13    0.90    3.01
  -6  10 -13   -2.22    3.68
  -6  10  13   -4.56    3.88
   6  10  13   -4.23    3.58
  -6  10  13   -2.88    3.46
   6  10 -14  249.69   16.75
   6 -10 -14  219.83   16.49
  -6 -10  14  212.93   14.90
   6  10 -14  212.78   15.04
  -6  10 -14  204.42   14.11
   6  10  14  218.95   15.21
  -6  10  14  211.46   14.76
   6 -10  14  223.73   15.86
   6  10 -15  119.19   11.84
  -6 -10  15  122.89   11.59
   6  10 -15  112.31   11.20
   6  10  15  114.79   11.29
  -6  10  15  105.05   10.71
   6 -10  15  108.37   11.40
   6 -10  16   14.65    5.53
  -6 -10  16   21.36    5.96
   6  10  16   14.45    4.90
  -6  10  16    9.00    4.02
   6  10 -16   17.24    5.23
  -6 -10  17    9.13    4.23
   6  10  17   10.51    4.09
  -6  10  17   11.61    4.98
   6  10  18  156.61   13.63
  -6  10  18  144.09   13.05
  -6 -11   0   46.07    7.54
  -6  11   0   46.48    7.26
  -6  11   0   44.76    7.16
  -6 -11   1   42.50    7.45
  -6 -11  -1   34.34    6.84
  -6  11   1   43.13    6.84
  -6  11  -1   44.61    7.18
  -6  11  -1   35.89    6.52
  -6  11   1   36.31    6.73
   6  11  -2   50.67    7.82
  -6 -11   2   43.23    7.37
  -6 -11  -2   45.72    7.69
  -6  11   2   51.30    7.50
  -6  11  -2   50.57    7.65
  -6  11  -2   50.00    7.75
  -6  11   2   54.11    7.86
  -6 -11  -3  112.88   11.63
   6  11  -3   99.44   10.41
  -6  11   3  110.76   10.42
  -6  11  -3  105.38   10.57
  -6  11  -3  111.52   11.13
  -6  11   3  103.39   10.78
  -6 -11   3  108.62   11.42
   6  11  -4   14.08    4.93
  -6 -11   4   12.89    4.72
  -6 -11  -4   12.11    4.47
  -6  11   4   19.53    4.93
  -6  11  -4   12.37    4.16
  -6  11  -4   16.62    4.95
  -6  11   4    9.51    3.97
   6  11  -5    1.99    2.79
  -6 -11  -5   -3.53    4.45
   6 -11  -5    0.02    3.55
   6  11  -5    2.05    2.07
  -6  11  -5    1.21    3.34
  -6  11  -5   -2.24    2.94
  -6  11   5   -0.34    3.74
   6  11  -6    5.86    3.52
  -6 -11  -6    1.86    4.26
   6 -11  -6    3.77    3.69
   6  11  -6    1.80    2.27
  -6  11  -6    3.64    3.24
  -6  11  -6    1.22    3.54
  -6  11   6    4.80    2.70
   6  11  -7   13.37    4.74
  -6 -11  -7    6.50    4.01
   6 -11  -7   11.80    4.44
   6  11  -7    6.57    3.03
  -6  11  -7    7.67    4.15
  -6  11  -7   10.72    3.62
  -6  11   7   -1.21    4.23
   6  11  -8   -1.49    2.93
   6 -11  -8    0.28    3.62
  -6 -11  -8    3.23    3.20
   6  11  -8   -3.12    3.37
  -6  11  -8    6.80    4.09
  -6  11  -8   -7.55    4.59
  -6  11   8   -6.30    4.80
   6 -11   8    5.29    3.13
   6  11  -9   28.27    5.80
   6 -11  -9   21.12    5.81
  -6 -11  -9   17.16    5.71
   6  11  -9   22.41    5.28
  -6  11  -9   22.34    6.33
  -6  11  -9   12.68    4.02
  -6  11   9   15.60    3.76
   6 -11   9   19.35    4.66
   6 -11  10    1.28    2.60
   6  11 -10   -0.61    3.15
   6 -11 -10    4.71    4.59
  -6 -11 -10    7.69    4.52
   6  11 -10   -2.84    3.32
  -6  11 -10   -3.64    3.98
   6 -11  11    1.06    3.09
   6  11 -11    5.32    3.63
   6 -11 -11    6.76    4.12
   6  11 -11    6.53    3.89
  -6 -11  11    4.82    2.89
   6 -11  12   63.00    8.35
   6  11 -12   65.24    8.91
   6  11 -12   68.82    8.67
  -6  11  12   58.73    8.11
  -6 -11  12   67.59    8.48
   6  11 -13   56.11    8.34
   6 -11  13   53.20    7.92
   6  11 -13   50.36    7.36
  -6 -11  13   48.63    7.33
   6  11  13   40.15    6.76
  -6  11  13   41.28    6.98
   6  11 -14   17.78    5.10
   6 -11  14   18.70    5.15
   6  11 -14   14.23    4.70
  -6 -11  14   16.17    5.08
   6  11  14   20.11    5.49
  -6  11  14   16.46    5.02
   6 -11  15    2.78    3.24
  -6 -11  15    8.23    3.81
   6  11  15    1.21    2.79
  -6  11  15    5.09    3.19
  -6 -11  16   50.16    8.01
   6  11  16   39.19    7.21
  -6  11  16   33.87    6.76
  -6 -12   0   47.25    7.92
  -6  12   0   53.67    7.96
  -6 -12   1   57.33    8.80
  -6 -12  -1   49.57    8.26
  -6  12   1   53.16    7.79
  -6  12  -1   63.58    8.87
  -6 -12  -2  112.37   12.05
  -6  12   2  118.97   11.66
  -6  12  -2  101.25   10.95
  -6 -12   2  125.10   12.67
  -6 -12   3   76.20    9.86
  -6 -12  -3   76.64   10.02
  -6  12   3   70.55    9.05
  -6  12  -3   72.94    9.59
   6  12  -4   57.26    8.59
  -6 -12   4   48.48    8.06
  -6 -12  -4   39.47    7.43
   6 -12  -4   51.62    8.60
  -6  12   4   48.76    7.78
  -6  12  -4   59.71    8.60
   6  12  -5   25.42    5.92
   6 -12  -5   24.78    6.06
  -6  12  -5   13.67    4.69
   6  12  -6    9.11    3.81
  -6  12  -6   12.48    5.04
   6  12  -7    0.46    3.05
  -6  12  -7    8.24    3.95
   6  12  -8   28.16    6.09
  -6  12  -8   37.48    7.92
   6  12  -9   56.60    8.41
   6  12 -10   13.27    4.72
  -6  13   0   59.08    8.74
  -6  13   1   10.89    4.66
  -6  13  -1   14.48    4.70
  -6  13   2   22.57    5.85
  -6  13  -2   19.71    5.77
  -6  13   3   21.15    5.79
  -7   0   0   -0.35    1.66
   7   0   0    0.89    2.87
  -7   0  -1    1.49    1.52
   7   0  -1   -1.54    3.14
   7   0   1    1.09    2.71
  -7   0  -2 1437.52   20.55
   7   0  -2 1457.50   30.80
   7   0   2 1427.81   30.56
   7   0   3    1.71    2.32
  -7   0  -3   -2.96    2.02
   7   0  -3   -1.45    2.82
   7   0   3    3.37    3.55
   7   0   4  754.46   18.92
  -7   0  -4  763.20   14.89
   7   0  -4  737.65   22.36
   7   0   4  738.71   22.32
   7   0   5    2.43    2.65
   7   0  -5    2.55    1.73
  -7   0  -5    5.57    2.20
   7   0  -5    7.10    3.43
   7   0   5   10.03    4.66
   7   0   6  212.02   10.12
   7   0  -6  198.22    8.35
   7   0  -6  200.70   11.89
   7   0   6  209.39   12.20
  -7   0   6  204.14    5.35
   7   0   7    2.25    2.05
   7   0  -7    0.77    1.46
   7   0  -7    0.05    2.92
   7   0  -7    2.77    0.86
   7   0   7    4.31    3.37
  -7   0   7    2.16    1.26
   7   0  -8  856.24   17.67
   7   0  -8  837.88   24.51
   7   0  -8  866.05   12.98
   7   0   8  871.44   25.40
   7   0   8  859.29   13.10
   7   0  -9    5.40    2.35
   7   0  -9    4.06    3.44
   7   0   9    5.36    4.08
   7   0   9    1.62    1.49
   7   0 -10  142.29    7.59
   7   0 -10  130.60    9.99
   7   0  10  135.51   10.66
   7   0  10  134.41    6.42
   7   0 -11    1.06    1.80
   7   0 -11   -0.71    3.09
   7   0  11   -3.12    3.86
   7   0  11   -0.37    1.39
   7   0 -12  252.04   14.52
   7   0  12  249.52   14.34
   7   0  12  252.87   14.70
   7   0 -13    7.51    5.44
   7   0  13   24.19    6.48
   7   0 -14 1471.85   35.22
   7   0  14 1446.39   34.92
   7   0  15   14.41    5.89
   7   0 -15    8.67    4.85
   7   0 -16 1019.84   31.00
   7   0  16 1108.59   31.79
   7   0  17    9.57    7.25
   7   0 -17    8.31    4.90
   7   0 -18   96.65    9.98
   7   0  18   98.30   10.42
   7   0  19    7.41    5.00
   7   0 -19   -0.08    3.56
   7   0 -20  232.58   15.89
   7   0  20  226.01   15.74
   7   0  21   -4.90    3.98
   7   0 -21   -1.70    3.02
   7   0  22   80.04    9.78
   7   0 -22   75.84    9.66
  -7   0  23    2.31    4.29
   7   0  23    6.69    5.21
   7   0 -23    4.86    4.55
  -7   1   0   -2.16    1.53
   7   1   0   -5.06    3.58
   7  -1   0   -1.73    3.32
  -7  -1   0   -2.30    2.23
  -7   1  -1  315.94    8.18
   7   1  -1  311.75   14.73
   7  -1  -1  311.76   14.54
   7   1   1  330.01   14.88
   7  -1   1  302.97   14.08
  -7  -1  -1  316.31   10.88
   7   1   2  510.55   16.84
  -7  -1  -2  518.47   13.84
  -7   1  -2  508.69   10.13
  -7   1   2  508.77    8.60
   7   1  -2  500.26   18.49
   7  -1  -2  537.73   18.53
   7   1   2  521.88   18.58
   7  -1   2  500.17   18.13
   7   1   3  246.32   11.45
  -7  -1  -3  233.90    9.36
  -7   1  -3  237.89    6.89
  -7   1   3  211.44    4.44
   7   1  -3  246.61   12.89
   7  -1  -3  241.19   12.62
   7   1   3  249.99   12.99
   7  -1   3  228.24   12.39
   7  -1   4  139.93    7.87
   7   1   4  152.44    8.99
  -7  -1  -4  140.26    7.33
   7   1  -4  139.67    9.95
   7  -1  -4  147.66   10.07
   7   1   4  147.39   10.25
   7  -1   4  154.43   10.48
   7  -1   5    8.22    2.44
   7   1   5    7.28    2.95
   7   1  -5    3.87    1.71
  -7  -1  -5    1.46    1.94
   7   1  -5    2.67    3.56
   7  -1  -5    7.19    3.72
   7   1   5    4.08    3.60
  -7   1   5    2.25    0.56
   7  -1   5    1.15    3.27
   7  -1   6  481.06   14.24
   7   1   6  475.35   15.93
  -7  -1  -6  475.75   13.76
   7   1  -6  497.18   11.63
   7  -1  -6  487.53   14.37
   7   1  -6  483.95   18.63
   7  -1  -6  467.94   17.77
  -7   1  -6  480.46    8.63
   7   1   6  490.71   18.61
   7  -1   6  493.39   18.69
  -7   1   6  492.21    8.44
   7  -1   7   28.95    3.52
   7   1   7   31.88    4.38
   7   1  -7   30.19    3.00
   7  -1  -7   27.67    3.53
   7   1  -7   25.74    4.67
  -7   1  -7   31.32    2.67
   7  -1  -7   33.41    5.45
   7   1  -7   28.66    2.20
   7   1   7   32.34    2.50
  -7   1   7   32.23    2.68
   7   1   7   32.16    5.39
   7  -1   7   29.83    5.32
   7   1  -8  386.02   10.57
   7  -1  -8  364.63   12.68
   7   1  -8  381.74   16.80
   7  -1  -8  365.97   16.10
   7   1  -8  391.03    9.18
   7   1   8  377.49   16.83
   7  -1   8  413.38   17.48
   7   1   8  380.11    9.18
  -7   1   8  384.99    9.80
   7   1  -9  284.55    9.24
   7  -1  -9  278.37   11.29
   7   1  -9  264.90   14.26
   7  -1  -9  290.73   14.34
   7   1  -9  293.95    8.80
   7   1   9  281.51   14.86
   7  -1   9  288.10   15.05
   7   1   9  280.40    8.71
  -7   1   9  278.61    9.21
   7  -1 -10   53.42    5.15
   7   1 -10   48.50    6.77
   7  -1 -10   55.71    6.70
   7   1 -10   54.80    4.37
   7  -1  10   53.28    6.73
   7   1  10   54.79    4.34
  -7   1  10   58.58    4.74
   7   1  10   48.01    6.71
   7  -1  10   63.33    7.69
   7  -1 -11  349.43   13.12
   7   1 -11  373.98   17.44
   7  -1 -11  345.48   16.62
   7  -1  11  395.01   17.77
   7   1  11  359.06   17.32
   7   1  11  353.46   11.33
  -7   1  11  340.01   11.44
   7  -1  11  372.84   17.94
   7  -1 -12  760.44   19.62
   7   1 -12  775.16   25.12
   7  -1 -12  719.44   23.79
   7   1  12  760.27   24.37
   7  -1  12  757.77   24.80
   7   1  12  783.55   25.54
   7   1  12  772.26   17.61
   7  -1  13   18.09    5.41
   7  -1 -13   21.72    3.83
   7   1 -13   18.88    5.20
   7  -1 -13   15.29    4.51
   7   1  13   16.50    5.10
   7   1  13   11.80    4.49
   7   1  13   16.10    3.24
   7   1 -14  120.78   10.69
   7  -1 -14  128.97   10.44
   7   1  14  146.83   11.34
   7  -1  14  137.29   11.17
   7   1  14  132.33    8.30
   7  -1  15   -0.75    3.02
   7   1 -15   -3.52    3.77
   7  -1 -15    3.71    3.50
   7   1  15    1.32    2.46
   7   1  15   -2.74    2.87
   7   1  16    3.22    3.60
   7  -1  16    0.09    3.09
   7   1 -16   -1.91    3.59
   7  -1 -16    2.53    2.64
   7   1  16    1.76    2.50
   7   1  17   19.10    4.39
   7  -1  17   19.11    5.27
   7  -1 -17   24.81    5.41
   7   1 -17   32.78    6.61
   7   1  17   23.57    4.26
   7   1  18    9.93    4.44
   7  -1  18   15.27    4.94
   7  -1 -18    0.81    3.28
   7   1 -18    5.15    3.39
   7   1  19    8.73    3.95
   7  -1  19   12.87    4.98
   7  -1 -19    6.04    3.50
   7   1 -19    6.44    3.72
   7   1  20    1.41    2.89
   7  -1  20   -1.66    3.31
   7  -1 -20    2.80    3.49
   7   1 -20    5.55    4.69
   7   1  21   -1.60    3.21
   7  -1  21    2.23    2.71
   7  -1 -21    0.97    3.45
   7   1 -21   -9.66    6.02
   7   1  22    0.19    3.50
   7  -1  22    0.91    3.40
   7  -1 -22   -7.06    5.01
   7   1 -22   -1.70    3.09
   7   1  23    1.70    2.97
   7  -1  23   -1.79    4.25
   7  -1 -23    3.14    3.87
   7   1 -23   -6.02    3.87
  -7   1  23   -2.98    4.41
   7   1  24   -2.27    3.05
  -7   2   0   -1.55    0.99
   7   2   0   -5.05    3.70
   7  -2   0   -0.37    3.00
  -7  -2   0   -2.75    3.19
  -7   2  -1  578.58    7.64
   7   2  -1  622.86   20.72
   7  -2  -1  594.47   19.51
   7   2   1  602.74   20.31
   7  -2   1  586.36   19.33
  -7   2   1  618.37    9.92
  -7  -2  -1  600.06   16.44
   7   2   1  626.76   19.25
  -7  -2  -2  153.36    8.35
   7   2   2  145.83    9.60
  -7   2   2  164.83    5.94
   7   2  -2  157.47   10.86
   7  -2  -2  157.90   10.27
   7   2   2  171.21   11.16
   7  -2   2  174.91   10.76
   7   2   3  118.67    8.31
  -7  -2  -3  117.47    7.34
  -7   2   3  129.15    4.84
   7   2  -3  125.55    9.30
   7  -2  -3  129.54    9.34
  -7  -2  -3  114.63    3.50
   7   2   3  117.22    9.26
   7  -2   3  110.64    8.57
   7  -2   4    0.85    1.69
   7   2   4    3.82    3.13
  -7  -2  -4    1.07    1.91
   7   2  -4   -0.22    0.84
   7   2  -4    6.83    4.69
   7  -2  -4   10.47    3.95
   7   2   4    7.95    3.72
   7  -2   4    8.36    3.99
   7  -2   5 1714.84   25.33
   7   2   5 1716.97   31.29
  -7  -2  -5 1685.37   27.67
   7   2  -5 1731.90   17.31
   7   2  -5 1745.44   34.72
   7  -2  -5 1674.24   33.04
   7   2   5 1705.98   34.04
   7  -2   5 1750.85   34.32
  -7   2   5 1709.04   15.02
   7  -2   6   93.53    6.02
   7   2   6   99.77    7.84
  -7  -2  -6   90.60    6.71
   7   2  -6   96.26    4.11
   7  -2  -6  106.44    7.49
   7   2  -6   99.34    8.93
   7  -2  -6  111.17    8.96
   7   2   6  101.08    9.31
   7   2   6  102.35    4.32
   7  -2   6  108.86    9.56
  -7   2   6  101.04    4.33
   7  -2   7  314.80   10.67
   7   2   7  323.17   13.74
  -7  -2  -7  322.41   12.65
   7  -2  -7  311.18   12.46
   7   2  -7  338.68   15.76
   7  -2  -7  334.47   14.92
  -7   2  -7  319.07    8.69
   7   2   7  331.57   15.57
   7   2   7  320.25    8.42
   7  -2   7  337.79   15.71
  -7   2   7  329.94    8.70
  -7  -2  -8   93.62    7.13
   7  -2  -8   91.10    6.89
   7   2  -8   94.91    8.61
   7  -2  -8   99.95    8.30
  -7   2  -8   90.15    5.09
   7   2  -8   99.81    5.10
   7   2   8   97.98    8.75
   7   2   8   87.68    4.91
   7  -2   8   96.27    8.90
  -7   2   8   92.42    5.10
   7  -2  -9   -0.02    2.31
   7   2  -9   -1.31    2.86
   7  -2  -9   -4.47    3.67
  -7   2  -9   -0.01    1.55
   7   2  -9    0.05    1.41
   7  -2   9   -0.13    3.44
   7   2   9   -2.00    2.84
   7   2   9    1.71    1.45
   7  -2   9    5.12    3.63
  -7   2   9    0.22    1.30
   7  -2 -10  547.43   17.21
   7   2 -10  542.38   20.80
   7  -2 -10  554.32   19.88
   7   2 -10  547.88   13.73
   7  -2  10  552.26   20.81
   7   2  10  541.55   20.53
   7   2  10  523.86   13.45
  -7   2  10  563.16   14.21
   7  -2  10  567.66   21.13
   7  -2 -11  109.36    8.00
   7   2 -11  109.97    9.95
   7  -2 -11  102.83    8.92
   7   2 -11  122.67    7.01
   7  -2  11   99.30    9.28
   7   2  11  122.30   10.09
   7   2  11  108.54    6.52
  -7   2  11  113.71    6.89
   7  -2  12   38.18    6.75
   7  -2 -12   29.47    4.36
   7   2 -12   30.49    5.65
   7  -2 -12   27.42    4.94
   7   2 -12   33.86    4.09
   7   2  12   32.34    5.83
   7   2  12   30.73    3.82
  -7   2  12   34.85    4.15
   7  -2 -13  335.93   14.24
   7   2 -13  348.28   17.64
   7  -2 -13  343.75   16.56
   7   2 -13  329.41   12.49
   7  -2  13  339.92   17.29
   7   2  13  342.21   12.79
   7   2  13  322.19   16.73
  -7   2  13  351.74   13.13
   7  -2  14    3.45    3.44
   7  -2 -14    2.77    2.11
   7   2 -14   -2.34    3.70
   7  -2 -14    1.28    2.65
   7   2  14    2.68    3.39
   7   2  14    1.10    3.04
   7   2  14    4.44    2.44
  -7   2  14    1.08    2.10
   7  -2 -15  100.56    8.29
   7   2 -15   93.90    9.80
   7  -2 -15  109.26    9.78
   7   2  15   96.74    9.34
   7  -2  15  107.00   10.24
   7   2  15  110.69    8.01
  -7   2  15   98.18    7.71
   7   2  15  113.46   10.55
   7   2 -16  235.40   15.05
   7  -2 -16  254.19   15.09
   7   2  16  254.10   14.96
   7   2  16  271.84   12.88
   7  -2  16  272.43   16.35
  -7   2  16  256.59   12.79
   7  -2  17   70.73    9.08
   7  -2 -17   50.25    7.24
   7   2 -17   42.57    6.92
   7   2  17   51.60    6.23
   7   2  17   47.03    7.04
  -7   2  17   55.96    6.53
   7   2  18   12.30    5.72
   7  -2  18   13.13    5.85
   7  -2 -18    5.96    3.57
   7   2 -18    4.18    5.14
  -7   2  18    3.80    3.33
   7  -2 -19  431.36   20.58
   7   2 -19  431.26   21.70
   7   2  19  414.46   20.19
  -7   2  19  433.29   18.18
   7  -2  19  409.63   21.11
   7  -2 -20  372.97   19.48
   7   2 -20  394.54   21.20
   7   2  20  387.50   19.96
  -7   2  20  411.06   18.24
   7  -2  20  382.68   20.73
   7   2  21   27.33    6.56
   7  -2  21   13.22    4.53
   7  -2 -21   14.38    4.84
   7   2 -21   15.44    5.75
  -7   2  21   19.58    4.98
   7   2  22   11.10    5.00
   7  -2  22    6.81    4.79
   7  -2 -22    4.66    3.65
   7   2 -22    4.61    3.89
  -7  -2  22    6.43    3.83
  -7   2  22   10.89    4.33
   7   2  23  230.47   15.92
  -7   2  23  236.40   16.36
   7   2  24   15.91    4.94
  -7   2  24   13.65    5.12
   7   3   0    4.08    2.79
   7   3   0   -1.16    3.02
   7  -3   0   -3.00    3.26
  -7  -3   0   -4.19    2.91
   7   3   1   49.29    5.76
  -7  -3  -1   37.43    4.44
  -7   3   1   43.68    3.97
   7   3  -1   45.42    6.31
   7   3   1   44.23    5.96
   7  -3  -1   47.60    5.51
   7  -3   1   39.68    5.49
   7   3   2   56.38    6.12
  -7  -3  -2   49.03    5.27
   7   3  -2   56.35    6.60
  -7   3   2   56.68    4.18
   7  -3  -2   52.05    5.93
   7   3   2   55.21    6.55
   7  -3   2   63.66    6.56
   7   3   3    3.62    2.68
  -7  -3  -3    3.46    2.25
  -7   3   3    6.37    1.67
   7   3  -3    5.49    3.09
   7  -3  -3    2.21    2.47
   7   3   3    9.50    3.75
   7  -3   3    2.98    2.74
   7   3   4   87.96    7.57
  -7  -3  -4   78.06    6.66
  -7   3   4   87.37    4.67
   7   3  -4   80.53    8.19
   7  -3  -4   92.13    7.93
   7   3   4   89.51    8.43
   7  -3   4   99.83    8.51
   7  -3   5  909.77   17.10
   7   3   5  879.53   23.61
  -7  -3  -5  901.74   21.78
   7   3  -5  909.36   25.60
   7  -3  -5  911.64   24.05
   7   3   5  885.18   24.83
   7  -3   5  899.16   24.89
   7  -3   6   16.55    2.62
   7   3   6   27.87    5.03
  -7  -3  -6   23.26    4.37
   7   3  -6   30.68    6.15
   7  -3  -6   26.01    4.88
   7   3   6   34.57    6.08
  -7   3   6   20.18    2.44
   7  -3   6   24.74    5.84
   7  -3   7  182.22    7.22
   7   3   7  194.85   11.26
  -7  -3  -7  173.36    9.85
   7  -3  -7  176.20   10.08
   7   3  -7  180.81   12.02
   7  -3  -7  177.13   11.21
  -7   3  -7  190.56    7.36
   7   3   7  180.34   11.58
   7   3   7  184.22    7.33
  -7   3   7  180.85    7.11
   7  -3   7  186.31   11.95
  -7  -3  -8  130.32    8.81
   7  -3  -8  132.29    8.74
   7   3  -8  132.27   10.35
   7  -3  -8  131.56    9.55
  -7   3  -8  131.29    6.50
   7   3   8  128.32    9.91
   7   3   8  128.76    6.51
  -7   3   8  134.38    6.54
   7  -3   8  130.34   10.08
  -7  -3  -9  114.53    8.60
   7  -3  -9  126.85    8.72
   7   3  -9  132.26   10.46
   7  -3  -9  120.85    9.28
  -7   3  -9  128.27    6.81
   7   3  -9  134.14    6.91
   7   3   9  116.79    9.55
   7  -3   9  122.42   10.14
   7   3   9  117.87    6.53
  -7   3   9  124.13    6.74
   7  -3   9  113.81    9.58
   7  -3 -10   -1.28    2.67
   7   3 -10   -3.40    3.79
   7  -3 -10    3.44    2.48
  -7   3 -10    1.75    1.34
   7   3 -10    0.90    1.34
   7   3  10    4.78    3.21
   7   3  10    0.67    1.46
  -7   3  10   -0.87    1.92
   7  -3  10    0.05    3.38
   7  -3  10    5.78    3.74
   7  -3 -11  285.22   13.51
   7   3 -11  312.63   16.20
   7  -3 -11  297.87   14.66
  -7   3 -11  310.36   11.79
   7   3 -11  306.05   11.44
   7   3  11  281.97   15.20
   7  -3  11  317.83   16.51
   7   3  11  316.91   11.67
  -7   3  11  301.57   11.53
   7  -3 -12  181.40   10.89
   7   3 -12  177.68   12.44
   7  -3 -12  193.40   12.06
  -7   3 -12  181.26    9.51
   7   3 -12  173.90    9.11
   7   3  12  163.38   11.87
   7   3  12  170.53    9.00
   7  -3  12  197.92   13.47
  -7   3  12  180.07    9.34
   7  -3  13   62.80    7.88
   7  -3 -13   57.57    6.46
   7   3 -13   63.44    7.63
   7  -3 -13   67.98    7.55
  -7   3 -13   71.61    6.31
   7   3 -13   68.84    6.10
   7   3  13   59.53    5.60
  -7   3  13   64.01    5.92
   7   3  13   62.87    7.72
   7  -3  14    5.49    3.64
   7  -3 -14    9.84    3.26
   7   3 -14    8.23    3.35
   7  -3 -14    8.45    3.13
   7   3 -14    6.16    2.41
   7   3  14    5.41    3.11
   7   3  14    5.58    2.11
  -7   3  14    8.30    2.72
   7  -3  15   52.70    7.48
   7  -3 -15   60.41    7.03
   7   3 -15   53.49    7.88
   7  -3 -15   57.98    7.12
   7   3  15   60.56    6.13
   7   3  15   56.69    7.73
  -7   3  15   56.65    6.14
   7  -3 -16    8.80    3.41
   7  -3  16    8.47    4.23
   7  -3 -16    3.67    2.86
   7   3 -16    6.98    4.00
   7   3  16   -1.70    2.89
   7   3  16    7.37    4.11
   7   3  16    4.20    2.07
  -7   3  16    3.56    2.47
   7  -3  17   32.43    5.98
   7  -3 -17   35.11    5.76
   7   3 -17   43.58    7.48
   7   3  17   48.85    6.95
   7   3  17   31.77    6.11
   7   3  17   39.99    5.60
  -7   3  17   44.04    5.84
   7  -3  18   10.97    4.28
   7  -3 -18    0.25    2.72
   7   3 -18    2.59    3.03
   7   3  18    3.81    3.32
  -7   3  18    1.79    2.53
   7  -3  19    2.72    3.05
   7  -3 -19    2.58    3.85
   7   3 -19    0.26    3.14
   7   3  19    4.52    3.15
  -7   3  19    5.75    2.93
   7  -3  20    1.57    3.45
   7  -3 -20   -0.35    3.05
   7   3 -20   -0.69    3.76
  -7   3  20    0.32    2.39
   7   3  20    0.62    2.84
   7   3  21    1.52    2.74
   7  -3  21   -1.30    3.37
   7  -3 -21   -1.29    3.56
   7   3 -21   -4.61    4.97
  -7   3  21    4.63    3.14
   7   3  22    0.36    2.61
   7  -3 -22   -3.15    3.55
   7   3  23    1.61    3.17
  -7   3  23   13.93    4.85
   7   3  24   47.50    7.61
  -7   3  24   62.72    8.52
   7   3  25   10.07    3.79
   7   4   0   -1.34    2.22
  -7  -4   0   -1.81    2.79
   7   4   0   -4.61    3.85
   7  -4   0   -1.89    3.00
   7   4  -1  239.32   13.00
   7   4   1  236.07   13.06
  -7   4   1  233.92    9.58
   7   4  -1  240.54   13.16
   7   4   1  222.50   12.79
   7  -4  -1  215.07   11.69
   7  -4   1  229.91   12.14
  -7  -4  -1  236.63   11.84
   7   4   2  801.16   23.50
  -7   4   2  786.97   16.88
   7   4  -2  828.79   24.27
   7  -4  -2  776.35   22.08
   7   4   2  808.05   23.58
   7  -4   2  806.25   22.52
  -7  -4  -2  799.69   21.84
   7   4   3   26.41    4.78
  -7  -4  -3   17.82    3.61
  -7   4   3   26.20    3.16
   7   4  -3   25.16    5.24
   7  -4  -3   23.35    3.86
   7   4   3   25.45    4.83
   7  -4   3   27.13    4.77
  -7  -4  -4 1023.06   24.64
   7   4   4 1019.81   26.58
  -7   4   4 1007.82   18.29
   7   4  -4 1047.47   27.55
   7  -4  -4 1043.62   25.42
   7   4   4 1015.53   26.68
   7  -4   4 1044.21   26.37
   7  -4   5  224.94    7.80
   7   4   5  221.14   12.87
  -7  -4  -5  219.18   11.77
   7   4  -5  246.02   13.80
   7  -4  -5  220.16   11.91
   7   4   5  237.99   13.29
   7  -4   5  236.44   13.06
   7   4   6  203.41   12.16
  -7  -4  -6  193.93   10.90
   7   4  -6  218.36   12.94
   7  -4  -6  185.03   11.04
   7   4   6  211.82   12.34
  -7   4   6  201.29    7.91
   7  -4   6  208.75   12.32
  -7  -4  -7   25.80    4.56
   7  -4  -7   32.25    4.81
   7   4  -7   35.46    5.87
   7  -4  -7   32.17    4.99
   7   4   7   36.60    5.54
   7   4   7   33.43    3.61
  -7   4   7   31.81    3.35
   7  -4   7   35.46    5.53
  -7  -4  -8  198.95   11.46
   7  -4  -8  215.74   11.94
   7   4  -8  196.73   12.57
   7  -4  -8  205.49   11.83
   7   4   8  193.19   12.20
   7  -4   8  208.24   12.82
   7   4   8  199.66    8.82
  -7   4   8  208.40    8.85
   7  -4   8  193.38   12.16
  -7  -4  -9  293.83   14.01
   7  -4  -9  291.29   13.90
   7   4  -9  318.25   16.20
   7  -4  -9  302.54   14.22
  -7   4  -9  317.57   11.42
   7   4   9  308.39   15.29
   7   4   9  322.78   11.54
   7  -4   9  323.27   16.21
  -7   4   9  297.58   11.01
   7  -4   9  303.72   15.53
   7  -4 -10   19.11    3.79
  -7  -4 -10   29.25    5.10
   7   4 -10   21.47    4.63
   7  -4 -10   21.24    4.39
  -7   4 -10   20.96    3.21
   7   4 -10   21.36    3.11
   7   4  10   19.59    4.34
   7   4  10   21.03    3.28
  -7   4  10   25.34    3.55
   7  -4  10   15.34    3.82
   7  -4  10   21.62    5.23
   7  -4  11   -1.00    2.52
   7  -4 -11   -0.41    2.58
   7   4 -11    4.73    3.64
   7  -4 -11    5.37    2.46
  -7   4 -11   -0.71    1.46
   7   4 -11   -3.47    2.50
   7   4  11   -0.15    2.48
   7   4  11    0.47    1.86
  -7   4  11    2.11    2.21
   7  -4  12    9.98    4.25
   7  -4 -12   10.81    3.22
   7   4 -12    7.19    3.37
   7  -4 -12    8.82    3.35
  -7   4 -12    8.14    2.57
   7   4 -12   13.62    3.22
   7   4  12   12.68    3.97
   7   4  12   14.86    3.47
  -7   4  12    7.91    2.40
   7  -4 -13  292.12   14.85
   7   4 -13  281.93   16.21
   7  -4 -13  310.89   15.58
  -7   4 -13  300.30   13.10
   7   4 -13  301.29   12.97
   7   4  13  304.37   16.13
   7   4  13  315.44   13.20
  -7   4  13  285.71   12.65
   7  -4  13  294.32   16.62
   7  -4  14    3.41    3.21
   7  -4 -14    1.79    2.49
   7   4 -14    2.28    2.89
   7  -4 -14    4.07    3.01
  -7   4 -14   -0.43    2.04
   7   4 -14    1.69    1.80
   7   4  14    1.44    2.66
   7   4  14    0.14    1.98
  -7   4  14    4.17    2.16
   7  -4  15   21.21    5.03
   7  -4 -15   23.90    5.03
   7   4 -15   16.77    4.78
   7  -4 -15   22.97    4.88
  -7   4 -15   18.27    3.98
   7   4  15   21.23    5.12
   7   4  15   14.05    3.10
  -7   4  15   23.36    4.31
   7  -4 -16  137.20   10.74
   7  -4 -16  137.62   10.83
   7   4 -16  142.45   12.44
  -7   4 -16  135.04    9.71
   7   4  16  135.45    9.66
   7   4  16  140.75   11.78
  -7   4  16  147.48   10.16
   7  -4  16  126.90   11.70
   7  -4 -17  131.46   10.72
   7  -4 -17  129.29   10.68
   7   4 -17  145.30   12.94
  -7   4 -17  127.69    9.81
  -7   4  17  122.31    9.80
   7   4  17  127.69    9.71
  -7   4  17  137.84   10.12
   7   4  17  131.29   11.81
   7  -4  17  136.68   12.41
   7  -4 -18  140.18   11.39
   7   4 -18  133.99   12.30
  -7   4  18  145.65   10.66
  -7   4  18  130.77   10.13
   7   4  18  123.02   11.43
   7  -4  18  145.63   12.95
   7  -4  19   74.89    9.90
   7  -4 -19   74.92    8.60
   7   4 -19   66.29    9.07
   7   4  19   59.00    7.71
   7   4  19   63.88    8.82
  -7   4  19   70.66    7.88
   7  -4 -20  167.95   12.93
   7   4 -20  160.98   13.68
   7   4  20  151.77   12.05
  -7   4  20  171.80   12.23
   7  -4  20  170.04   14.35
   7   4  20  166.99   13.53
   7  -4  21    7.59    4.07
   7  -4 -21    6.06    3.55
   7   4 -21    1.55    3.10
  -7  -4  21    4.37    3.57
   7   4  21    3.89    2.92
   7   4  22   19.25    4.74
  -7   4  23   11.65    4.15
   7   4  23   14.86    4.74
  -7   4  24   34.49    6.56
   7   5   0   -0.03    2.68
  -7  -5   0   -5.20    3.11
   7   5   0   -1.06    2.49
  -7   5   0    0.43    1.82
   7  -5   0    3.86    3.03
   7   5  -1    8.41    3.37
   7   5   1    9.28    3.58
  -7  -5  -1    6.44    2.71
   7   5  -1    7.28    3.24
  -7   5   1    7.83    2.69
   7   5   1   17.20    4.54
   7  -5  -1    4.75    2.74
   7  -5   1    9.21    2.92
   7   5  -2   46.61    6.41
   7   5   2   37.05    5.74
  -7  -5  -2   32.74    5.10
   7   5  -2   31.86    5.33
  -7   5   2   35.31    4.13
   7   5   2   30.47    5.13
   7  -5  -2   38.36    5.33
   7  -5   2   38.30    5.34
   7   5   3   69.50    7.32
  -7  -5  -3   52.00    6.18
  -7   5   3   55.22    4.93
   7   5  -3   63.82    7.14
   7  -5  -3   56.54    5.94
   7   5   3   62.66    6.83
   7  -5   3   66.72    6.66
   7   5  -3   62.15    7.36
   7   5   4   24.21    4.73
  -7  -5  -4   18.35    3.95
  -7   5   4   28.55    3.83
   7   5  -4   24.54    4.96
   7  -5  -4   25.68    4.36
   7   5   4   15.04    3.66
   7  -5   4   24.87    4.67
   7   5   5   11.52    3.64
  -7  -5  -5    6.95    2.94
  -7   5   5   10.10    2.34
   7   5  -5   13.98    4.22
   7  -5  -5   10.96    3.00
   7   5   5    8.81    3.33
   7  -5   5   11.35    3.59
   7   5   6  128.57   10.02
  -7  -5  -6  125.33    9.54
   7   5  -6  145.97   10.85
   7  -5  -6  142.58    9.45
   7   5   6  117.87    9.37
   7  -5   6  129.97    9.83
  -7  -5  -7  171.14   10.98
   7  -5  -7  186.85   11.61
   7   5  -7  177.70   12.10
   7  -5  -7  180.44   10.75
   7   5   7  172.79   11.30
  -7   5   7  169.41    8.30
   7  -5   7  176.56   11.37
   7  -5  -8   17.42    4.21
  -7  -5  -8   14.56    4.17
   7   5  -8   13.04    3.68
   7  -5  -8   15.10    3.95
   7  -5   8   14.58    4.15
   7   5   8   14.15    4.02
   7   5   8   13.23    2.69
  -7   5   8   13.00    2.67
   7  -5   8    9.40    3.34
   7  -5  -9   -1.87    2.08
  -7  -5  -9    7.99    3.72
   7   5  -9    0.65    2.91
   7  -5  -9    1.06    2.15
   7   5   9    1.70    2.30
   7   5   9    3.66    2.00
  -7   5   9    3.44    1.83
   7  -5   9   -0.35    3.16
   7  -5   9    0.20    2.68
   7  -5  10    0.85    2.88
   7  -5 -10   -2.91    3.00
  -7  -5 -10    4.49    3.52
   7   5 -10   -2.06    3.37
   7  -5 -10   -1.76    2.14
  -7   5 -10   -2.45    2.39
   7   5  10    1.59    2.64
   7   5  10   -1.10    1.83
  -7   5  10   -1.47    1.95
   7  -5  11   67.31    8.14
   7  -5 -11   54.17    6.86
  -7  -5 -11   55.26    6.89
   7   5 -11   56.06    7.20
   7  -5 -11   62.37    6.86
  -7   5 -11   53.82    5.36
   7   5  11   61.37    5.74
  -7   5  11   64.30    5.90
   7   5  11   60.36    7.30
   7  -5  12   30.28    5.98
   7  -5 -12   18.89    4.32
   7   5 -12   28.49    5.94
   7  -5 -12   25.63    4.36
  -7   5 -12   25.21    3.98
   7   5 -12   25.80    4.08
   7   5  12   24.83    4.92
   7   5  12   21.40    3.83
  -7   5  12   22.23    3.85
   7  -5  13    4.41    2.95
   7  -5 -13    1.65    2.95
   7   5 -13    2.54    2.86
   7  -5 -13    2.29    2.67
  -7   5 -13   -1.33    2.19
   7   5 -13   -0.36    1.67
   7   5  13    2.87    2.95
   7   5  13    0.38    2.30
  -7   5  13    0.69    2.12
   7  -5  14   17.11    5.14
   7  -5 -14   10.27    3.49
   7   5 -14   18.14    4.90
   7  -5 -14   14.19    3.68
  -7   5 -14   12.15    3.33
  -7   5  14   10.24    3.48
   7   5  14   15.06    4.95
   7   5  14   12.75    3.14
  -7   5  14   13.26    3.02
   7  -5  15   39.75    7.13
   7  -5 -15   43.13    6.53
   7  -5 -15   44.23    6.02
   7   5 -15   40.05    6.96
  -7   5 -15   36.12    5.19
  -7   5  15   40.78    5.89
   7   5  15   42.40    6.70
   7   5  15   34.22    4.94
  -7   5  15   35.59    5.10
   7  -5  16   65.00    8.86
   7  -5 -16   49.63    7.05
   7  -5 -16   41.51    6.04
   7   5 -16   44.66    7.37
  -7   5 -16   47.36    6.00
  -7   5  16   48.01    6.48
   7   5  16   51.86    7.70
   7   5  16   52.33    6.48
  -7   5  16   46.46    5.88
   7  -5  17   30.62    6.55
   7  -5 -17   27.49    5.64
   7  -5 -17   27.98    5.31
   7   5 -17   27.21    5.95
  -7   5  17   24.89    4.87
   7   5  17   30.38    5.93
  -7   5  17   18.55    4.16
   7  -5 -18   14.69    4.65
   7  -5  18   10.21    5.08
   7  -5 -18   14.73    4.06
   7   5 -18   11.60    4.44
   7   5  18   14.29    4.77
  -7   5  18    7.71    2.81
   7  -5  19   14.10    5.39
   7  -5 -19   14.54    3.86
   7   5 -19   28.79    6.59
   7   5  19   18.66    5.09
  -7   5  19   19.60    4.73
   7  -5  20    5.82    3.12
   7  -5 -20    6.61    3.28
   7   5 -20    7.14    4.29
  -7  -5  20    3.08    3.39
   7   5  20    4.71    3.46
   7   5  21    6.66    3.74
   7   5  22   56.82    8.44
   7   6   0    2.80    3.44
  -7  -6   0   -4.28    3.29
   7   6   0    2.12    3.20
  -7   6   0    1.74    2.47
   7  -6   0   -0.94    2.69
   7   6  -1  486.99   20.01
   7   6   1  482.18   19.85
  -7   6   1  463.11   15.91
  -7   6  -1  472.50   16.70
   7   6  -1  463.63   18.78
   7   6   1  465.67   18.55
   7  -6  -1  476.38   17.13
   7  -6   1  451.80   16.96
  -7  -6   1  451.57   18.52
  -7  -6  -1  457.82   18.49
  -7  -6  -2  623.02   21.64
   7   6  -2  608.23   22.55
   7   6   2  626.60   22.61
  -7   6   2  636.90   18.36
   7   6  -2  657.52   22.17
   7   6   2  633.20   21.82
   7  -6  -2  603.00   19.15
   7  -6   2  627.06   20.33
   7   6  -3    8.45    3.73
   7   6   3    3.96    2.87
  -7  -6  -3    1.84    2.86
  -7   6   3    1.67    1.94
   7   6  -3    6.97    3.30
   7  -6  -3    4.20    2.72
   7   6   3    2.89    2.59
   7  -6   3    3.02    2.71
   7   6  -4    2.03    3.63
   7   6   4   -3.02    3.56
  -7  -6  -4    4.37    2.92
  -7   6   4    1.13    1.70
   7   6  -4    5.98    3.69
   7  -6  -4   -4.02    2.77
   7   6   4   -2.82    3.16
   7  -6   4   -1.49    2.63
  -7  -6  -5  654.30   22.66
   7   6   5  662.14   23.26
  -7   6   5  704.06   18.60
   7   6  -5  675.35   22.96
   7  -6  -5  666.63   19.97
   7   6   5  669.64   22.11
   7  -6   5  653.79   21.52
  -7  -6  -6    0.41    2.54
   7   6  -6   -0.26    3.23
   7  -6  -6    3.98    2.49
   7   6   6   -1.65    2.80
   7  -6   6   -0.75    2.31
  -7  -6  -7  153.70   11.11
   7  -6  -7  153.28   11.06
   7   6  -7  142.69   11.08
   7  -6  -7  153.20    9.71
   7   6   7  156.61   10.88
  -7   6   7  158.89    8.80
   7  -6   7  174.27   11.37
   7  -6  -8   39.59    6.02
  -7  -6  -8   45.28    6.41
   7   6  -8   51.61    7.38
   7  -6  -8   45.23    5.70
   7   6   8   51.10    5.55
  -7   6   8   52.28    5.46
   7  -6   8   43.30    6.62
   7   6   8   48.53    6.49
   7  -6   8   45.14    6.37
  -7  -6  -9   83.51    8.58
   7  -6  -9   85.91    8.67
   7  -6  -9   86.30    7.77
   7   6  -9   81.48    8.82
   7   6   9   93.53    9.02
   7   6   9   83.84    7.03
  -7   6   9   82.38    6.81
   7  -6   9   83.37    8.95
   7  -6   9   93.21    9.08
  -7  -6 -10  333.42   16.81
   7  -6 -10  342.44   16.83
   7   6 -10  345.11   17.78
   7  -6 -10  352.10   15.03
  -7   6  10  328.82   16.86
   7   6  10  352.91   16.63
   7   6  10  354.07   14.48
  -7   6  10  347.77   14.03
   7  -6  10  333.85   17.41
   7  -6  10  354.39   17.34
   7  -6  11   62.49    8.14
  -7  -6 -11   74.45    8.73
   7  -6 -11   67.51    8.11
   7  -6 -11   72.50    7.24
   7   6 -11   67.99    8.59
  -7   6  11   75.93    8.70
   7   6  11   72.73    8.16
   7   6  11   67.40    6.70
  -7   6  11   70.11    6.72
   7  -6 -12  580.63   22.70
   7   6 -12  591.62   23.73
   7  -6 -12  620.19   20.44
  -7   6 -12  621.91   19.88
  -7   6  12  605.56   22.76
   7   6  12  598.60   22.59
   7   6  12  601.45   19.71
  -7   6  12  577.31   19.03
   7  -6  12  604.32   24.18
   7  -6 -13  181.35   13.07
   7   6 -13  183.49   13.93
   7  -6 -13  192.80   11.88
  -7   6 -13  189.41   11.42
  -7   6  13  205.62   13.48
   7   6  13  181.90   12.80
   7   6  13  203.69   11.88
  -7   6  13  191.91   11.35
   7  -6  13  196.72   14.47
   7  -6  14   12.14    5.24
   7  -6 -14    9.04    3.79
   7  -6 -14    5.73    3.03
   7   6 -14    4.76    3.52
  -7   6 -14   14.43    4.73
  -7   6  14    6.39    3.34
   7   6  14    5.04    3.20
   7   6  14    8.11    2.59
  -7   6  14    5.48    2.63
   7  -6  15    7.80    4.76
   7  -6 -15    7.97    3.87
   7  -6 -15   13.40    4.25
   7   6 -15   17.10    5.16
  -7   6 -15    9.69    3.48
  -7   6  15   19.09    4.67
   7   6  15    7.79    3.74
   7   6  15   12.56    3.66
  -7   6  15    4.10    2.16
   7  -6 -16  152.41   12.53
   7   6 -16  165.42   13.60
  -7   6 -16  143.99   10.73
  -7   6  16  138.72   11.40
   7   6  16  153.82   12.07
   7   6  16  139.85   10.59
  -7   6  16  144.26   10.74
   7  -6  16  152.32   13.45
   7  -6  17   50.90    8.24
   7  -6 -17   41.04    6.76
   7   6 -17   41.98    7.34
  -7   6  17   48.30    6.78
   7   6  17   44.32    6.96
  -7   6  17   50.46    6.66
   7  -6  18   36.24    7.15
   7  -6 -18   28.17    5.93
   7   6 -18   33.80    7.21
   7   6  18   25.51    5.67
   7  -6 -19   26.28    6.15
   7  -6  19   34.61    6.97
   7   6 -19   22.75    6.17
  -7  -6  19   30.47    6.33
   7   6  19   22.12    4.90
   7   6  20  140.48   12.26
   7   6  21    2.12    3.29
   7   6  22   35.84    6.76
   7   7   0    0.14    2.55
  -7  -7   0   -6.06    3.84
   7   7   0   -1.00    2.93
  -7   7   0   -0.02    1.99
   7  -7   0   -0.13    2.17
   7   7  -1    2.99    2.81
   7   7   1    5.65    2.82
  -7  -7   1    5.55    3.38
  -7  -7  -1    4.23    3.37
   7   7  -1    9.38    3.97
  -7   7   1    4.73    2.72
   7   7   1    1.54    2.62
  -7   7  -1    8.98    3.22
   7  -7  -1    7.41    3.14
   7  -7   1    5.83    2.59
  -7  -7  -2  105.39    9.62
   7   7  -2  129.00   10.92
   7   7   2  110.62    9.95
  -7   7   2  117.46    8.68
   7   7  -2  121.19    9.94
  -7   7  -2  119.60    9.31
   7   7   2  124.23    9.77
   7  -7  -2  119.13    8.60
   7  -7   2  114.92    8.75
  -7  -7  -3  166.57   12.06
   7   7  -3  172.99   12.47
   7   7   3  156.58   11.70
  -7   7   3  165.20   10.05
   7   7  -3  166.41   11.59
   7  -7  -3  160.83    9.88
   7   7   3  161.58   11.32
  -7   7   3  158.94   12.25
   7  -7   3  156.52   10.38
   7   7  -4    0.72    2.75
   7   7   4   -6.61    4.20
  -7  -7  -4   -2.31    2.93
  -7   7   4    1.77    2.26
   7   7  -4   -1.07    2.43
   7  -7  -4   -0.06    2.05
  -7   7   4    5.56    4.37
   7   7   4   -0.92    3.09
   7  -7   4    1.44    2.58
   7   7  -5   53.33    7.41
  -7  -7  -5   48.90    6.95
  -7   7   5   58.53    5.92
   7  -7  -5   59.89    6.00
   7   7  -5   58.89    7.21
  -7   7   5   52.99    7.50
   7   7   5   53.51    6.67
   7  -7   5   57.28    6.54
   7   7  -6   -3.10    3.30
  -7  -7  -6   -3.21    3.63
   7   7  -6   -2.27    3.39
   7  -7  -6    2.43    1.94
  -7   7   6   -0.60    3.63
   7   7   6   -4.17    3.28
   7  -7   6    1.49    2.44
  -7  -7  -7   17.96    4.94
   7  -7  -7   14.27    4.51
   7   7  -7   16.30    4.59
   7  -7  -7   22.56    4.00
  -7   7  -7   11.32    3.84
  -7   7   7    9.36    4.22
   7   7   7   15.70    4.02
   7  -7   7   18.46    4.32
   7  -7  -8   -0.39    3.25
  -7  -7  -8   -2.95    3.39
   7   7  -8   -4.34    3.49
   7  -7  -8    0.09    1.88
  -7   7  -8    0.84    2.77
  -7   7   8    2.08    2.88
  -7   7   8   -3.93    2.63
   7  -7   8   -0.42    2.99
   7   7   8    0.74    2.40
   7  -7   8    1.10    2.93
  -7  -7  -9  130.04   11.06
   7  -7  -9  107.37   10.00
   7   7  -9  119.64   10.56
   7  -7  -9  122.25    8.55
   7   7   9  109.31    9.32
  -7   7  -9  129.56   10.87
  -7   7   9  123.89   10.91
   7   7   9  113.61    8.59
  -7   7   9  105.56    8.04
   7  -7   9  119.11   10.71
   7  -7   9  129.86   10.75
   7  -7 -10   19.46    5.12
  -7  -7 -10   22.22    5.48
   7   7 -10   12.53    4.06
  -7   7 -10   23.43    5.60
  -7   7  10   20.92    5.36
   7   7  10   18.90    4.55
   7   7  10   14.25    3.58
  -7   7  10   16.93    3.59
   7  -7  10   25.52    5.85
   7  -7  10   22.14    5.58
   7  -7  11   34.98    6.44
   7  -7 -11   29.14    5.56
  -7  -7 -11   29.99    5.99
   7   7 -11   43.50    7.10
  -7   7 -11   35.13    6.04
  -7   7  11   44.38    7.04
   7   7  11   37.18    5.93
   7   7  11   40.15    5.80
  -7   7  11   35.28    5.06
   7  -7  12   35.24    6.62
   7  -7 -12   32.34    6.24
  -7  -7 -12   39.64    7.09
   7   7 -12   28.03    6.39
  -7   7 -12   24.30    5.63
  -7   7  12   28.55    6.04
   7   7  12   24.58    5.01
   7   7  12   34.20    5.54
  -7   7  12   27.64    4.80
   7  -7 -13  358.84   18.91
   7   7 -13  373.96   19.58
  -7   7 -13  353.05   17.70
  -7   7  13  381.81   19.07
   7   7  13  364.40   17.53
   7   7  13  375.16   16.80
  -7   7  13  366.93   16.43
   7  -7  13  384.79   20.04
   7  -7  14   83.53   10.13
   7  -7 -14   78.36    9.44
   7   7 -14   77.88    9.45
  -7   7 -14   83.88    8.89
   7   7  14   84.74    8.99
  -7   7  14   79.21    8.95
  -7   7  14   73.48    7.83
   7   7  14   68.73    7.61
   7  -7  15    1.82    3.65
   7  -7 -15    1.31    2.77
   7   7 -15    4.03    4.12
  -7   7 -15    9.96    3.84
  -7   7  15    6.99    3.47
   7   7  15    1.97    2.62
   7   7  15    0.87    2.79
   7  -7  16   30.58    6.32
   7  -7 -16   25.68    5.58
   7   7 -16   24.19    6.36
  -7   7  16   24.02    5.01
   7   7  16   27.28    5.57
   7  -7  17   26.00    6.49
   7  -7 -17   32.81    6.49
   7   7 -17   30.52    6.37
  -7  -7  17   20.05    5.01
  -7   7  17   17.94    4.58
   7   7  17   23.38    5.02
  -7  -7  18   -0.95    3.11
   7  -7  18   -0.01    4.12
   7  -7 -18    3.68    3.98
   7   7 -18   -1.29    3.83
   7   7  18    1.59    3.17
   7  -7 -19  110.23   11.60
   7   7  19  108.80   10.89
   7   7  20  111.63   11.41
   7   8   0    2.54    3.53
  -7  -8   0   -6.20    3.60
   7   8   0    0.72    2.63
  -7   8   0    0.74    2.47
   7  -8   0    0.23    1.98
   7   8  -1  676.11   25.36
   7   8   1  667.32   25.13
  -7   8   1  664.46   21.65
  -7   8  -1  661.46   22.04
   7   8  -1  680.99   23.11
   7   8   1  662.06   22.59
   7  -8  -1  670.65   19.82
   7  -8   1  662.71   20.16
  -7   8  -1  678.87   25.15
  -7   8   1  659.51   24.99
  -7  -8   1  664.77   24.87
  -7  -8  -1  661.57   24.44
   7   8  -2   37.52    6.80
   7   8   2   38.10    6.60
  -7  -8  -2   29.80    5.69
   7   8  -2   40.99    6.42
  -7   8   2   34.30    5.38
   7   8   2   47.94    6.70
   7  -8  -2   38.11    4.99
  -7   8  -2   43.99    6.33
  -7   8  -2   53.77    7.93
  -7   8   2   48.23    8.29
   7  -8   2   45.14    5.91
  -7  -8   2   37.73    6.91
   7   8  -3   98.99    9.97
   7   8   3   86.56    9.16
  -7  -8  -3   78.95    8.68
  -7   8   3   96.46    8.31
   7   8  -3   96.74    9.00
  -7   8  -3  102.82    9.00
   7   8   3   94.29    8.80
  -7   8  -3   99.92    9.87
  -7   8   3   90.36    9.55
   7  -8   3   97.66    8.13
  -7   8  -4   28.13    5.70
   7   8  -4   26.31    5.32
  -7  -8  -4   22.07    4.77
   7   8  -4   26.93    5.11
  -7   8   4   27.60    4.76
   7   8   4   30.07    5.07
  -7   8  -4   26.44    5.80
  -7   8   4   22.76    5.57
   7  -8   4   30.44    4.82
   7   8  -5   95.22    9.88
  -7  -8  -5   93.34    9.34
  -7   8   5  100.69    8.50
   7   8  -5   83.73    8.67
   7   8   5   95.94    8.83
   7  -8   5   94.87    8.29
  -7   8  -5   96.30    9.66
  -7   8   5   82.84    9.22
   7   8  -6    6.74    4.18
  -7  -8  -6    2.06    2.92
   7  -8  -6   -2.76    3.62
   7   8  -6    1.26    2.96
   7   8   6    3.26    2.82
  -7   8  -6    4.70    3.88
  -7   8   6   -0.98    3.47
   7  -8   6    0.05    2.25
   7   8  -7  123.75   11.31
  -7  -8  -7  142.48   11.72
   7  -8  -7  127.75   11.32
   7   8  -7  136.58   11.17
   7   8   7  132.17   10.25
  -7   8  -7  144.69   11.90
  -7   8   7  143.74   12.17
   7  -8   7  137.72   10.29
   7   8  -8    5.94    4.40
   7  -8  -8   -0.36    2.89
  -7  -8  -8    1.67    3.18
   7   8  -8    5.10    3.11
  -7   8  -8    4.55    3.50
  -7   8   8    0.33    3.34
   7   8   8    5.14    3.09
   7  -8   8    5.02    3.83
   7  -8   8    7.88    3.54
   7   8  -9  532.88   23.49
  -7  -8  -9  497.12   22.30
   7  -8  -9  514.50   22.57
   7   8  -9  538.12   22.43
   7   8   9  505.01   20.08
  -7   8  -9  513.72   21.76
  -7   8   9  521.66   22.58
  -7   8   9  487.84   18.28
   7  -8   9  509.32   21.92
   7  -8   9  506.37   20.50
   7  -8 -10   33.55    6.28
  -7  -8 -10   34.67    6.93
   7   8 -10   28.91    6.21
  -7   8 -10   39.72    6.92
  -7   8  10   41.67    7.18
   7   8  10   29.07    5.16
   7   8  10   40.81    6.19
  -7   8  10   28.44    4.86
   7  -8  10   30.22    5.94
   7  -8  10   33.04    6.41
   7  -8  11   29.26    6.44
   7  -8 -11   20.10    5.03
  -7  -8 -11   21.13    6.10
   7   8 -11   21.51    5.37
  -7   8 -11   24.75    5.16
  -7   8  11   20.18    5.34
   7   8  11   17.76    4.33
   7   8  11   21.95    4.22
  -7   8  11   18.89    4.09
   7  -8  11   19.39    4.99
   7  -8  12   34.77    6.46
   7  -8 -12   33.90    6.42
  -7  -8 -12   33.62    6.64
   7   8 -12   38.92    6.97
  -7   8 -12   30.45    6.13
  -7   8  12   30.91    6.45
   7   8  12   32.64    5.62
   7   8  12   36.05    5.79
   7  -8  13   77.78    9.58
   7  -8 -13   75.63    9.25
   7   8 -13   71.71    9.02
   7   8  13   78.45    8.44
  -7   8 -13   76.41    8.86
  -7   8  13   66.40    8.52
   7   8  13   96.94    9.12
   7  -8  14   17.22    5.01
   7  -8 -14   20.43    5.16
   7   8 -14   15.17    4.83
  -7   8 -14   28.40    5.80
  -7   8  14   31.59    6.27
   7   8  14   30.64    5.82
   7   8  14   25.19    5.37
   7  -8 -15  184.53   14.56
   7   8 -15  182.81   14.38
   7   8  15  202.38   13.50
  -7   8 -15  204.14   13.80
  -7   8  15  196.70   14.28
  -7  -8  15  199.30   15.02
   7  -8  15  200.35   15.43
   7  -8  16    2.23    3.46
   7  -8 -16    5.50    4.09
   7   8 -16    9.89    5.38
  -7  -8  16   15.91    5.74
  -7   8  16    7.58    3.97
   7  -8 -17  177.18   14.69
   7   8 -17  162.39   14.08
  -7  -8  17  182.31   14.55
  -7   8  17  161.36   13.11
   7  -8  17  196.09   15.57
   7   9   0    2.04    2.38
  -7  -9   0   -0.21    3.28
   7   9   0   -1.07    2.57
  -7   9   0    1.45    2.37
  -7   9   0   -4.04    3.24
   7   9  -1    7.66    3.53
   7   9   1    2.07    2.34
  -7  -9   1    4.00    2.92
  -7  -9  -1    5.43    3.72
   7   9  -1    0.73    2.47
   7   9   1    1.17    2.57
  -7   9   1    4.07    2.66
  -7   9  -1    5.39    3.48
  -7   9  -1   -0.77    2.79
  -7   9   1    3.05    3.63
   7   9  -2    2.10    3.02
   7   9   2   -3.62    3.57
  -7  -9   2   -0.51    3.19
  -7  -9  -2   -0.34    3.39
   7   9  -2   -0.63    2.35
  -7   9   2    1.23    2.56
   7   9   2    0.42    2.46
  -7   9  -2    2.23    3.29
  -7   9  -2   -1.61    2.87
  -7   9   2   -4.07    4.03
   7   9  -3    7.89    4.54
  -7  -9  -3    0.24    2.51
   7   9  -3    1.47    3.18
  -7   9   3    0.63    2.27
   7   9   3   -0.46    2.84
  -7   9  -3    1.42    2.98
  -7   9  -3   -1.05    2.68
  -7   9   3    4.11    3.51
  -7  -9   3    1.00    2.81
   7   9  -4   28.25    5.98
  -7  -9  -4   18.82    4.99
   7   9  -4   19.40    4.22
  -7   9   4   22.25    4.58
   7   9   4   18.60    4.07
  -7   9  -4   27.63    5.64
  -7   9  -4   17.91    5.33
  -7   9   4   25.92    5.76
   7   9  -5  201.72   14.66
  -7  -9  -5  167.26   13.24
  -7   9   5  207.34   12.67
   7   9  -5  193.01   13.04
  -7   9  -5  199.96   13.60
   7   9   5  197.60   12.59
  -7   9  -5  206.13   14.50
  -7   9   5  203.08   14.70
   7   9  -6   13.95    5.38
  -7  -9  -6    2.37    3.42
   7  -9  -6    7.88    4.18
   7   9  -6    8.08    3.84
   7   9   6   11.02    3.95
  -7   9  -6   12.32    3.99
  -7   9   6    8.62    4.29
  -7   9  -6   13.56    4.73
   7  -9   6    9.45    3.62
   7   9  -7  118.66   11.36
  -7  -9  -7  109.86   10.91
   7  -9  -7  113.29   11.03
   7   9  -7  114.49   10.35
   7   9   7  117.08    9.70
  -7   9  -7  125.02   11.39
  -7   9   7  111.86   11.04
   7  -9   7  118.29    9.52
   7   9  -8   40.52    7.18
   7  -9  -8   32.06    6.24
  -7  -9  -8   44.14    7.35
   7   9  -8   34.83    6.39
   7   9   8   33.54    5.56
  -7   9  -8   43.03    7.04
  -7   9   8   39.67    7.16
   7  -9   8   37.50    5.93
   7   9  -9   43.53    7.71
   7  -9  -9   35.06    6.74
  -7  -9  -9   48.76    7.78
   7   9  -9   32.58    6.27
   7   9   9   28.44    5.19
  -7   9  -9   41.89    7.00
  -7   9   9   32.54    6.31
   7  -9   9   40.84    6.97
   7  -9   9   38.83    6.31
   7   9 -10   14.20    4.95
   7  -9 -10    9.53    4.70
  -7  -9 -10   14.75    5.26
   7   9 -10   15.37    5.39
   7   9  10    8.92    3.48
  -7   9 -10   11.05    4.08
  -7   9  10   11.39    4.99
   7  -9  10   11.85    4.01
   7  -9  10   17.70    5.07
   7   9 -11  116.13   11.80
  -7  -9 -11  106.22   11.09
   7  -9 -11   95.70   10.35
   7   9 -11   94.73   10.26
  -7   9  11  109.26   11.09
  -7   9 -11   84.86    9.34
   7  -9  11  110.93   11.05
   7  -9  11  121.96   10.79
   7   9 -12    4.56    3.77
   7  -9  12   -0.59    3.14
   7  -9 -12   -3.09    3.92
  -7  -9 -12   -0.29    3.17
   7   9 -12    0.78    3.35
  -7   9 -12    4.98    3.74
  -7   9  12    5.24    3.64
   7   9  12   -0.85    2.59
  -7  -9  13  115.76   11.18
  -7  -9 -13  132.89   12.78
   7  -9 -13  111.22   11.53
   7   9 -13  119.59   11.48
  -7   9 -13  124.98   11.19
  -7   9  13  139.91   12.53
   7  -9  13  117.12   11.81
   7  -9  14   15.77    5.51
   7  -9 -14   11.03    4.35
  -7   9  14    9.50    4.07
   7   9 -14    4.30    3.57
  -7  -9  14   24.46    5.74
  -7   9 -14   23.99    5.49
   7  -9  15    0.27    3.53
   7  -9 -15   -2.29    4.78
   7   9 -15   -0.48    3.58
  -7  -9  15    3.85    4.05
  -7   9  15   -1.58    3.02
   7  -9  16    5.59    4.42
   7   9 -16    0.25    3.50
  -7   9  16   -4.36    3.65
  -7  -9  16    9.10    4.38
  -7   9  17  318.37   18.58
   7  10   0   -1.32    3.21
  -7 -10   0   -1.14    3.25
   7  10   0   -2.56    3.06
  -7  10   0    1.12    2.93
  -7  10   0   -2.32    3.66
   7  10  -1    2.95    3.58
   7  10   1   -1.55    3.82
  -7 -10   1    2.34    3.33
  -7 -10  -1    9.36    4.25
   7  10  -1    7.55    3.28
   7  10   1    5.12    2.98
  -7  10   1    3.93    3.13
  -7  10  -1    1.66    2.56
  -7  10  -1    3.07    3.57
  -7  10   1   -3.14    4.34
  -7 -10  -2  135.19   12.66
   7  10  -2  139.05   12.49
  -7  10   2  129.52   10.92
   7  10  -2  116.43   10.07
  -7  10  -2  140.74   11.63
   7  10   2  150.97   11.11
  -7  10  -2  125.28   11.82
  -7  10   2  141.27   12.49
  -7 -10   2  129.12   12.25
   7  10  -3   73.33    9.49
  -7 -10   3   79.67    9.83
  -7 -10  -3   78.21    9.83
   7  10  -3   81.32    8.82
   7  10   3   81.08    8.10
  -7  10   3   69.13    8.05
  -7  10  -3   69.32    8.52
  -7  10  -3   70.01    9.10
  -7  10   3   57.77    8.45
   7  10  -4   -3.31    3.80
  -7 -10  -4   -2.69    4.23
   7  10  -4   -0.50    2.96
  -7  10   4    2.28    2.72
  -7  10  -4    0.88    2.71
  -7  10  -4    1.88    2.93
  -7  10   4   -4.52    4.16
  -7 -10   4   -1.12    2.76
   7  10  -5    6.14    3.62
  -7 -10  -5    7.10    3.15
   7 -10  -5    8.94    4.07
   7  10  -5   11.25    3.87
  -7  10  -5   13.93    4.86
  -7  10  -5    9.94    3.89
  -7  10   5   11.18    3.98
   7  10  -6  146.67   13.07
  -7 -10  -6  134.04   12.60
   7 -10  -6  140.67   12.88
   7  10  -6  148.37   11.73
  -7  10  -6  155.93   12.86
  -7  10  -6  128.22   11.99
  -7  10   6  135.35   12.57
   7  10  -7  127.44   12.27
  -7 -10  -7  128.86   12.37
   7 -10  -7  105.27   11.13
   7  10  -7  118.44   10.69
  -7  10  -7  129.11   11.88
  -7  10  -7  121.24   11.70
  -7  10   7  132.22   12.24
   7  10  -8   83.17    9.93
   7 -10  -8   99.94   11.05
  -7 -10  -8   92.10   10.60
   7  10  -8   95.23    9.94
  -7  10  -8   73.84    9.17
  -7  10   8   85.24   10.19
   7  10  -9  161.74   13.86
  -7 -10  -9  135.06   12.91
   7 -10  -9  153.64   13.56
   7  10  -9  141.31   11.97
  -7  10  -9  136.47   12.39
  -7  10   9  131.74   12.65
   7  10 -10  230.44   16.42
  -7 -10 -10  210.81   16.08
   7 -10 -10  193.57   15.30
   7  10 -10  209.54   14.68
  -7  10 -10  199.33   14.76
  -7  10  10  207.73   15.65
   7 -10  10  211.88   14.89
   7  10 -11    6.71    4.21
  -7 -10  11    1.59    3.14
   7 -10 -11   -1.54    3.45
  -7 -10 -11    9.27    5.03
   7  10 -11   -3.05    2.79
  -7  10 -11    0.13    3.08
  -7  10  11   -2.32    3.58
   7 -10  11   -2.24    3.08
   7  10 -12  203.49   15.81
   7  10 -12  202.81   14.84
  -7  10 -12  174.52   14.00
  -7  10  12  206.74   15.60
  -7 -10  12  198.21   14.39
   7 -10  12  197.84   14.97
   7 -10  13   52.68    8.20
  -7 -10  13   50.24    7.50
   7  10 -13   59.52    8.33
  -7  10 -13   56.62    8.02
  -7  10  13   56.40    8.49
   7 -10  14    6.55    3.66
   7  10 -14   11.45    4.78
  -7 -10  14    3.52    3.29
  -7  10 -14    4.21    2.85
  -7  10  14   -0.83    3.34
  -7 -10  15   46.98    7.96
  -7 -11   0   -3.46    3.16
  -7  11   0   -2.66    3.00
  -7  11   0  -10.38    5.49
   7  11  -1    5.33    3.28
  -7 -11   1    4.51    3.15
  -7 -11  -1    5.60    3.50
  -7  11   1    1.76    3.11
  -7  11  -1    3.02    2.85
  -7  11  -1   -1.77    4.51
  -7  11   1    5.57    3.27
   7  11  -2    6.39    4.26
  -7 -11   2   11.47    4.83
  -7 -11  -2   10.22    4.09
  -7  11   2    5.44    2.86
  -7  11  -2   16.95    5.19
  -7  11  -2    2.24    3.72
  -7  11   2    8.95    3.90
   7  11  -3    9.25    3.94
  -7 -11   3   15.71    4.95
  -7 -11  -3    8.44    4.03
  -7  11   3   13.52    4.31
  -7  11  -3   13.80    4.53
  -7  11  -3    6.00    3.56
  -7  11   3   17.75    5.09
   7  11  -4   24.48    5.81
  -7 -11   4   22.57    5.35
  -7 -11  -4   26.59    6.38
  -7  11   4   24.91    5.63
  -7  11  -4   20.71    5.75
  -7  11  -4   14.45    4.60
  -7  11   4   17.32    5.29
   7  11  -5   39.86    7.13
  -7 -11  -5   34.38    6.91
   7 -11  -5   45.46    7.69
  -7  11  -5   30.02    6.21
  -7  11  -5   42.49    7.15
  -7  11   5   35.24    6.88
  -7 -11   5   36.91    6.99
   7  11  -6   -1.93    3.59
  -7 -11  -6   -2.18    3.66
   7 -11  -6   -0.22    3.61
   7  11  -6   -2.95    3.31
  -7  11  -6   -1.11    3.61
  -7  11  -6   -5.56    4.67
  -7  11   6   -2.05    4.16
   7  11  -7   -3.77    4.22
   7  11  -7    4.65    2.93
  -7  11  -7    4.81    4.01
  -7  11  -7    1.00    4.40
   7  11  -8    9.00    3.58
   7  11  -8   11.90    4.05
  -7  11  -8   10.44    4.43
  -7  11  -8   -1.69    4.18
   7  11  -9   13.70    4.73
  -7  11  -9    5.73    3.69
  -7  11  -9    7.25    2.89
   7  11 -10    4.91    3.49
  -7  11 -10    4.10    4.17
  -7  11 -10   -5.19    4.15
   7  11 -11    8.36    4.00
   7 -11  11    6.43    3.78
   7  11 -12    3.92    2.86
  -7  11 -12   -4.34    4.06
   7 -11  12    1.08    2.50
  -7 -11  13   20.36    5.48
   7  11 -13   14.40    4.61
  -7  11 -13   18.62    5.20
   7 -11  13   24.71    6.07
  -7 -11  14    6.04    3.96
  -7  12   0   -0.10    2.95
  -7  12   1    2.63    2.89
  -7  12  -1    1.60    2.79
  -7  12   2  112.72   11.25
  -7  12  -2  125.46   12.40
  -7  12   3  116.88   11.50
  -7  12  -3  107.61   11.76
  -7  12  -4   10.87    4.62
  -7  12  -5    6.94    4.29
   8   0   0 1431.86   33.00
  -8   0   0 1448.14   22.27
  -8   0   1   -0.63    1.32
  -8   0  -1   -0.21    1.32
   8   0   1    2.56    3.32
  -8   0  -2  120.95    6.35
   8   0  -2  114.73    9.83
   8   0   2  116.80    9.87
   8   0   3    0.89    2.22
  -8   0  -3   -0.78    1.46
   8   0  -3    0.35    2.90
   8   0   3   -0.29    3.20
   8   0   4  120.96    8.35
  -8   0  -4  128.29    6.54
   8   0  -4  119.20    9.80
   8   0   4  137.67   10.61
   8   0   5    1.07    1.79
   8   0  -5    0.50    1.31
  -8   0  -5    1.17    1.56
   8   0  -5   -5.56    3.87
   8   0   5   -0.76    3.60
   8   0   6  146.24    9.00
   8   0  -6  147.97    7.65
   8   0  -6  153.81   11.21
   8   0   6  168.69   11.92
   8   0   7   -0.26    1.94
   8   0  -7   -1.78    1.53
   8   0  -7   -5.98    4.44
   8   0   7   -1.01    2.53
   8   0   8   35.76    4.76
   8   0  -8   39.68    4.16
   8   0  -8   25.99    5.08
   8   0   8   31.11    5.75
   8   0  -9    5.25    2.32
   8   0  -9   -3.26    3.61
   8   0   9    8.36    4.39
   8   0 -10  989.41   29.14
   8   0  10 1015.80   30.05
   8   0 -11    2.98    4.10
   8   0  11   15.48    5.71
   8   0 -12   28.26    5.59
   8   0  12   25.79    5.70
   8   0 -13    1.62    3.12
   8   0  13   -4.17    3.92
   8   0 -14  297.40   17.06
   8   0  14  319.25   18.25
   8   0 -15    9.86    5.22
   8   0  15    5.41    3.99
   8   0  15    2.23    3.79
   8   0 -16   72.05    9.28
   8   0  16   66.04    8.65
   8   0  16   60.64    8.33
   8   0 -17    4.31    4.06
   8   0  17    1.73    3.28
   8   0 -18   69.84    9.17
   8   0  18   69.15    9.42
   8   0  19    3.42    4.33
   8   0 -19    4.05    3.82
   8   0 -20   94.91   11.08
   8   0  20  104.77   11.47
   8   0  21    2.31    3.59
   8   0 -21    7.82    4.86
  -8   1   0  639.00   12.67
   8   1   0  618.97   22.27
   8  -1   0  678.11   22.63
  -8  -1   0  626.11   16.29
  -8  -1  -1  524.26   14.78
   8   1  -1  532.37   20.30
   8  -1  -1  512.26   19.87
   8   1   1  512.15   20.09
   8  -1   1  504.66   19.65
  -8  -1   1  504.37   15.00
  -8   1   1  519.19   11.83
   8   1   2    2.65    2.55
  -8  -1  -2   -0.34    1.93
   8   1  -2    5.44    3.67
   8  -1  -2    1.81    2.82
   8   1   2    4.27    2.97
   8  -1   2    1.65    2.69
   8  -1   3   40.05    4.96
   8   1   3   32.69    4.81
  -8  -1  -3   29.53    3.81
   8   1  -3   26.40    5.18
   8  -1  -3   30.45    5.29
   8   1   3   35.60    5.60
   8  -1   3   28.78    5.54
   8  -1   4  413.12   14.67
   8   1   4  417.68   15.96
  -8  -1  -4  406.36   12.94
   8   1  -4  406.82   11.36
   8   1  -4  427.41   18.38
   8  -1  -4  413.14   17.91
   8   1   4  426.81   18.35
   8  -1   4  409.44   17.79
   8  -1   5   13.22    2.93
   8   1   5   11.18    3.12
   8   1  -5   10.73    1.98
  -8  -1  -5   12.33    2.50
   8   1  -5    6.72    2.88
   8  -1  -5   12.32    3.45
   8   1   5    6.59    3.33
   8  -1   5    6.69    3.25
   8  -1   6  187.93    9.86
   8   1   6  172.05   10.45
  -8  -1  -6  174.52    8.68
   8  -1  -6  182.49    9.27
   8   1  -6  171.24   11.90
   8  -1  -6  178.22   11.97
   8   1   6  167.02   11.88
   8  -1   6  173.39   12.22
   8  -1   7  125.64    8.03
   8   1   7  128.10    9.08
   8  -1  -7  133.89    8.14
   8   1  -7  141.55   11.05
   8  -1  -7  118.53   10.03
   8   1   7  138.92   10.96
   8  -1   7  141.23   11.15
   8  -1  -8  144.54    8.35
   8   1  -8  151.22   11.52
   8  -1  -8  150.37   11.05
   8   1   8  157.51   11.47
   8  -1   8  161.45   11.92
   8  -1  -9   31.83    4.19
   8   1  -9   35.00    6.32
   8  -1  -9   26.72    5.27
   8   1   9   27.08    5.61
   8  -1   9   35.54    6.05
   8  -1 -10   66.26    5.91
   8   1 -10   61.24    7.74
   8  -1 -10   57.94    7.30
   8   1  10   64.12    8.26
   8  -1  10   64.16    8.12
   8  -1 -11   42.60    5.33
   8   1 -11   49.05    7.46
   8  -1 -11   46.23    6.92
   8   1  11   46.96    7.36
   8  -1  11   56.50    8.21
   8  -1 -12  565.45   17.49
   8   1 -12  520.26   22.01
   8  -1 -12  546.00   21.97
   8   1  12  531.73   22.35
   8  -1  12  575.50   23.29
   8   1 -13    0.50    3.22
   8  -1 -13    1.96    3.42
   8  -1  13    4.53    2.82
   8   1  13    6.40    4.06
   8  -1  13   10.70    4.87
   8   1 -14  135.22   11.69
   8  -1 -14  144.56   11.88
   8  -1  14  129.65   11.79
   8   1  14  120.69   11.61
   8  -1  14  134.79   12.13
   8   1 -15  210.29   14.70
   8  -1 -15  198.76   14.13
   8  -1  15  209.58   14.96
   8   1  15  207.39   14.98
   8  -1  15  219.56   15.49
   8  -1 -16   93.28   10.08
   8   1 -16   86.16   10.12
   8   1  16   84.90    9.53
   8   1  16  107.40   11.17
   8  -1  16   94.09   10.36
   8  -1  17   84.84   10.21
   8   1 -17   80.21   10.06
   8  -1 -17   72.03    9.22
   8   1  17   85.94   10.48
   8   1  17   90.62   10.83
   8  -1 -18  817.33   29.85
   8   1 -18  894.93   31.70
   8   1  18  829.45   29.70
   8  -1  18  908.67   31.75
   8   1  18  916.35   32.26
   8  -1  19   28.11    7.62
   8  -1 -19   15.13    5.87
   8   1 -19   15.86    5.78
   8   1  19   11.73    5.28
   8  -1  20    3.31    3.15
   8  -1 -20    4.51    3.96
   8   1 -20    5.01    3.79
   8   1  20    9.65    5.01
   8  -1 -21   82.92   10.63
   8   1  21   89.15   10.76
   8   1  22  223.87   16.68
   8   2   0   94.64    9.20
   8  -2   0  109.08    9.44
  -8  -2   0   94.24    7.18
   8   2   1  188.38   11.51
   8   2  -1  214.90   13.18
   8  -2  -1  195.82   12.19
   8   2   1  180.84   12.21
   8  -2   1  201.61   12.23
  -8  -2   1  192.90   10.02
  -8  -2  -1  196.75    9.85
   8   2   2    6.65    2.96
  -8  -2  -2    5.72    1.81
   8   2  -2    7.99    3.81
   8  -2  -2   12.35    4.05
   8   2   2    5.92    3.39
   8  -2   2   13.85    3.97
   8   2   3  517.82   18.50
  -8  -2  -3  508.53   15.78
   8   2  -3  495.95   20.02
   8  -2  -3  508.92   19.53
   8   2   3  501.95   20.05
   8  -2   3  507.63   19.77
   8  -2   4   34.60    4.27
   8   2   4   34.21    5.14
  -8  -2  -4   39.83    4.57
   8   2  -4   34.35    5.84
   8  -2  -4   27.99    5.26
   8   2   4   36.95    6.19
   8  -2   4   32.62    5.30
   8  -2   5   34.68    4.10
   8   2   5   32.76    4.88
  -8  -2  -5   28.03    3.92
   8   2  -5   33.68    5.91
   8  -2  -5   38.88    5.78
   8   2   5   37.46    5.78
   8  -2   5   38.55    6.00
   8  -2   6  155.54    8.45
   8   2   6  168.73   10.76
  -8  -2  -6  162.89    9.22
   8  -2  -6  155.31    9.50
   8   2  -6  169.26   12.50
   8  -2  -6  156.01   11.14
   8   2   6  160.50   12.08
   8  -2   6  171.55   12.45
   8  -2   7  836.60   18.81
   8   2   7  800.06   23.28
  -8  -2  -7  855.57   21.01
   8  -2  -7  816.28   21.40
   8   2  -7  841.25   26.92
   8  -2  -7  832.60   25.27
   8   2   7  835.87   26.27
   8  -2   7  890.98   27.15
   8  -2  -8   30.77    4.51
  -8  -2  -8   40.96    5.13
   8   2  -8   36.40    6.58
   8  -2  -8   38.88    6.86
   8   2   8   39.44    6.63
   8  -2   8   47.19    7.45
   8  -2  -9   17.10    3.40
   8   2  -9   14.29    4.30
   8  -2  -9   10.47    3.75
   8   2   9   17.53    4.26
   8  -2   9   20.24    5.38
   8  -2 -10    0.04    1.87
   8   2 -10    1.16    3.39
   8  -2 -10    0.56    2.88
   8   2  10    8.33    4.31
   8  -2  10    3.93    3.63
   8  -2 -11  251.76   12.39
   8   2 -11  248.37   15.19
   8  -2 -11  260.33   14.85
   8   2  11  242.61   15.34
   8  -2  11  238.73   14.99
   8  -2 -12   85.53    7.40
   8   2 -12   83.03    9.19
   8  -2 -12   80.26    8.66
   8  -2  12   75.57    8.84
   8   2  12   76.45    8.92
   8  -2  12   84.18    9.22
   8  -2 -13   49.33    5.80
   8   2 -13   35.10    6.41
   8  -2 -13   51.49    7.05
   8   2  13   54.12    7.76
   8  -2  13   43.58    6.88
   8  -2  13   41.28    6.51
   8  -2 -14   51.41    6.28
   8   2 -14   44.01    7.11
   8  -2 -14   54.34    7.39
   8   2  14   49.94    7.45
   8  -2  14   45.24    7.33
   8  -2  14   51.44    7.56
   8  -2 -15   12.12    3.34
   8   2 -15    1.63    4.14
   8  -2 -15    4.07    2.83
   8   2  15    4.01    3.24
   8  -2  15    2.89    3.06
   8  -2  16    5.45    3.17
   8   2 -16    3.54    4.24
   8  -2 -16    5.83    2.90
   8   2  16    7.41    3.47
   8  -2  17   -0.14    3.58
   8  -2 -17   -1.31    2.97
   8   2 -17    4.35    3.60
   8   2  17    2.76    3.98
   8  -2  18    9.04    4.86
   8  -2 -18    8.63    4.39
   8   2 -18    4.06    4.25
   8   2  18   12.84    5.53
   8  -2 -19  132.23   12.23
   8   2 -19  135.86   13.11
   8   2  19  139.16   12.55
   8  -2  19  146.13   13.53
   8   2  19  133.83   12.90
   8  -2  20   65.75    9.86
   8  -2 -20   58.73    8.52
   8   2 -20   53.75    8.88
   8   2  20   65.35    9.23
   8   2  20   62.78    9.73
   8  -2 -21  311.49   18.95
   8   2  21  286.71   18.12
   8  -2 -22    1.25    4.27
   8   2  22    3.99    4.55
   8   3   0   56.28    6.71
  -8  -3   0   49.47    5.48
   8   3   0   57.84    7.09
   8  -3   0   53.26    6.65
   8   3   1   65.94    7.07
  -8  -3  -1   56.11    5.74
   8   3  -1   70.95    7.94
   8   3   1   68.51    7.51
   8  -3  -1   56.97    6.79
   8  -3   1   65.68    7.35
  -8  -3   1   59.24    6.03
   8   3   2   35.54    5.43
  -8  -3  -2   27.72    4.28
   8   3  -2   34.16    5.79
   8  -3  -2   34.73    5.54
   8   3   2   31.30    5.62
   8  -3   2   38.68    5.69
   8   3   3  148.88   10.49
  -8  -3  -3  144.53    9.13
   8   3  -3  162.86   11.82
   8  -3  -3  146.89   10.67
   8   3   3  145.64   11.21
   8  -3   3  157.44   11.06
   8  -3   4  133.56    7.58
   8   3   4  133.03    9.93
  -8  -3  -4  122.62    8.39
   8   3  -4  136.13   10.86
   8  -3  -4  127.41    9.82
   8   3   4  124.72   10.29
   8  -3   4  114.05    9.90
   8  -3   5   44.24    4.42
   8   3   5   46.10    6.09
  -8  -3  -5   37.04    4.72
   8   3  -5   38.04    6.53
   8  -3  -5   39.21    5.86
   8   3   5   44.34    6.47
   8  -3   5   46.03    6.64
   8   3   6  428.15   17.82
  -8  -3  -6  409.01   15.68
   8  -3  -6  406.46   15.94
   8   3  -6  422.81   18.99
   8  -3  -6  436.50   18.03
   8   3   6  414.10   18.58
   8  -3   6  438.37   19.10
   8   3   7  181.22   11.68
  -8  -3  -7  197.53   11.05
   8  -3  -7  184.24   10.83
   8   3  -7  185.99   12.78
   8  -3  -7  194.20   12.33
   8   3   7  176.63   12.52
   8  -3   7  182.21   12.54
  -8  -3  -8  247.81   12.40
   8  -3  -8  241.70   12.55
   8   3  -8  261.23   15.34
   8  -3  -8  247.79   14.26
   8   3   8  248.28   14.88
   8  -3   8  259.84   15.06
   8  -3  -9    1.22    2.32
  -8  -3  -9    2.97    2.77
   8   3  -9   -0.40    3.39
   8  -3  -9   -1.34    2.42
   8   3   9    8.38    3.94
   8  -3   9    5.21    3.50
   8  -3 -10   11.97    3.50
   8   3 -10    9.16    4.22
   8  -3 -10    9.88    3.83
   8   3  10   11.16    4.02
   8  -3  10    8.91    3.71
   8  -3 -11  185.83   11.20
   8   3 -11  192.43   13.58
   8  -3 -11  186.68   12.57
   8   3  11  219.05   14.27
   8  -3  11  206.32   14.02
   8  -3 -12   -0.82    2.13
   8   3 -12   -0.02    3.86
   8  -3 -12   -0.46    3.08
   8  -3  12    2.84    3.33
   8   3  12   -2.21    3.38
   8  -3  12    1.57    2.78
   8  -3 -13   30.55    4.96
   8   3 -13   22.21    5.11
   8  -3 -13   26.70    4.95
   8   3  13   32.15    6.23
   8  -3  13   31.11    6.19
   8  -3  13   26.12    6.05
   8  -3 -14   36.09    5.62
   8   3 -14   35.47    6.62
   8  -3 -14   23.86    4.86
   8   3  14   23.79    5.20
   8  -3  14   31.43    6.53
   8  -3  14   33.41    6.32
   8  -3  15   71.58    9.45
   8  -3 -15   65.68    7.29
   8   3 -15   59.03    8.56
   8  -3 -15   57.22    7.53
   8   3  15   50.98    7.60
   8  -3  16   66.15    8.98
   8  -3 -16   63.98    7.29
   8   3 -16   61.34    8.85
   8  -3 -16   50.11    7.48
   8   3  16   64.62    8.93
   8  -3 -17  204.37   14.32
   8   3 -17  166.23   13.89
   8   3  17  215.48   15.55
   8  -3  17  179.85   14.47
   8  -3  18   29.73    7.77
   8  -3 -18   18.84    6.12
   8   3 -18   18.17    5.86
   8   3  18   32.10    7.73
   8  -3 -19  310.81   18.15
   8   3 -19  301.66   19.18
   8  -3  19  309.12   19.42
   8   3  19  339.18   20.02
   8  -3 -20   14.32    5.30
   8   3  20   19.03    6.28
   8  -3 -21  167.78   13.97
   8  -3 -22   96.16   10.85
   8   3  22   97.12   10.73
   8   4   0   21.90    4.70
  -8  -4   0   20.74    4.19
   8   4   0   26.02    5.14
  -8   4   0   23.72    3.40
   8  -4   0   16.86    3.88
   8   4  -1  103.53    9.37
   8   4   1   89.40    8.66
  -8   4   1  105.95    6.61
   8   4  -1  102.79    9.45
   8   4   1   99.10    9.42
   8  -4  -1  105.91    9.27
   8  -4   1  103.33    9.06
  -8  -4   1   97.11    8.14
  -8  -4  -1  100.25    8.27
  -8  -4  -2  312.55   14.37
   8   4   2  314.08   15.81
   8   4  -2  346.80   16.87
   8  -4  -2  304.24   15.18
   8   4   2  320.37   16.29
   8  -4   2  313.83   15.52
   8   4  -2  314.33   15.90
   8   4   3    3.45    2.93
  -8  -4  -3    1.50    2.48
   8   4  -3   -2.40    2.85
   8  -4  -3   -4.17    3.86
   8   4   3   -1.48    2.96
   8  -4   3    1.13    3.48
   8   4   4   27.06    5.40
  -8  -4  -4   31.50    4.85
   8   4  -4   29.31    5.90
   8  -4  -4   26.42    4.98
   8   4   4   27.28    5.29
   8  -4   4   32.86    5.65
   8   4   5  389.97   17.49
  -8  -4  -5  420.58   16.57
   8   4  -5  408.47   18.92
   8  -4  -5  427.30   17.87
   8   4   5  406.33   18.46
   8  -4   5  448.87   18.91
   8   4   6  101.90    9.11
  -8  -4  -6  112.60    8.73
   8   4  -6  105.36    9.88
   8  -4  -6  107.10    9.39
   8   4   6  109.53    9.75
   8  -4   6  125.96   10.44
   8   4   7  135.17   10.62
  -8  -4  -7  124.65    9.46
   8  -4  -7  121.77    9.47
   8   4  -7  133.85   11.30
   8  -4  -7  135.02   10.23
   8   4   7  131.81   10.82
   8  -4   7  139.40   11.13
  -8  -4  -8  240.67   12.96
   8  -4  -8  256.81   13.49
   8   4  -8  234.25   14.63
   8  -4  -8  260.56   14.30
   8   4   8  251.85   14.69
   8  -4   8  249.26   14.81
   8  -4  -9   47.76    6.22
  -8  -4  -9   46.38    6.43
   8   4  -9   37.14    6.74
   8  -4  -9   45.50    6.17
   8   4   9   49.08    7.01
   8  -4   9   45.46    6.93
  -8  -4 -10   62.42    7.33
   8  -4 -10   68.80    7.27
   8  -4 -10   69.67    7.92
   8   4 -10   66.42    8.38
   8   4  10   57.47    7.47
   8  -4  10   49.01    7.04
   8  -4 -11   57.31    6.87
   8   4 -11   57.93    7.76
   8  -4 -11   60.40    7.34
   8  -4  11   64.06    8.22
   8   4  11   62.51    7.96
   8  -4  11   64.41    8.04
   8  -4 -12   14.43    3.53
   8   4 -12   13.88    4.96
   8  -4 -12   16.45    4.54
   8   4  12   16.20    4.52
   8  -4  12   13.06    4.75
   8  -4  12    9.26    3.69
   8  -4 -13    7.16    2.96
   8   4 -13   10.00    3.97
   8  -4 -13    5.83    3.40
   8   4  13    6.56    2.85
   8  -4  13    4.53    3.20
   8  -4  13    2.90    2.93
   8  -4 -14   15.73    4.03
   8   4 -14   14.94    4.65
   8  -4 -14   13.37    3.95
   8   4  14   13.73    4.30
   8  -4  14   21.88    5.64
   8  -4  15   54.65    8.05
   8  -4 -15   48.33    6.86
   8   4 -15   51.13    7.69
   8  -4 -15   55.79    7.45
   8   4  15   51.93    7.47
   8  -4  16    4.74    3.78
   8  -4 -16   -1.30    2.36
   8   4 -16   -2.08    3.87
   8  -4 -16   -2.22    3.19
   8   4  16    0.77    2.80
   8  -4  17   70.17    9.79
   8  -4 -17   61.29    7.72
   8  -4 -17   63.47    8.24
   8   4 -17   62.47    8.70
   8   4  17   68.21    8.88
   8  -4 -18  143.86   12.21
   8   4 -18  140.88   13.42
   8   4  18  127.23   12.29
   8  -4  18  139.75   13.31
   8  -4 -19   91.69   10.02
   8   4  19  102.42   11.18
   8  -4 -20   30.77    6.14
   8   4  20   32.61    6.73
   8  -4 -21    2.70    3.27
   8  -4 -22    4.88    3.71
   8   5   0 1815.32   39.36
  -8   5   0 1893.09   30.77
   8   5   0 1808.59   39.05
   8  -5   0 1876.97   37.04
  -8  -5   0 1826.69   36.99
   8   5  -1  106.85    9.94
   8   5   1  107.24   10.08
  -8   5   1   99.17    7.14
  -8   5  -1  106.26    7.70
   8   5  -1  105.83    9.99
   8   5   1  110.27   10.44
   8  -5  -1   98.03    8.89
   8  -5   1  109.62    9.73
  -8  -5   1   99.47    9.47
  -8  -5  -1   98.57    8.76
   8   5  -2    5.55    3.30
   8   5   2    4.49    2.93
  -8  -5  -2    6.19    2.79
   8   5  -2    5.55    3.30
   8   5   2    4.44    2.97
   8  -5  -2    1.88    2.47
   8  -5   2    2.57    3.04
   8   5  -3  152.95   11.63
  -8  -5  -3  136.04    9.95
   8   5   3  138.95   11.03
   8   5  -3  133.19   10.80
   8  -5  -3  132.95    9.99
   8   5   3  128.54   10.65
   8  -5   3  147.57   10.85
  -8  -5  -4  109.11    9.23
   8   5   4  107.22    9.71
   8   5  -4   96.67    9.51
   8  -5  -4  102.20    8.54
   8  -5   4  109.49    9.27
   8   5   4   91.74    8.81
  -8  -5  -5  129.48   10.00
   8   5   5  146.54   11.34
   8   5  -5  116.07   10.35
   8  -5  -5  105.36    8.84
   8   5   5  121.92   10.36
   8  -5   5  127.61   10.15
   8   5   6  238.67   14.33
  -8  -5  -6  237.35   13.40
   8   5  -6  244.62   15.02
   8  -5  -6  225.10   13.04
   8   5   6  224.58   13.95
   8  -5   6  242.59   14.64
  -8  -5  -7  105.79    9.16
   8  -5  -7  126.80   10.34
   8   5  -7  130.06   11.01
   8  -5  -7  113.43    9.38
   8   5   7  120.82   10.41
   8  -5   7  134.44   10.98
  -8  -5  -8  109.73    9.43
   8  -5  -8  116.58    9.95
   8   5  -8  121.19   10.77
   8  -5  -8  108.24    9.16
   8   5   8  114.48   10.28
   8  -5   8  120.42   10.60
   8  -5  -9   40.06    6.04
  -8  -5  -9   42.32    5.99
   8   5  -9   45.84    6.87
   8  -5  -9   43.87    5.97
   8   5   9   51.58    7.23
   8  -5   9   43.20    6.77
  -8  -5 -10  109.43    9.62
   8  -5 -10   96.17    9.01
   8   5 -10  114.90   10.83
   8  -5 -10  107.55    9.58
   8   5  10  114.80   10.34
   8  -5  10  101.71    9.80
   8  -5 -11   36.22    5.65
  -8  -5 -11   40.29    6.20
   8   5 -11   33.57    6.41
   8  -5 -11   36.05    5.62
   8  -5  11   27.93    6.00
   8   5  11   28.89    5.54
   8  -5  11   33.68    6.20
   8  -5 -12   -0.22    2.55
   8   5 -12   -3.73    3.60
   8  -5 -12    2.66    2.80
   8   5  12   -3.56    3.49
   8  -5  12    4.75    3.50
   8  -5  12    2.28    3.08
   8  -5 -13   13.84    3.89
   8   5 -13   14.47    4.93
   8  -5 -13   17.19    4.39
   8   5  13   22.06    5.35
   8  -5  13   18.92    4.84
   8  -5  13   22.10    6.04
   8  -5  14   80.25    9.76
   8  -5 -14   68.56    7.85
   8   5 -14   88.83   10.27
   8  -5 -14   66.90    7.62
   8   5  14   88.36    9.63
   8  -5  15   -2.91    3.10
   8  -5 -15    0.53    2.42
   8   5 -15   -0.10    3.28
   8  -5 -15   -1.46    2.79
   8   5  15   -5.97    4.50
   8  -5  16    0.39    3.70
   8  -5 -16    5.77    3.14
   8  -5 -16    2.84    2.93
   8   5 -16   -5.47    4.50
  -8   5  16    4.56    3.38
   8   5  16    5.33    3.67
   8  -5  17   36.81    7.82
   8  -5 -17   24.15    5.42
   8  -5 -17   40.84    6.57
   8   5 -17   19.31    5.65
  -8   5  17   29.72    5.80
   8   5  17   30.52    6.57
   8  -5 -18  142.65   12.08
   8  -5 -18  142.23   11.77
   8   5  18  142.12   12.87
   8   5  19    6.47    4.10
   8   5  20   32.13    6.87
   8   6   0   10.28    3.86
  -8  -6   0   -1.61    3.02
   8   6   0    2.98    2.70
  -8   6   0    5.07    2.40
   8  -6   0    8.00    3.73
   8   6  -1    6.93    4.07
   8   6   1   17.10    5.43
  -8  -6   1   14.65    4.37
  -8  -6  -1   19.99    4.56
   8   6  -1   16.15    5.47
  -8   6   1   11.43    3.03
   8   6   1   21.62    5.46
  -8   6  -1   12.86    4.03
   8  -6  -1   12.70    3.89
   8  -6   1   17.69    4.78
  -8  -6  -2  817.90   25.75
   8   6  -2  812.47   27.33
   8   6   2  830.44   27.46
   8   6  -2  878.38   27.43
  -8   6  -2  837.76   22.89
   8   6   2  838.82   26.95
   8  -6  -2  830.28   24.43
   8  -6   2  821.31   24.89
  -8  -6   2  816.55   25.95
   8   6  -3  285.09   16.45
  -8  -6  -3  253.78   14.56
   8   6   3  259.93   15.69
   8   6  -3  262.59   15.42
   8  -6  -3  277.30   14.39
   8   6   3  271.55   15.35
   8  -6   3  276.07   14.88
   8   6  -4   11.75    3.52
   8   6   4    7.35    3.46
  -8  -6  -4   18.14    4.52
   8   6  -4    9.33    3.87
   8  -6  -4   14.08    3.38
   8   6   4    8.05    3.45
   8  -6   4   10.01    3.49
   8   6  -5    0.76    3.28
   8   6   5    1.05    2.80
  -8  -6  -5   -3.99    3.52
   8   6  -5    2.47    2.85
   8  -6  -5   -0.07    3.20
   8   6   5    1.31    3.14
   8  -6   5    3.48    2.99
  -8  -6  -6    0.87    2.56
   8   6  -6    6.97    3.90
   8  -6  -6    2.42    2.07
   8   6   6    1.15    3.06
   8  -6   6    2.68    2.62
  -8  -6  -7   10.26    3.97
   8  -6  -7    2.28    2.95
   8   6  -7    5.10    3.84
   8  -6  -7    4.48    2.49
   8   6   7    3.89    3.17
   8  -6   7    2.82    2.84
   8  -6  -8    1.81    2.52
  -8  -6  -8   -2.03    3.21
   8   6  -8    0.82    2.95
   8  -6  -8    0.61    2.60
   8   6   8   -3.81    3.72
   8  -6   8    1.27    2.89
   8  -6  -9   -0.83    3.10
  -8  -6  -9    6.75    3.51
   8   6  -9   -0.02    3.70
   8  -6  -9    2.64    2.64
   8   6   9    6.54    2.94
   8  -6   9    3.85    2.74
   8  -6 -10   41.17    6.37
  -8  -6 -10   36.65    6.51
   8   6 -10   26.34    5.78
   8  -6 -10   44.40    5.90
   8   6  10   47.92    6.81
   8  -6  10   45.30    7.07
   8  -6 -11   38.56    6.28
  -8  -6 -11   53.29    7.68
   8   6 -11   35.03    6.72
   8  -6 -11   34.27    5.37
   8  -6  11   37.11    6.42
   8   6  11   37.13    6.06
   8  -6  11   38.63    6.69
   8  -6 -12   96.59    9.99
   8   6 -12   94.21   10.48
   8  -6 -12  105.44    9.30
  -8   6  12  111.70   10.64
   8   6  12   85.01    9.20
   8  -6  12   99.26   10.69
   8  -6  12  111.68   10.64
   8  -6 -13   -0.55    3.04
   8   6 -13    1.02    3.45
   8  -6 -13    1.01    2.41
  -8   6  13   11.28    4.36
   8   6  13    0.03    2.73
   8  -6  13   -1.46    3.58
   8  -6  13    3.68    4.16
   8  -6  14   82.62    9.99
   8  -6 -14   87.05    9.55
   8   6 -14   96.19   10.60
  -8   6  14   84.44    9.38
   8   6  14   83.83    9.53
   8  -6  15    5.46    4.95
   8  -6 -15    5.59    3.49
   8   6 -15    5.08    4.31
  -8   6  15   -1.83    3.23
   8   6  15   -2.57    3.45
   8  -6  16    5.05    4.29
   8  -6 -16   -0.16    3.40
   8   6 -16   -1.65    3.78
  -8   6  16    7.75    4.04
   8   6  16   -1.31    2.86
   8  -6 -17   24.78    5.56
  -8   6  17   21.73    5.02
   8  -6 -18   66.38    8.80
   8   6  18   80.44    9.68
   8  -6 -19    1.89    3.36
   8   6  19    7.80    4.13
   8   6  20    8.50    4.99
   8   7   0   42.61    7.51
  -8  -7   0   32.57    6.91
   8   7   0   43.76    7.73
  -8   7   0   47.31    6.12
   8  -7   0   45.90    6.62
  -8  -7  -1  304.59   16.75
   8   7  -1  316.02   17.78
   8   7   1  311.71   17.49
  -8   7   1  328.86   14.59
  -8   7  -1  322.06   15.08
   8   7  -1  339.79   17.35
   8   7   1  325.26   16.79
   8  -7  -1  316.78   15.17
   8  -7   1  336.13   16.02
  -8  -7   1  313.76   16.90
   8   7  -2   22.92    5.87
   8   7   2   25.27    6.14
  -8  -7   2   18.41    4.61
  -8  -7  -2   14.09    4.52
   8   7  -2   28.92    5.86
  -8   7   2   22.74    4.49
   8   7   2   18.19    5.05
   8  -7  -2   18.87    4.37
  -8   7  -2   19.88    4.49
   8  -7   2   20.38    5.09
   8   7  -3  616.19   24.84
  -8  -7  -3  587.40   23.34
   8   7   3  643.31   24.90
   8   7  -3  637.76   24.19
  -8   7  -3  633.21   21.62
   8  -7  -3  649.00   21.30
   8   7   3  651.95   23.82
   8  -7   3  641.78   22.16
   8   7  -4   80.16    9.98
   8   7   4   81.13    9.30
  -8  -7  -4   77.01    8.74
   8  -7  -4   75.03    7.68
   8   7  -4   77.50    8.82
   8   7   4   71.55    8.62
   8  -7   4   79.47    8.38
   8   7  -5   -0.61    3.13
  -8  -7  -5    3.04    2.98
   8   7  -5    2.13    3.13
   8  -7  -5   -3.52    2.77
   8   7   5   -0.33    3.21
   8  -7   5    7.24    3.02
   8   7  -6    0.73    3.33
  -8  -7  -6   -4.79    3.93
   8  -7  -6    3.38    2.81
   8   7  -6   -3.85    3.45
   8  -7  -6   -0.07    2.29
   8   7   6   -1.38    2.96
   8  -7   6   -1.03    3.09
   8   7  -7  148.34   12.70
  -8  -7  -7  144.19   11.81
   8  -7  -7  142.04   11.63
   8   7  -7  147.41   12.02
   8  -7  -7  150.69   10.33
   8   7   7  159.79   12.04
  -8   7   7  164.02   13.06
   8  -7   7  156.87   11.60
  -8  -7  -8  114.64   10.52
   8  -7  -8  121.58   10.98
   8   7  -8  136.02   11.88
   8   7   8  126.35   10.70
  -8   7   8  115.15   11.27
   8  -7   8  132.51   10.99
   8  -7  -9   20.16    4.68
  -8  -7  -9   23.17    5.37
   8   7  -9   25.53    5.58
  -8   7   9   18.82    5.31
   8   7   9   25.59    5.44
   8  -7   9   31.29    5.94
  -8  -7 -10  150.97   12.70
   8  -7 -10  161.13   13.03
   8   7 -10  160.87   13.21
   8   7  10  155.01   12.05
  -8   7 -10  158.34   12.79
  -8   7  10  156.67   13.15
   8  -7  10  176.75   13.21
  -8  -7 -11  397.71   19.90
   8  -7 -11  402.24   20.10
   8   7 -11  397.16   20.96
   8   7  11  381.53   18.93
  -8   7 -11  358.16   18.81
  -8   7  11  394.87   20.28
   8  -7  11  426.71   21.51
   8  -7  11  418.17   20.40
   8  -7 -12    1.47    2.90
  -8  -7 -12   13.19    4.78
   8   7 -12    7.73    4.40
  -8   7 -12    4.92    3.46
  -8   7  12    4.72    4.00
   8   7  12    4.43    3.74
   8  -7  12    8.67    4.89
   8  -7  12    4.60    3.60
   8  -7 -13   44.88    7.12
   8   7 -13   39.84    7.03
  -8   7 -13   42.72    7.06
  -8   7  13   46.76    7.47
   8   7  13   52.20    7.61
   8  -7  13   58.11    8.41
   8  -7  13   45.17    7.77
   8  -7 -14   21.49    5.52
   8   7 -14   19.30    5.67
  -8   7 -14   20.09    4.95
  -8   7  14   23.44    5.75
   8   7  14   22.18    5.92
   8  -7  14   22.87    5.78
   8  -7  14   25.53    6.58
   8  -7  15   31.73    6.60
   8  -7 -15   32.45    6.53
   8   7 -15   27.53    6.04
  -8   7 -15   32.30    5.76
  -8   7  15   28.98    6.15
   8   7  15   27.98    5.71
   8  -7 -16   -4.84    4.27
  -8   7  16   -1.49    3.27
   8   7  16   -5.74    3.65
   8  -7 -17  105.48   11.23
  -8   7  17   98.65   10.37
   8   7  17  106.33   10.89
   8  -7 -18   24.52    6.44
   8   7  18   14.69    5.09
   8   7  19  136.58   12.61
   8   8   0  315.30   18.24
  -8   8   0  310.49   15.40
   8   8   0  308.51   16.79
   8  -8   0  325.02   15.32
  -8   8   0  306.41   18.03
  -8  -8   0  289.46   17.12
   8   8  -1   92.26   10.07
   8   8   1   82.48    9.64
  -8  -8   1   83.09    9.50
  -8  -8  -1   89.86    9.86
  -8   8   1   91.45    8.36
  -8   8  -1   84.70    8.55
   8   8  -1   93.05    9.44
   8   8   1   95.07    9.62
   8  -8   1   84.39    8.00
  -8   8  -1   93.63   10.44
  -8   8   1  108.44   11.18
   8   8  -2   13.84    4.58
   8   8   2    3.78    3.19
  -8  -8   2    5.04    3.33
  -8  -8  -2   -0.16    3.29
   8   8  -2    7.06    3.34
  -8   8   2    3.22    2.54
   8   8   2    5.37    3.17
  -8   8  -2    5.16    3.62
  -8   8  -2   15.73    5.33
  -8   8   2   10.60    5.35
   8  -8   2    2.91    2.18
   8   8  -3   26.04    6.08
   8   8   3   16.02    4.70
  -8  -8  -3    5.65    3.37
   8   8  -3   18.91    4.99
   8   8   3   16.88    4.07
  -8   8  -3   19.41    4.49
  -8   8  -3   22.03    5.70
  -8   8   3   23.79    5.96
   8  -8   3   17.55    3.94
  -8  -8   3   16.21    4.52
   8   8  -4    3.92    3.85
  -8  -8  -4    6.37    4.23
   8   8  -4    7.22    4.35
   8   8   4    4.91    3.01
  -8   8  -4   17.59    5.40
  -8   8   4   22.40    6.21
  -8   8  -4   15.21    4.46
   8  -8   4   13.27    4.14
   8   8  -5   97.30   10.43
  -8  -8  -5   86.89    9.49
   8   8  -5   93.17    9.63
  -8   8  -5   99.38    9.69
   8   8   5   84.45    8.78
  -8   8  -5  105.22   10.89
  -8   8   5   81.56    9.93
   8  -8   5   89.46    8.80
   8   8  -6   62.63    8.79
  -8  -8  -6   58.01    8.12
   8  -8  -6   51.37    7.71
   8   8  -6   62.39    8.14
   8   8   6   53.10    7.20
  -8   8  -6   66.40    8.80
  -8   8   6   60.57    8.57
   8  -8   6   69.65    7.82
   8   8  -7  167.97   13.84
  -8  -8  -7  158.74   13.04
   8  -8  -7  157.76   12.66
   8   8  -7  151.48   12.55
   8   8   7  156.78   12.04
  -8   8  -7  154.65   12.91
  -8   8   7  140.72   12.44
   8  -8   7  155.79   11.76
   8   8  -8   12.90    4.72
   8  -8  -8    0.38    3.05
  -8  -8  -8    3.61    3.84
   8   8  -8    7.98    3.84
  -8   8  -8   11.97    4.88
  -8   8   8   10.48    4.57
   8   8   8    5.76    3.32
   8  -8   8    8.35    4.17
   8   8  -9    0.04    2.78
   8  -8  -9    1.52    3.10
  -8  -8  -9   -0.13    2.66
   8   8  -9   -1.83    3.22
  -8   8  -9    9.48    4.85
  -8   8   9    2.22    3.74
   8   8   9    2.21    2.82
   8  -8   9    5.17    3.26
   8  -8 -10   14.99    5.02
  -8  -8 -10    8.96    4.23
   8   8 -10   11.51    4.65
  -8   8 -10    8.99    4.17
  -8   8  10   14.93    5.08
   8   8  10    9.70    3.95
   8  -8  10   12.94    4.48
   8   8 -10    9.53    4.53
  -8  -8 -11  231.26   15.97
   8  -8 -11  242.12   16.38
   8   8 -11  247.14   16.52
   8   8  11  208.95   14.19
  -8   8 -11  217.20   15.37
  -8   8  11  229.79   15.94
   8  -8  11  212.08   15.45
   8  -8  11  245.81   15.86
   8  -8 -12    9.22    4.21
  -8  -8 -12   16.34    5.84
   8   8 -12   12.15    4.55
  -8   8 -12    8.68    3.78
  -8   8  12   14.89    4.71
   8   8  12   10.99    3.98
   8  -8  12   15.34    5.35
   8  -8  12   22.61    5.93
   8  -8 -13   -3.49    3.77
   8   8 -13    1.01    3.50
  -8   8 -13   -3.17    3.35
  -8   8  13    3.79    3.34
   8   8  13    4.42    3.51
   8  -8  13    4.08    3.68
   8  -8  13   -0.74    3.71
   8  -8 -14   12.19    4.59
   8   8 -14    8.96    4.41
  -8   8 -14   16.04    4.98
  -8   8  14   11.22    4.49
   8   8  14   12.65    4.42
   8  -8  14   11.81    4.94
   8  -8  14   11.64    4.43
   8  -8 -15  249.14   17.15
   8   8  15  240.50   15.60
  -8   8  15  257.62   17.02
   8  -8  15  253.48   17.18
  -8   8  16    6.31    3.95
  -8   8  17  151.20   13.05
   8   9   0  171.15   14.13
  -8   9   0  176.29   12.27
   8   9   0  172.59   12.82
  -8   9   0  172.00   14.15
  -8  -9   0  174.19   14.17
  -8  -9  -1  137.47   12.35
   8   9  -1  139.21   12.72
   8   9   1  117.11   12.03
  -8   9   1  121.77   10.27
  -8   9  -1  140.57   11.01
   8   9  -1  128.67   11.19
   8   9   1  121.93   10.91
  -8   9  -1  136.19   12.59
  -8   9   1  128.33   12.50
  -8  -9   1  132.96   12.47
   8   9  -2   55.76    8.49
   8   9   2   43.34    7.44
  -8  -9   2   50.31    7.84
  -8  -9  -2   50.36    8.08
   8   9  -2   53.35    7.43
  -8   9   2   46.05    6.34
   8   9   2   45.98    6.81
  -8   9  -2   43.27    6.55
  -8   9  -2   60.84    8.87
  -8   9   2   60.23    8.73
   8   9  -3   97.94   10.86
  -8  -9   3   74.58    9.26
  -8  -9  -3   98.68   10.41
   8   9  -3   97.17    9.88
  -8   9  -3   96.83    9.49
   8   9   3   86.60    9.11
  -8   9  -3   89.82   10.31
  -8   9   3  103.64   10.98
   8   9  -4    0.53    3.54
  -8  -9  -4   -3.99    4.43
   8   9  -4   -1.53    2.73
   8   9   4    1.24    2.63
  -8   9  -4    1.93    3.02
  -8   9  -4    6.03    4.43
  -8   9   4    3.16    3.82
  -8  -9   4   -1.33    3.92
   8   9  -5   51.92    8.19
  -8  -9  -5   41.82    6.99
   8   9  -5   32.56    6.37
   8   9   5   34.83    5.87
  -8   9  -5   49.92    7.10
  -8   9  -5   44.14    7.61
  -8   9   5   52.75    8.60
   8   9  -6   49.26    8.39
  -8  -9  -6   38.75    6.99
   8  -9  -6   50.13    8.18
   8   9  -6   48.72    7.95
   8   9   6   49.78    7.25
  -8   9  -6   61.53    9.23
  -8   9   6   40.45    7.65
  -8   9  -6   59.94    8.24
   8   9  -7  536.52   25.13
  -8  -9  -7  519.58   24.45
   8  -9  -7  541.35   24.65
   8   9  -7  545.14   24.01
   8   9   7  554.86   22.42
  -8   9  -7  534.10   24.57
  -8   9   7  556.53   25.30
   8   9  -8  137.88   13.15
  -8  -9  -8  135.73   12.67
   8  -9  -8  140.51   13.14
   8   9  -8  137.71   12.38
   8   9   8  145.18   11.70
  -8   9  -8  140.35   12.64
  -8   9   8  123.63   12.34
   8   9  -9    3.33    3.59
   8  -9  -9    2.77    3.13
  -8  -9  -9   -0.45    3.30
   8   9  -9    9.01    4.53
   8   9   9    2.30    2.54
  -8   9  -9    4.44    4.15
  -8   9   9   -1.14    3.53
   8  -9   9   -0.55    2.90
   8   9 -10   23.67    6.21
   8  -9 -10   26.41    6.27
  -8  -9 -10   18.98    5.40
   8   9 -10   20.66    5.79
  -8   9 -10   18.51    5.01
  -8   9  10   15.87    5.08
   8  -9  10   18.44    4.90
  -8  -9 -11  131.27   12.62
   8  -9 -11  123.23   12.26
   8   9 -11  132.73   12.82
  -8   9 -11  125.14   12.04
  -8   9  11  124.29   12.26
   8  -9  11  132.42   11.50
   8  -9 -12   52.01    8.40
  -8  -9 -12   56.98    8.59
   8   9 -12   47.86    7.98
  -8   9 -12   41.54    7.17
  -8   9  12   43.36    7.57
   8  -9  12   43.66    7.80
   8  -9  12   53.05    7.90
   8   9 -13  117.13   12.14
  -8   9 -13  101.46   10.76
  -8   9  13  102.78   11.37
   8  -9  13  104.07   11.54
   8  -9  13  105.85   11.11
  -8   9 -14   51.60    8.05
   8  -9  14   65.26    8.90
   8  -9  15   69.42    9.36
   8  10   0   11.61    4.94
  -8 -10   0   20.28    5.52
   8  10   0   15.58    4.68
  -8  10   0    3.67    2.95
  -8  10   0    6.91    4.28
   8  10  -1   51.75    8.23
   8  10   1   45.15    7.55
  -8 -10   1   46.08    7.51
  -8 -10  -1   53.75    8.33
   8  10  -1   57.92    7.67
   8  10   1   46.35    6.81
  -8  10   1   56.83    7.62
  -8  10  -1   64.65    8.20
  -8  10  -1   62.13    8.74
  -8  10   1   52.80    8.32
   8  10  -2   13.40    5.27
  -8 -10   2    8.41    3.43
  -8 -10  -2    4.85    3.11
   8  10  -2    3.55    2.91
   8  10   2   10.85    4.15
  -8  10  -2    8.59    3.80
  -8  10  -2    5.46    4.12
  -8  10   2    7.82    4.11
   8  10  -3    0.60    3.75
  -8 -10   3   10.21    4.68
  -8 -10  -3    2.81    4.03
   8  10  -3    8.93    3.95
   8  10   3   10.51    3.54
  -8  10  -3   19.97    5.24
  -8  10  -3   21.63    6.27
  -8  10   3   15.23    5.12
   8  10  -4  132.49   13.01
  -8 -10  -4  126.30   12.62
   8  10  -4  136.89   11.88
  -8  10  -4  140.94   12.12
  -8  10  -4  151.81   13.65
  -8  10   4  148.32   13.64
  -8 -10   4  139.13   13.28
  -8 -10  -5    3.92    3.08
   8 -10  -5   17.47    5.10
   8  10  -5   17.14    4.84
  -8  10  -5   16.07    5.14
  -8  10  -5   16.43    4.71
  -8 -10   5    7.77    4.37
  -8 -10  -6    3.22    3.35
   8 -10  -6   -4.23    4.49
   8  10  -6    5.49    3.80
  -8  10  -6   -0.09    2.63
  -8  10  -6    4.34    4.28
  -8 -10  -7   25.65    6.03
   8 -10  -7   34.39    7.55
   8  10  -7   29.95    6.26
  -8  10  -7   40.37    7.14
  -8  10  -7   24.93    6.11
   8  10  -8    9.37    4.28
  -8  10  -8   18.04    5.66
  -8  10  -8   26.73    6.73
   8  10  -9   30.99    6.33
  -8  10  -9   20.05    6.06
   8  10 -10    3.51    3.35
  -8  10 -10    3.40    3.31
   8  10 -11   19.65    5.28
  -8  10 -11   15.25    4.54
  -8  10 -12   24.83    6.10
  -8  10 -13    2.34    3.06
  -8  11   0   59.25    8.28
  -8  11   1   -0.90    3.60
  -8  11  -1    1.59    2.99
  -8  11  -2   16.41    4.93
  -8  11  -3   20.57    5.71
  -8  11  -4  284.90   17.86
  -8  11  -5    7.90    3.82
   8  11  -6   -1.94    2.78
  -8  11  -6    6.33    3.79
   8  11  -7   21.51    5.41
  -8  11  -7   15.00    5.28
   8  11  -8   28.78    5.88
   8  11  -9   67.94    9.14
  -8  12   0   86.40   10.15
  -8  12  -1   92.29   10.61
  -8  12  -2    2.17    3.23
   9   0   0    5.39    3.33
   9   0  -1    2.59    3.85
   9   0   1    0.53    3.61
   9   0   2   35.72    5.13
   9   0  -2   24.41    5.32
   9   0   2   24.77    5.27
   9   0   3   -3.15    2.42
   9   0  -3   -5.48    4.27
   9   0   3   -4.76    5.00
   9   0   4   14.52    3.49
   9   0  -4    8.51    3.46
   9   0   4   10.90    3.97
   9   0   5    1.14    2.24
   9   0  -5   -4.14    4.46
   9   0   5   -0.84    3.71
   9   0   6  147.84    9.80
   9   0  -6  137.12   11.26
   9   0   6  132.81   11.26
   9   0   7   -1.09    2.13
   9   0  -7   -2.77    3.79
   9   0   7   -3.04    3.59
   9   0   8   46.94    5.56
   9   0  -8   59.32    7.76
   9   0   8   49.62    7.33
   9   0  -9    0.83    3.23
   9   0   9   -0.21    3.38
   9   0 -10   35.19    6.70
   9   0  10   38.04    7.03
   9   0 -11   -3.13    4.27
   9   0  11    3.10    3.80
   9   0 -12   18.94    4.69
   9   0  12   24.23    5.90
   9   0 -13   -2.65    4.04
   9   0  13   -4.14    3.89
   9   0 -14   64.04    8.83
   9   0  14   70.59    9.20
   9   0 -15    4.85    4.15
   9   0  15   -5.45    3.86
   9   0 -16   37.55    7.16
   9   0  16   37.23    7.26
   9   0 -17    1.44    3.04
   9   0  17    1.62    3.30
   9   0 -18  164.58   14.38
   9   1   0   -0.34    3.34
   9  -1   0    3.27    3.52
   9   1   1  275.33   14.44
   9   1  -1  285.47   16.20
   9  -1  -1  287.78   16.16
   9   1   1  285.81   16.59
   9  -1   1  297.06   16.33
   9   1   2 1126.50   28.47
   9   1  -2 1080.68   31.31
   9  -1  -2 1107.43   31.53
   9   1   2 1115.19   31.56
   9  -1   2 1098.07   31.32
  -9  -1   2 1117.90   23.43
   9  -1   2 1084.42   26.07
   9  -1   3   13.37    3.82
   9   1   3   17.51    4.26
   9   1  -3   12.10    4.71
   9  -1  -3   13.06    4.87
   9   1   3   15.50    5.64
   9  -1   3   19.85    5.54
   9  -1   4  300.76   13.68
   9   1   4  278.96   14.16
   9   1  -4  286.45   16.44
   9  -1  -4  317.16   16.74
   9   1   4  279.27   16.25
   9  -1   4  301.70   16.32
   9  -1   5   68.23    6.76
   9   1   5   70.48    7.60
   9  -1  -5   70.60    6.30
   9   1  -5   70.43    8.60
   9  -1  -5   60.96    8.12
   9  -1   5   77.92    9.29
   9   1   5   75.23    9.10
   9  -1   6  227.70   11.68
   9   1   6  239.99   12.93
   9   1  -6  248.79   15.25
   9  -1  -6  233.34   14.57
   9   1   6  227.76   14.65
   9  -1   6  229.60   14.94
   9   1   7   10.43    3.68
   9   1  -7    6.52    3.38
   9  -1  -7   11.75    4.42
   9   1   7    7.49    3.54
   9  -1   7   11.55    4.59
   9   1  -8  403.25   19.75
   9  -1  -8  378.33   19.03
   9   1   8  393.37   19.87
   9  -1   8  389.39   19.61
   9   1  -9  249.66   16.31
   9  -1  -9  246.97   15.66
   9   1   9  239.32   15.94
   9  -1   9  269.81   16.81
   9   1 -10  382.92   19.60
   9  -1 -10  354.64   18.62
   9   1  10  368.37   19.49
   9  -1  10  372.89   19.61
   9   1 -11   18.90    5.23
   9  -1 -11   15.55    4.38
   9   1  11   29.38    6.81
   9  -1  11   20.81    5.78
   9   1 -12  300.81   17.80
   9  -1 -12  279.80   16.81
   9   1  12  299.42   17.96
   9  -1  12  288.59   17.64
   9   1 -13  139.59   12.81
   9  -1 -13  129.70   11.78
   9   1  13  138.56   12.67
   9  -1  13  139.04   12.66
   9   1 -14    2.69    3.29
   9  -1 -14    7.63    3.97
   9   1  14    8.05    4.63
   9  -1  14   -0.96    3.03
   9   1 -15    7.23    4.46
   9  -1 -15   18.94    5.78
   9   1  15   11.94    5.68
   9  -1  15   17.29    6.23
   9   1 -16  238.08   16.70
   9  -1 -16  254.28   16.88
   9   1  16  262.19   17.82
   9  -1  16  274.95   18.35
   9   1 -17   51.83    8.75
   9  -1 -17   62.15    8.93
   9   1  17   63.05    9.97
   9  -1  17   63.96    9.40
   9  -1 -18   22.90    5.91
   9   1 -18   28.25    6.67
   9  -1  18   15.58    5.09
   9  -1 -19    1.45    3.30
   9   2   0   -2.49    2.93
  -9  -2   0   -0.43    2.15
   9   2   0   -2.00    2.89
   9  -2   0   -5.15    3.89
   9   2   1    4.83    2.78
  -9  -2   1    7.99    2.66
  -9  -2  -1    7.43    2.66
   9   2  -1    9.33    4.35
   9  -2  -1    7.12    3.47
   9   2   1    7.46    4.06
   9  -2   1   -0.17    3.56
   9   2   2    1.03    2.30
  -9  -2  -2    2.43    1.72
   9   2  -2   -5.01    3.96
   9  -2  -2    8.84    4.06
   9   2   2    0.83    3.34
   9  -2   2   -2.14    3.51
  -9  -2   2    2.49    1.89
   9  -2   3   11.32    2.96
   9   2   3    5.10    2.76
  -9  -2  -3    0.78    1.78
   9   2  -3    1.86    3.30
   9  -2  -3    3.60    3.01
   9   2   3    0.62    3.01
   9  -2   3   -2.50    4.25
   9  -2   4   11.79    3.05
   9   2   4   11.07    3.14
  -9  -2  -4    6.65    1.85
   9   2  -4    3.17    3.35
   9  -2  -4    9.63    3.81
   9   2   4    8.88    4.13
   9  -2   4   12.91    4.19
   9   2   5  112.50    9.37
   9   2  -5  115.07   10.65
   9  -2  -5  121.22   10.51
   9   2   5  117.13   10.78
   9  -2   5  125.04   10.84
   9   2   6   10.76    3.24
   9  -2  -6   17.09    3.51
   9   2  -6   11.75    4.28
   9  -2  -6   13.95    4.61
   9   2   6   10.96    3.73
   9  -2   6   24.30    5.46
   9   2   7   77.49    7.95
   9  -2  -7   76.06    6.82
   9   2  -7   89.14    9.72
   9  -2  -7   80.63    8.73
   9   2   7   70.60    8.56
   9  -2   7   64.51    7.99
   9  -2  -8   -0.59    2.03
   9   2  -8   11.53    4.96
   9  -2  -8    7.86    3.90
   9   2   8    5.21    4.28
   9  -2   8    5.78    4.16
   9  -2  -9   85.24    7.47
   9   2  -9   92.85   10.08
   9  -2  -9   96.59    9.79
   9   2   9   95.67   10.06
   9  -2   9   88.72    9.96
   9   2 -10   39.84    6.76
   9  -2 -10   46.73    7.33
   9   2  10   42.39    7.08
   9  -2  10   45.22    7.69
   9   2 -11    4.61    4.20
   9  -2 -11   -1.69    3.27
   9   2  11    1.59    3.16
   9  -2  11   -0.41    3.30
   9   2 -12    3.56    3.21
   9  -2 -12    6.19    3.80
   9   2  12    4.95    3.41
   9  -2  12    8.27    4.32
   9   2 -13   -1.31    4.23
   9  -2 -13    5.48    4.02
   9   2  13    6.32    3.23
   9  -2  13   -3.01    4.10
   9   2 -14   11.33    4.27
   9  -2 -14   14.62    4.88
   9   2  14   12.00    4.43
   9  -2  14   11.76    4.00
   9   2 -15  222.52   16.15
   9  -2 -15  231.28   15.79
   9   2  15  213.94   15.93
   9  -2  15  223.13   16.55
   9   2 -16   -1.77    3.52
   9  -2 -16    8.08    4.50
   9   2  16    8.61    5.19
   9  -2  16    6.22    4.33
   9   2 -17  143.68   13.39
   9  -2 -17  160.39   13.46
   9  -2  17  148.76   13.80
   9   2  17  158.49   14.16
   9  -2  17  158.72   14.55
   9  -2 -18    2.99    3.09
   9  -2 -19    8.04    4.41
   9   3   0   -3.45    3.19
  -9  -3   0   -2.11    2.26
   9   3   0   -2.66    3.32
   9  -3   0   -0.48    3.10
   9   3  -1  363.38   17.59
  -9  -3  -1  347.28   14.79
   9   3   1  366.30   17.43
   9   3  -1  381.05   18.98
   9   3   1  368.39   18.49
   9  -3  -1  378.08   18.20
   9  -3   1  370.82   17.95
  -9  -3   1  358.62   15.18
   9   3   2   10.43    4.46
  -9  -3  -2    8.30    2.98
   9   3  -2   13.97    5.31
   9  -3  -2   10.95    4.30
   9   3   2    9.20    4.54
   9  -3   2   12.85    4.72
  -9  -3   2    9.66    3.73
   9   3   3  105.51    9.54
  -9  -3  -3   92.16    7.62
   9   3  -3  105.97   10.16
   9  -3  -3   93.02    9.36
   9   3   3   96.08    9.54
   9  -3   3  120.08   10.63
   9   3   4    9.06    3.50
  -9  -3  -4   13.27    3.03
   9   3  -4   10.04    4.78
   9  -3  -4    9.84    3.44
   9   3   4   11.81    4.54
   9  -3   4   15.04    5.09
   9   3   5  312.96   15.98
  -9  -3  -5  312.13   14.04
   9   3  -5  311.72   17.38
   9  -3  -5  313.13   16.67
   9   3   5  292.17   16.70
   9  -3   5  309.64   16.74
   9   3   6    0.53    2.65
   9  -3  -6    0.90    2.09
  -9  -3  -6    0.19    2.08
   9   3  -6    4.25    3.74
   9  -3  -6    5.01    3.91
   9   3   6    0.58    3.00
   9  -3   6    2.46    3.24
   9   3   7    6.01    3.17
   9  -3  -7    7.08    2.74
  -9  -3  -7    8.37    3.25
   9   3  -7    7.07    4.19
   9  -3  -7    4.59    3.11
   9   3   7    3.36    3.25
   9  -3   7    5.86    3.57
   9  -3  -8   24.74    4.77
  -9  -3  -8   36.68    5.23
   9   3  -8   32.27    6.14
   9  -3  -8   31.50    6.65
   9   3   8   30.18    6.65
   9  -3   8   35.70    6.88
   9  -3  -9  438.90   17.55
   9   3  -9  451.53   21.65
   9  -3  -9  455.20   20.54
   9   3   9  426.65   20.75
   9  -3   9  471.21   21.79
   9  -3 -10   43.09    6.08
   9   3 -10   49.11    8.05
   9  -3 -10   51.93    7.23
   9   3  10   48.01    7.97
   9  -3  10   40.30    7.53
   9  -3 -11   22.66    4.31
   9   3 -11   28.17    6.05
   9  -3 -11   27.26    5.57
   9   3  11   27.41    6.12
   9  -3  11   35.07    6.59
   9  -3 -12   21.93    4.20
   9   3 -12   24.09    5.89
   9  -3 -12   26.35    5.65
   9   3  12   23.34    6.08
   9  -3  12   23.16    5.57
   9   3 -13   58.75    8.50
   9  -3 -13   54.02    7.68
   9   3  13   47.60    7.33
   9  -3  13   64.05    9.10
   9   3 -14    9.84    4.83
   9  -3 -14    9.18    4.08
   9   3  14   21.23    6.02
   9  -3  14   13.89    5.60
   9   3 -15  260.68   17.81
   9  -3 -15  258.46   16.67
   9   3  15  284.43   18.31
   9  -3  15  292.85   18.72
   9   3 -16   20.80    6.56
   9  -3 -16   17.83    5.37
   9  -3  16   17.08    5.94
   9   3  16   10.49    5.25
   9  -3  16   14.97    5.65
   9  -3 -17   -0.52    3.23
   9   3  17    7.28    5.09
   9  -3 -18   19.28    5.59
   9  -3 -19  247.00   17.23
   9  -3 -20  111.08   11.87
   9   4   0   -0.97    2.85
  -9  -4   0   -0.66    2.10
   9   4   0    2.21    3.44
   9  -4   0    0.02    3.10
   9   4  -1   16.12    4.62
   9   4   1   11.36    4.07
  -9  -4   1   17.11    4.18
  -9  -4  -1   11.34    2.96
   9   4  -1   17.69    4.56
   9   4   1   16.85    4.36
   9  -4  -1   14.00    4.40
   9  -4   1   13.59    4.13
   9   4  -2   52.66    7.27
   9   4   2   52.32    6.94
  -9  -4  -2   50.01    6.25
   9   4  -2   47.70    6.96
   9  -4  -2   58.54    7.49
   9   4   2   62.93    8.24
   9  -4   2   55.65    7.33
  -9  -4   2   43.28    5.92
   9   4   3    2.45    2.93
  -9  -4  -3   -0.62    2.43
   9   4  -3   -0.42    3.44
   9  -4  -3    1.81    2.78
   9   4   3    0.77    2.82
   9  -4   3    4.97    3.34
   9   4   4    4.09    3.12
  -9  -4  -4    1.99    2.74
   9   4  -4    3.48    2.94
   9  -4  -4    9.78    4.07
   9   4   4    2.99    2.59
   9  -4   4    5.85    3.11
   9   4   5   39.84    6.46
  -9  -4  -5   49.20    6.03
   9   4  -5   51.03    7.64
   9  -4  -5   47.41    6.58
   9   4   5   51.19    7.63
   9  -4   5   49.81    7.17
   9   4   6   31.80    5.63
  -9  -4  -6   37.04    5.47
   9  -4  -6   38.67    5.70
   9   4  -6   44.36    7.28
   9  -4  -6   43.68    6.50
   9   4   6   35.32    6.22
   9  -4   6   36.17    6.44
   9   4   7   23.42    5.16
   9  -4  -7   25.00    4.82
  -9  -4  -7   14.78    4.00
   9   4  -7   19.63    5.65
   9  -4  -7   14.38    4.38
   9   4   7   20.99    5.49
   9  -4   7   23.05    5.46
  -9  -4  -8  331.69   15.70
   9  -4  -8  309.19   15.51
   9   4  -8  318.30   18.24
   9  -4  -8  335.29   17.29
   9   4   8  308.19   17.63
   9  -4   8  335.82   18.25
   9  -4  -9    9.35    4.10
  -9  -4  -9   25.43    5.17
   9   4  -9   24.77    6.57
   9  -4  -9   21.10    5.23
   9   4   9   16.46    5.70
   9  -4   9   18.34    5.57
   9  -4 -10   38.60    5.82
   9   4 -10   44.93    7.42
   9  -4 -10   38.06    6.21
   9   4  10   40.30    6.82
   9  -4  10   46.09    7.41
   9  -4 -11    7.53    2.86
   9   4 -11    2.71    3.19
   9  -4 -11   15.56    4.55
   9   4  11   17.61    4.77
   9  -4  11   17.30    5.31
   9  -4 -12    6.95    3.30
   9   4 -12    2.80    3.30
   9  -4 -12    5.05    2.55
   9   4  12    4.33    3.37
   9  -4  12    1.23    3.28
   9  -4 -13    1.70    2.19
   9   4 -13    1.00    3.51
   9  -4 -13    6.97    3.86
   9   4  13    1.45    3.06
   9  -4  13   -0.75    3.70
   9  -4 -14   38.16    5.93
   9   4 -14   33.66    6.35
   9  -4 -14   31.54    5.87
   9   4  14   33.04    6.74
   9  -4  14   35.77    6.87
   9   4 -15    1.49    4.21
   9  -4 -15   -3.27    3.46
   9  -4  15    1.62    3.98
   9   4  15    2.89    3.64
   9  -4  15    1.88    3.80
   9  -4 -16    3.41    3.02
   9   4  16    8.66    5.11
   9  -4  16    0.20    3.25
   9  -4 -17    5.80    3.99
   9   4  17    4.83    4.25
   9  -4 -18   37.37    6.76
   9  -4 -19    7.19    4.15
   9  -4 -20   25.48    6.06
   9   5   0   -0.68    2.86
  -9  -5   0   -2.38    3.09
   9   5   0   -2.81    3.07
   9  -5   0    0.02    2.91
   9   5  -1   -2.56    2.70
   9   5   1    7.04    3.72
  -9  -5   1   -1.41    2.56
  -9  -5  -1    0.33    2.17
   9   5  -1    1.55    3.66
   9   5   1   -1.14    2.82
   9  -5  -1   -2.71    3.15
   9  -5   1    2.10    2.62
   9   5  -2  193.37   13.87
  -9  -5  -2  205.19   12.86
   9   5   2  204.32   13.85
   9   5  -2  232.61   15.14
   9   5   2  192.96   13.75
   9  -5  -2  227.89   14.08
   9  -5   2  211.20   13.77
  -9  -5   2  202.13   12.75
   9   5  -3   15.46    4.68
   9   5   3   16.67    4.73
  -9  -5  -3   18.06    4.30
   9   5  -3   18.38    5.56
   9  -5  -3   16.71    4.53
   9   5   3   24.27    5.99
   9  -5   3   15.41    4.14
   9   5  -4   -0.04    3.08
   9   5   4    0.71    2.81
  -9  -5  -4    2.04    2.37
   9   5  -4    1.66    2.80
   9  -5  -4   -3.85    3.34
   9   5   4   -0.38    3.31
   9  -5   4   -0.73    2.36
   9   5   5    4.85    2.98
  -9  -5  -5    2.98    2.58
   9   5  -5    3.45    3.34
   9  -5  -5    6.25    3.09
   9   5   5    4.78    3.47
   9  -5   5    5.25    2.92
   9   5   6   87.66    9.36
  -9  -5  -6   88.38    8.59
   9  -5  -6   83.15    8.73
   9  -5  -6  109.19    9.77
   9   5  -6   81.69    9.43
   9  -5   6   96.14    9.78
   9   5   6   88.25    9.46
   9  -5  -7   10.87    3.79
  -9  -5  -7   12.44    3.75
   9   5  -7   13.10    5.10
   9  -5  -7   18.14    4.50
   9   5   7   11.99    4.55
   9  -5   7   18.61    5.29
  -9  -5  -8  279.58   15.22
   9  -5  -8  286.36   15.74
   9   5  -8  310.53   18.24
   9  -5  -8  298.17   16.12
   9   5   8  286.54   17.05
   9  -5   8  295.33   17.20
   9  -5  -9   20.05    5.28
  -9  -5  -9   20.03    4.96
   9   5  -9   25.61    6.86
   9  -5  -9   22.40    5.43
   9   5   9   22.72    6.08
   9  -5   9   17.08    5.49
  -9  -5 -10  217.54   13.80
   9  -5 -10  192.75   13.13
   9   5 -10  190.16   14.64
   9  -5 -10  201.72   13.56
   9   5  10  198.73   14.43
   9  -5  10  196.00   14.37
   9  -5 -11   37.45    6.15
   9   5 -11   36.84    7.30
   9  -5 -11   56.83    7.59
   9   5  11   46.38    7.71
   9  -5  11   49.07    7.90
   9  -5 -12  195.59   13.40
   9   5 -12  202.95   15.58
   9  -5 -12  183.01   13.29
   9   5  12  189.49   14.57
   9  -5  12  197.17   15.09
   9  -5 -13   71.98    8.54
   9   5 -13   76.55   10.35
   9  -5 -13   68.96    8.69
   9   5  13   75.33    9.54
   9  -5  13   76.31   10.06
   9  -5 -14   90.44    9.48
   9  -5 -14   85.94    9.39
   9   5 -14   99.31   10.90
   9   5  14   98.60   10.78
   9  -5  14   98.19   10.77
   9  -5 -15   57.10    7.96
   9  -5 -15   61.73    8.16
   9   5  15   64.18    9.04
   9  -5  15   54.29    8.83
   9  -5 -16  348.26   18.67
   9  -5 -16  354.35   19.02
   9   5  16  341.33   20.28
   9   6   0    1.42    2.93
  -9  -6   0   -4.95    3.90
   9   6   0    0.65    3.07
   9  -6   0   -0.41    2.60
   9   6  -1   19.65    5.01
   9   6   1   24.54    5.43
  -9  -6   1   25.94    5.49
  -9  -6  -1   24.34    5.40
   9   6  -1   21.85    5.36
   9   6   1   23.92    5.57
   9  -6  -1   24.92    5.00
   9  -6   1   20.16    5.03
   9   6  -2   41.58    6.81
   9   6   2   41.69    6.64
  -9  -6   2   37.20    6.03
  -9  -6  -2   39.77    6.17
   9   6  -2   26.02    5.53
   9   6   2   28.46    5.77
   9  -6  -2   37.37    6.05
   9  -6   2   33.06    5.73
   9   6  -3   46.80    7.41
   9   6   3   52.00    7.73
  -9  -6  -3   38.23    6.03
   9   6  -3   52.97    7.91
   9  -6  -3   54.35    7.07
   9   6   3   53.63    7.65
   9  -6   3   48.94    7.28
  -9  -6   3   47.94    6.84
   9   6  -4    2.60    2.72
   9   6   4    3.71    3.64
  -9  -6  -4    0.25    2.40
   9   6  -4   -1.88    3.68
   9  -6  -4    4.59    2.92
   9   6   4    7.36    3.81
   9  -6   4   -0.19    2.86
   9   6  -5    1.46    3.96
   9   6   5    5.16    3.19
  -9  -6  -5    2.45    2.86
   9   6  -5    1.25    2.87
   9  -6  -5    2.55    2.45
   9   6   5   -4.75    3.76
   9  -6   5    3.64    2.68
   9   6  -6    2.40    3.42
  -9  -6  -6    8.17    3.82
   9  -6  -6    9.17    3.67
   9   6  -6    5.20    3.36
   9  -6  -6    9.74    3.88
   9   6   6    5.08    3.28
   9  -6   6    7.38    2.98
   9  -6  -7    7.70    3.13
  -9  -6  -7    6.29    3.78
   9   6  -7    8.86    3.37
   9  -6  -7    6.78    3.19
   9   6   7   16.61    4.95
   9  -6   7    5.21    2.89
   9  -6  -8   38.10    6.54
  -9  -6  -8   39.18    6.30
   9   6  -8   35.65    6.88
   9  -6  -8   34.58    5.85
   9   6   8   34.53    6.39
   9  -6   8   37.04    6.46
   9  -6  -9   19.37    5.04
  -9  -6  -9   18.37    4.69
   9   6  -9   17.25    5.38
   9  -6  -9   22.55    5.06
   9   6   9   16.29    4.32
   9  -6   9   19.96    5.02
   9  -6 -10   -5.18    3.48
  -9  -6 -10    7.46    4.14
   9   6 -10    0.98    3.35
   9  -6 -10   -2.51    2.82
   9   6  10   -3.59    3.60
   9  -6  10    2.11    3.03
   9  -6 -11    2.16    3.04
  -9  -6 -11    3.71    3.59
   9   6 -11    5.72    3.06
   9  -6 -11    1.80    3.35
   9   6  11    0.87    3.35
   9  -6  11    2.31    3.25
   9  -6 -12   15.01    4.57
   9   6 -12    8.66    3.76
   9   6  12   13.48    4.62
   9  -6  12   17.27    5.14
   9  -6 -13   32.12    6.38
   9   6 -13   26.00    6.25
  -9   6  13   25.04    5.75
   9   6  13   20.98    5.44
   9  -6  13   22.82    6.11
   9  -6 -14    5.28    3.93
  -9   6  14    2.82    3.39
   9   6  14    2.40    3.31
   9  -6  14    1.14    3.57
   9  -6 -15   15.98    4.96
  -9   6  15   21.79    5.39
   9   6  15   23.44    5.72
   9  -6  15   16.19    4.83
   9  -6 -16    7.99    4.40
  -9   6  16    3.92    2.73
   9   6  16    9.58    4.80
   9  -6 -17   74.99    9.54
   9  -6 -18  119.59   12.04
   9   7   0   -2.76    2.91
  -9  -7   0   -6.78    4.42
   9   7   0    0.72    2.91
   9  -7   0    1.71    2.86
   9   7  -1   24.28    5.98
   9   7   1   21.76    5.79
  -9  -7   1   17.04    4.90
  -9  -7  -1   17.83    4.86
   9   7  -1   20.89    4.59
   9   7   1   16.98    4.83
   9  -7  -1   30.88    5.57
   9  -7   1   27.53    5.42
   9   7  -2  117.24   11.65
   9   7   2  119.66   11.77
  -9  -7  -2   84.30    9.40
   9   7  -2  101.71   10.79
   9   7   2  108.33   10.74
   9  -7  -2  108.59    9.80
   9  -7   2  107.80    9.98
  -9  -7   2  106.34   10.56
   9   7  -3  344.45   19.56
  -9  -7  -3  314.19   17.60
   9   7   3  334.34   19.01
   9   7  -3  326.28   18.58
   9  -7  -3  308.08   16.16
   9   7   3  315.53   17.89
   9  -7   3  326.36   17.01
  -9  -7   3  318.00   17.98
   9   7  -4   -0.53    4.57
   9   7   4   -0.66    2.78
  -9  -7  -4   -3.16    3.30
   9   7  -4    3.00    3.40
   9  -7  -4    2.27    3.27
   9   7   4    1.69    2.87
   9  -7   4    8.94    4.41
   9   7  -5  206.43   15.43
  -9  -7  -5  190.70   13.80
   9   7  -5  192.35   14.56
   9  -7  -5  207.77   13.04
   9   7   5  208.40   14.68
   9  -7   5  195.57   13.50
   9   7  -6   52.82    8.30
  -9  -7  -6   55.45    7.82
   9  -7  -6   55.80    7.96
   9   7  -6   58.53    8.51
   9   7   6   62.64    8.66
   9  -7   6   44.69    7.09
   9   7  -7   10.03    4.01
  -9  -7  -7   19.02    5.39
   9  -7  -7   11.08    4.56
   9   7  -7   16.12    4.98
   9   7   7   15.19    4.68
   9  -7   7   18.70    4.66
   9   7  -8    5.49    3.95
   9  -7  -8    1.33    2.94
  -9  -7  -8    7.94    3.52
   9   7  -8    3.56    3.16
   9   7   8    8.58    4.48
   9  -7   8    2.06    2.82
  -9  -7  -9  268.79   16.65
   9  -7  -9  283.03   17.36
   9   7  -9  288.89   18.27
   9   7   9  257.84   16.56
  -9   7   9  269.51   17.61
   9  -7   9  260.15   16.56
  -9  -7 -10  110.46   10.93
   9  -7 -10   90.93   10.03
   9   7 -10  102.19   11.21
   9   7  10  104.78   10.84
  -9   7  10   85.98   10.15
   9  -7  10  112.65   11.03
   9  -7 -11   -2.12    4.05
  -9  -7 -11   11.72    5.04
   9   7 -11    4.39    4.15
  -9   7  11   10.82    5.03
   9   7  11    6.01    3.71
   9  -7  11    2.20    3.69
   9  -7 -12   45.74    7.68
   9   7 -12   66.60    9.56
  -9   7 -12   54.27    8.41
  -9   7  12   65.85    9.28
   9   7  12   56.86    8.42
   9  -7  12   59.87    8.90
   9  -7 -13  372.06   20.40
   9   7  13  364.15   20.15
  -9   7 -13  371.71   20.18
  -9   7  13  378.79   20.89
   9  -7  13  395.71   21.49
   9  -7 -14    4.74    3.59
  -9   7 -14    8.88    4.38
  -9   7  14    5.52    4.22
   9   7  14   18.04    5.83
   9  -7  14    4.76    4.37
   9  -7 -15   74.69    9.73
  -9   7  15   67.27    9.54
   9   7  15   71.39    9.24
   9   8   0    2.55    3.68
  -9  -8   0   -7.32    4.70
   9   8   0   -5.18    4.33
  -9   8   0    4.65    4.49
   9   8  -1   11.83    4.18
   9   8   1   16.24    5.63
  -9  -8   1    9.16    3.74
  -9  -8  -1   11.53    4.31
   9   8  -1    6.52    3.34
   9   8   1    1.40    3.66
  -9   8  -1   15.74    5.72
  -9   8   1   10.94    5.25
   9   8  -2   20.39    5.47
   9   8   2   10.75    3.47
  -9  -8   2   14.26    4.33
  -9  -8  -2   11.48    4.65
   9   8  -2   10.70    4.38
   9   8   2   12.21    4.21
  -9   8  -2   22.53    6.50
  -9   8   2   22.77    6.68
   9  -8   2   17.19    4.18
   9   8  -3   41.57    7.27
   9   8   3   38.94    6.93
  -9  -8   3   45.69    7.72
  -9  -8  -3   42.86    7.17
   9   8  -3   39.96    6.97
   9   8   3   35.12    6.21
  -9   8  -3   46.76    8.36
  -9   8   3   56.70    8.83
   9  -8   3   50.23    7.15
   9   8  -4   19.57    5.80
  -9  -8   4   19.44    5.59
  -9  -8  -4   14.39    4.77
   9   8  -4   25.91    5.82
   9   8   4   10.62    3.81
  -9   8  -4   32.04    6.67
  -9   8   4   26.13    6.37
   9  -8   4   27.43    5.49
   9   8  -5   93.09   10.77
  -9  -8  -5   90.59   10.11
   9   8  -5   75.24    9.60
   9   8   5   88.04    9.81
   9  -8   5   84.54    9.05
  -9   8   5  102.18   11.31
  -9   8  -5   96.49   10.78
   9   8  -6   20.28    6.29
  -9  -8  -6   15.08    4.79
   9  -8  -6   12.11    4.06
   9   8  -6   15.07    5.27
   9   8   6   15.40    4.56
  -9   8  -6   21.21    5.66
  -9   8   6   11.51    4.37
   9  -8   6   21.82    5.13
   9   8  -7   31.21    6.87
  -9  -8  -7   30.69    6.54
   9  -8  -7   20.40    5.66
   9   8  -7   21.18    5.67
   9   8   7   19.20    5.46
  -9   8  -7   30.98    6.99
  -9   8   7   22.90    6.22
   9  -8   7   30.68    5.95
   9  -8  -8   23.44    5.77
  -9  -8  -8   15.52    4.49
   9   8  -8   13.67    5.06
   9   8   8   13.05    4.90
  -9   8  -8   22.60    6.36
  -9   8   8   15.77    5.03
   9  -8   8   14.19    4.71
   9  -8  -9   22.16    5.83
  -9  -8  -9   27.93    6.47
   9   8  -9   15.47    5.01
  -9   8  -9   27.60    6.29
   9   8   9   19.39    5.42
  -9   8   9   32.90    7.24
   9  -8   9   20.61    5.35
   9  -8 -10   13.49    4.77
  -9  -8 -10    9.70    4.05
   9   8 -10   12.42    4.87
  -9   8 -10   18.58    5.53
   9   8  10   11.04    4.07
   9  -8  10   14.73    5.00
   9  -8 -11    4.17    3.23
  -9  -8 -11   13.64    4.87
  -9   8 -11   17.44    5.52
   9   8  11    8.78    4.05
   9  -8  11    6.49    3.77
   9  -8 -12   -1.30    3.90
  -9  -8 -12    3.34    4.26
  -9   8 -12    7.94    4.48
   9   8  12    1.00    3.03
   9  -8  12    4.41    3.57
  -9   8 -13    7.67    4.46
   9   8  13    7.04    3.67
   9  -8  13    0.74    3.01
  -9   8 -14   38.30    7.21
   9   8  14   23.14    5.13
  -9  -9   0    0.24    3.41
   9   9   0    0.42    3.61
  -9  -9  -1  122.38   12.02
   9   9  -1  106.28   10.81
   9   9   1  121.18   11.35
  -9  -9   1  116.58   11.85
  -9  -9   2   30.82    6.24
  -9  -9  -2   17.58    5.59
   9   9  -2   39.22    7.08
   9   9   2   30.81    6.17
  -9  -9   3   36.53    7.08
  -9  -9  -3   29.95    6.32
   9   9  -3   23.45    6.10
   9   9   3   34.46    6.69
  -9  -9   4   12.72    5.46
  -9  -9  -4    4.70    3.46
   9   9  -4    3.47    3.86
   9   9   4    2.46    2.70
  -9  -9  -5    5.87    3.58
   9  -9  -5    8.02    3.79
   9   9  -5   13.60    5.45
   9   9   5   14.00    5.01
  -9  -9   5   18.22    5.59
  -9  -9  -6  293.59   18.90
   9  -9  -6  300.55   19.30
   9   9  -6  307.01   18.95
  -9   9  -6  340.05   18.61
   9   9   6  294.67   17.64
  -9  -9  -7   16.00    5.26
   9   9  -7   27.15    6.42
   9   9   7   29.39    6.38
  -9   9  -7   40.90    7.12
  -9  -9  -8   45.36    7.79
   9   9  -8   28.01    6.65
   9   9   8   38.85    6.93
   9   9   9  297.49   17.72
   9  10   0   -0.14    3.32
   9  10  -1   -2.64    3.13
   9  10   1   -4.44    3.20
   9  10  -2    3.72    3.09
   9  10   2   -0.27    2.53
   9  10  -3   12.61    4.35
   9  10  -4   54.95    8.01
   9  10  -5   11.29    4.33
   9  10  -6    6.41    3.98
  -9  10  -7    7.80    4.46
  -9  10  -8   29.69    6.59
  10   0   0  326.88   18.29
  10   0   1    5.05    3.96
  10   0  -1   15.13    6.08
  10   0   1    5.41    4.35
  10   0   2  153.82   11.14
  10   0  -2  144.14   12.51
  10   0   2  160.15   12.82
  10   0   3   -0.52    2.87
  10   0  -3    1.97    3.84
  10   0   3   -0.76    3.34
  10   0   4   67.72    7.20
  10   0  -4   61.57    8.26
  10   0   4   68.66    8.89
  10   0   5   -2.76    2.50
  10   0  -5   -5.09    3.76
  10   0   5    1.36    3.14
  10   0  -6    8.98    4.30
  10   0   6    9.92    4.73
  10   0  -7    0.59    4.19
  10   0   7    7.79    4.65
  10   0  -8  134.99   12.60
  10   0   8  162.15   13.54
  10   0  -9    6.96    4.06
  10   0   9   -1.04    3.56
  10   0 -10    4.66    3.88
  10   0  10    2.26    3.34
  10   0 -11    4.96    4.87
  10   0  11    2.57    3.57
  10   0 -12   94.98   10.71
  10   0  12   89.68   10.59
  10   0 -13    1.20    3.07
  10   0  13    0.43    3.99
  10   0 -14   62.17    9.13
  10   1   0   14.56    4.23
  10   1   0    2.24    3.39
  10  -1   0    5.36    3.61
  10   1   1   23.29    4.63
  10   1  -1   31.48    6.15
  10  -1  -1   35.45    6.80
  10   1   1   28.51    6.37
  10  -1   1   37.01    6.93
  10  -1   2    5.70    2.83
  10   1   2    2.85    2.47
  10   1  -2    2.47    2.85
  10  -1  -2    0.40    2.82
  10   1   2   10.85    4.75
  10  -1   2   -4.66    3.93
  10  -1   3   28.91    4.86
  10   1   3   26.39    5.15
  10   1  -3   40.15    7.28
  10  -1  -3   33.97    6.60
  10   1   3   28.07    6.02
  10  -1   3   28.34    5.99
  10   1   4  183.80   12.29
  10   1  -4  215.08   15.14
  10  -1  -4  196.27   14.19
  10   1   4  200.69   14.76
  10  -1   4  204.56   14.67
  10   1   5   50.68    6.76
  10   1  -5   52.10    8.04
  10  -1  -5   55.30    8.04
  10   1   5   48.54    7.84
  10  -1   5   46.82    7.49
  10   1   6   57.86    7.08
  10   1  -6   36.85    7.57
  10  -1  -6   57.47    8.11
  10   1   6   53.27    8.00
  10  -1   6   45.92    7.72
  10   1   7  115.10    9.85
  10   1  -7  139.82   12.62
  10  -1  -7  128.79   12.10
  10   1   7  128.98   12.20
  10  -1   7  121.38   11.67
  10   1  -8  179.86   14.40
  10  -1  -8  210.03   14.98
  10   1   8  198.32   14.85
  10  -1   8  215.19   15.50
  10   1  -9   46.38    8.22
  10  -1  -9   42.21    7.04
  10   1   9   46.54    7.96
  10  -1   9   36.38    7.44
  10   1 -10  129.49   12.51
  10  -1 -10  112.22   11.25
  10   1  10  110.48   12.01
  10  -1  10  109.98   11.92
  10   1 -11  263.89   17.60
  10  -1 -11  254.03   17.15
  10   1  11  243.53   17.30
  10  -1  11  275.34   18.11
  10   1 -12   21.71    6.11
  10  -1 -12   17.57    5.12
  10   1  12   20.20    6.10
  10  -1  12   23.67    6.90
  10   1 -13   73.31    9.85
  10  -1 -13   50.00    7.97
  10   1  13   50.56    8.53
  10  -1  13   56.17    8.88
  10   1 -14   58.30    8.64
  10  -1 -14   62.58    9.15
  10  -1 -15   65.62    9.29
  10   2   0   -4.36    3.26
  10   2   0   -4.01    3.64
  10  -2   0   -3.94    3.29
  10   2  -1   -0.84    2.43
  10   2   1   -0.56    2.19
  10   2  -1   -4.07    3.91
  10  -2  -1    0.98    2.81
  10   2   1    1.42    3.15
  10  -2   1    2.47    3.48
  10   2   2    3.05    2.46
  10   2  -2    4.97    3.81
  10  -2  -2    7.48    3.52
  10   2   2    6.49    4.07
  10  -2   2    6.25    3.34
  10   2   3    0.06    2.39
  10   2  -3    3.81    3.27
  10  -2  -3   -4.74    3.03
  10   2   3    3.74    3.91
  10  -2   3    1.50    2.95
  10   2   4   77.58    8.26
  10   2  -4  102.29   10.73
  10  -2  -4   96.88   10.17
  10   2   4  104.52   10.76
  10  -2   4   90.97   10.16
  10   2   5   11.17    3.95
  10   2  -5   10.83    4.32
  10  -2  -5    8.15    3.25
  10   2   5    6.65    3.84
  10  -2   5   14.25    4.59
  10   2   6   21.04    4.78
  10   2  -6   24.45    6.04
  10  -2  -6   19.41    4.87
  10   2   6   24.67    5.79
  10  -2   6   21.17    5.56
  10   2   7    7.17    3.72
  10   2  -7   18.20    5.96
  10  -2  -7   11.18    4.73
  10   2   7    7.91    3.67
  10  -2   7    3.53    4.43
  10   2  -8   66.40    9.21
  10  -2  -8   61.19    8.43
  10   2   8   79.89    9.72
  10  -2   8   60.46    8.57
  10   2  -9   13.23    5.56
  10  -2  -9   17.13    5.01
  10   2   9   20.30    6.30
  10  -2   9   12.72    4.69
  10   2 -10  149.50   13.36
  10  -2 -10  157.34   13.33
  10   2  10  156.97   13.78
  10  -2  10  154.33   13.34
  10   2 -11   81.98   10.28
  10  -2 -11   64.82    8.99
  10   2  11   57.47    8.50
  10  -2  11   80.89   10.42
  10   2 -12   23.49    5.85
  10  -2 -12   31.96    6.54
  10   2  12   22.65    5.87
  10  -2  12   38.60    7.67
  10   2 -13    8.73    4.77
  10  -2 -13   16.53    5.31
  10   2  13   18.23    5.80
  10  -2  13   12.74    5.05
  10  -2 -14   36.88    6.81
  10  -2 -15   -0.53    3.00
  10   3   0   14.30    3.70
  10   3   0   18.40    5.31
  10  -3   0   14.43    4.19
  10   3  -1    3.92    3.16
  10   3   1    5.25    2.77
  10   3  -1    0.23    3.81
  10   3   1    6.84    3.50
  10  -3  -1    5.01    3.14
  10  -3   1   11.25    4.48
  10   3  -2   17.09    5.09
  10   3   2    7.37    3.68
  10   3  -2   11.48    4.25
  10  -3  -2   15.70    5.08
  10   3   2   16.30    4.89
  10  -3   2   12.20    5.26
  10   3   3  282.99   16.37
  10   3  -3  306.19   18.58
  10  -3  -3  295.29   17.38
  10   3   3  306.43   18.05
  10  -3   3  316.28   18.12
  10   3   4    8.67    4.41
  10   3  -4   21.75    6.48
  10  -3  -4   21.82    5.81
  10   3   4   22.17    6.51
  10  -3   4   31.90    7.21
  10   3   5  113.33   10.30
  10  -3  -5  109.12    9.17
  10   3  -5  122.21   11.85
  10  -3  -5  125.13   11.76
  10   3   5  127.58   11.99
  10  -3   5  122.56   11.43
  10   3   6   31.65    6.13
  10   3  -6   43.18    7.79
  10  -3  -6   32.64    6.76
  10   3   6   33.42    7.18
  10  -3   6   37.75    7.27
  10   3   7  562.16   22.95
  10   3  -7  554.06   25.10
  10  -3  -7  554.47   24.07
  10   3   7  559.01   25.00
  10  -3   7  600.17   25.70
  10   3  -8   48.23    8.63
  10  -3  -8   41.87    7.45
  10   3   8   50.23    9.23
  10  -3   8   42.97    8.35
  10   3  -9   44.03    7.43
  10  -3  -9   31.23    6.34
  10   3   9   39.28    7.37
  10  -3   9   48.91    8.04
  10   3 -10   -2.11    4.31
  10  -3 -10   10.11    4.15
  10   3  10    3.13    3.07
  10  -3  10   13.43    5.86
  10  -3 -11  104.91   10.92
  10   3 -11  100.13   11.34
  10   3  11   87.10   10.41
  10  -3  11   89.17   10.47
  10   3 -12    6.86    4.02
  10  -3 -12    2.40    2.82
  10   3  12    6.01    3.80
  10  -3  12    6.73    4.27
  10  -3 -13   98.28   10.58
  10   3  13   79.17   10.11
  10  -3  13   89.95   11.01
  10  -3 -14    9.67    4.81
  10  -3 -15  128.25   12.27
  10  -3 -16    5.99    4.74
  10   4   0   24.42    5.59
  10   4   0   28.26    6.42
  10  -4   0   15.00    4.79
  10   4  -1   95.03   10.13
  10   4   1   81.80    9.17
  10   4  -1  110.97   11.41
  10  -4  -1   86.40    9.83
  10  -4   1   99.24   10.14
  10   4   1   98.00   10.61
  10   4  -2   -1.01    2.75
  10   4   2    7.58    3.65
 -10  -4   2    4.96    2.98
  10   4  -2   -1.09    3.40
  10  -4  -2    3.15    3.25
  10   4   2   -1.54    3.71
  10  -4   2    7.81    3.82
  10   4  -3    6.76    3.43
  10   4   3    3.39    2.79
 -10  -4   3    8.60    3.39
  10   4  -3    8.52    4.41
  10  -4  -3   -0.43    3.71
  10   4   3   16.78    5.30
  10  -4   3    3.62    3.20
  10   4   4    7.43    3.98
  10   4  -4    7.32    4.08
  10  -4  -4    1.09    3.48
  10   4   4    3.35    3.57
  10  -4   4    3.59    3.27
  10   4  -4   -2.14    3.41
  10   4   5    1.93    2.61
  10   4  -5    1.52    3.06
  10  -4  -5   -0.40    3.30
  10   4   5   -3.12    3.79
  10  -4   5   -3.41    3.98
  10   4   6    9.75    3.96
  10  -4  -6    8.01    3.52
  10   4  -6   11.59    4.92
  10  -4  -6    6.77    3.61
  10   4   6    7.12    4.15
  10  -4   6    1.26    3.51
  10  -4  -7  156.28   11.59
  10   4  -7  159.17   13.68
  10  -4  -7  166.94   13.10
  10   4   7  151.87   13.28
  10  -4   7  147.94   12.83
  10  -4  -8    4.60    2.91
  10   4  -8   10.54    5.51
  10  -4  -8    2.72    3.28
  10   4   8   -5.39    3.82
  10  -4   8    3.46    2.81
  10   4  -9   10.68    4.59
  10  -4  -9    0.42    3.50
  10   4   9    0.98    3.58
  10  -4   9   -1.56    3.76
  10   4 -10    4.84    4.05
  10  -4 -10    3.47    3.57
  10   4  10    7.53    4.38
  10  -4  10    3.57    3.52
  10   4 -11   -2.94    2.89
  10  -4 -11    2.37    3.01
  10   4  11   -3.29    3.65
  10  -4  11    2.88    3.32
  10  -4 -12   25.76    5.99
  10   4  12   18.83    6.01
  10  -4  12   23.41    6.23
  10  -4 -13   96.54   10.54
  10  -4 -14   -1.00    3.03
  10  -4 -15    8.01    3.63
  10  -4 -16   20.36    5.47
 -10  -5   0  131.27   10.84
  10   5   0  132.93   12.32
  10   5   0  135.47   12.61
  10  -5   0  135.34   12.37
 -10  -5  -1  185.75   12.58
  10   5  -1  186.09   14.40
  10   5   1  210.18   15.12
  10   5  -1  187.77   14.62
  10   5   1  196.92   14.93
  10  -5  -1  203.56   14.36
  10  -5   1  191.39   14.11
 -10  -5   1  204.54   13.37
  10   5  -2   32.31    6.73
  10   5   2   31.86    6.23
 -10  -5   2   39.69    6.34
 -10  -5  -2   36.83    6.03
  10   5  -2   45.24    8.02
  10   5   2   28.96    6.23
  10  -5  -2   33.42    6.17
  10  -5   2   28.48    6.03
  10   5  -3   52.87    8.32
  10   5   3   46.94    7.56
 -10  -5   3   52.76    7.01
 -10  -5  -3   50.67    6.95
  10   5  -3   48.58    8.20
  10  -5  -3   55.28    7.76
  10   5   3   42.73    7.16
  10  -5   3   44.35    7.54
  10   5  -4  174.07   14.19
  10   5   4  171.85   13.53
  10   5  -4  149.47   13.32
  10  -5  -4  161.99   12.54
  10   5   4  156.66   13.31
  10  -5   4  142.87   12.23
 -10  -5   4  152.27   11.84
  10   5  -5    7.82    4.12
  10   5   5   10.15    4.45
  10   5  -5    8.36    3.66
  10  -5  -5   11.15    4.36
  10   5   5    6.38    3.30
  10  -5   5   -1.82    3.60
  10   5   6    6.88    3.43
  10  -5  -6   -1.54    3.57
  10   5  -6   12.95    4.84
  10  -5  -6    4.18    3.44
  10   5   6    2.99    3.26
  10  -5   6    5.26    3.69
  10  -5  -7   -1.61    3.18
  10   5  -7    6.97    5.12
  10  -5  -7    0.12    3.10
  10   5   7   -2.22    4.20
  10  -5   7    2.05    3.21
  10  -5  -8   63.84    7.93
  10   5  -8   67.93    9.51
  10  -5  -8   72.79    9.15
  10   5   8   80.11    9.85
  10  -5   8   57.90    8.37
  10  -5  -9   74.47    8.83
  10   5  -9   66.58    9.59
  10  -5  -9   78.50    9.16
  10   5   9   69.92    9.42
  10  -5   9   65.20    8.95
  10  -5 -10  248.17   15.57
  10  -5 -10  269.00   16.68
  10   5  10  261.95   17.82
  10  -5  10  258.64   17.50
  10  -5 -11   37.60    7.13
  10   5  11   31.39    7.17
  10  -5  11   43.19    8.00
  10  -5 -12    4.33    3.12
  10   5  12    4.32    3.97
  10  -5  12   -3.50    3.71
  10  -5 -13   -0.97    3.34
  10  -5 -14   93.34   10.45
 -10  -6   0  121.82   10.98
  10   6   0  108.76   11.57
  10   6   0  110.45   11.67
  10  -6   0  132.07   11.70
  10   6  -1   13.23    4.73
  10   6   1   16.06    4.84
 -10  -6   1   17.53    5.01
 -10  -6  -1    6.84    3.42
  10   6  -1   12.57    4.91
  10   6   1   15.41    5.16
  10  -6  -1   22.49    5.34
  10  -6   1   16.15    4.89
  10   6  -2    9.07    4.05
  10   6   2    7.74    3.90
 -10  -6   2    6.37    2.89
 -10  -6  -2   12.86    4.16
  10   6  -2    7.49    4.46
  10   6   2   13.23    5.19
  10  -6  -2    5.18    3.24
  10  -6   2   10.02    4.21
  10   6  -3   11.27    4.71
  10   6   3   19.00    5.44
 -10  -6   3    8.75    3.87
 -10  -6  -3   15.00    4.72
  10   6  -3   19.93    5.27
  10  -6  -3   11.46    4.17
  10   6   3   11.00    4.57
  10  -6   3   11.24    4.14
  10   6  -4   72.42    9.44
  10   6   4   84.16    9.80
 -10  -6   4   81.75    9.11
 -10  -6  -4   71.38    8.29
  10   6  -4   97.39   10.99
  10  -6  -4   87.70    9.47
  10   6   4   75.68    9.49
  10  -6   4   74.98    9.16
  10   6  -5   13.75    4.35
  10   6   5   14.67    4.85
 -10  -6  -5   12.02    3.82
  10   6  -5   23.22    5.80
  10  -6  -5   25.32    5.32
  10   6   5   10.50    4.15
  10  -6   5   17.39    5.19
  10   6  -6   10.24    4.19
 -10  -6  -6   10.58    3.58
  10  -6  -6   10.27    3.74
  10   6  -6   10.03    4.81
  10  -6  -6   12.01    4.10
  10   6   6    9.46    3.35
  10  -6   6    8.56    3.67
  10   6  -7    2.68    3.14
  10  -6  -7    1.79    2.74
  10   6  -7    4.46    4.16
  10  -6  -7    0.74    3.02
  10   6   7   -1.94    3.66
  10  -6   7    4.74    3.75
  10  -6  -8   41.45    7.22
  10   6  -8   40.41    7.89
  10  -6  -8   38.53    6.76
  10   6   8   36.22    7.37
  10  -6   8   40.63    6.99
  10  -6  -9   49.24    7.38
  10  -6  -9   39.05    6.85
  10   6   9   34.04    6.89
  10  -6   9   47.96    8.00
  10  -6 -10  212.18   14.90
  10   6  10  229.75   16.53
  10  -6  10  232.96   16.75
  10  -6 -11    4.00    3.63
  10   6  11    0.16    2.81
  10  -6 -12   -2.98    3.34
  10   7   0   75.09   10.84
 -10  -7   0   54.82    8.59
  10   7   0   67.63    9.68
  10  -7   0   49.62    8.19
 -10  -7   1  290.38   17.69
 -10  -7  -1  312.61   18.28
  10   7  -1  339.97   20.39
  10   7   1  323.91   19.72
  10   7  -1  319.59   19.45
  10   7   1  313.21   18.89
  10  -7  -1  306.63   17.27
  10  -7   1  318.08   17.94
  10   7  -2   58.94    9.29
  10   7   2   66.55    9.25
 -10  -7   2   53.64    7.97
 -10  -7  -2   56.67    7.94
  10   7  -2   57.66    8.83
  10   7   2   56.82    8.40
  10  -7  -2   61.86    8.20
  10  -7   2   55.39    7.84
 -10  -7  -3  141.84   12.39
  10   7   3  182.34   14.84
  10   7  -3  168.13   14.30
  10   7   3  159.59   13.76
  10  -7   3  153.47   12.58
 -10  -7   3  175.23   13.70
  10   7   4   29.91    6.57
 -10  -7   4   25.11    5.66
 -10  -7  -4   31.91    6.19
  10   7  -4   35.90    7.36
  10   7   4   30.95    6.58
  10  -7   4   27.58    5.86
 -10  -7  -5    2.62    3.11
  10  -7  -5    4.66    3.10
  10   7  -5    8.09    3.81
  10   7   5    5.41    3.72
  10  -7   5   11.64    4.09
 -10  -7   5    9.50    4.25
 -10  -7  -6   22.97    5.21
  10  -7  -6   20.34    5.37
  10   7  -6   19.07    5.57
  10   7   6   35.04    6.72
  10  -7   6   23.79    5.72
 -10  -7  -7  100.35   10.53
  10  -7  -7   89.35   10.22
  10  -7   7  101.03   10.72
  10   7   7   94.57   10.72
  10  -7  -8   -0.31    2.74
 -10  -7  -8    0.21    2.99
  10   7   8    1.34    3.65
  10  -7   8    0.97    3.11
  10  -7  -9    1.98    2.85
 -10  -7  -9   13.17    4.51
  10   7   9    8.38    4.47
  10  -7   9    6.74    4.26
  10  -7 -10   30.99    6.50
  10  -7  10   19.79    6.28
  10  -7 -11  335.26   19.65
 -10  -8   0  114.89   11.77
  10   8   0  107.14   11.45
 -10  -8   1   11.34    4.05
 -10  -8  -1   23.49    5.79
  10   8  -1   14.64    5.00
  10   8   1   17.30    5.02
 -10  -8   2   -1.65    2.80
 -10  -8  -2   -0.26    2.86
  10   8  -2   -0.84    3.75
  10   8   2    0.17    3.81
 -10  -8   3    2.13    2.96
 -10  -8  -3   -3.21    3.63
  10   8  -3   -6.43    4.94
  10   8   3    3.10    2.84
 -10  -8   4   -1.40    3.25
 -10  -8  -4   -0.35    3.63
  10   8   4    5.41    3.65
 -10  -8   5    5.28    3.78
 -10  -8  -5    4.21    3.07
  10  -8  -5   14.70    5.37
  10   8   5    4.15    3.25
 -10  -8  -6   47.31    7.91
  10   8   6   32.59    6.62
  10  -8   6   42.38    7.40
 -10  -8  -7  182.28   14.66
  10   8   7  169.73   14.13
  10  -8   7  167.68   13.63
 -10  -8  -8    6.33    4.32
  10  -8   8   19.19    5.29
  10  -8   9    2.30    3.16
  11   0   0    4.73    3.17
  11   0   0    0.55    3.10
  11   0   1    8.42    3.85
  11   0  -1    5.60    4.77
  11   0   1    6.14    4.84
  11   0  -2  220.87   16.49
  11   0   2  224.62   16.54
  11   0  -3    5.43    2.98
  11   0   3   -4.33    3.09
  11   0  -4   79.43   10.07
  11   0   4   80.04    9.99
  11   0  -5    0.16    3.69
  11   0   5    9.29    5.73
  11   0  -6   44.86    7.50
  11   0   6   47.40    8.10
  11   0  -7    0.27    3.28
  11   0   7    5.37    3.97
  11   0  -8   39.83    7.22
  11   1   0   -2.13    2.74
  11   1   0    1.18    3.55
  11  -1   0    2.84    3.21
  11   1  -1   -0.68    2.35
  11   1   1    6.74    3.46
  11   1  -1    3.10    3.64
  11  -1  -1   -2.58    3.17
  11   1   1   -0.51    3.58
  11  -1   1    2.30    3.77
  11   1   2   22.30    4.88
  11   1  -2   24.68    6.08
  11  -1  -2   29.60    6.46
  11   1   2   21.87    5.90
  11  -1   2   27.70    5.68
  11   1   3   15.45    4.05
  11   1  -3    7.81    3.65
  11  -1  -3    9.87    4.66
  11   1   3   16.28    5.33
  11  -1   3    5.93    3.27
  11   1  -4   19.53    5.55
  11  -1  -4   21.02    5.61
  11   1   4   13.02    4.83
  11  -1   4   21.70    5.97
  11   1  -5    5.12    4.21
  11  -1  -5    8.44    3.96
  11   1   5   13.25    5.42
  11  -1   5    6.45    4.35
  11   1  -6   64.50    9.39
  11  -1  -6   79.71   10.03
  11   1   6   88.38   10.83
  11  -1   6   96.77   11.22
  11   1  -7   18.96    5.75
  11  -1  -7   16.22    5.67
  11   1   7   22.74    6.41
  11  -1   7   26.42    6.69
  11  -1  -8    1.74    4.22
  11  -1  -9    5.56    4.51
  11   2   0   -3.02    2.92
  11   2   0   -2.67    3.59
  11  -2   0    3.03    4.26
  11   2  -1   60.47    8.58
  11   2   1   65.87    8.41
  11   2  -1   67.82    9.94
  11  -2  -1   71.77    9.41
  11   2   1   63.91    9.17
  11  -2   1   62.38    8.98
  11   2  -2  147.07   12.52
  11   2   2  145.72   12.12
  11   2  -2  142.96   13.27
  11  -2  -2  145.02   13.29
  11   2   2  133.87   13.12
  11  -2   2  140.76   13.04
  11   2   3    1.24    2.31
  11   2  -3    0.69    3.51
  11  -2  -3   -5.30    3.91
  11   2   3   -1.52    3.57
  11  -2   3   -4.58    4.37
  11   2   4   33.09    5.96
  11   2  -4   29.84    6.94
  11  -2  -4   29.34    6.66
  11   2   4   19.97    5.56
  11  -2   4   19.67    5.65
  11   2   5   39.29    6.34
  11   2  -5   37.59    7.43
  11  -2  -5   28.42    6.40
  11   2   5   39.59    7.55
  11  -2   5   38.10    7.24
  11   2  -6    0.35    3.59
  11  -2  -6   -1.52    3.26
  11   2   6    9.30    4.45
  11  -2   6    3.65    3.20
  11  -2  -7   -1.43    3.84
  11  -2   7   -0.64    3.24
  11  -2  -8   27.61    6.88
  11  -2  -9   65.51    9.36
  11  -2 -10   82.68   10.45
  11   3   0    1.73    2.37
  11   3   0   -4.94    4.76
  11  -3   0    5.04    4.12
  11   3  -1    5.20    3.53
  11   3   1    4.11    2.82
  11   3  -1    3.54    3.55
  11   3   1    4.31    4.62
  11  -3  -1   13.64    5.53
  11  -3   1    9.01    4.88
  11   3  -2   14.78    4.38
  11   3   2    9.82    4.02
  11   3  -2   17.40    5.85
  11  -3  -2   11.02    3.89
  11   3   2   16.07    4.92
  11  -3   2   10.89    5.09
  11   3  -3    6.78    4.28
  11   3   3    4.35    3.43
  11   3  -3    4.66    4.00
  11  -3  -3   11.59    4.74
  11   3   3    5.13    3.68
  11  -3   3    6.13    3.49
  11   3   4    4.87    3.82
  11   3  -4   12.39    5.04
  11  -3  -4    8.43    4.21
  11   3   4    5.77    3.91
  11  -3   4    7.82    3.45
  11   3  -4    4.06    3.47
  11   3   5  105.81   10.59
  11  -3  -5  104.85   11.14
  11   3   5  112.36   12.07
  11  -3   5  126.38   12.80
  11   3   6   14.21    4.11
  11  -3  -6   19.86    5.26
  11  -3   6   11.71    4.80
  11  -3  -7    0.66    3.50
  11  -3   7    2.05    3.07
  11  -3  -8    2.75    3.43
  11  -3  -9   12.29    5.07
  11  -3 -10   51.88    8.33
  11   4   0   -2.51    2.71
  11   4   0   -2.50    3.96
  11  -4   0    3.89    3.99
  11   4  -1  131.60   12.63
  11   4   1  138.78   12.60
  11   4  -1  126.97   13.04
  11   4   1  129.79   12.83
  11  -4  -1  144.59   12.93
  11  -4   1  121.26   11.85
  11   4  -2   30.55    6.94
  11   4   2   19.66    5.32
  11  -4  -2   19.30    5.60
  11   4   2   25.74    6.48
  11  -4   2   24.82    6.45
  11   4  -3   -0.63    3.04
  11   4   3    3.96    3.42
  11  -4  -3    1.25    3.90
  11  -4   3   -3.84    3.26
  11   4  -4    5.21    3.60
  11   4   4    6.55    3.22
  11  -4  -4    9.91    4.24
  11  -4   4    4.29    3.40
  11   4  -5   -3.80    3.73
  11   4   5   -0.84    3.07
  11  -4  -5    4.35    3.08
  11  -4   5    2.53    3.09
  11   4   6   -1.59    3.14
  11  -4  -6   -1.44    3.22
  11  -4   6    1.91    3.35
  11  -4  -7    2.59    3.34
  11  -4  -8   41.62    7.47
  11  -4  -9   14.37    5.11
  11  -4 -10  171.86   14.62
  11  -4 -11    9.59    4.20
  11   5   0    2.92    3.54
  11  -5   0   -2.01    3.68
  11   5   1   97.88   11.29
  11   5  -1   81.76   10.37
  11  -5  -1   75.00    9.81
  11  -5   1   84.12   10.32
  11   5  -2  221.72   16.59
  11   5   2  263.32   17.64
  11  -5  -2  257.48   17.11
  11  -5   2  291.88   18.45
  11   5   3    8.00    4.09
  11  -5  -3   -2.20    3.46
  11  -5   3    1.35    3.53
  11   5   4   39.62    7.48
  11  -5  -4   26.56    6.00
  11  -5   4   26.05    6.18
  11   5   5   12.00    4.65
  11  -5  -5    5.56    3.61
  11  -5   5   12.10    4.98
  11  -5  -6   86.23   10.39
  11  -5   6  102.14   11.42
  11  -5  -7    7.42    4.01
  11  -5  -8   12.16    4.66
  11  -5  -9   13.82    4.67
  11  -5 -10    4.78    3.96
  11  -5 -11   38.50    7.20
  11  -6   0   -5.57    4.23
  11  -6  -1  101.66   11.17
  11  -6   1  109.62   11.57
  11  -6  -2  170.76   14.02
  11  -6   2  214.09   16.09
  11  -6  -3   13.37    5.04
  11  -6   3    7.42    3.81
  11  -6  -4   17.15    5.31
  11  -6   4   23.80    5.92
  11  -6  -5   13.39    4.96
  11  -6  -5   13.35    4.79
  11  -6   5   19.33    5.76
  11  -6  -6   28.01    6.21
  11  -7   1   79.74    9.74
  11  -7   2   81.49   10.34
  11  -7   3   14.32    4.78
  11  -7   4   96.25   10.85
  12   1  -1   22.05    5.03
  12   1  -2   -3.18    2.96
  12   1  -3    0.52    2.36
  12   2   0    1.39    2.48
  12   2  -1   14.22    4.62
  12   2   1    7.98    3.67
  12   2  -2    0.12    2.61
  12   2  -3  107.48   11.51
  12   3   0    5.23    3.40
  12   3   1   13.29    4.46
  12   3   2   32.77    6.37
  12   3   3   -1.91    2.62
  
TITL SMZ_FIILT1 in Pbca
REM Pbca (#61 in standard setting)
CELL 0.71073   9.078532  11.526461  22.858120  90.0000  90.0000  90.0000
ZERR    6.00   0.000205   0.000251   0.000581   0.0000   0.0000   0.0000
LATT  1
SYMM -x+1/2,-y, z+1/2
SYMM -x, y+1/2,-z+1/2
SYMM  x+1/2,-y+1/2,-z
SFAC C H N
UNIT 120.00 120.00 6.00
TREF
HKLF 4
END
_computing_structure_solution     'SHELXT 2014/4 (Sheldrick, 2014)'
;
_shelx_hkl_checksum              94614
loop_
_space_group_symop_operation_xyz
'x, y, z'
'-x+1/2, -y, z+1/2'
'-x, y+1/2, -z+1/2'
'x+1/2, -y+1/2, -z'
'-x, -y, -z'
'x-1/2, y, -z-1/2'
'x, -y-1/2, z-1/2'
'-x-1/2, y-1/2, z'
loop_
_atom_site_label
_atom_site_type_symbol
_atom_site_fract_x
_atom_site_fract_y
_atom_site_fract_z
_atom_site_U_iso_or_equiv
_atom_site_adp_type
_atom_site_occupancy
_atom_site_site_symmetry_order
_atom_site_calc_flag
_atom_site_refinement_flags_posn
_atom_site_refinement_flags_adp
_atom_site_refinement_flags_occupancy
_atom_site_disorder_assembly
_atom_site_disorder_group
S1 S 0.33149(4) 0.34579(3) 0.38962(2) 0.01777(12) Uani 1 1 d . . . . .
O2 O 0.19601(12) 0.39716(10) 0.40962(5) 0.0227(2) Uani 1 1 d . . . . .
O1 O 0.34173(13) 0.22215(9) 0.38656(5) 0.0251(3) Uani 1 1 d . . . . .
N4 N 0.66694(13) 0.42605(11) 0.48540(6) 0.0203(3) Uani 1 1 d . . . . .
N3 N 0.65625(14) 0.28450(11) 0.40855(6) 0.0213(3) Uani 1 1 d . . . . .
N2 N 0.45130(14) 0.39538(11) 0.43701(6) 0.0194(3) Uani 1 1 d . . . . .
N1 N 0.45370(18) 0.53207(14) 0.15418(7) 0.0292(3) Uani 1 1 d . . . . .
C1 C 0.37422(16) 0.40312(12) 0.32136(6) 0.0184(3) Uani 1 1 d . . . . .
C2 C 0.44767(19) 0.33592(13) 0.27999(7) 0.0252(3) Uani 1 1 d . . . . .
H2 H 0.4771 0.2609 0.2893 0.033 Uiso 1 1 calc R U . . .
C3 C 0.47674(19) 0.38018(14) 0.22534(7) 0.0263(3) Uani 1 1 d . . . . .
H3 H 0.5278 0.3352 0.1983 0.034 Uiso 1 1 calc R U . . .
C4 C 0.43053(17) 0.49235(13) 0.20968(7) 0.0222(3) Uani 1 1 d . . . . .
C5 C 0.35647(18) 0.55920(12) 0.25207(7) 0.0229(3) Uani 1 1 d . . . . .
H5 H 0.3253 0.6338 0.2427 0.030 Uiso 1 1 calc R U . . .
C6 C 0.32942(16) 0.51559(13) 0.30726(7) 0.0207(3) Uani 1 1 d . . . . .
H6 H 0.2815 0.5610 0.3350 0.027 Uiso 1 1 calc R U . . .
C7 C 0.59827(16) 0.36588(12) 0.44300(6) 0.0183(3) Uani 1 1 d . . . . .
C8 C 0.80898(17) 0.40042(14) 0.49303(7) 0.0240(3) Uani 1 1 d . . . . .
H8 H 0.8616 0.4401 0.5216 0.031 Uiso 1 1 calc R U . . .
C9 C 0.88064(18) 0.31765(14) 0.46030(7) 0.0251(3) Uani 1 1 d . . . . .
H9 H 0.9797 0.3009 0.4664 0.033 Uiso 1 1 calc R U . . .
C10 C 0.79969(18) 0.26017(13) 0.41789(7) 0.0230(3) Uani 1 1 d . . . . .
C11 C 0.8675(2) 0.16670(16) 0.38118(9) 0.0329(4) Uani 1 1 d . . . . .
H11A H 0.8218 0.0937 0.3901 0.043 Uiso 1 1 calc R U . . .
H11B H 0.9710 0.1621 0.3893 0.043 Uiso 1 1 calc R U . . .
H11C H 0.8530 0.1844 0.3405 0.043 Uiso 1 1 calc R U . . .
H1N2 H 0.418(3) 0.444(2) 0.4594(11) 0.042(6) Uiso 1 1 d . . . . .
H1N1 H 0.516(2) 0.4950(19) 0.1332(10) 0.035(6) Uiso 1 1 d . . . . .
H2N1 H 0.446(3) 0.603(2) 0.1461(10) 0.042(6) Uiso 1 1 d . . . . .
loop_
_atom_site_aniso_label
_atom_site_aniso_U_11
_atom_site_aniso_U_22
_atom_site_aniso_U_33
_atom_site_aniso_U_23
_atom_site_aniso_U_13
_atom_site_aniso_U_12
S1 0.0183(2) 0.01899(19) 0.01606(19) -0.00147(13) -0.00053(13) -0.00248(12)
O2 0.0172(5) 0.0315(6) 0.0194(6) -0.0010(4) 0.0005(4) -0.0014(4)
O1 0.0334(7) 0.0188(6) 0.0230(6) -0.0009(4) -0.0007(5) -0.0054(4)
N4 0.0190(6) 0.0234(6) 0.0185(6) -0.0009(5) -0.0016(5) 0.0012(5)
N3 0.0228(7) 0.0204(6) 0.0206(7) -0.0002(5) 0.0019(5) 0.0031(5)
N2 0.0183(6) 0.0217(6) 0.0184(6) -0.0064(5) -0.0022(5) 0.0023(5)
N1 0.0394(9) 0.0255(7) 0.0226(7) 0.0034(6) 0.0102(6) 0.0017(6)
C1 0.0201(7) 0.0200(7) 0.0152(7) -0.0014(5) -0.0002(5) -0.0021(5)
C2 0.0306(8) 0.0207(7) 0.0242(8) 0.0001(6) 0.0033(6) 0.0052(6)
C3 0.0318(9) 0.0241(8) 0.0230(8) -0.0032(6) 0.0082(7) 0.0043(6)
C4 0.0237(7) 0.0233(7) 0.0197(8) 0.0001(6) 0.0029(6) -0.0037(6)
C5 0.0274(8) 0.0177(7) 0.0236(8) 0.0003(6) 0.0027(6) 0.0003(6)
C6 0.0221(7) 0.0186(7) 0.0214(8) -0.0038(6) 0.0033(6) -0.0007(5)
C7 0.0194(7) 0.0188(7) 0.0168(7) 0.0026(5) 0.0004(5) 0.0004(5)
C8 0.0208(7) 0.0295(8) 0.0216(8) 0.0016(6) -0.0020(6) 0.0005(6)
C9 0.0189(7) 0.0325(8) 0.0240(8) 0.0065(6) 0.0011(6) 0.0047(6)
C10 0.0246(7) 0.0225(7) 0.0220(8) 0.0053(6) 0.0050(6) 0.0048(6)
C11 0.0307(9) 0.0313(9) 0.0368(10) -0.0025(7) 0.0079(8) 0.0105(7)
loop_
_atom_type_symbol
_atom_type_description
_atom_type_scat_dispersion_real
_atom_type_scat_dispersion_imag
_atom_type_scat_source
C C 0.0033 0.0016 'International Tables Vol C Tables 4.2.6.8 and 6.1.1.4'
H H 0.0000 0.0000 'International Tables Vol C Tables 4.2.6.8 and 6.1.1.4'
N N 0.0061 0.0033 'International Tables Vol C Tables 4.2.6.8 and 6.1.1.4'
O O 0.0106 0.0060 'International Tables Vol C Tables 4.2.6.8 and 6.1.1.4'
S S 0.1246 0.1234 'International Tables Vol C Tables 4.2.6.8 and 6.1.1.4'
loop_
_geom_angle_atom_site_label_1
_geom_angle_atom_site_label_2
_geom_angle_atom_site_label_3
_geom_angle
_geom_angle_site_symmetry_1
_geom_angle_site_symmetry_3
O1 S1 O2 118.75(7) . .
O1 S1 N2 109.70(7) . .
O2 S1 N2 102.34(7) . .
O1 S1 C1 108.69(7) . .
O2 S1 C1 108.62(7) . .
N2 S1 C1 108.23(7) . .
C8 N4 C7 115.34(13) . .
C7 N3 C10 115.72(14) . .
C7 N2 S1 128.31(11) . .
C7 N2 H1N2 117.8(17) . .
S1 N2 H1N2 113.9(17) . .
C4 N1 H1N1 117.1(15) . .
C4 N1 H2N1 121.0(16) . .
H1N1 N1 H2N1 115(2) . .
C2 C1 C6 119.94(14) . .
C2 C1 S1 120.33(12) . .
C6 C1 S1 119.68(11) . .
C3 C2 C1 120.17(14) . .
C3 C2 H2 119.9 . .
C1 C2 H2 119.9 . .
C2 C3 C4 121.03(14) . .
C2 C3 H3 119.5 . .
C4 C3 H3 119.5 . .
N1 C4 C3 119.95(15) . .
N1 C4 C5 121.95(15) . .
C3 C4 C5 118.06(14) . .
C6 C5 C4 120.96(14) . .
C6 C5 H5 119.5 . .
C4 C5 H5 119.5 . .
C5 C6 C1 119.83(14) . .
C5 C6 H6 120.1 . .
C1 C6 H6 120.1 . .
N3 C7 N4 127.26(14) . .
N3 C7 N2 119.69(14) . .
N4 C7 N2 113.04(13) . .
N4 C8 C9 122.63(16) . .
N4 C8 H8 118.7 . .
C9 C8 H8 118.7 . .
C8 C9 C10 117.48(15) . .
C8 C9 H9 121.3 . .
C10 C9 H9 121.3 . .
N3 C10 C9 121.56(15) . .
N3 C10 C11 117.22(16) . .
C9 C10 C11 121.22(15) . .
C10 C11 H11A 109.5 . .
C10 C11 H11B 109.5 . .
H11A C11 H11B 109.5 . .
C10 C11 H11C 109.5 . .
H11A C11 H11C 109.5 . .
H11B C11 H11C 109.5 . .
loop_
_geom_bond_atom_site_label_1
_geom_bond_atom_site_label_2
_geom_bond_distance
_geom_bond_site_symmetry_2
S1 O1 1.4298(11) .
S1 O2 1.4396(11) .
S1 N2 1.6381(13) .
S1 C1 1.7383(15) .
N4 C8 1.334(2) .
N4 C7 1.345(2) .
N3 C7 1.3329(19) .
N3 C10 1.349(2) .
N2 C7 1.3837(19) .
N2 H1N2 0.82(2) .
N1 C4 1.365(2) .
N1 H1N1 0.85(2) .
N1 H2N1 0.84(2) .
C1 C2 1.392(2) .
C1 C6 1.396(2) .
C2 C3 1.375(2) .
C2 H2 0.9300 .
C3 C4 1.406(2) .
C3 H3 0.9300 .
C4 C5 1.409(2) .
C5 C6 1.380(2) .
C5 H5 0.9300 .
C6 H6 0.9300 .
C8 C9 1.376(2) .
C8 H8 0.9300 .
C9 C10 1.385(2) .
C9 H9 0.9300 .
C10 C11 1.498(2) .
C11 H11A 0.9600 .
C11 H11B 0.9600 .
C11 H11C 0.9600 .
loop_
_geom_torsion_atom_site_label_1
_geom_torsion_atom_site_label_2
_geom_torsion_atom_site_label_3
_geom_torsion_atom_site_label_4
_geom_torsion
_geom_torsion_site_symmetry_1
_geom_torsion_site_symmetry_2
_geom_torsion_site_symmetry_3
_geom_torsion_site_symmetry_4
O1 S1 N2 C7 46.16(15) . . . .
O2 S1 N2 C7 173.13(13) . . . .
C1 S1 N2 C7 -72.27(15) . . . .
O1 S1 C1 C2 -17.30(15) . . . .
O2 S1 C1 C2 -147.83(13) . . . .
N2 S1 C1 C2 101.78(14) . . . .
O1 S1 C1 C6 160.18(12) . . . .
O2 S1 C1 C6 29.66(14) . . . .
N2 S1 C1 C6 -80.74(14) . . . .
C6 C1 C2 C3 0.3(2) . . . .
S1 C1 C2 C3 177.73(13) . . . .
C1 C2 C3 C4 -1.4(3) . . . .
C2 C3 C4 N1 -176.49(16) . . . .
C2 C3 C4 C5 1.4(2) . . . .
N1 C4 C5 C6 177.56(15) . . . .
C3 C4 C5 C6 -0.3(2) . . . .
C4 C5 C6 C1 -0.8(2) . . . .
C2 C1 C6 C5 0.8(2) . . . .
S1 C1 C6 C5 -176.66(12) . . . .
C10 N3 C7 N4 0.4(2) . . . .
C10 N3 C7 N2 -179.17(13) . . . .
C8 N4 C7 N3 0.2(2) . . . .
C8 N4 C7 N2 179.78(13) . . . .
S1 N2 C7 N3 -2.5(2) . . . .
S1 N2 C7 N4 177.92(11) . . . .
C7 N4 C8 C9 -0.5(2) . . . .
N4 C8 C9 C10 0.2(2) . . . .
C7 N3 C10 C9 -0.7(2) . . . .
C7 N3 C10 C11 178.26(14) . . . .
C8 C9 C10 N3 0.4(2) . . . .
C8 C9 C10 C11 -178.47(16) . . . .
