#------------------------------------------------------------------------------
#$Date: 2017-09-28 15:56:01 +0300 (Thu, 28 Sep 2017) $
#$Revision: 201422 $
#$URL: file:///home/coder/svn-repositories/cod/cif/1/54/74/1547420.cif $
#------------------------------------------------------------------------------
#
# This file is available in the Crystallography Open Database (COD),
# http://www.crystallography.net/
#
# All data on this site have been placed in the public domain by the
# contributors.
#
data_1547420
loop_
_publ_author_name
'Anuradha R. Pallipurath'
'Jonathan M. Skelton'
'Mark R. Warren'
'Naghmeh Kamali'
'Patrick McArdle'
'Andrea Erxleben'
_publ_section_title
;
 Sulfamerazine: Understanding the Influence of Slip Planes in the
 Polymorphic Phase Transformation through X-Ray Crystallographic Studies
 and ab Initio Lattice Dynamics
;
_journal_name_full               'Molecular Pharmaceutics'
_journal_page_first              3735
_journal_page_last               3748
_journal_paper_doi               10.1021/acs.molpharmaceut.5b00504
_journal_volume                  12
_journal_year                    2015
_chemical_absolute_configuration ad
_chemical_formula_moiety         'C11 H12 N4 O2 S'
_chemical_formula_sum            'C11 H12 N4 O2 S'
_chemical_formula_weight         264.31
_chemical_name_common            Sulfamerazine
_chemical_name_systematic        4-amino-N-(4-methylpyrimidin-2-yl)
_space_group_crystal_system      orthorhombic
_space_group_IT_number           33
_space_group_name_Hall           'P 2c -2n'
_space_group_name_H-M_alt        'P n a 21'
_symmetry_space_group_name_Hall  'P 2c -2n'
_symmetry_space_group_name_H-M   'P n a 21'
_atom_sites_solution_hydrogens   mixed
_cell_angle_alpha                90
_cell_angle_beta                 90
_cell_angle_gamma                90
_cell_formula_units_Z            8
_cell_length_a                   14.47950(10)
_cell_length_b                   8.19740(10)
_cell_length_c                   21.8693(3)
_cell_measurement_reflns_used    11252
_cell_measurement_temperature    220
_cell_measurement_theta_max      29.4970
_cell_measurement_theta_min      1.8030
_cell_volume                     2595.76(5)
_computing_cell_refinement
;
CrysAlisPro, Agilent Technologies,
Version 1.171.37.35 (release 13-08-2014 CrysAlis171 .NET)
(compiled Aug 13 2014,18:06:01)
;
_computing_data_collection
;
CrysAlisPro, Agilent Technologies,
Version 1.171.37.35 (release 13-08-2014 CrysAlis171 .NET)
(compiled Aug 13 2014,18:06:01)
;
_computing_data_reduction
;
CrysAlisPro, Agilent Technologies,
Version 1.171.37.35 (release 13-08-2014 CrysAlis171 .NET)
(compiled Aug 13 2014,18:06:01)
;
_computing_molecular_graphics    OSCAIL
_computing_structure_refinement  'SHELXL-2014/7 (Sheldrick, 2014)'
_computing_structure_solution    SHELXT
_diffrn_ambient_temperature      220
_diffrn_measured_fraction_theta_full 0.998
_diffrn_measured_fraction_theta_max 0.998
_diffrn_measurement_device       'CrystalLogic Kappa (3 circle)'
_diffrn_measurement_device_type  'Rigaku Saturn724+ (2x2 bin mode)'
_diffrn_measurement_method
;
omega rotation with 1 degree frames
;
_diffrn_measurement_specimen_support 'MiTeGen loop'
_diffrn_radiation_monochromator  'double crystal Silicon 111'
_diffrn_radiation_source         'Diamond Light Source Beamline I19'
_diffrn_radiation_type           Synchrotron
_diffrn_radiation_wavelength     0.68890
_diffrn_reflns_av_R_equivalents  0.0448
_diffrn_reflns_av_unetI/netI     0.0432
_diffrn_reflns_Laue_measured_fraction_full 0.998
_diffrn_reflns_Laue_measured_fraction_max 0.998
_diffrn_reflns_limit_h_max       20
_diffrn_reflns_limit_h_min       -13
_diffrn_reflns_limit_k_max       11
_diffrn_reflns_limit_k_min       -11
_diffrn_reflns_limit_l_max       27
_diffrn_reflns_limit_l_min       -31
_diffrn_reflns_number            23478
_diffrn_reflns_point_group_measured_fraction_full 0.988
_diffrn_reflns_point_group_measured_fraction_max 0.968
_diffrn_reflns_theta_full        24.415
_diffrn_reflns_theta_max         29.476
_diffrn_reflns_theta_min         1.805
_exptl_absorpt_coefficient_mu    0.249
_exptl_absorpt_correction_T_max  1.00000
_exptl_absorpt_correction_T_min  0.97856
_exptl_absorpt_correction_type   multi-scan
_exptl_absorpt_process_details
;
CrysAlisPro, Agilent Technologies,
Version 1.171.36.28 (release 01-02-2013 CrysAlis171 .NET)
Empirical absorption correction using spherical harmonics,
implemented in SCALE3 ABSPACK scaling algorithm.
;
_exptl_crystal_colour            Colourless
_exptl_crystal_density_diffrn    1.353
_exptl_crystal_description       Parallelepiped
_exptl_crystal_F_000             1104
_exptl_crystal_size_max          0.50
_exptl_crystal_size_mid          0.40
_exptl_crystal_size_min          0.20
_refine_diff_density_max         0.293
_refine_diff_density_min         -0.324
_refine_diff_density_rms         0.047
_refine_ls_abs_structure_details
;
 Flack x determined using 2364 quotients [(I+)-(I-)]/[(I+)+(I-)]
 (Parsons, Flack and Wagner, Acta Cryst. B69 (2013) 249-259).
;
_refine_ls_abs_structure_Flack   -0.01(5)
_refine_ls_extinction_coef       .
_refine_ls_extinction_method     none
_refine_ls_goodness_of_fit_ref   1.022
_refine_ls_hydrogen_treatment    mixed
_refine_ls_matrix_type           full
_refine_ls_number_parameters     344
_refine_ls_number_reflns         7666
_refine_ls_number_restraints     1
_refine_ls_restrained_S_all      1.022
_refine_ls_R_factor_all          0.0595
_refine_ls_R_factor_gt           0.0453
_refine_ls_shift/su_max          0.029
_refine_ls_shift/su_mean         0.001
_refine_ls_structure_factor_coef Fsqd
_refine_ls_weighting_details
'w=1/[\s^2^(Fo^2^)+(0.0541P)^2^+0.3587P] where P=(Fo^2^+2Fc^2^)/3'
_refine_ls_weighting_scheme      calc
_refine_ls_wR_factor_gt          0.1081
_refine_ls_wR_factor_ref         0.1195
_reflns_Friedel_coverage         0.895
_reflns_Friedel_fraction_full    0.978
_reflns_Friedel_fraction_max     0.936
_reflns_number_gt                6189
_reflns_number_total             7666
_reflns_threshold_expression     'I > 2\s(I)'
_cod_data_source_file            Exp_Form-I2FSynchrotron_Form-I_220K.cif
_cod_data_source_block           220k_smz-f1_a
_cod_database_code               1547420
_shelx_space_group_comment
;
The symmetry employed for this shelxl refinement is uniquely defined
by the following loop, which should always be used as a source of
symmetry information in preference to the above space-group names.
They are only intended as comments.
;
_shelx_estimated_absorpt_t_min   0.885
_shelx_estimated_absorpt_t_max   0.952
_shelx_res_file
;
    220k_smz-f1_a.res created by SHELXL-2014/7
TITL 220k_smz-f1_a.res in Pna2(1)
REM Old TITL 010_220K_SulfamerazineF1_ in Pna2(1)
REM SHELXT solution in Pna2(1)
REM R1 0.098,  Rweak 0.022,  Alpha 0.002,  Orientation as input
REM Flack x =  0.020 ( 0.042 ) from Parsons' quotients
REM Formula found by SHELXT:  C26 N4 O4 S2
CELL  0.68890  14.4795   8.1974  21.8693   90.000   90.000   90.000
ZERR    8.000   0.0001   0.0001   0.0003    0.000    0.000    0.000
REM SG 33 4 4 Pna21 PGmm2 Orthorhombic
LATT -1
REM SG  ASUN  1  .5 .5 1.
REM SG  ORGN  on 2(1)
SYMM -X,-Y,0.5+Z
SYMM 0.5+X,0.5-Y,Z
SYMM 0.5-X,0.5+Y,0.5+Z
SFAC C H N O S
UNIT 88.00 96.00 32.00 16.00 8.00
L.S. 10
SIZE    0.50  0.40  0.20
BOND $H
FMAP 2
PLAN 20
ACTA
CONF
EQIV $1 x, y-1, z
HTAB N5 O4_$1
EQIV $2 -x+3/2, y+1/2, z-1/2
HTAB N1 O4_$2
EQIV $3 x, y+1, z
HTAB N1 O1_$3
HTAB N2 N8
HTAB N6 N4
LIST 4
WGHT    0.054100    0.358700
FVAR       0.51638   0.35344
S1    5    0.645337    0.495222    0.344002    11.00000    0.02701    0.03139 =
         0.02937    0.00240   -0.00153   -0.00214
S2    5    0.577894    0.496636    0.652835    11.00000    0.02631    0.03089 =
         0.02776    0.00324   -0.00132   -0.00167
O1    4    0.688668    0.370472    0.308320    11.00000    0.04448    0.03190 =
         0.03764   -0.00386    0.00046   -0.00151
O2    4    0.548157    0.522288    0.337412    11.00000    0.02741    0.04723 =
         0.03948    0.00708   -0.00485   -0.00520
O3    4    0.675309    0.469193    0.659274    11.00000    0.02618    0.04605 =
         0.03537    0.00635   -0.00532   -0.00254
O4    4    0.535517    0.623573    0.687723    11.00000    0.04066    0.03016 =
         0.04016   -0.00355   -0.00010   -0.00211
N1    3    0.842174    1.116826    0.312381    11.00000    0.04047    0.03209 =
         0.06441   -0.00794    0.01826   -0.00477
N2    3    0.654469    0.448192    0.417279    11.00000    0.02468    0.04511 =
         0.03179    0.00719    0.00100   -0.00002
N3    3    0.814144    0.409023    0.417190    11.00000    0.02738    0.03710 =
         0.03904    0.00312    0.00300    0.00106
N4    3    0.727895    0.430122    0.509576    11.00000    0.03360    0.07798 =
         0.03079    0.00448   -0.00214    0.01304
N5    3    0.380276   -0.119899    0.695334    11.00000    0.04612    0.03242 =
         0.08526   -0.00361    0.01504   -0.00886
AFIX  93
H5A   2    0.323817   -0.118597    0.707534    11.00000   -1.30000
H5B   2    0.407693   -0.211391    0.688947    11.00000   -1.30000
AFIX   0
N6    3    0.568240    0.539292    0.579563    11.00000    0.02604    0.04978 =
         0.03012    0.00914    0.00208    0.00255
N7    3    0.409719    0.586580    0.580126    11.00000    0.02833    0.04023 =
         0.03635    0.00141    0.00147    0.00269
N8    3    0.495733    0.565384    0.487400    11.00000    0.03418    0.07328 =
         0.03276    0.00536   -0.00334    0.01325
C1    1    0.704046    0.677326    0.333869    11.00000    0.02600    0.02941 =
         0.02799    0.00122    0.00064    0.00158
C2    1    0.794090    0.679171    0.310665    11.00000    0.02834    0.03079 =
         0.02707   -0.00108    0.00021    0.00381
AFIX  43
H2    2    0.823194    0.581866    0.300331    11.00000   -1.30000
AFIX   0
C3    1    0.839539    0.825442    0.303159    11.00000    0.02472    0.03530 =
         0.02603    0.00020    0.00454    0.00058
AFIX  43
H3    2    0.899263    0.826322    0.287516    11.00000   -1.30000
AFIX   0
C4    1    0.796660    0.973119    0.318869    11.00000    0.03129    0.03272 =
         0.02721   -0.00129    0.00007   -0.00306
C5    1    0.705979    0.969317    0.342544    11.00000    0.03209    0.03019 =
         0.03926   -0.00179    0.00850    0.00231
AFIX  43
H5    2    0.676655    1.066205    0.353152    11.00000   -1.30000
AFIX   0
C6    1    0.660829    0.823323    0.349998    11.00000    0.02834    0.03502 =
         0.03699    0.00129    0.00765    0.00157
AFIX  43
H6    2    0.601237    0.821731    0.365851    11.00000   -1.30000
AFIX   0
C7    1    0.736741    0.428346    0.448990    11.00000    0.02782    0.03368 =
         0.03331    0.00510   -0.00110    0.00321
C8    1    0.806001    0.405192    0.540661    11.00000    0.04562    0.11698 =
         0.03495    0.00533   -0.00498    0.02262
AFIX  43
H8    2    0.803501    0.402277    0.583140    11.00000   -1.30000
AFIX   0
C9    1    0.889900    0.383674    0.512463    11.00000    0.03294    0.10224 =
         0.04658   -0.00349   -0.00998    0.01731
AFIX  43
H9    2    0.943409    0.366516    0.535088    11.00000   -1.30000
AFIX   0
C10   1    0.892015    0.388375    0.449762    11.00000    0.03013    0.04667 =
         0.05199    0.00082   -0.00056    0.00714
C11   1    0.978544    0.369014    0.413741    11.00000    0.03257    0.07363 =
         0.06358   -0.00357    0.00411    0.00627
AFIX 137
H11A  2    0.982363    0.259511    0.398385    11.00000   -1.30000
H11B  2    1.030811    0.390752    0.439490    11.00000   -1.30000
H11C  2    0.978265    0.444294    0.380115    11.00000   -1.30000
AFIX   0
C12   1    0.518920    0.315948    0.665837    11.00000    0.02703    0.02810 =
         0.02632    0.00158    0.00161   -0.00018
C13   1    0.563479    0.168651    0.655675    11.00000    0.02710    0.03330 =
         0.04916   -0.00274    0.00742    0.00254
AFIX  43
H13   2    0.624446    0.167922    0.642298    11.00000   -1.30000
AFIX   0
C14   1    0.517976    0.023762    0.665278    11.00000    0.03642    0.03032 =
         0.06022   -0.00267    0.00525    0.00576
AFIX  43
H14   2    0.548181   -0.074410    0.657906    11.00000   -1.30000
AFIX   0
C15   1    0.426203    0.022733    0.686140    11.00000    0.03465    0.03142 =
         0.03940   -0.00241    0.00377   -0.00153
C16   1    0.381985    0.172493    0.696451    11.00000    0.03042    0.03449 =
         0.03089   -0.00545    0.00307   -0.00201
AFIX  43
H16   2    0.321113    0.173905    0.710008    11.00000   -1.30000
AFIX   0
C17   1    0.427714    0.317294    0.686721    11.00000    0.02946    0.03139 =
         0.02837   -0.00164    0.00321    0.00061
AFIX  43
H17   2    0.397969    0.415936    0.694032    11.00000   -1.30000
AFIX   0
C18   1    0.486531    0.565293    0.548059    11.00000    0.02740    0.03619 =
         0.03094    0.00405   -0.00001    0.00100
C19   1    0.417640    0.597384    0.456635    11.00000    0.04575    0.11087 =
         0.03546    0.00061   -0.00900    0.02307
AFIX  43
H19   2    0.419843    0.601263    0.414159    11.00000   -1.30000
AFIX   0
C20   1    0.335237    0.624443    0.484970    11.00000    0.04101    0.10914 =
         0.04738   -0.00631   -0.01191    0.02778
AFIX  43
H20   2    0.282481    0.648638    0.462473    11.00000   -1.30000
AFIX   0
C21   1    0.332159    0.614986    0.547932    11.00000    0.03159    0.04893 =
         0.04987   -0.00339   -0.00235    0.00871
C22   1    0.245189    0.635566    0.584330    11.00000    0.03112    0.07874 =
         0.07280   -0.00494    0.00489    0.00916
AFIX 137
H22A  2    0.247371    0.737183    0.606103    11.00000   -1.30000
H22B  2    0.239501    0.547323    0.612943    11.00000   -1.30000
H22C  2    0.193008    0.635371    0.557250    11.00000   -1.30000
AFIX   0
H1N1  2    0.890225    1.120124    0.292442    11.00000    0.04236
H2N1  2    0.811972    1.200001    0.315564    11.00000    0.05574
H1N2  2    0.615595    0.479042    0.437827    11.00000    0.04302
H1N6  2    0.619391    0.503709    0.558615    11.00000    0.05611
HKLF 4
REM  220k_smz-f1_a.res in Pna2(1)
REM R1 =  0.0453 for    6189 Fo > 4sig(Fo)  and  0.0595 for all    7666 data
REM    344 parameters refined using      1 restraints
END
WGHT      0.0513      0.3779
REM Highest difference peak  0.293,  deepest hole -0.324,  1-sigma level  0.047
Q1    1   0.5448  0.3989  0.6558  11.00000  0.05    0.29
Q2    1   0.8086  0.7619  0.3065  11.00000  0.05    0.25
Q3    1   0.8170  0.9024  0.3135  11.00000  0.05    0.25
Q4    1   0.6800  0.5951  0.3451  11.00000  0.05    0.25
Q5    1   0.2063  0.5412  0.5629  11.00000  0.05    0.22
Q6    1   0.5470  0.2405  0.6681  11.00000  0.05    0.21
Q7    1   0.6926  0.7530  0.3496  11.00000  0.05    0.21
Q8    1   0.7539  0.6786  0.3425  11.00000  0.05    0.20
Q9    1   0.4130  0.2337  0.6908  11.00000  0.05    0.20
Q10   1   0.8092  0.4135  0.3715  11.00000  0.05    0.20
Q11   1   0.4179  0.1016  0.6979  11.00000  0.05    0.20
Q12   1   0.7555  0.9620  0.3390  11.00000  0.05    0.19
Q13   1   0.4718  0.3138  0.6671  11.00000  0.05    0.19
Q14   1   0.7742  0.4041  0.4337  11.00000  0.05    0.19
Q15   1   0.6915  0.4190  0.3402  11.00000  0.05    0.19
Q16   1   0.4079  0.5811  0.6273  11.00000  0.05    0.19
Q17   1   0.4868  0.5216  0.5190  11.00000  0.05    0.18
Q18   1   0.5422  0.1056  0.6687  11.00000  0.05    0.17
Q19   1   0.6349  0.4542  0.6570  11.00000  0.05    0.17
Q20   1   0.5650  0.5212  0.6105  11.00000  0.05    0.17
;
_shelx_res_checksum              92026
_shelx_hkl_file
;
   0   0 -29    1.66    3.78
   0   0 -28  272.15   19.84
   0   0 -27    0.42    2.47
   0   0 -26  610.73   28.66
   0   0 -25    0.33    2.55
   0   0 -24    5.49    2.33
   0   0 -23   -1.48    2.51
   0   0 -22   63.10    8.72
   0   0 -21   -0.33    1.48
   0   0 -20  669.49   26.43
   0   0 -19    2.20    2.40
   0   0 -18   77.24    8.60
   0   0 -17    2.58    1.05
   0   0 -16  408.73   18.25
   0   0 -15   -0.46    1.40
   0   0 -14   57.12    6.69
   0   0 -13   -0.38    0.82
   0   0 -12 3985.02   49.69
   0   0 -11   -0.33    1.93
   0   0 -10  397.32   14.20
   0   0  -9    0.59    0.92
   0   0  -7   -0.05    0.78
   0   0  -5    2.90    1.21
   0   0  -4 4340.63   29.72
   0   0  -3    1.81    0.52
   0   0  -2  229.28    4.81
   0   0   4 4399.41   22.86
   0   0   5    0.29    0.35
   0   0   7    0.36    0.44
   0   0   9    0.66    0.66
   0   0  10  388.66   10.73
   0   0  11    0.89    0.81
   0   0  12 4122.16   38.18
   0   0  13   -0.38    0.81
   0   0  14   57.65    4.89
   0   0  15   -0.46    1.33
   0   0  16  389.60   13.82
   0   0  17    0.39    1.00
   0   0  18   59.69    5.84
   0   0  19   -0.49    0.73
   0  -1 -31   16.01    5.63
   0  -1 -30    0.64    3.12
   0  -1 -29    4.61    3.28
   0  -1 -28   -1.69    2.22
   0  -1 -27    4.23    3.91
   0   1 -26    0.43    1.90
   0  -1 -26    1.20    3.01
   0  -1 -25    1.77    2.90
   0   1 -25    3.68    2.24
   0   1 -24    1.43    2.13
   0  -1 -24   -0.18    2.04
   0   1 -23    0.53    1.35
   0  -1 -23    0.54    2.11
   0  -1 -22    3.40    2.85
   0   1 -22   -1.39    2.79
   0   1 -21  124.02   11.49
   0  -1 -21  101.62   10.45
   0   1 -20    1.74    1.81
   0  -1 -20    3.53    2.26
   0  -1 -19   24.54    5.01
   0   1 -19   22.94    4.94
   0  -1 -18    4.16    2.87
   0   1 -18    0.69    1.02
   0  -1 -17   26.61    5.26
   0   1 -17   27.87    4.97
   0   1 -16    0.27    1.36
   0  -1 -16   -0.97    1.88
   0  -1 -15   80.07    8.03
   0   1 -15   81.39    7.91
   0   1 -14    1.11    1.53
   0  -1 -14   -0.48    1.67
   0   1 -13  133.59    9.13
   0  -1 -13  134.85    9.82
   0   1 -12   -0.21    0.78
   0  -1 -12   -0.44    1.04
   0  -1 -11   60.77    6.06
   0   1 -11   49.46    5.16
   0   1 -10   -0.38    0.78
   0  -1 -10   -0.26    1.60
   0  -1  -9 1766.53   29.96
   0   1  -9 1812.67   27.65
   0   1  -9 1834.65   17.42
   0   1  -8    0.52    0.40
   0  -1  -8    0.04    1.25
   0   1  -8   -0.49    0.89
   0   1  -7 1648.41   22.77
   0   1  -7 1665.41   15.65
   0  -1  -7 1664.61   26.22
   0   1  -6    1.05    0.75
   0  -1  -6   -0.37    0.54
   0   1  -6   -0.01    0.27
   0   1  -5 2886.56   19.65
   0  -1  -5 2814.83   27.83
   0   1  -5 2819.82   24.52
   0   1  -4   -0.17    0.34
   0  -1  -4   -0.34    0.30
   0  -1  -4   -0.34    0.54
   0  -1  -3 1426.91   17.66
   0  -1  -3 1449.87   17.46
   0   1  -2    0.05    0.23
   0  -1  -2    0.33    0.37
   0  -1  -2    0.04    0.28
   0   1  -1  492.45    8.53
   0  -1  -1  497.59    9.20
   0   1   0    0.49    0.30
   0  -1   0   -0.26    0.31
   0  -1   1  483.35    7.72
   0   1   1  487.79    9.07
   0  -1   2    0.48    0.27
   0   1   2    0.10    0.30
   0  -1   5 2869.83   16.78
   0  -1   6    0.27    0.22
   0  -1   7 1660.11   14.55
   0   1   8    1.40    0.90
   0  -1   8   -0.30    0.47
   0   1   9 1759.10   26.48
   0  -1   9 1822.31   17.73
   0  -1  10    0.65    0.34
   0   1  10    0.13    0.64
   0  -1  11   51.63    3.43
   0   1  11   51.21    4.85
   0  -1  12   -0.48    0.40
   0   1  12    0.40    0.61
   0   1  13  158.03    9.07
   0  -1  13  157.02    6.60
   0   1  14   -0.30    0.85
   0  -1  14   -1.03    1.06
   0   1  15   73.37    5.75
   0   1  15   81.45    6.80
   0  -1  15   82.26    5.30
   0   1  16    0.94    1.67
   0  -1  16   -0.44    0.61
   0   1  16    1.19    1.20
   0   1  17   22.77    3.97
   0  -1  17   15.23    2.48
   0   1  17   19.74    3.17
   0   1  18   -0.84    2.24
   0   1  18    0.26    0.80
   0   1  19   24.96    4.59
   0   1  20    0.10    1.33
   0  -2 -30  110.29   13.05
   0  -2 -29    4.24    2.81
   0  -2 -28   35.48    7.42
   0  -2 -27   -1.08    2.60
   0  -2 -26  180.06   15.62
   0  -2 -25   -1.84    1.78
   0  -2 -24   11.04    3.73
   0  -2 -23    1.58    3.18
   0  -2 -22   97.19   10.74
   0  -2 -21   -0.86    1.90
   0  -2 -20  149.86   12.97
   0  -2 -19    2.14    2.37
   0   2 -19   -0.54    2.17
   0  -2 -18   96.67    9.98
   0   2 -18  102.47    9.51
   0   2 -17   -0.17    1.80
   0  -2 -17    1.42    1.55
   0  -2 -16  900.83   28.27
   0   2 -16  929.87   26.78
   0   2 -15   -0.65    1.34
   0  -2 -15   -0.21    1.02
   0   2 -14  343.37   15.08
   0   2 -14  334.87    9.39
   0  -2 -14  344.58   16.85
   0   2 -13    0.62    0.94
   0  -2 -13    1.16    0.97
   0   2 -13   -0.26    1.18
   0  -2 -12 1939.93   37.02
   0   2 -12 1968.70   32.64
   0   2 -12 1927.84   22.73
   0   2 -11   -0.80    0.93
   0   2 -11   -0.12    0.61
   0  -2 -11    1.04    1.16
   0   2 -10 2293.98   31.91
   0  -2 -10 2238.20   37.49
   0   2 -10 2314.94   24.94
   0   2  -9    0.09    0.67
   0  -2  -9   -0.38    1.38
   0  -2  -8  161.04    9.14
   0   2  -8  170.18    6.84
   0  -2  -7    0.47    0.80
   0  -2  -7    0.07    0.82
   0   2  -7    1.32    0.55
   0   2  -6 1827.00   22.28
   0  -2  -6 1778.88   27.95
   0  -2  -6 1770.10   27.74
   0  -2  -5    0.41    0.53
   0   2  -5   -0.08    0.48
   0  -2  -5    0.04    0.72
   0  -2  -4 1737.88   25.90
   0   2  -4 1735.05   22.14
   0  -2  -3   -0.03    0.62
   0  -2  -3    0.06    0.47
   0   2  -3   -0.17    0.66
   0   2  -2  654.24   13.97
   0  -2  -2  670.79   12.84
   0  -2  -2  671.28   15.14
   0  -2  -1    0.72    0.84
   0   2  -1    0.27    0.77
   0  -2  -1    0.65    1.04
   0  -2   1    1.16    0.64
   0   2   1   -0.31    0.86
   0  -2   1    1.14    0.84
   0   2   2  662.39   15.07
   0  -2   2  680.70   12.95
   0  -2   2  693.60    8.89
   0  -2   3    1.77    0.83
   0   2   3    0.23    0.94
   0   2   4 1685.21   25.03
   0  -2   4 1777.43   19.45
   0   2   5    0.94    1.06
   0  -2   5    0.25    0.28
   0  -2   6 1837.18   18.60
   0   2   6 1814.16   26.89
   0  -2   7    0.13    0.40
   0   2   7    1.16    1.16
   0   2   8  165.67    8.31
   0  -2   8  161.01    5.32
   0  -2   9   -0.36    0.54
   0   2   9   -0.51    0.54
   0   2  10 2457.63   33.58
   0  -2  10 2251.70   20.59
   0   2  11    1.23    1.63
   0   2  11    0.19    0.67
   0  -2  11    0.24    0.57
   0   2  12 1843.68   30.67
   0  -2  12 1817.41   19.04
   0   2  13    0.57    0.76
   0  -2  13    0.88    0.72
   0   2  13    1.04    1.50
   0  -2  14  314.26    8.39
   0   2  14  340.63   13.92
   0   2  14  317.51   14.95
   0   2  15   -1.28    1.35
   0   2  15   -0.72    1.41
   0  -2  15    0.98    0.71
   0   2  16  882.35   25.87
   0   2  16  893.07   23.31
   0   2  17   -2.28    1.46
   0   2  17   -0.90    1.54
   0   2  18   97.85    8.06
   0   2  18  102.67    9.15
   0   2  19    0.23    0.89
   0   2  19    0.07    1.50
   0   2  20  163.18   12.27
   0   2  21   -1.14    1.99
   0   2  22  115.61   10.87
   0  -3 -30   -0.07    2.02
   0  -3 -29    1.83    1.62
   0  -3 -28    3.09    2.87
   0  -3 -27   21.11    6.14
   0  -3 -26   -1.33    2.69
   0  -3 -25    1.91    1.66
   0  -3 -24   -0.73    1.45
   0  -3 -23    4.82    2.48
   0  -3 -22   -0.77    1.65
   0  -3 -21   96.32   10.64
   0  -3 -20   -0.98    1.82
   0  -3 -19  152.99   12.94
   0  -3 -18    2.52    2.68
   0  -3 -17   57.82    7.50
   0  -3 -16   -1.79    3.10
   0  -3 -15  112.48   10.31
   0  -3 -14    0.46    1.41
   0   3 -14   -0.47    1.08
   0  -3 -13  143.69   10.88
   0   3 -13  154.29    7.90
   0  -3 -12   -0.13    1.13
   0   3 -12   -0.61    0.73
   0   3 -11  150.25    7.87
   0  -3 -11  167.02   10.96
   0   3 -10    1.23    0.96
   0  -3 -10    3.35    2.40
   0  -3  -9 3013.31   44.22
   0  -3  -9 2972.58   44.19
   0   3  -9 2989.45   35.43
   0  -3  -8    2.44    1.76
   0  -3  -8    0.07    1.50
   0   3  -8    0.47    0.65
   0   3  -7   18.64    2.76
   0  -3  -7   17.61    3.60
   0  -3  -7   16.15    3.18
   0  -3  -6   -0.33    1.16
   0   3  -6    2.21    1.45
   0  -3  -6   -0.77    0.94
   0  -3  -5  609.18   16.53
   0  -3  -5  573.65   17.60
   0   3  -5  585.78   15.95
   0  -3  -4    0.38    0.61
   0  -3  -4   -0.20    0.87
   0   3  -3  844.06   19.63
   0  -3  -3  845.15   20.78
   0   3  -2    1.03    1.13
   0  -3  -2    0.02    0.59
   0  -3  -2    0.35    0.69
   0  -3  -1 1755.76   28.37
   0   3  -1 1661.34   27.68
   0   3   0    1.82    2.08
   0  -3   0   -0.12    0.35
   0  -3   0   -0.22    0.93
   0  -3   1 1672.32   26.57
   0  -3   1 1739.97   18.63
   0  -3   2    0.27    0.56
   0   3   2    0.99    1.55
   0  -3   2    0.54    0.66
   0  -3   3  870.09   11.88
   0  -3   3  842.48   17.75
   0  -3   4    0.20    0.82
   0   3   4    0.55    0.76
   0  -3   4    0.00    0.57
   0   3   5  598.64   17.97
   0  -3   5  593.26   14.35
   0  -3   6    0.09    0.44
   0   3   6   -0.63    1.28
   0  -3   7   20.46    2.53
   0   3   7   24.24    3.68
   0   3   8    0.97    1.36
   0  -3   8   -0.01    0.73
   0   3   9 3083.02   43.11
   0  -3   9 3027.50   29.12
   0   3  10    2.32    1.66
   0  -3  10   -0.29    0.51
   0   3  11  164.34   10.26
   0  -3  11  170.28    6.59
   0   3  12    0.24    1.21
   0  -3  12    0.31    0.62
   0   3  13  173.90   10.86
   0   3  13  165.47   11.57
   0  -3  13  147.11    5.84
   0   3  14    0.46    0.84
   0   3  14   -1.11    1.81
   0  -3  14    0.08    0.36
   0   3  15  114.63   10.05
   0   3  15  110.63    9.21
   0   3  16   -0.97    1.08
   0   3  16    1.87    1.81
   0   3  17   42.11    6.15
   0   3  17   69.70    7.59
   0   3  18    1.14    2.11
   0   3  18    0.33    1.44
   0   3  19  169.91   13.09
   0   3  20   -1.03    1.98
   0   3  21   86.59    9.75
   0   3  22   -1.96    1.84
   0   3  23    5.47    3.01
   0  -4 -29   -0.97    2.64
   0  -4 -28    1.73    2.85
   0  -4 -27   -2.74    3.28
   0  -4 -26   70.87   10.04
   0  -4 -25   -0.80    1.49
   0  -4 -24    2.22    1.83
   0  -4 -23   -0.20    3.30
   0  -4 -22  333.01   20.70
   0  -4 -21    0.01    2.84
   0  -4 -20   46.73    7.70
   0  -4 -19    4.32    3.66
   0  -4 -18  220.14   15.43
   0  -4 -17   -0.99    1.88
   0  -4 -16  946.56   30.71
   0  -4 -15    2.31    2.02
   0  -4 -14  176.92   13.00
   0   4 -14  178.52   10.36
   0   4 -13    2.22    1.83
   0  -4 -13    0.01    1.38
   0  -4 -12  833.59   26.33
   0   4 -12  870.85   22.39
   0  -4 -11   -0.19    1.22
   0   4 -11    0.52    0.90
   0  -4 -10 2156.11   41.89
   0   4 -10 2151.26   35.26
   0  -4 -10 2228.16   41.20
   0   4  -9    0.80    0.94
   0  -4  -9    0.93    1.69
   0  -4  -9    1.38    1.65
   0  -4  -8  597.59   21.26
   0   4  -8  632.42   19.20
   0  -4  -8  671.56   21.43
   0  -4  -7    0.49    1.18
   0  -4  -7    3.00    1.95
   0   4  -7   -0.20    0.92
   0  -4  -6 1021.50   24.21
   0   4  -6 1100.32   25.56
   0  -4  -6 1100.28   27.71
   0  -4  -5    2.13    1.62
   0  -4  -5    0.97    1.10
   0   4  -5   -0.11    1.20
   0  -4  -4 2073.98   31.82
   0   4  -4 2153.19   36.08
   0  -4  -4 2160.25   38.21
   0  -4  -3    0.87    0.74
   0   4  -3    1.18    1.27
   0  -4  -3    0.84    0.70
   0   4  -2  608.20   19.33
   0  -4  -2  627.88   19.75
   0  -4  -2  570.74   15.35
   0  -4  -1   -0.98    0.91
   0  -4  -1    0.58    0.85
   0   4  -1   -0.76    0.94
   0  -4   0  343.75   10.48
   0   4   0  359.78   15.17
   0  -4   0  317.12   13.54
   0   4   1    0.23    1.13
   0  -4   1    0.02    0.55
   0  -4   1   -0.38    0.74
   0  -4   2  640.58   12.41
   0  -4   2  635.03   18.61
   0   4   3   -0.48    1.43
   0  -4   3   -0.17    1.14
   0  -4   3    1.39    0.46
   0   4   4 2106.65   37.33
   0  -4   4 2174.69   21.24
   0  -4   4 2124.36   33.07
   0   4   5    1.09    1.20
   0  -4   5    0.96    0.84
   0  -4   5    1.86    1.18
   0  -4   6 1136.68   23.34
   0  -4   6 1121.30   15.78
   0   4   6 1142.26   28.19
   0   4   7    2.04    1.12
   0  -4   7   -0.01    0.52
   0  -4   7   -0.47    0.96
   0  -4   8  644.93   16.92
   0   4   8  638.51   21.60
   0   4   9    1.21    1.84
   0  -4   9    0.39    0.56
   0  -4  10 2203.93   30.43
   0   4  10 2189.40   40.66
   0  -4  11    1.83    1.12
   0   4  11    1.45    2.22
   0   4  12  842.09   26.37
   0  -4  12  851.42   17.90
   0  -4  13    0.94    0.91
   0   4  13    0.06    1.03
   0   4  14  197.21   12.86
   0   4  14  171.84   12.81
   0   4  15    1.75    1.94
   0   4  15    0.40    1.41
   0   4  16  896.13   28.83
   0   4  16  907.35   30.18
   0   4  17   -0.47    2.12
   0   4  17   -1.41    1.85
   0   4  18  227.14   15.01
   0   4  18  212.79   15.41
   0   4  19   -2.14    1.98
   0   4  19    0.75    2.67
   0   4  20   54.60    7.89
   0   4  20   37.71    6.77
   0   4  21    0.27    1.81
   0   4  22  350.74   21.05
   0   4  23    0.06    2.40
   0   4  24    5.23    2.14
   0  -5 -28    3.35    3.02
   0  -5 -27    3.88    2.68
   0  -5 -26   -0.13    2.59
   0  -5 -25    2.39    2.70
   0  -5 -24   -3.53    2.04
   0  -5 -23   27.30    5.86
   0  -5 -22   -3.98    3.64
   0  -5 -21    3.16    2.17
   0  -5 -20    0.39    2.80
   0  -5 -19    4.23    2.80
   0  -5 -18    0.81    3.06
   0  -5 -17    4.93    3.07
   0  -5 -16   -1.07    2.73
   0  -5 -15   14.21    3.87
   0  -5 -14    0.76    2.14
   0  -5 -13   60.46    7.59
   0   5 -13   57.57    6.57
   0   5 -12   -1.20    1.43
   0  -5 -12    0.91    1.43
   0   5 -11   18.59    3.64
   0  -5 -11   24.92    4.90
   0  -5 -10    1.33    1.17
   0  -5 -10    0.21    1.70
   0   5 -10    1.14    1.30
   0  -5  -9    1.52    1.84
   0   5  -9    2.79    1.94
   0  -5  -9    1.48    1.65
   0  -5  -8    0.55    2.16
   0   5  -8    1.51    1.83
   0  -5  -8   -0.18    1.41
   0  -5  -7  129.24    9.69
   0   5  -7  138.26   10.23
   0  -5  -7  125.41   10.18
   0  -5  -6   -0.78    0.72
   0  -5  -6    0.84    1.71
   0   5  -6    0.71    1.55
   0  -5  -5  179.80   10.47
   0   5  -5  176.03   11.41
   0  -5  -5  168.46   11.51
   0   5  -4   -0.26    0.97
   0  -5  -4   -1.02    1.12
   0  -5  -4    0.81    0.93
   0   5  -3  203.28   12.46
   0  -5  -3  197.09   10.35
   0  -5  -3  200.77   12.43
   0   5  -2   -0.03    1.44
   0  -5  -2   -0.35    1.20
   0  -5  -2    0.78    2.24
   0  -5  -1   54.85    6.49
   0   5  -1   44.97    5.72
   0  -5  -1   54.57    4.93
   0  -5   0   -0.84    0.98
   0   5   0   -0.81    1.24
   0  -5   0    0.93    1.27
   0  -5   1   59.24    4.77
   0  -5   1   57.14    6.17
   0   5   1   49.46    6.22
   0   5   2    0.70    1.60
   0  -5   2   -0.68    1.01
   0  -5   2    0.54    1.06
   0  -5   3  215.37    7.79
   0   5   3  206.34   12.74
   0  -5   4   -0.02    0.64
   0  -5   4    0.09    1.03
   0   5   4    1.16    2.01
   0  -5   5  169.39    6.26
   0  -5   5  171.06   10.39
   0   5   5  157.96   11.36
   0  -5   6    1.19    0.75
   0   5   6    2.25    1.85
   0  -5   6   -0.02    0.49
   0  -5   7  134.98    9.02
   0  -5   7  129.71    5.62
   0   5   7  121.18   10.32
   0  -5   8   -0.62    0.86
   0   5   8   -1.95    1.83
   0  -5   8   -0.19    0.46
   0  -5   9    5.69    1.83
   0  -5   9    1.40    0.77
   0   5   9    6.43    2.14
   0  -5  10   -0.15    0.59
   0  -5  10    1.78    1.30
   0   5  10   -1.45    2.47
   0   5  11   24.52    5.14
   0  -5  11   23.38    3.76
   0  -5  12    1.53    1.26
   0   5  12   -1.90    2.58
   0   5  13   33.28    5.65
   0   5  14    1.21    1.87
   0   5  15   15.18    3.98
   0   5  15   21.54    4.66
   0   5  16    3.38    3.19
   0   5  16   -0.71    1.41
   0   5  17    3.74    3.79
   0   5  17    5.77    2.86
   0   5  18   -0.84    2.25
   0   5  18    0.34    1.55
   0   5  19   10.92    3.94
   0   5  19    9.08    3.20
   0   5  20    0.52    1.71
   0   5  20   -0.40    2.51
   0   5  21    8.09    3.49
   0   5  22    3.42    3.85
   0   5  23   23.57    6.08
   0   5  24   -0.43    1.73
   0   5  25    4.02    2.73
   0  -6 -26  120.46   13.48
   0  -6 -25   -1.89    3.03
   0  -6 -24   36.96    7.17
   0  -6 -23   -1.41    2.22
   0  -6 -22  210.59   17.43
   0  -6 -21    1.29    3.09
   0  -6 -20   95.50   11.50
   0  -6 -19   -0.03    1.85
   0  -6 -18    1.35    1.94
   0  -6 -17    0.88    2.34
   0  -6 -16  277.24   17.83
   0  -6 -15   -1.83    2.17
   0  -6 -14   13.59    3.98
   0   6 -13   -1.19    1.30
   0  -6 -13    1.13    2.00
   0   6 -12  305.18   16.80
   0  -6 -12  320.83   17.57
   0   6 -11    0.80    1.67
   0  -6 -11   -1.27    1.75
   0  -6 -10  388.71   20.24
   0  -6 -10  382.49   18.68
   0   6 -10  384.76   18.79
   0   6  -9    1.94    1.69
   0  -6  -9   -0.87    1.46
   0  -6  -9    0.80    2.50
   0   6  -8   45.42    6.67
   0  -6  -8   45.93    6.69
   0  -6  -8   50.64    6.33
   0  -6  -7    1.24    1.37
   0  -6  -7    1.62    2.15
   0   6  -7    0.38    1.45
   0  -6  -6 2405.22   47.74
   0   6  -6 2324.92   45.68
   0  -6  -6 2406.66   42.90
   0  -6  -5    6.46    4.17
   0  -6  -5   -0.42    2.30
   0   6  -5    0.41    2.09
   0  -6  -4 1047.72   26.52
   0   6  -4  950.06   29.57
   0  -6  -4 1000.29   30.48
   0   6  -3    0.65    2.17
   0  -6  -3    1.97    1.92
   0  -6  -3    2.17    3.29
   0   6  -2 1739.66   39.97
   0  -6  -2 1695.13   38.96
   0  -6  -2 1806.90   31.89
   0   6  -1    3.96    3.46
   0  -6  -1    0.55    1.59
   0  -6  -1    1.98    2.82
   0  -6   0 1313.20   25.44
   0  -6   0 1243.68   32.82
   0  -6   1    2.17    1.54
   0   6   1   -0.31    1.26
   0  -6   1    2.13    2.60
   0  -6   2 1700.70   37.57
   0  -6   2 1602.73   25.17
   0   6   2 1643.13   39.54
   0  -6   3    1.64    1.31
   0  -6   3    1.67    2.14
   0   6   3   -0.79    3.23
   0  -6   4  951.81   27.95
   0   6   4  972.27   30.40
   0  -6   4  873.35   16.71
   0  -6   5   -0.82    1.25
   0   6   5    3.08    3.01
   0  -6   5    0.36    0.96
   0   6   6 2318.57   47.69
   0  -6   6 2355.01   42.76
   0  -6   7    0.40    0.89
   0   6   7   -2.40    2.64
   0  -6   8   45.91    5.95
   0   6   8   51.40    7.01
   0  -6   9    0.04    1.12
   0   6   9   -1.01    2.17
   0  -6  10  369.95   16.44
   0   6  10  362.53   19.21
   0  -6  11    1.07    1.90
   0   6  11    1.21    3.33
   0   6  12  311.43   18.50
   0   6  13   -0.43    1.90
   0   6  14   16.77    5.10
   0   6  15    3.29    3.97
   0   6  15    2.71    3.41
   0   6  16  265.80   17.53
   0   6  16  236.78   17.25
   0   6  17    0.02    3.17
   0   6  17    1.96    2.12
   0   6  18    7.35    3.01
   0   6  18    0.18    1.61
   0   6  19    1.14    2.41
   0   6  19    5.02    4.32
   0   6  20   92.89   11.43
   0   6  20  126.04   13.08
   0   6  21    0.23    3.74
   0   6  21   -0.78    2.04
   0   6  22  237.63   18.48
   0   6  23    0.50    2.41
   0   6  24   38.77    8.19
   0   6  25   -1.97    2.85
   0   6  26   96.99   12.76
   0  -7 -25   14.84    5.30
   0  -7 -24    0.12    3.42
   0  -7 -23    4.26    2.44
   0  -7 -22   -6.11    4.04
   0  -7 -21    9.65    3.54
   0  -7 -20    1.71    1.80
   0  -7 -19   32.13    6.67
   0  -7 -18   -1.08    2.14
   0  -7 -17    5.68    3.37
   0  -7 -16   -0.84    3.15
   0  -7 -15   39.84    6.73
   0  -7 -14   -0.09    2.47
   0  -7 -13   44.04    7.01
   0   7 -12    2.02    2.82
   0  -7 -12    0.60    1.84
   0   7 -11   20.31    4.61
   0  -7 -11   25.36    5.59
   0  -7 -10    3.78    2.25
   0   7 -10   -0.09    1.42
   0   7  -9  195.09   14.48
   0  -7  -9  187.81   14.64
   0  -7  -9  190.70   13.61
   0  -7  -8    3.91    1.57
   0  -7  -8   -0.01    1.75
   0   7  -8   -0.03    1.71
   0  -7  -7  779.38   26.58
   0   7  -7  852.06   30.46
   0  -7  -7  841.15   30.57
   0  -7  -6    2.46    1.83
   0  -7  -6   -1.29    2.03
   0   7  -6    1.23    2.79
   0  -7  -5  443.23   18.95
   0   7  -5  511.03   23.28
   0  -7  -5  470.92   22.53
   0   7  -4    1.06    1.43
   0  -7  -4    3.29    2.07
   0  -7  -4   -1.09    1.26
   0  -7  -3   59.03    8.43
   0   7  -3   43.53    6.51
   0  -7  -3   53.04    6.60
   0   7  -2   -0.81    1.57
   0  -7  -2    4.52    3.86
   0  -7  -2    1.81    2.54
   0  -7  -1 1563.39   39.83
   0   7  -1 1518.24   40.14
   0  -7  -1 1481.33   32.30
   0   7   0    7.10    5.38
   0  -7   0    3.90    3.17
   0  -7   0   -0.58    1.28
   0  -7   1 1662.14   40.15
   0   7   1 1479.00   40.10
   0  -7   2    3.75    3.31
   0   7   2   -0.58    4.26
   0  -7   3   55.67    7.31
   0   7   3   54.31    7.85
   0  -7   4   -1.36    1.90
   0   7   4    1.18    2.95
   0  -7   5  430.79   20.05
   0   7   5  495.10   23.24
   0   7   6    1.52    2.51
   0  -7   6    2.90    2.91
   0  -7   7  751.57   26.74
   0   7   7  800.44   29.78
   0   7   8    2.32    2.11
   0  -7   8    2.87    1.49
   0  -7   9  168.34   12.30
   0   7   9  159.82   13.47
   0   7  10    3.15    3.04
   0  -7  10    0.31    1.54
   0   7  11   21.18    5.44
   0   7  12    1.70    1.47
   0   7  13   51.27    7.75
   0   7  14    0.30    1.58
   0   7  15   43.39    7.71
   0   7  15   31.07    6.35
   0   7  16    2.92    2.76
   0   7  16   -0.60    2.36
   0   7  17    2.47    2.24
   0   7  17    1.62    2.80
   0   7  18    2.31    3.00
   0   7  18   -0.56    2.88
   0   7  19   20.75    6.09
   0   7  19   18.17    5.83
   0   7  20    5.39    3.39
   0   7  20   -2.41    2.62
   0   7  21   11.26    4.22
   0   7  21   23.77    6.93
   0   7  22   -2.42    3.38
   0   7  23    3.33    2.00
   0   7  24    4.60    5.06
   0   7  25   11.32    5.33
   0  -8 -22   17.72    6.45
   0  -8 -21    0.23    2.62
   0  -8 -20   32.58    7.59
   0  -8 -19    6.48    4.69
   0  -8 -18    2.38    2.80
   0  -8 -17   -3.68    3.73
   0  -8 -16   57.88    8.73
   0  -8 -15   -0.07    2.74
   0  -8 -14    8.12    3.42
   0  -8 -13   -1.28    2.92
   0   8 -12   27.17    7.01
   0  -8 -12   10.48    3.60
   0   8 -11    2.33    3.14
   0  -8 -11    0.14    2.19
   0   8 -10   61.20    8.78
   0  -8 -10   58.51    8.71
   0   8  -9   -1.96    2.42
   0  -8  -9   -2.33    1.88
   0  -8  -8    0.81    1.85
   0   8  -8    3.36    2.22
   0  -8  -7    1.33    1.91
   0   8  -7    7.36    4.46
   0  -8  -7    3.96    2.42
   0  -8  -6  176.32   13.14
   0  -8  -6  146.97   13.34
   0  -8  -5    0.31    1.27
   0  -8  -5   -0.61    1.80
   0   8  -5    4.07    2.73
   0  -8  -4   77.74    8.37
   0  -8  -4   79.94    9.51
   0   8  -4   53.14    8.09
   0  -8  -3   -0.27    1.52
   0   8  -3   -3.22    2.17
   0   8  -2   87.39   10.24
   0  -8  -2   83.35    9.83
   0  -8  -1   -0.18    1.43
   0   8  -1    1.67    2.83
   0   8   0  112.59   11.60
   0  -8   0  138.28   12.44
   0   8   1   -0.95    1.49
   0  -8   1    2.28    1.28
   0  -8   2   84.50    9.80
   0   8   2   86.38   10.17
   0  -8   3    2.30    2.72
   0   8   3   -1.57    1.77
   0   8   4   68.76    9.23
   0  -8   4   80.19    9.47
   0   8   5    0.17    1.52
   0  -8   5   -0.78    2.60
   0   8   6  186.03   15.28
   0  -8   6  156.24   12.93
   0  -8   7    3.36    2.71
   0   8   7   -1.42    1.95
   0  -8   8    1.51    2.55
   0   8   8    2.82    2.84
   0   8   9    1.06    3.86
   0  -8   9   -0.17    2.69
   0   8  10   62.77    9.13
   0   8  11   -0.23    1.74
   0   8  12   20.76    5.41
   0   8  13    3.05    2.59
   0   8  14    3.20    1.95
   0   8  14    2.93    3.61
   0   8  15   -2.79    2.79
   0   8  15   -1.96    2.13
   0   8  16   66.16    9.93
   0   8  16   61.93    9.54
   0   8  17   -0.31    3.47
   0   8  17    3.32    2.33
   0   8  18    1.02    1.60
   0   8  18    0.22    2.90
   0   8  19    3.83    3.53
   0   8  19    1.36    2.15
   0   8  20   33.45    7.31
   0   8  20   32.78    7.61
   0   8  21    1.62    2.93
   0   8  21    0.59    2.97
   0   8  22   36.62    8.06
   0  -9 -19    2.46    4.88
   0  -9 -18   -1.74    3.57
   0  -9 -17   23.38    5.88
   0  -9 -16   -3.96    3.01
   0  -9 -15   12.10    4.54
   0  -9 -14   -0.87    2.88
   0  -9 -13   -2.46    4.04
   0  -9 -12   -1.87    2.48
   0   9 -11   33.18    6.88
   0  -9 -11   40.34    7.57
   0   9 -10    1.65    2.24
   0  -9 -10    4.02    3.47
   0   9  -9   23.68    6.32
   0   9  -8   -0.86    2.90
   0   9  -7    9.30    3.70
   0   9  -6    2.33    2.48
   0   9  -5    3.70    2.01
   0  -9  -5    4.08    3.80
   0  -9  -4   -3.05    2.74
   0   9  -4    1.27    2.14
   0  -9  -3   44.65    7.44
   0   9  -3   36.27    6.86
   0   9  -2    0.35    2.72
   0  -9  -2   -2.57    3.51
   0  -9  -1    3.16    3.22
   0   9  -1    9.20    3.92
   0  -9   0    3.91    2.06
   0   9   0   -0.13    1.75
   0  -9   1   11.13    3.72
   0   9   1    8.41    4.42
   0  -9   2    4.35    2.20
   0   9   2   -1.81    1.63
   0   9   3   45.22    7.94
   0  -9   3   44.06    7.61
   0   9   4    1.19    2.51
   0  -9   4    2.44    1.67
   0  -9   5    6.18    3.35
   0   9   5    1.26    2.26
   0  -9   6   -1.13    1.66
   0   9   6    1.94    3.81
   0  -9   7   12.47    4.46
   0   9   7   10.74    5.50
   0  -9   8    0.13    2.00
   0   9   8   -0.77    2.13
   0   9   9   19.42    5.25
   0   9  10    1.08    2.56
   0   9  11   41.57    7.80
   0   9  12   11.79    5.34
   0   9  13    2.50    2.94
   0   9  13    0.28    3.25
   0   9  14    1.85    4.32
   0   9  14    0.80    2.17
   0   9  15    8.69    4.71
   0   9  15    1.56    2.72
   0   9  16    2.77    3.42
   0   9  16    0.98    1.82
   0   9  17   31.98    8.08
   0   9  17   18.36    5.75
   0   9  18    6.59    4.01
   0   9  18    3.31    2.10
   0   9  19    7.33    4.97
   0   9  19    3.96    3.43
   0  10 -10   34.18    8.33
   0  10  -9    6.73    3.60
   0  10  -8    4.61    2.77
   0  10  -7   -1.08    2.94
   0  10  -6   93.63   11.73
   0  10  -5    1.49    3.98
   0  10  -4   51.24    8.46
   0  10  -3    3.57    3.26
   0  10  -2   28.85    7.37
   0 -10  -1    3.36    3.17
   0  10  -1    1.97    3.78
   0  10   0  126.13   13.73
   0 -10   0  131.66   14.09
   0 -10   1    0.55    2.27
   0  10   1    1.79    3.28
   0 -10   2   30.79    6.84
   0  10   2   27.06    6.23
   0 -10   3   -0.14    1.75
   0  10   3    1.56    2.24
   0 -10   4   52.01    8.35
   0  10   4   56.56    9.60
   0 -10   5   -0.43    2.50
   0  10   5    3.55    3.47
   0 -10   6   83.82   11.39
   0  10   6   85.74   11.09
   0  10   7    4.99    4.74
   0  10   8    9.37    5.08
   0  10   9    3.29    3.31
   0  10  10   67.13    9.85
   0  10  11    0.38    3.10
   0  10  11    3.20    3.71
   0  10  12   17.61    4.30
   0  10  12   26.26    6.59
   0  10  13    0.94    2.36
   0  10  13   -4.22    3.42
   0  10  14    5.43    3.70
   0  10  14    7.84    4.79
   0  10  15    3.25    4.13
   0  10  15   -2.85    2.96
   0  10  16   22.00    6.54
   0  10  16   16.27    5.03
   0  11  -9    0.65    2.30
   0  11  -8   -5.78    4.54
   0  11  -7    0.61    2.86
   0  11  -6   -1.95    2.91
   0  11  -5    5.16    3.75
   0  11  -4   -0.72    2.65
   0  11  -3   19.20    6.59
   0  11  -2    6.10    5.19
   0  11  -1    5.48    4.01
   0  11   0    6.44    3.44
   0  11   1   -4.27    3.67
   0  11   2   -0.58    2.00
   0  11   3   15.22    4.56
   0  11   4    0.33    2.93
   0  11   5    5.03    2.33
   0  11   6   -3.54    3.73
   0  11   7   -0.91    3.42
   0  11   8   -0.34    2.85
   0  11   8    4.38    4.20
   0  11   9    8.62    4.78
   0  11   9    8.76    4.33
   0  11  10   -3.75    2.67
   0  11  10   -2.57    3.30
   1   0 -31    1.43    2.31
   1   0 -30   -1.64    3.33
   1   0 -29    3.92    3.07
   1   0 -28   -0.17    2.49
   1   0 -27    2.06    1.59
  -1   0 -26    2.12    1.56
   1   0 -26   -1.67    1.77
   1   0 -25    0.45    2.64
  -1   0 -25   -0.56    2.72
  -1   0 -24   -0.33    1.59
   1   0 -24   -0.66    2.65
   1   0 -23    2.85    2.68
  -1   0 -23    0.64    2.15
  -1   0 -22   -0.21    1.75
   1   0 -22   -0.81    2.18
  -1   0 -21   -2.37    1.70
   1   0 -21   -0.53    1.95
   1   0 -20   -0.83    1.56
  -1   0 -20   -0.77    2.11
  -1   0 -19   -3.08    2.85
   1   0 -19   -1.17    2.07
   1   0 -18    1.90    1.07
  -1   0 -18   -1.22    2.08
  -1   0 -17    1.98    2.13
   1   0 -17   -1.84    2.01
  -1   0 -16    0.97    0.99
   1   0 -16    2.24    1.90
   1   0 -15   -0.86    1.82
  -1   0 -15   -1.28    1.06
  -1   0 -14   -0.48    1.81
   1   0 -14    0.30    1.41
   1   0 -13   -0.11    1.23
  -1   0 -13    1.46    1.83
  -1   0 -12   -0.49    1.25
   1   0 -12    0.48    1.51
   1   0 -11    0.55    1.03
  -1   0 -11   -0.02    1.22
   1   0 -10    1.32    1.17
  -1   0 -10    0.98    1.19
  -1   0  -9    0.03    0.72
   1   0  -9    0.12    0.64
  -1   0  -8    1.00    0.83
   1   0  -8    1.02    1.00
  -1   0  -7    0.08    0.68
   1   0  -7    0.59    0.71
   1   0  -6   -0.81    0.60
  -1   0  -6    0.18    0.46
   1   0  -6    0.42    0.46
   1   0  -5    0.68    0.40
   1   0  -5    0.08    0.60
  -1   0  -5    0.56    0.51
   1   0  -4    1.01    0.61
   1   0  -4    0.53    0.40
  -1   0  -4    1.14    0.77
   1   0  -3    0.04    0.35
   1   0  -3   -0.16    0.22
  -1   0  -3   -0.06    0.20
   1   0  -2   -0.02    0.24
   1   0  -2    0.23    0.24
   1   0  -1   -0.18    0.22
   1   0   1    0.04    0.17
   1   0   2    0.10    0.19
   1   0   3    0.07    0.23
   1   0   4    0.47    0.65
   1   0   5    0.59    0.49
   1   0   6    0.13    0.37
   1   0   7    0.06    0.62
   1   0   8   -0.09    0.26
   1   0   8    0.24    0.68
  -1   0   8   -0.01    0.32
  -1   0   9   -0.23    0.48
   1   0   9    0.11    0.77
   1   0   9   -0.02    0.26
   1   0  10    0.01    0.69
   1   0  10    0.11    0.30
  -1   0  10    0.94    0.71
   1   0  11   -0.42    0.48
  -1   0  11   -0.79    0.56
   1   0  11   -0.08    0.46
   1   0  12   -0.01    0.81
  -1   0  12    1.84    1.05
   1   0  12    0.21    0.50
  -1   0  13    0.33    0.58
   1   0  13    0.14    0.27
   1   0  13    0.03    0.69
   1   0  14    0.13    0.32
   1   0  14    0.05    1.24
  -1   0  14   -0.31    0.97
   1   0  15   -0.20    0.91
   1   0  15    0.45    0.27
  -1   0  15    0.89    1.12
  -1   0  16    0.70    1.13
   1   0  16    0.41    0.62
   1   0  16   -0.64    1.45
   1   0  17    0.09    0.70
  -1   0  17   -0.32    1.19
  -1   0  18    1.02    1.02
   1   0  18   -0.27    1.14
   1   0  19    0.53    0.79
   1  -1 -31   21.89    6.12
   1  -1 -30   42.94    8.38
   1  -1 -29   81.61   11.20
  -1  -1 -29   88.72   11.46
   1   1 -28   35.41    7.56
   1  -1 -28   40.78    7.89
  -1  -1 -28   36.50    7.45
  -1  -1 -27    2.05    2.57
   1   1 -27   11.03    3.51
   1  -1 -27    5.98    3.48
   1   1 -26  121.76   13.22
   1  -1 -26  140.05   13.77
  -1  -1 -26  149.77   14.55
  -1  -1 -25  142.15   13.73
   1  -1 -25  109.67   12.04
   1   1 -25  118.44   12.59
  -1  -1 -24   -0.30    1.97
   1  -1 -24    8.29    3.92
   1   1 -24    6.95    3.10
   1   1 -23   77.64    9.37
  -1  -1 -23   70.66    9.41
   1  -1 -23   72.26    9.28
   1   1 -22   70.21    9.33
  -1   1 -22   75.76    9.35
   1  -1 -22   62.81    8.71
  -1  -1 -22   56.06    8.14
   1  -1 -21   16.74    4.35
   1   1 -21   15.48    4.18
  -1   1 -21   12.32    3.16
  -1  -1 -21   14.21    4.12
   1   1 -20  141.19   12.03
  -1  -1 -20  109.95   11.00
   1  -1 -20  124.92   11.53
  -1   1 -20  134.18   11.70
   1  -1 -19  187.89   14.01
   1   1 -19  162.60   12.59
  -1   1 -19  178.43   13.07
  -1  -1 -19  176.19   13.47
  -1  -1 -18   54.20    7.05
   1   1 -18   40.78    6.20
   1  -1 -18   44.67    6.34
  -1   1 -18   58.11    7.27
  -1   1 -17  132.13   10.88
  -1  -1 -17  161.06   12.22
   1  -1 -17  128.42   10.76
   1   1 -17  151.99   11.38
   1   1 -16  303.40   15.33
  -1  -1 -16  257.85   15.17
  -1   1 -16  289.97   15.52
   1  -1 -16  282.10   15.43
  -1   1 -15   21.67    4.33
   1  -1 -15   23.88    4.75
  -1  -1 -15   15.53    3.95
   1   1 -15   18.62    4.07
  -1  -1 -14  125.60    9.81
  -1   1 -14  129.51    9.51
   1  -1 -14  116.19    9.34
   1   1 -14  125.23    9.16
   1   1 -13  577.22   18.98
  -1  -1 -13  560.57   20.25
  -1   1 -13  561.79   19.33
   1  -1 -13  551.49   19.65
   1   1 -12 1215.65   26.69
  -1  -1 -12 1248.04   29.02
   1  -1 -12 1306.06   29.32
  -1   1 -12 1258.28   27.86
   1  -1 -11  439.65   16.47
   1   1 -11  437.72   15.01
  -1   1 -11  473.78   16.29
  -1  -1 -11  432.10   16.91
   1   1 -10  782.07   18.82
   1   1 -10  775.08   14.60
   1  -1 -10  779.69   21.31
  -1  -1 -10  772.75   21.08
  -1   1 -10  743.03   19.35
   1  -1  -9  984.29   19.26
   1  -1  -9  923.02   21.99
  -1  -1  -9  967.08   22.62
   1   1  -9  948.21   15.57
   1   1  -9  949.57   19.54
  -1   1  -9  985.99   21.11
  -1   1  -8  655.96   16.38
   1   1  -8  623.42   14.95
   1  -1  -8  661.43   15.15
   1  -1  -8  635.02   17.18
   1   1  -8  696.48   13.04
  -1  -1  -8  633.86   17.49
  -1  -1  -7  937.41   19.73
   1  -1  -7  878.19   16.89
   1   1  -7  963.30   14.77
   1   1  -7  871.33   16.09
   1   1  -6 1632.78   19.77
   1  -1  -6 1628.99   22.56
  -1  -1  -6 1716.76   25.29
   1   1  -6 1625.46   18.87
   1  -1  -6 1754.87   25.86
   1  -1  -5  877.62   17.44
   1  -1  -5  892.93   15.91
   1   1  -5  884.09   12.99
   1   1  -5  930.18   13.87
  -1  -1  -5  948.02   17.55
   1  -1  -4 2671.76   26.29
   1   1  -4 2618.90   23.22
  -1  -1  -4 2713.78   27.28
  -1   1  -4 2730.88   16.93
   1  -1  -4 2594.12   27.98
   1   1  -4 2668.12   19.44
  -1   1  -3 2117.65   16.08
   1  -1  -3 2076.88   21.93
  -1  -1  -3 2068.94   21.72
   1   1  -3 2099.20   20.03
   1   1  -3 2157.76   13.68
   1  -1  -3 2077.38   22.81
  -1  -1  -2   68.43    3.42
   1   1  -2   65.52    2.55
   1  -1  -2   62.46    3.64
   1  -1  -2   68.21    3.84
   1   1  -2   74.32    3.68
   1  -1  -1 3166.34   24.90
   1  -1  -1 3148.63   23.89
   1   1  -1 3180.06   20.11
   1   1  -1 3127.13   24.03
  -1  -1  -1 3117.58   19.57
   1   1   1 3227.57   24.42
   1   1   1 3197.84   24.47
   1  -1   1 3148.68   23.80
   1  -1   2   69.09    3.39
   1   1   2   61.18    3.40
   1   1   2   70.79    3.87
   1   1   3 2164.09   20.81
   1   1   3 2092.43   22.91
   1  -1   4 2631.48   21.64
   1   1   4 2652.26   27.24
   1   1   4 2625.97   23.54
   1   1   5  844.15   16.32
   1   1   5  863.69   13.73
   1  -1   5  883.87   12.81
   1   1   6 1667.36   23.63
   1   1   6 1646.15   19.68
   1  -1   6 1652.42   18.33
   1   1   7  952.53   18.66
   1   1   7  951.50   15.19
   1  -1   7  955.83   14.42
   1  -1   8  687.81   12.75
   1   1   8  677.79   13.16
   1   1   9  926.67   16.28
   1   1   9  960.06   20.20
   1  -1   9  958.87   15.85
   1   1  10  770.79   14.97
   1   1  10  737.57   18.60
  -1  -1  10  767.67    9.38
   1  -1  10  782.75   14.83
  -1  -1  11  416.72    7.85
   1   1  11  436.85   14.76
   1   1  11  456.63   11.91
  -1   1  12 1265.99   24.39
   1  -1  12 1265.68   20.87
   1   1  12 1286.89   25.68
   1   1  12 1255.97   20.25
   1   1  13  596.46   14.32
  -1  -1  13  580.75   10.66
   1   1  13  596.47   18.12
   1  -1  13  600.54   14.79
  -1   1  13  588.44   17.32
   1   1  14  127.46    8.78
   1  -1  14  121.06    6.92
  -1  -1  14  103.83    4.87
   1   1  14  108.94    6.32
  -1   1  14  130.96    8.40
  -1  -1  15   13.50    1.78
   1   1  15   20.40    3.05
   1   1  15   14.24    3.11
  -1   1  15   19.18    3.53
   1  -1  15   16.16    2.65
   1   1  16  280.18   13.68
  -1  -1  16  258.11    8.29
   1  -1  16  252.60   10.95
  -1   1  16  277.97   12.94
   1   1  16  271.34   10.16
   1  -1  17  134.14    8.06
  -1   1  17  131.71    9.13
   1   1  17  135.68    7.51
   1   1  17  158.05   10.56
  -1   1  18   44.90    5.56
   1  -1  18   47.18    5.18
   1   1  18   43.66    5.45
  -1   1  19  164.86   10.95
   1   1  19  162.26   11.26
   1   1  20  133.79   10.66
  -1   1  20  115.65    9.45
   1   1  21   20.23    4.14
  -1  -2 -30   17.91    6.02
   1  -2 -30   14.77    5.07
   1  -2 -29    4.42    3.31
  -1  -2 -29    1.82    2.03
   1  -2 -28   16.46    5.37
  -1  -2 -28   21.74    6.86
   1  -2 -27    1.22    2.54
  -1  -2 -27   11.13    4.74
   1  -2 -26   10.07    4.48
  -1  -2 -26    1.60    1.67
   1  -2 -25   21.69    5.66
  -1  -2 -25   18.33    5.35
  -1  -2 -24   12.76    4.96
   1  -2 -24   28.26    6.36
   1   2 -24   13.27    4.69
   1   2 -23   16.67    4.71
   1  -2 -23   17.17    5.01
  -1  -2 -23   18.49    4.53
  -1  -2 -22   12.02    3.75
   1   2 -22   12.44    3.81
   1  -2 -22   19.31    4.98
  -1  -2 -21   14.59    3.60
   1   2 -21   12.94    4.39
   1  -2 -21   15.73    3.40
   1  -2 -20   59.02    8.12
  -1  -2 -20   66.69    8.58
   1   2 -20   75.06    8.82
  -1  -2 -19   29.32    5.76
   1  -2 -19   36.09    6.29
   1   2 -19   27.63    5.24
   1   2 -18   17.97    4.73
  -1  -2 -18   22.07    4.83
   1  -2 -18   16.58    4.10
  -1  -2 -17   37.80    6.13
   1   2 -17   35.40    5.52
   1  -2 -17   41.63    6.54
   1   2 -16   40.44    5.56
  -1  -2 -16   52.21    6.99
   1  -2 -16   42.13    6.47
  -1  -2 -15   16.13    3.09
   1   2 -15   19.33    2.88
   1   2 -15   15.25    3.48
   1  -2 -15   15.91    3.63
   1   2 -14  102.52    6.24
  -1  -2 -14  111.28    9.55
   1  -2 -14  113.43    9.58
   1   2 -14  102.99    8.14
   1   2 -13   12.70    2.93
   1   2 -13   20.76    2.82
  -1  -2 -13    9.89    2.69
   1  -2 -13   20.29    3.93
  -1   2 -13   18.74    1.75
   1  -2 -12    3.99    1.30
  -1   2 -12    8.64    1.33
  -1  -2 -12    6.98    2.16
   1   2 -12    8.14    1.80
   1   2 -12   11.43    2.30
   1  -2 -11    1.37    0.85
   1  -2 -11    3.19    1.56
  -1   2 -11    2.98    0.77
  -1  -2 -11    1.53    1.77
   1   2 -11    2.14    0.76
   1   2 -11    4.00    1.52
   1  -2 -10   47.22    5.04
   1   2 -10   46.01    4.00
  -1   2 -10   48.49    3.19
   1  -2 -10   44.07    5.29
   1   2 -10   53.54    4.78
  -1  -2 -10   60.94    6.28
  -1  -2  -9  186.94   10.54
   1   2  -9  178.57    7.92
   1  -2  -9  196.92   10.05
   1   2  -9  179.09    7.80
   1  -2  -9  186.58   10.34
  -1   2  -9  191.97    6.37
   1   2  -8  122.00    6.39
  -1  -2  -8  130.07    8.28
  -1   2  -8  127.00    5.36
   1  -2  -8  112.78    7.39
   1   2  -8  116.51    5.93
   1  -2  -8  117.61    8.01
  -1  -2  -7  195.75    9.55
   1   2  -7  181.23    7.69
  -1   2  -7  179.47    6.56
   1   2  -7  188.21    6.71
   1  -2  -7  161.84    8.98
   1  -2  -6  224.38   10.11
  -1   2  -6  237.70    7.63
   1  -2  -6  236.41   10.52
   1   2  -6  236.22    6.66
   1   2  -6  225.95    8.51
  -1  -2  -6  226.73    9.79
   1   2  -5   37.49    3.62
  -1   2  -5   32.47    2.90
   1  -2  -5   36.09    4.06
  -1  -2  -5   31.24    3.52
   1  -2  -5   38.36    4.07
   1  -2  -4  175.49    8.34
   1   2  -4  185.75    7.63
  -1   2  -4  172.04    6.76
  -1  -2  -4  169.17    7.54
   1  -2  -3 1328.49   21.03
   1   2  -3 1367.49   20.86
  -1  -2  -3 1379.94   19.42
  -1   2  -3 1395.78   19.76
   1  -2  -3 1367.25   22.66
  -1  -2  -2 4482.61   39.44
   1  -2  -2 4484.28   40.02
  -1   2  -2 4472.58   36.43
  -1  -2  -2 4574.73   32.03
  -1  -2  -1 4296.16   27.92
  -1   2  -1 4187.07   36.22
   1   2  -1 4314.89   37.44
  -1  -2  -1 4232.85   36.35
   1  -2  -1 4377.51   38.40
   1  -2  -1 4165.29   32.64
  -1   2   0 7398.94   48.83
  -1  -2   0 7507.63   46.47
   1  -2   0 7479.68   48.69
   1   2   0 7495.93   50.13
   1  -2   1 4167.54   30.68
   1   2   1 4200.10   38.03
  -1  -2   1 4238.87   33.21
   1  -2   2 4402.40   35.61
   1  -2   2 4460.26   30.29
   1  -2   3 1365.68   19.50
   1   2   3 1352.23   22.18
  -1  -2   3 1345.40   16.84
   1  -2   4  179.12    6.96
   1   2   4  173.65    7.93
  -1  -2   4  197.00    5.97
  -1  -2   5   34.31    2.34
   1   2   5   31.52    3.48
   1  -2   6  228.67    7.80
  -1  -2   6  238.51    5.63
   1   2   6  228.18    9.51
   1  -2   7  183.73    6.95
   1   2   7  169.77    9.17
   1   2   7  184.31    8.67
   1   2   8  116.62    7.08
   1  -2   8  118.21    5.84
   1   2   8  129.19    8.18
   1   2   9  179.80    8.83
   1  -2   9  177.85    7.04
   1   2   9  162.52    9.43
   1  -2  10   46.17    3.66
   1   2  10   47.30    5.28
   1   2  10   40.19    4.21
   1   2  11    2.87    1.19
   1  -2  11    1.85    0.74
   1   2  11    4.03    2.01
   1  -2  12    5.49    1.42
   1   2  12   12.84    3.01
   1   2  12   10.46    2.36
   1   2  13   26.98    4.43
   1  -2  13   22.29    2.70
   1   2  13   21.58    3.69
   1   2  14  107.78    8.61
   1  -2  14  109.61    6.11
   1   2  14   93.72    7.20
  -1   2  14  112.19    8.63
  -1   2  15   14.17    3.47
   1   2  15   16.30    3.51
   1  -2  15   12.96    2.18
   1   2  15   12.85    3.36
   1   2  16   37.07    4.61
   1  -2  16   40.66    3.98
  -1   2  16   45.54    5.90
   1   2  16   37.07    5.50
   1   2  17   26.11    4.53
  -1   2  17   31.22    5.30
   1   2  17   36.35    4.76
   1   2  18   23.00    4.55
  -1   2  18   16.15    3.53
   1   2  18   14.91    3.07
  -1   2  18   11.10    3.33
  -1   2  19   33.46    4.89
  -1   2  19   42.96    5.91
   1   2  19   35.85    5.58
  -1   2  20   62.50    7.59
   1   2  20   62.28    7.79
   1   2  21    8.21    2.27
  -1   2  21   14.46    3.82
   1   2  22   16.35    4.32
  -1  -3 -30   26.38    6.45
   1  -3 -30   34.47    7.90
   1  -3 -29   33.11    7.30
  -1  -3 -29   45.72    8.40
   1  -3 -28   13.66    4.59
  -1  -3 -28   16.34    5.45
  -1  -3 -27    3.34    3.06
   1  -3 -27    2.78    2.65
   1  -3 -26   78.96   10.46
  -1  -3 -26   66.49   10.00
  -1  -3 -25   42.39    8.16
   1  -3 -25   42.08    7.91
   1  -3 -24   25.92    5.81
  -1  -3 -24   43.74    7.72
   1  -3 -23   94.11   10.86
  -1  -3 -23   82.77    9.90
   1  -3 -22  166.73   14.43
  -1  -3 -22  204.73   15.98
   1  -3 -21   26.72    5.92
  -1  -3 -21   38.83    6.82
  -1  -3 -20  153.13   13.30
   1  -3 -20  187.45   14.37
  -1  -3 -19  172.58   13.54
   1  -3 -19  158.26   13.10
  -1  -3 -18   70.53    8.46
   1  -3 -18   64.18    8.61
   1  -3 -17  207.75   14.51
  -1  -3 -17  224.87   14.86
   1  -3 -16  812.64   27.77
  -1  -3 -16  820.26   27.99
  -1  -3 -15   67.27    8.12
   1  -3 -15   89.52    9.05
   1   3 -15   75.31    6.31
   1   3 -14  607.09   17.28
  -1  -3 -14  604.61   22.83
   1  -3 -14  611.70   23.38
   1   3 -13  929.43   21.16
   1  -3 -13  908.08   27.28
  -1   3 -13  885.28   17.46
  -1  -3 -13  909.96   27.35
  -1  -3 -12  357.26   16.66
   1  -3 -12  412.50   18.16
   1   3 -12  378.56   13.56
   1  -3 -12  371.46   16.71
  -1   3 -12  354.50   11.44
  -1   3 -11  253.29    9.58
   1  -3 -11  268.87   13.73
  -1  -3 -11  264.43   13.80
   1  -3 -11  248.50   13.72
   1   3 -11  270.61   11.42
   1  -3 -10 1314.02   29.84
   1   3 -10 1383.70   25.70
  -1  -3 -10 1395.28   31.11
   1  -3 -10 1355.57   30.92
   1  -3  -9  299.86   13.97
  -1  -3  -9  325.96   14.56
  -1   3  -9  333.58   11.28
   1  -3  -9  328.28   14.55
   1   3  -9  322.03   12.52
  -1  -3  -8  207.37   10.98
   1   3  -8  202.56    9.76
   1  -3  -8  195.49   11.12
  -1   3  -8  203.25    9.00
   1  -3  -8  207.94   11.42
   1   3  -7  602.91   16.74
   1  -3  -7  552.58   18.53
  -1  -3  -7  619.41   18.29
   1  -3  -7  601.85   18.83
  -1   3  -7  595.40   15.97
  -1   3  -6   83.62    5.99
   1  -3  -6   88.52    7.20
   1   3  -6   88.21    6.35
  -1  -3  -6   96.48    6.97
   1  -3  -6   90.89    7.02
   1   3  -5  297.71   11.62
  -1   3  -5  295.76   11.36
  -1  -3  -5  289.15   12.72
  -1  -3  -5  298.32   11.54
   1  -3  -5  269.82   11.68
   1  -3  -5  296.13   12.95
  -1  -3  -4  983.03   19.91
   1   3  -4  994.58   21.46
  -1  -3  -4  998.66   22.94
  -1   3  -4  947.68   20.31
   1  -3  -4 1002.77   21.48
   1  -3  -4 1016.31   23.34
   1  -3  -3  239.96   11.16
  -1   3  -3  235.47   10.23
   1   3  -3  244.75   10.66
  -1  -3  -3  226.77    8.97
  -1  -3  -3  240.26   10.97
   1  -3  -3  248.39   10.11
  -1   3  -2  230.53   10.24
  -1  -3  -2  239.03    8.49
  -1  -3  -2  237.56   10.56
   1  -3  -2  258.25   11.44
   1   3  -2  238.05   10.77
   1  -3  -2  230.06    9.28
   1  -3  -1  943.99   21.34
  -1   3  -1  987.19   21.54
   1  -3  -1  981.18   18.31
  -1  -3  -1  991.58   15.66
  -1  -3  -1  934.65   20.59
   1   3  -1  961.56   21.58
  -1  -3   0 2069.73   19.94
  -1  -3   0 1992.70   28.95
   1   3   0 2002.72   31.23
   1  -3   0 2106.80   25.33
  -1   3   0 2034.66   31.05
   1  -3   0 1993.43   30.20
   1   3   1 1024.67   22.44
  -1   3   1  992.65   21.86
   1  -3   1  945.68   20.36
   1  -3   1 1001.49   17.03
  -1  -3   1 1025.81   11.96
  -1  -3   1  999.55   20.04
  -1  -3   2  247.16    9.74
   1  -3   2  243.30    8.10
   1   3   2  251.95   11.24
  -1   3   2  248.47   11.18
   1  -3   2  246.46   10.20
   1   3   3  230.91   10.87
   1  -3   3  227.69    9.76
  -1  -3   3  229.84    9.06
   1  -3   3  220.43    7.71
  -1   3   3  238.92   11.26
  -1   3   4 1009.31   23.08
   1   3   4  973.86   22.77
  -1  -3   4  995.28   18.21
   1  -3   4  986.16   16.21
   1  -3   4  963.24   19.57
   1  -3   5  294.41   10.83
  -1   3   5  281.08   12.41
   1   3   5  293.45   12.45
  -1  -3   5  304.97    9.65
  -1  -3   6   85.46    4.94
   1  -3   6   92.70    5.97
  -1   3   6   85.86    6.79
   1   3   6   75.58    6.50
   1  -3   7  616.55   15.13
  -1  -3   7  633.85   12.78
  -1   3   7  650.00   19.33
   1   3   7  607.58   18.29
   1  -3   8  188.58    8.39
   1   3   8  197.15   10.54
  -1  -3   8  202.07    6.86
   1   3   9  354.12   14.43
  -1  -3   9  335.54    8.43
   1   3   9  332.46   15.00
   1  -3   9  339.17   11.09
  -1  -3  10 1295.70   15.32
  -1   3  10 1354.06   29.30
   1   3  10 1381.19   29.12
   1   3  10 1286.82   30.22
  -1  -3  11  242.09    5.84
   1   3  11  252.52   12.62
  -1   3  11  254.26   12.84
   1  -3  11  273.95    9.99
   1   3  11  280.61   14.41
  -1   3  12  344.34   15.38
   1   3  12  374.45   16.97
   1   3  12  380.64   15.74
   1  -3  12  358.72   11.53
   1   3  13  914.02   24.69
  -1   3  13  930.96   25.31
   1   3  13  857.75   26.57
   1  -3  13  909.04   18.30
   1   3  14  614.97   20.65
   1   3  14  620.99   23.04
  -1   3  14  589.33   20.78
   1  -3  14  625.69   15.08
   1   3  15  105.97    9.76
   1  -3  15   84.37    5.70
  -1   3  15   77.15    7.89
  -1   3  15   87.05    8.25
   1   3  15   91.63    8.20
   1   3  16  797.33   24.21
   1   3  16  806.35   26.85
  -1   3  16  747.56   25.80
   1   3  17  212.96   14.05
   1   3  17  220.02   12.95
  -1   3  17  237.36   14.80
  -1   3  17  199.42   12.75
  -1   3  18   84.81    8.57
  -1   3  18   78.59    8.66
   1   3  18   65.41    7.35
   1   3  18   72.18    8.37
  -1   3  19  162.54   12.20
   1   3  19  189.86   13.87
  -1   3  19  177.25   13.45
   1   3  19  169.98   11.77
   1   3  20  195.56   14.15
  -1   3  20  185.75   13.93
  -1   3  20  167.04   12.68
   1   3  21   34.80    5.68
  -1   3  21   31.80    5.54
  -1   3  22  169.55   13.96
   1   3  22  175.07   13.79
   1   3  23   82.54   10.11
  -1  -4 -29    1.82    2.58
   1  -4 -29   -3.17    3.44
   1  -4 -28    6.55    3.99
  -1  -4 -28   -1.45    3.88
   1  -4 -27    4.91    2.74
  -1  -4 -27    0.47    3.98
   1  -4 -26    2.26    1.77
  -1  -4 -26    0.54    2.22
  -1  -4 -25    5.39    3.74
   1  -4 -25    7.00    4.11
   1  -4 -24    7.51    3.56
  -1  -4 -24    7.68    3.99
   1  -4 -23   34.83    7.19
  -1  -4 -23   37.68    7.47
   1  -4 -22   36.31    6.68
  -1  -4 -22   24.57    6.53
  -1  -4 -21   49.44    7.93
   1  -4 -21   45.27    8.06
   1  -4 -20   13.05    4.70
  -1  -4 -20   11.85    5.26
  -1  -4 -19   15.02    3.86
   1  -4 -19    5.15    2.81
  -1  -4 -18   23.38    5.11
   1  -4 -18   25.67    6.13
  -1  -4 -17   41.22    6.81
   1  -4 -17   23.18    4.72
   1  -4 -16   18.05    4.86
  -1  -4 -16   19.49    4.79
   1  -4 -15   31.99    5.69
  -1  -4 -15   34.26    5.63
  -1  -4 -14   13.66    3.10
   1  -4 -14    9.29    3.72
   1   4 -14   10.38    2.90
  -1  -4 -13    6.81    2.54
  -1   4 -13   10.82    2.43
   1  -4 -13    5.71    3.31
   1   4 -13   10.53    2.60
   1   4 -12  196.17   11.14
  -1   4 -12  173.61    9.77
   1  -4 -12  189.33   12.86
   1  -4 -12  185.10   12.66
  -1  -4 -12  194.97   12.45
   1  -4 -11   55.24    6.86
   1  -4 -11   52.86    6.72
   1   4 -11   65.33    6.51
  -1   4 -11   50.45    5.15
  -1  -4 -11   64.77    7.04
   1  -4 -10  245.92   14.06
  -1   4 -10  258.97   12.00
   1   4 -10  235.70   12.18
  -1  -4 -10  263.75   14.19
   1  -4 -10  268.71   14.36
   1  -4  -9  442.45   18.58
  -1   4  -9  414.33   15.21
  -1  -4  -9  417.88   17.19
   1  -4  -9  386.98   16.94
   1   4  -9  423.66   16.27
  -1  -4  -8  187.97   11.05
  -1   4  -8  182.39   10.17
   1   4  -8  184.19   10.60
   1  -4  -8  184.42   11.99
   1   4  -7   14.05    3.31
  -1   4  -7   16.12    3.10
  -1  -4  -7   13.78    3.01
   1  -4  -7   12.38    2.99
   1  -4  -7   15.09    3.37
   1  -4  -6  117.84    9.25
  -1  -4  -6  104.26    7.57
  -1  -4  -6  129.15    9.44
   1   4  -6  113.54    8.42
   1  -4  -6   96.52    7.76
  -1   4  -6  101.50    7.86
  -1  -4  -5  133.76    8.32
   1  -4  -5  114.79    8.30
   1   4  -5  137.94    9.15
  -1   4  -5  125.77    8.55
   1  -4  -5  127.07    9.34
  -1  -4  -5  134.88    9.58
  -1  -4  -4   71.63    6.96
  -1  -4  -4   85.76    6.41
   1  -4  -4   80.10    7.43
   1   4  -4   82.07    7.24
   1  -4  -4   84.71    6.71
  -1   4  -4   84.68    7.09
   1  -4  -3   84.60    6.46
  -1   4  -3   96.47    7.58
   1  -4  -3   86.34    7.30
   1   4  -3   90.85    7.59
  -1  -4  -3  106.16    8.19
  -1   4  -2  284.08   13.26
  -1  -4  -2  301.65   13.54
   1  -4  -2  288.92   11.42
   1  -4  -2  308.20   14.06
  -1  -4  -2  325.96   11.05
   1   4  -2  288.58   13.50
   1   4  -1  590.12   19.26
  -1  -4  -1  654.50   19.44
   1  -4  -1  619.69   19.55
  -1   4  -1  607.80   19.36
   1  -4  -1  590.13   15.73
  -1  -4  -1  547.27   13.25
  -1  -4   0 1614.36   30.34
  -1   4   0 1552.39   30.98
   1   4   0 1481.17   30.88
  -1  -4   0 1444.73   19.79
   1  -4   0 1527.17   30.44
   1  -4   0 1547.78   24.58
  -1  -4   1  558.78   11.04
   1  -4   1  658.18   15.22
   1  -4   1  609.84   18.87
  -1   4   1  593.77   19.66
   1   4   1  635.05   20.42
  -1  -4   1  591.33   18.12
   1  -4   2  303.69   10.12
  -1  -4   2  292.90    6.87
  -1   4   2  307.42   14.17
   1  -4   2  324.74   13.57
   1   4   2  299.31   14.12
  -1  -4   2  305.44   12.62
   1  -4   3   89.85    5.42
  -1  -4   3   96.06    6.97
  -1   4   3   94.73    8.10
   1  -4   3   95.62    7.28
   1   4   3   91.10    7.80
  -1  -4   3   90.47    3.20
   1  -4   4   98.64    7.25
   1  -4   4   82.78    5.16
  -1  -4   4   75.29    6.08
  -1   4   4   82.57    7.67
   1   4   4   75.42    6.94
   1  -4   5  140.79    8.44
   1   4   5  127.29    9.22
  -1  -4   5  128.23    7.80
   1  -4   5  133.68    6.56
  -1   4   5  135.36    9.50
   1  -4   6   99.24    5.85
   1  -4   6  102.88    7.33
   1   4   6  109.76    8.57
  -1  -4   6  105.17    6.79
  -1   4   6  101.38    8.40
   1  -4   7   12.66    2.64
  -1  -4   7   12.74    2.33
  -1   4   7    7.50    2.13
   1   4   7   12.91    2.89
  -1  -4   7   10.07    1.11
  -1  -4   8  190.97    8.72
   1  -4   8  188.61    9.82
   1   4   8  197.56   11.90
  -1   4   8  179.02   11.68
  -1  -4   9  450.85   12.98
   1   4   9  434.53   17.88
   1  -4   9  402.37   14.29
  -1   4   9  449.38   18.55
  -1   4  10  246.39   13.82
   1  -4  10  261.21   11.15
  -1  -4  10  259.45    9.35
   1   4  10  242.80   13.46
   1   4  11   49.95    6.64
  -1  -4  11   53.76    4.09
   1   4  11   48.13    6.18
  -1   4  11   49.04    6.59
   1  -4  11   61.98    5.33
  -1  -4  12  165.03    6.62
   1   4  12  151.23   11.89
  -1   4  12  185.76   12.27
   1  -4  12  173.54    8.92
   1   4  12  147.96   11.02
   1   4  13    6.88    3.03
   1  -4  13    8.25    1.63
  -1   4  13    6.98    3.23
   1   4  13   10.10    3.94
   1   4  14    9.76    3.19
   1  -4  14   11.61    2.33
   1   4  14    7.18    2.57
  -1   4  14    8.96    2.89
  -1   4  15   50.96    6.74
   1   4  15   44.59    6.34
   1   4  15   43.84    6.82
  -1   4  16   20.49    4.47
   1   4  16   14.89    3.85
   1   4  16   20.98    4.91
  -1   4  17   29.70    5.89
  -1   4  17   30.15    4.85
   1   4  17   44.51    7.26
   1   4  17   26.31    5.47
   1   4  18   17.69    4.68
  -1   4  18   27.71    5.79
   1   4  18   33.26    6.04
  -1   4  18   33.38    6.14
   1   4  19   12.16    4.20
  -1   4  19    9.27    3.92
   1   4  19   12.60    4.13
  -1   4  19   16.75    4.35
  -1   4  20   11.32    4.49
   1   4  20    7.09    3.16
  -1   4  20    6.36    3.63
   1   4  21   48.67    8.18
  -1   4  21   47.86    7.98
  -1   4  22   52.11    8.07
   1   4  22   32.96    6.64
   1   4  23   29.99    6.39
  -1   4  23   40.75    7.34
   1   4  24   19.17    6.09
  -1   4  24   11.09    4.78
   1  -5 -28    2.38    2.63
  -1  -5 -28    3.10    3.46
  -1  -5 -27    0.42    3.88
   1  -5 -27   -4.91    4.56
   1  -5 -26   35.64    7.52
  -1  -5 -26   38.82    8.12
   1  -5 -25   25.38    5.73
  -1  -5 -25   22.78    5.46
   1  -5 -24    0.95    2.00
  -1  -5 -24    0.71    2.18
   1  -5 -23   42.98    8.13
  -1  -5 -23   39.59    7.38
   1  -5 -22   89.93   10.83
  -1  -5 -22   87.74   11.24
   1  -5 -21   24.86    5.82
  -1  -5 -21   11.18    4.53
  -1  -5 -20   34.00    7.32
   1  -5 -20   37.04    7.39
  -1  -5 -19   75.16    9.55
   1  -5 -19   86.66   10.27
  -1  -5 -18   22.01    5.93
   1  -5 -18   42.40    7.35
   1  -5 -17   23.48    5.51
  -1  -5 -17   30.23    5.87
  -1  -5 -16  264.60   16.98
   1  -5 -16  257.40   16.57
   1  -5 -15   76.69    8.99
  -1  -5 -15   73.86    8.66
  -1  -5 -14   60.04    8.06
   1   5 -14   73.36    7.90
   1   5 -13  239.05   13.64
   1  -5 -13  255.18   15.44
  -1  -5 -13  256.60   15.70
   1  -5 -13  227.77   15.29
  -1   5 -13  269.15   14.04
   1   5 -12  178.10   11.79
   1  -5 -12  192.84   13.66
   1  -5 -12  190.56   13.73
  -1   5 -12  197.04   11.84
  -1  -5 -12  197.57   13.41
  -1  -5 -11   36.87    6.05
   1  -5 -11   28.37    5.51
   1  -5 -11   34.04    6.04
   1   5 -11   43.45    5.86
  -1   5 -11   33.80    4.91
  -1  -5 -10  492.27   20.12
   1  -5 -10  481.85   21.11
   1   5 -10  469.52   19.07
   1  -5 -10  459.90   19.65
  -1   5 -10  494.36   19.15
   1  -5  -9  257.73   15.33
  -1  -5  -9  258.99   14.26
  -1   5  -9  289.31   14.69
   1  -5  -9  269.38   14.80
   1   5  -9  286.44   14.81
  -1   5  -8   45.71    5.90
   1  -5  -8   54.01    7.13
   1  -5  -8   56.60    6.90
  -1  -5  -8   47.66    6.26
  -1  -5  -7  250.14   13.02
  -1   5  -7  271.95   14.24
   1  -5  -7  280.95   14.48
   1  -5  -7  280.79   15.84
   1   5  -7  289.05   14.83
  -1  -5  -6  232.07   13.98
   1  -5  -6  272.49   15.30
   1   5  -6  235.10   13.47
  -1   5  -6  243.16   13.56
   1  -5  -6  242.67   13.15
  -1  -5  -6  263.59   12.91
   1  -5  -5   68.66    6.86
  -1  -5  -5   73.53    7.90
   1   5  -5   83.55    8.25
  -1  -5  -5   79.40    6.86
  -1   5  -5   89.74    8.15
   1  -5  -5   81.01    8.41
   1  -5  -4  351.03   14.76
   1   5  -4  361.51   16.86
  -1  -5  -4  352.59   13.98
  -1   5  -4  370.46   16.61
   1  -5  -4  358.22   17.08
  -1  -5  -4  348.46   16.51
  -1   5  -3  495.68   19.40
   1   5  -3  491.92   19.52
   1  -5  -3  481.59   19.63
  -1  -5  -3  487.51   19.05
   1  -5  -2   86.29    6.85
   1   5  -2   75.28    7.75
  -1  -5  -2   74.60    7.25
  -1   5  -2   64.38    6.98
  -1  -5  -2   70.52    5.58
   1  -5  -2   81.33    7.96
  -1   5  -1   40.66    5.74
  -1  -5  -1   32.45    3.57
   1  -5  -1   37.25    4.32
   1  -5  -1   27.73    4.62
  -1  -5  -1   32.04    4.74
   1   5  -1   38.20    5.46
   1  -5   0  286.37   11.56
   1  -5   0  296.41   14.91
   1   5   0  288.16   15.00
  -1  -5   0  264.56    9.55
  -1  -5   0  264.43   13.76
  -1   5   0  302.87   15.43
   1  -5   1   36.63    4.13
   1  -5   1   46.60    6.00
  -1  -5   1   38.93    3.48
  -1  -5   1   39.22    5.08
  -1   5   1   42.23    5.76
   1   5   1   38.49    5.34
   1   5   2   89.90    8.34
  -1  -5   2   83.04    4.38
  -1  -5   2   85.44    7.41
   1  -5   2   83.83    5.87
   1  -5   2   74.70    7.42
  -1   5   2   84.29    7.81
  -1  -5   3  504.52   18.13
  -1  -5   3  472.14    9.11
   1   5   3  484.74   19.73
  -1   5   3  452.11   19.32
   1  -5   3  472.88   18.21
   1  -5   3  483.50   13.59
  -1   5   4  342.34   16.73
   1   5   4  368.18   17.30
   1  -5   4  400.82   16.60
  -1  -5   4  382.52   15.44
   1  -5   4  362.95   11.63
  -1  -5   5   76.52    6.86
   1   5   5   84.26    8.38
   1  -5   5   76.57    7.14
   1  -5   5   78.22    5.50
  -1   5   5   81.64    8.24
   1  -5   6  248.13   12.76
   1  -5   6  251.99    9.73
  -1  -5   6  252.18   12.33
  -1   5   6  222.67   13.68
   1   5   7  267.44   15.04
   1  -5   7  288.17   13.68
   1  -5   7  265.69   10.21
  -1  -5   7  267.98   12.40
  -1   5   7  254.62   14.92
   1  -5   8   51.01    4.66
  -1  -5   8   53.52    5.59
   1  -5   8   60.51    6.13
  -1   5   8   67.78    7.80
   1   5   8   69.05    7.74
   1  -5   9  273.13   11.01
   1   5   9  280.17   15.65
  -1   5   9  276.02   15.82
  -1  -5   9  282.26   12.41
   1  -5   9  263.27   13.06
   1   5  10  470.45   20.58
  -1  -5  10  455.00   15.22
   1  -5  10  449.50   16.71
  -1  -5  11   26.93    3.72
   1   5  11   23.24    4.43
   1  -5  11   27.06    4.08
   1   5  12  211.58   14.14
  -1   5  12  206.11   14.22
   1   5  12  182.10   13.66
   1  -5  12  206.99   11.23
  -1  -5  12  199.92    9.28
   1   5  13  227.89   15.11
   1  -5  13  233.45   11.65
   1   5  13  216.14   15.05
  -1   5  13  252.25   15.73
   1   5  14   82.28    9.10
  -1   5  14   83.98    9.66
   1   5  14   78.37    9.06
   1   5  15   80.15    8.88
  -1   5  15   83.12    9.44
   1   5  15   77.69    9.48
   1   5  16  303.62   18.64
  -1   5  16  295.33   17.74
   1   5  16  283.79   16.88
   1   5  17   27.00    5.24
  -1   5  17   24.03    5.18
  -1   5  17   25.82    5.55
   1   5  17   29.29    5.89
  -1   5  18   33.87    6.59
   1   5  18   40.34    6.91
   1   5  18   38.48    6.40
  -1   5  18   38.21    6.57
  -1   5  19   86.98   10.48
   1   5  19   99.61   11.15
  -1   5  19   93.98   10.36
   1   5  19   89.87   10.28
   1   5  20   31.56    6.88
   1   5  20   29.86    6.80
  -1   5  20   35.22    7.73
  -1   5  20   32.55    6.38
   1   5  21   12.83    3.72
  -1   5  21   15.62    4.67
  -1   5  21   24.05    5.61
   1   5  22  102.43   11.61
  -1   5  22  105.33   12.11
  -1   5  23   33.64    7.43
   1   5  23   39.75    7.58
   1   5  24    2.04    1.86
  -1   5  24    0.21    2.88
   1   5  25   10.85    4.07
  -1  -6 -26   -1.46    2.02
   1  -6 -26   12.07    4.78
  -1  -6 -25    2.11    2.90
   1  -6 -25    4.38    2.84
   1  -6 -24   -2.14    2.91
  -1  -6 -24   -0.82    3.09
   1  -6 -23    3.15    2.68
  -1  -6 -23    4.33    3.51
  -1  -6 -22   12.58    4.97
   1  -6 -22   11.42    4.42
   1  -6 -21   -0.14    2.64
  -1  -6 -21   12.04    4.93
   1  -6 -20    3.38    3.23
  -1  -6 -20    3.13    2.81
  -1  -6 -19    3.03    2.36
   1  -6 -19    5.14    2.28
  -1  -6 -18   -0.46    2.33
   1  -6 -18    6.87    3.80
  -1  -6 -17    5.94    3.40
   1  -6 -17    4.64    2.31
   1  -6 -16    7.40    3.14
  -1  -6 -16    4.85    3.66
   1  -6 -15   13.30    3.73
  -1  -6 -15   12.19    4.33
  -1  -6 -14    7.62    3.42
   1  -6 -14   12.37    3.79
   1  -6 -13   15.39    5.03
  -1  -6 -13   30.99    5.75
   1   6 -13   25.67    5.23
  -1   6 -12   37.31    5.98
  -1  -6 -12   32.23    5.77
   1  -6 -12   29.33    5.67
   1  -6 -12   50.19    6.88
   1   6 -12   31.75    5.64
   1  -6 -11   19.27    4.92
   1   6 -11   22.21    4.72
  -1   6 -11   17.28    4.21
  -1  -6 -11   13.18    3.69
   1  -6 -11   21.04    4.58
   1  -6 -10   12.69    3.73
  -1  -6 -10   13.72    3.81
   1  -6 -10   21.36    4.82
   1   6 -10   15.15    3.93
  -1   6 -10   13.97    3.47
   1  -6  -9    7.78    3.49
  -1   6  -9    5.21    2.83
   1   6  -9    7.96    2.65
  -1  -6  -9    6.94    2.89
   1  -6  -9   10.46    3.49
   1  -6  -8    4.05    2.33
   1  -6  -8    1.18    1.37
  -1  -6  -8    2.88    3.06
   1   6  -8    1.88    2.51
  -1   6  -8   -1.60    2.00
  -1  -6  -7   68.87    7.41
  -1   6  -7   66.50    7.67
   1   6  -7   59.17    7.09
   1  -6  -7   56.41    7.45
   1  -6  -7   58.87    7.14
  -1  -6  -6  109.74   10.14
   1  -6  -6  103.19    9.92
   1   6  -6  102.04    9.63
  -1   6  -6   94.75    9.29
   1  -6  -6  123.90    9.87
  -1  -6  -6  110.20    9.01
   1  -6  -5  135.17   10.22
   1  -6  -5  139.51   11.39
  -1   6  -5  122.62   10.79
  -1  -6  -5  127.07   10.68
  -1  -6  -5  130.65    9.54
   1   6  -5  120.88   10.57
   1   6  -4  119.31   10.51
  -1  -6  -4  152.22   11.72
   1  -6  -4  122.73    9.55
  -1  -6  -4  118.56    8.70
   1  -6  -4  127.08   11.02
  -1   6  -4  117.11   10.19
  -1   6  -3   98.50    9.94
   1   6  -3  108.14    9.76
   1  -6  -3   99.67    8.32
  -1  -6  -3  101.51    7.73
   1  -6  -3   88.66    9.07
  -1  -6  -3  113.95   10.06
  -1  -6  -2  110.49    9.91
  -1  -6  -2  102.19    7.40
   1  -6  -2  118.54    8.87
   1   6  -2  102.89    9.73
  -1   6  -2  119.37   10.31
   1  -6  -2  122.83   10.47
   1   6  -1   22.08    4.57
   1  -6  -1   34.70    4.46
  -1  -6  -1   34.95    5.35
  -1  -6  -1   28.31    3.71
  -1   6  -1   26.05    5.24
   1  -6  -1   25.37    4.94
   1  -6   0   51.56    5.46
  -1  -6   0   41.02    4.26
   1  -6   0   38.35    5.67
   1   6   0   51.66    6.95
  -1   6   0   53.55    7.16
  -1  -6   0   47.14    6.35
  -1   6   1   25.43    4.90
  -1  -6   1   18.97    4.23
   1  -6   1   37.17    4.40
  -1  -6   1   29.63    3.48
   1  -6   1   30.80    5.19
   1   6   1   32.13    5.80
   1   6   2  114.06   10.31
   1  -6   2  116.93    7.53
  -1  -6   2  111.71    9.62
   1  -6   2  119.93    9.90
  -1   6   2  104.36    9.97
  -1  -6   2  100.60    5.55
  -1  -6   3  111.29    9.32
   1   6   3  113.90   10.35
   1  -6   3  107.16    9.58
  -1   6   3  115.06   10.68
   1  -6   3   98.39    6.74
  -1  -6   3  104.57    4.83
  -1   6   4  123.11   10.84
   1  -6   4  122.38    7.16
   1  -6   4  139.58   10.80
  -1  -6   4  135.17   10.06
   1   6   4  147.04   11.91
  -1   6   5  121.27   10.71
  -1  -6   5  136.58   10.15
   1   6   5  129.87   11.08
   1  -6   5  113.12   10.00
   1  -6   5  119.29    7.12
   1  -6   6  103.82    6.67
   1   6   6  121.58   10.92
   1  -6   6  118.85    9.72
  -1   6   6  112.91   10.82
  -1  -6   6  125.88    9.61
   1   6   7   64.29    8.09
   1  -6   7   57.85    6.67
  -1   6   7   67.53    7.99
  -1  -6   7   63.92    6.95
   1  -6   7   58.86    5.01
   1   6   8    3.11    2.08
  -1  -6   8    1.62    1.33
   1  -6   8    2.89    1.77
  -1   6   8   -2.23    3.07
  -1   6   9    5.66    3.11
  -1  -6   9    5.99    1.77
   1  -6   9    7.16    2.16
   1   6   9    5.13    2.59
   1   6  10   12.76    3.67
  -1  -6  10   13.00    2.93
   1  -6  10   13.47    3.02
  -1   6  10    5.45    3.19
  -1   6  11   16.35    4.20
  -1  -6  11   11.51    2.92
   1   6  11   17.88    4.70
   1  -6  11   12.08    3.17
   1   6  12   33.51    6.22
  -1   6  12   40.18    6.77
   1  -6  12   35.70    5.29
   1   6  12   31.31    6.19
   1   6  13   21.40    4.63
  -1   6  13   14.87    4.48
   1   6  13   21.50    5.39
   1   6  14    7.02    1.84
   1   6  14    7.58    4.03
  -1   6  14    9.40    4.06
   1   6  15   11.14    4.06
  -1   6  15    5.61    3.17
   1   6  15   17.43    4.83
   1   6  16    2.92    2.93
  -1   6  16    1.10    2.71
   1   6  16    4.23    3.57
  -1   6  17    5.70    4.63
   1   6  17    3.92    2.69
  -1   6  17   -0.52    2.31
   1   6  17    9.09    3.50
  -1   6  18    2.76    2.51
   1   6  18   -0.07    2.07
  -1   6  18    0.56    2.02
   1   6  18    4.26    3.21
   1   6  19    0.23    2.47
  -1   6  19    4.67    3.07
  -1   6  19    6.67    4.02
   1   6  19    9.86    3.81
  -1   6  20   -2.36    4.05
  -1   6  20    7.19    3.88
   1   6  20    5.32    3.28
   1   6  20    3.48    3.22
   1   6  21    9.63    4.05
  -1   6  21    2.10    2.58
  -1   6  21    7.96    3.56
   1   6  22   13.20    4.58
  -1   6  22   24.58    5.61
   1   6  23    6.42    3.48
  -1   6  23    1.86    1.46
   1   6  24    2.67    3.99
  -1   6  24   -0.58    2.12
  -1   6  25   -0.44    2.97
   1   6  25    5.69    4.29
   1   6  26    4.15    3.09
  -1  -7 -24   10.93    4.41
   1  -7 -24   13.02    3.98
   1  -7 -23   35.15    7.27
  -1  -7 -23   48.38    8.61
  -1  -7 -22   31.68    6.68
   1  -7 -22   43.25    8.26
  -1  -7 -21    5.11    3.17
   1  -7 -21    4.00    2.76
  -1  -7 -20   22.80    5.28
   1  -7 -20   21.88    5.55
   1  -7 -19   38.25    7.47
  -1  -7 -19   22.64    5.36
  -1  -7 -18    3.66    3.17
   1  -7 -18    4.32    1.79
  -1  -7 -17   32.48    6.13
   1  -7 -17   32.38    7.18
  -1  -7 -16   73.11    9.56
   1  -7 -16   67.24    9.10
  -1  -7 -15   10.82    4.49
   1  -7 -15    7.79    2.81
   1  -7 -14   13.10    4.07
  -1  -7 -14   11.85    4.01
   1  -7 -13   38.49    6.34
   1   7 -13   40.22    6.67
  -1  -7 -13   26.79    5.66
   1  -7 -12   36.88    6.77
   1  -7 -12   31.82    5.64
   1   7 -12   20.32    4.62
  -1   7 -12   34.64    6.47
  -1  -7 -12   20.55    4.42
   1  -7 -11   12.09    4.38
  -1  -7 -11    9.47    3.85
   1   7 -11    3.13    2.88
  -1   7 -11    3.43    1.63
   1  -7 -11    6.68    3.78
   1   7 -10  123.75   11.91
  -1  -7 -10  133.81   11.60
   1  -7 -10  130.41   12.26
   1  -7 -10  127.53   11.58
  -1   7 -10  135.70   12.19
   1  -7  -9   82.42    9.67
  -1   7  -9  105.56   10.65
   1   7  -9   82.94   10.00
  -1  -7  -9  102.36    9.96
   1  -7  -9   71.48    8.78
  -1   7  -8    4.93    3.51
  -1  -7  -8    3.99    2.80
   1  -7  -8    7.48    3.25
   1   7  -8    4.61    2.40
   1  -7  -8    0.76    2.56
   1   7  -7   92.77    9.97
   1  -7  -7   83.98    9.67
  -1   7  -7  112.99   11.06
   1  -7  -7  120.43   10.47
  -1  -7  -7   86.96    8.93
   1  -7  -6  238.06   14.48
  -1   7  -6  225.77   15.59
   1  -7  -6  253.77   16.76
   1   7  -6  245.85   16.28
  -1  -7  -6  227.62   13.87
   1  -7  -5   49.80    6.40
  -1  -7  -5   55.59    6.72
   1  -7  -5   62.39    8.44
   1   7  -5   57.15    8.36
  -1   7  -5   64.31    8.48
  -1  -7  -5   57.80    8.19
   1  -7  -4  143.95   10.46
   1  -7  -4  124.96   11.07
   1   7  -4  120.65   11.50
  -1  -7  -4  122.94   11.30
  -1   7  -4  127.03   11.73
  -1  -7  -4  132.28    9.77
  -1  -7  -3  317.39   18.24
   1  -7  -3  331.82   18.57
   1   7  -3  319.16   18.34
  -1  -7  -3  314.16   14.76
   1  -7  -3  321.72   15.76
  -1   7  -3  312.99   18.15
   1   7  -2  108.26   10.90
  -1  -7  -2  131.23   11.42
  -1  -7  -2  119.07    8.60
   1  -7  -2  153.17   12.56
   1  -7  -2  122.02    9.67
  -1   7  -2  136.88   11.90
  -1  -7  -1    4.02    2.04
   1  -7  -1    8.69    3.03
   1   7  -1    6.31    2.39
  -1  -7  -1    2.27    1.33
  -1   7  -1    3.69    1.27
   1  -7  -1    9.68    4.11
   1  -7   0   62.08    8.10
  -1   7   0   81.74    9.11
   1  -7   0   75.23    7.04
  -1  -7   0   76.20    8.90
   1   7   0   72.79    9.03
  -1   7   1    3.16    2.54
  -1  -7   1    9.35    3.09
   1  -7   1   10.55    3.62
   1  -7   1    4.89    2.14
   1   7   1    9.44    3.57
   1   7   2  151.14   12.95
   1  -7   2  138.38   11.84
  -1   7   2  152.03   13.15
   1  -7   2  133.61    9.05
  -1  -7   2  143.59   11.68
   1   7   3  307.09   18.29
  -1  -7   3  292.61   16.76
   1  -7   3  338.31   18.36
  -1   7   3  290.45   17.79
   1   7   4  118.07   11.51
  -1   7   4  130.00   12.24
  -1  -7   4  117.98   10.40
   1  -7   4   95.81    9.94
  -1  -7   5   56.63    7.21
   1   7   5   56.11    8.44
   1  -7   5   66.60    8.02
  -1   7   5   55.71    7.87
   1  -7   6  222.64   14.93
  -1  -7   6  229.97   14.39
   1   7   6  234.93   16.30
  -1   7   6  209.36   15.90
   1   7   7  115.39   11.90
  -1   7   7  113.73   11.12
   1  -7   7  100.64    9.56
  -1  -7   7   99.43    9.39
   1   7   8    7.98    1.93
  -1  -7   8    4.80    2.64
   1  -7   8    1.68    1.96
  -1   7   8    5.27    3.36
   1  -7   9   74.35    8.28
  -1  -7   9   82.43    8.46
  -1   7   9   90.35    9.92
   1   7   9   86.96   10.50
   1   7  10  164.90   13.82
   1  -7  10  125.84   10.96
  -1   7  10  139.01   12.99
  -1  -7  10  126.79   10.41
   1  -7  11    4.59    1.99
  -1   7  11    3.33    3.45
   1   7  11    5.28    3.64
   1   7  12   36.42    7.17
  -1   7  12   31.81    6.85
   1   7  12   30.21    6.03
   1   7  13   32.17    6.96
  -1   7  13   23.93    5.82
   1   7  13   45.61    8.12
  -1   7  14   19.05    5.15
   1   7  14   19.16    5.37
   1   7  14    9.72    4.14
   1   7  15    6.78    4.12
   1   7  15   12.77    4.28
  -1   7  15   21.10    5.50
   1   7  16   66.90    9.58
  -1   7  16   68.37    9.44
   1   7  16   48.77    8.54
  -1   7  17   24.84    6.19
  -1   7  17   30.49    6.46
   1   7  17   25.03    6.53
   1   7  17   30.51    6.37
   1   7  18    2.38    2.02
  -1   7  18    1.05    1.87
  -1   7  18    2.11    3.57
   1   7  18    3.57    2.43
   1   7  19   39.18    7.36
   1   7  19   32.95    7.09
  -1   7  19   31.58    7.20
  -1   7  19   38.66    7.57
  -1   7  20   30.58    7.43
   1   7  20   23.18    6.08
   1   7  20   38.93    7.62
  -1   7  20   27.00    6.62
   1   7  21    6.79    3.20
  -1   7  21    8.37    4.04
   1   7  21    9.62    4.55
  -1   7  21    8.74    4.45
   1   7  22   42.03    8.50
  -1   7  22   46.19    8.26
  -1   7  22   35.23    7.69
  -1   7  23   38.56    7.87
   1   7  23   38.10    8.08
  -1   7  24   11.71    5.02
   1   7  24   15.22    6.60
  -1  -8 -22    3.51    4.37
   1  -8 -22    7.89    3.92
   1  -8 -21    2.58    3.81
  -1  -8 -21    3.09    2.52
  -1  -8 -20    0.75    2.93
   1  -8 -20    8.43    4.16
   1  -8 -19    2.75    3.39
  -1  -8 -19    4.40    3.10
  -1  -8 -18    4.36    3.77
   1  -8 -18    0.27    2.74
  -1  -8 -17   -0.26    3.48
   1  -8 -17   -3.63    2.22
   1  -8 -16   -1.73    1.73
  -1  -8 -16   -1.71    2.97
  -1  -8 -15   -2.58    1.99
   1  -8 -15    3.19    3.60
   1  -8 -14   -2.27    1.79
  -1  -8 -14    6.76    4.11
   1  -8 -13    9.55    3.72
  -1  -8 -13    4.58    3.67
   1  -8 -12   -0.07    2.43
  -1  -8 -12    4.11    3.29
   1   8 -12    0.57    2.04
   1   8 -11   12.62    4.75
   1  -8 -11   15.41    5.15
   1  -8 -11   18.49    4.02
  -1  -8 -11   16.02    4.58
  -1   8 -11   15.91    4.64
   1  -8 -10    3.81    3.53
   1   8 -10   -1.82    2.18
  -1   8 -10    7.63    4.08
   1  -8 -10    0.39    2.31
  -1  -8 -10    0.62    1.92
  -1   8  -9    9.13    4.00
  -1  -8  -9    2.26    3.36
   1  -8  -9    2.79    3.09
   1   8  -9    9.28    4.12
   1  -8  -9    2.78    3.40
  -1  -8  -8    4.37    2.40
   1   8  -8    3.38    2.90
   1  -8  -8    7.99    3.56
   1  -8  -8    5.57    2.65
  -1   8  -8    6.27    3.06
  -1   8  -7    4.39    2.73
   1  -8  -7    1.22    2.02
   1  -8  -7    1.20    1.59
   1   8  -7    5.65    2.69
  -1  -8  -7    4.56    3.28
   1  -8  -6  102.52   11.02
  -1   8  -6   67.94    8.83
  -1  -8  -6  101.71    9.92
   1   8  -6   87.35   10.40
   1  -8  -6   98.24   10.08
  -1  -8  -5   22.48    4.44
   1  -8  -5   22.29    4.16
   1   8  -5   32.28    6.29
  -1   8  -5   27.71    6.20
   1  -8  -5   24.23    5.40
   1   8  -4   12.18    4.65
   1  -8  -4   14.24    3.51
  -1   8  -4   15.93    4.67
   1  -8  -4   10.49    4.41
  -1   8  -3   24.30    5.44
   1   8  -3   15.83    4.68
   1  -8  -3   24.18    5.46
   1  -8  -3   25.91    4.64
  -1  -8  -3   21.35    4.96
   1  -8  -2   89.38   10.27
  -1   8  -2   69.61    9.23
   1   8  -2   80.19    9.92
  -1  -8  -2   76.37    9.41
   1   8  -1   10.76    4.13
  -1  -8  -1    6.47    2.70
  -1   8  -1    6.45    3.17
   1  -8  -1    9.67    3.96
  -1   8   0   33.81    6.51
   1  -8   0   32.89    6.10
   1   8   0   27.42    5.66
  -1  -8   0   26.08    5.98
   1   8   1   14.44    4.49
  -1  -8   1   10.02    3.82
  -1   8   1    6.91    4.44
   1  -8   1    7.84    2.99
   1   8   2   81.76    9.79
  -1  -8   2   91.86    9.95
  -1   8   2   79.54   10.25
   1  -8   2   89.00    9.49
  -1  -8   3   16.10    4.36
   1  -8   3   24.78    5.76
   1   8   3   24.12    6.39
  -1   8   3   31.87    7.03
   1  -8   4   12.86    4.35
  -1   8   4   17.12    4.63
  -1  -8   4   17.03    4.60
   1   8   4   17.12    5.04
   1  -8   5   20.54    5.03
  -1   8   5   32.04    6.66
  -1  -8   5   28.83    5.90
   1   8   6   88.86   10.61
  -1   8   6   92.71   10.47
  -1  -8   6   94.73    9.89
   1  -8   6  103.13   10.53
  -1  -8   7    3.04    2.66
  -1   8   7    1.65    2.97
   1  -8   7    7.57    2.75
   1   8   7    2.09    2.18
  -1   8   8    8.70    3.95
   1   8   8   11.11    4.71
  -1  -8   8    5.09    2.84
   1  -8   8    8.10    2.25
   1   8   9    0.92    2.07
  -1   8   9    1.03    2.21
   1  -8  10    3.23    1.73
   1   8  10   -0.79    1.93
  -1   8  10    1.19    3.03
  -1   8  11   18.40    5.64
   1   8  11   23.80    5.37
   1   8  11    5.52    4.11
  -1   8  12    4.43    4.49
   1   8  12    6.67    4.09
   1   8  12   -1.57    1.56
   1   8  13    2.52    1.76
  -1   8  13    1.01    3.24
   1   8  14    2.74    3.00
   1   8  14    3.82    3.32
  -1   8  14    0.94    1.84
   1   8  15    2.82    3.17
  -1   8  15   -1.13    2.11
   1   8  15   -2.11    1.82
   1   8  16    0.17    1.97
  -1   8  16   -1.13    1.93
   1   8  16   -1.13    2.41
  -1   8  17    1.71    2.84
  -1   8  17   -0.53    2.45
   1   8  17    2.37    1.81
   1   8  17    1.28    2.99
   1   8  18    2.04    2.22
  -1   8  18   -3.45    3.51
  -1   8  18    1.29    2.55
   1   8  18    0.62    2.67
  -1   8  19    2.59    2.56
   1   8  19    4.03    2.37
  -1   8  19   -3.83    3.90
   1   8  19   -1.77    3.86
  -1   8  20    0.40    3.00
   1   8  20   -1.60    3.26
   1   8  20    3.04    2.31
  -1   8  20    1.31    2.06
  -1   8  21    2.25    3.47
   1   8  21    0.51    2.83
   1   8  21   -2.88    3.91
  -1   8  21    3.21    4.20
   1   8  22    8.34    4.18
  -1   8  22    2.04    4.24
  -1   8  22    7.55    3.65
   1  -9 -19   20.18    7.25
  -1  -9 -19   14.22    5.35
   1  -9 -18    6.97    5.17
  -1  -9 -18    8.04    4.55
  -1  -9 -17   28.76    7.68
   1  -9 -17   28.08    7.19
   1  -9 -16   53.65    9.48
  -1  -9 -16   40.85    8.05
  -1  -9 -15   16.17    5.51
   1  -9 -15    9.15    5.24
  -1  -9 -14   23.60    6.29
   1  -9 -14   16.33    4.59
  -1  -9 -13   37.05    6.83
   1  -9 -13   36.68    7.06
   1  -9 -12   25.42    6.65
  -1  -9 -12   14.76    4.17
   1   9 -11   24.15    5.74
  -1  -9 -11   17.09    5.11
  -1   9 -11    2.67    3.45
   1  -9 -11   19.13    5.80
  -1   9 -10   63.07    9.18
   1  -9 -10   84.96   10.49
   1   9 -10   78.33   10.58
  -1   9  -9   23.74    5.86
   1  -9  -9   21.50    5.69
   1  -9  -9   30.47    6.60
   1   9  -9   25.14    5.56
   1   9  -8    7.04    4.17
   1  -9  -8    5.68    3.73
  -1   9  -8    3.08    1.87
  -1   9  -7   60.58    9.10
   1  -9  -7   57.75    8.75
   1   9  -7   67.27    9.44
  -1   9  -6   98.35   11.79
   1  -9  -6  118.92   12.63
   1   9  -6  123.14   12.63
   1   9  -5   -1.70    1.77
  -1   9  -5    4.34    3.69
   1  -9  -5    4.07    2.27
  -1   9  -4   80.07   10.78
   1  -9  -4   83.35   10.63
   1   9  -4   78.92    9.89
   1  -9  -3   71.21    9.56
  -1   9  -3  104.93   11.98
   1   9  -3   93.77   11.59
   1   9  -2   48.36    8.46
   1  -9  -2   44.40    7.24
  -1   9  -2   51.27    8.31
  -1   9  -1    6.49    4.83
   1   9  -1    8.72    3.30
   1  -9  -1   10.48    3.87
   1  -9   0   80.09    9.95
   1   9   0   66.99    9.73
  -1   9   0   58.74    8.67
   1  -9   1   16.09    5.01
  -1   9   1    8.79    3.72
   1   9   1    7.87    3.94
  -1   9   2   33.55    6.71
   1  -9   2   46.65    7.80
   1   9   2   56.60    8.90
   1   9   3   95.71   11.24
  -1   9   3   83.89   10.98
   1  -9   3   89.06   10.76
   1  -9   4   58.83    8.58
  -1   9   4   65.98    9.42
   1   9   4   54.67    8.26
   1   9   5    2.68    3.42
  -1   9   5   10.04    3.56
   1  -9   5    6.59    3.91
  -1   9   6  130.89   13.45
   1  -9   6   92.37   10.96
   1   9   6  103.42   11.99
   1   9   7   60.89    9.04
   1  -9   7   63.80    9.02
  -1   9   8   -0.30    2.42
   1  -9   8    6.84    3.50
   1   9   8    2.51    2.12
   1   9   9   40.58    7.68
  -1   9   9   29.29    6.70
   1   9  10   57.69    9.26
  -1   9  10   73.97   10.12
   1   9  10   67.29   10.22
  -1   9  11   14.13    4.80
   1   9  11   29.04    6.82
   1   9  11   15.50    4.72
   1   9  12   26.31    5.68
   1   9  12   21.67    5.40
  -1   9  12   11.53    3.17
   1   9  13   35.66    7.75
  -1   9  13   50.50    9.13
   1   9  13   47.37    7.71
  -1   9  14   34.55    8.20
   1   9  14   20.80    5.07
   1   9  14   21.95    5.65
   1   9  15   13.66    4.96
  -1   9  15   10.62    4.44
   1   9  15   11.84    4.50
  -1   9  15    8.05    3.10
  -1   9  16   40.52    7.89
   1   9  16   49.34    8.46
  -1   9  16   33.95    6.99
   1   9  16   39.63    7.96
  -1   9  17   25.02    6.45
   1   9  17   22.45    6.70
   1   9  17   30.15    7.50
  -1   9  17   21.29    6.52
   1   9  18    4.30    4.67
   1   9  18   -0.98    2.10
  -1   9  18    5.35    2.23
  -1   9  18    1.10    2.53
   1   9  19   27.92    6.83
  -1   9  19   17.73    5.51
   1   9  19   16.39    5.34
  -1   9  19   18.58    5.41
  -1  10 -10   33.34    7.90
   1  10 -10   18.14    5.97
   1  10  -9   15.56    4.82
  -1  10  -9    8.82    3.05
  -1  10  -8   -3.53    3.63
   1  10  -8    4.36    4.74
   1  10  -7   17.33    4.75
  -1  10  -7   11.08    4.21
   1  10  -6   37.43    7.81
   1 -10  -6   50.60    8.39
  -1  10  -6   25.09    6.21
   1 -10  -5    3.03    3.40
   1  10  -5    8.34    3.70
   1 -10  -4   20.00    5.86
   1  10  -4   30.14    6.74
   1  10  -3    7.52    3.31
  -1  10  -3    7.48    3.89
   1 -10  -3   11.98    4.67
   1  10  -2    6.74    3.65
   1 -10  -2   12.47    4.93
  -1  10  -2   12.05    4.75
   1  10  -1   11.44    5.46
  -1  10  -1    2.00    2.70
   1 -10  -1    9.69    4.34
   1  10   0   16.05    4.51
   1 -10   0   17.09    5.23
  -1  10   0    5.84    3.78
  -1  10   1    4.03    2.13
   1 -10   1    8.48    2.89
   1  10   2   23.58    6.31
  -1  10   2   10.28    4.54
   1 -10   2   17.52    6.34
   1  10   3    8.82    3.87
   1 -10   3   10.87    4.17
  -1  10   3    4.93    3.52
   1  10   4   27.23    5.84
  -1  10   4   33.77    7.83
   1 -10   4   26.54    6.39
  -1  10   5    4.13    3.79
   1 -10   5    0.79    2.05
   1  10   5    9.03    3.83
   1  10   6   29.91    6.36
  -1  10   6   39.20    8.04
   1 -10   6   46.29    7.95
   1  10   7   14.20    4.96
   1 -10   7   13.02    4.58
  -1  10   7   25.32    6.24
   1  10   7   22.89    6.35
   1  10   8    7.38    4.23
   1  10   8    1.52    1.69
  -1  10   8    0.87    2.58
   1  10   9   18.90    5.01
   1  10   9   17.97    4.51
  -1  10   9   21.65    5.99
   1  10  10    4.41    1.63
  -1  10  10   15.61    4.92
   1  10  10   19.20    5.61
  -1  10  11   14.69    4.78
   1  10  11   15.03    5.07
   1  10  11    4.81    3.41
   1  10  12   41.30    8.16
  -1  10  12   28.28    6.20
   1  10  12   20.84    6.68
  -1  10  13   16.92    5.60
   1  10  13   12.06    4.06
   1  10  14   -0.59    2.54
  -1  10  14    8.86    4.86
   1  10  14    7.86    5.21
  -1  10  14    5.37    3.54
   1  10  15   11.71    5.06
  -1  10  15    8.71    4.46
   1  10  15    0.75    4.24
  -1  10  15   17.84    6.54
   1  10  16   -3.05    3.17
  -1  10  16    3.59    3.97
   1  10  16    3.35    2.56
  -1  10  16    3.59    2.44
   1  11 -10   23.48    7.86
   1  11  -9   20.49    6.34
  -1  11  -9   29.95    9.48
   1  11  -8   -1.37    2.06
  -1  11  -8   -2.29    3.84
  -1  11  -7   17.96    5.85
   1  11  -7   39.56    8.74
   1  11  -6   30.48    6.82
  -1  11  -6   25.20    6.02
   1  11  -5    9.76    4.50
  -1  11  -5    3.54    2.68
  -1  11  -4   14.26    5.46
   1  11  -4   15.40    5.69
   1  11  -3   21.80    4.48
  -1  11  -3   21.83    5.91
   1  11  -2    8.13    4.81
  -1  11  -2    8.01    3.70
   1  11  -1    4.27    2.56
   1 -11  -1   15.81    4.90
  -1  11  -1   13.40    5.58
   1  11   0   13.80    4.11
  -1  11   0   30.36    6.89
   1 -11   0   20.26    4.96
   1  11   0   24.99    6.22
   1  11   1   14.88    5.71
   1 -11   1   11.93    4.27
  -1  11   1   14.27    4.16
   1  11   1   21.71    6.00
   1  11   2    4.82    3.47
   1 -11   2   11.59    4.50
  -1  11   2   14.29    4.59
   1  11   2   14.59    4.58
   1  11   3   17.96    5.13
   1  11   3   29.11    7.43
   1 -11   3   16.78    5.63
  -1  11   3   22.53    6.04
   1 -11   4   21.10    6.28
  -1  11   4   17.06    5.01
   1  11   4   19.71    5.91
   1  11   4   18.43    5.49
   1  11   5    5.39    3.22
  -1  11   5    4.57    2.53
   1  11   5    8.41    4.47
   1 -11   5    5.56    2.90
   1  11   6   28.55    6.53
  -1  11   6   38.98    8.20
   1  11   6   19.42    5.72
  -1  11   7   21.06    5.88
   1  11   7   17.15    6.57
   1  11   7   29.70    6.97
   1  11   8   -2.03    2.20
   1  11   8    4.27    3.92
  -1  11   8    6.03    4.10
   1  11   9   12.08    3.34
   1  11   9   15.53    5.66
  -1  11   9   16.78    4.87
  -1  11  10   24.73    5.99
   1  11  10   29.30    7.26
   1  11  10   24.54    6.57
   2   0 -31   11.37    4.57
   2   0 -30   55.01    9.59
   2   0 -29   36.51    7.76
   2   0 -28   47.31    9.24
   2   0 -27   12.70    5.16
   2   0 -26    5.88    3.21
   2   0 -25  103.62   11.60
   2   0 -24   95.74   10.95
   2   0 -23  228.98   16.72
  -2   0 -22   56.91    8.37
   2   0 -22   54.07    7.99
  -2   0 -21  176.85   14.32
   2   0 -21  204.82   14.83
  -2   0 -20   52.34    7.55
   2   0 -20   57.18    7.61
   2   0 -19  764.30   27.48
  -2   0 -19  843.41   29.14
   2   0 -18   24.05    4.72
  -2   0 -18   24.60    4.81
  -2   0 -17  298.50   16.60
   2   0 -17  300.25   16.03
  -2   0 -16   47.80    6.37
   2   0 -16   42.90    6.24
  -2   0 -15  706.70   24.27
   2   0 -15  722.22   23.45
  -2   0 -14   39.18    5.55
   2   0 -14   46.30    5.88
   2   0 -13 5416.01   60.02
  -2   0 -13 5365.21   62.41
  -2   0 -12   82.23    7.42
   2   0 -12   84.18    7.29
  -2   0 -11  353.60   14.83
   2   0 -11  363.20   14.54
  -2   0 -10 3019.06   41.38
   2   0 -10 2762.49   38.00
   2   0  -9 2152.75   31.94
   2   0  -9 2191.31   22.24
   2   0  -8  571.33   11.01
  -2   0  -8  589.38   16.62
   2   0  -8  550.40   15.57
   2   0  -7 8935.59   59.33
   2   0  -7 8907.62   41.64
  -2   0  -7 8917.73   61.47
   2   0  -6  752.67   16.20
   2   0  -6  747.91   11.41
   2   0  -5 2564.24   27.59
   2   0  -5 2530.24   20.15
   2   0  -5 2533.87   26.00
   2   0  -4 9999.00   51.31
   2   0  -3 7612.28   41.28
   2   0  -3 7507.91   41.24
   2   0  -2 8712.89   42.17
   2   0  -1  526.65    9.85
   2   0  -1  518.06    9.99
   2   0  -1  522.35    9.04
   2   0   0    4.99    1.03
   2   0   0    5.46    1.03
   2   0   1  521.93    8.91
   2   0   1  486.48    9.61
   2   0   2 8678.18   42.89
   2   0   5 2537.15   26.55
   2   0   5 2521.34   15.58
   2   0   6  745.18   15.17
   2   0   7 9030.41   54.55
   2   0   8  561.82   14.26
   2   0   9 2143.05   28.91
   2   0  10 2991.08   35.47
   2   0  11  363.01   12.67
  -2   0  11  362.70    9.91
   2   0  12   76.88    6.14
  -2   0  12   92.35    5.24
  -2   0  13 5533.50   42.69
   2   0  13 5250.62   52.76
   2   0  14   47.23    5.07
  -2   0  14   42.49    3.89
   2   0  15  678.31   19.95
  -2   0  15  714.59   16.36
  -2   0  16   32.20    3.61
   2   0  16   36.80    4.91
  -2   0  17  309.15   11.54
   2   0  17  280.23   14.10
  -2   0  18   19.24    2.96
   2   0  18   13.00    3.16
   2   0  19  795.62   24.76
   2   0  20   52.42    6.64
   2  -1 -30    1.24    3.95
   2   1 -29   18.50    6.03
   2  -1 -29   -0.45    2.87
   2   1 -28   10.14    4.40
   2  -1 -28    5.86    3.48
   2   1 -27   -1.86    2.72
   2  -1 -27    3.32    1.37
  -2  -1 -26   -1.33    2.45
   2  -1 -26    2.67    3.36
   2   1 -26    1.23    3.39
   2   1 -25   -0.54    2.75
  -2  -1 -25    4.20    1.91
   2  -1 -25   -2.80    3.61
  -2  -1 -24    3.56    1.68
   2   1 -24    7.51    3.29
   2  -1 -24    5.86    3.39
   2   1 -23    2.80    2.00
   2  -1 -23    2.59    2.53
  -2  -1 -23    6.07    2.43
   2  -1 -22   28.95    6.11
   2   1 -22   24.19    5.44
  -2  -1 -22   27.89    5.27
  -2  -1 -21   15.12    4.64
   2  -1 -21   11.19    3.57
   2   1 -21   20.55    4.97
  -2  -1 -20   51.06    7.12
   2   1 -20   44.19    7.12
   2  -1 -20   47.52    7.34
   2   1 -19    8.47    3.24
   2  -1 -19    1.92    1.90
  -2  -1 -19    7.88    2.94
   2   1 -18   59.15    6.99
  -2  -1 -18   61.17    8.05
   2  -1 -18   49.72    6.97
   2  -1 -17    6.77    3.27
   2   1 -17    9.14    2.73
  -2  -1 -17    8.74    2.59
   2  -1 -16   42.65    6.15
   2   1 -16   42.01    5.63
  -2  -1 -16   43.01    6.31
  -2  -1 -15   57.74    7.04
   2   1 -15   60.93    6.55
   2  -1 -15   48.43    6.45
  -2  -1 -14  196.80   12.60
   2  -1 -14  173.19   11.77
   2   1 -14  166.47   10.59
  -2  -1 -13   51.61    6.17
   2   1 -13   58.28    6.07
   2  -1 -13   47.72    6.04
  -2  -1 -12  689.65   21.92
   2   1 -12  665.85   19.37
   2  -1 -12  656.61   20.91
  -2  -1 -11   35.39    4.96
   2   1 -11   34.63    3.84
   2  -1 -11   33.62    3.86
   2  -1 -11   34.78    4.67
   2   1 -11   29.22    3.81
  -2  -1 -10   40.33    5.33
   2   1 -10   38.25    3.90
   2  -1 -10   42.73    4.27
   2   1 -10   49.11    4.91
   2  -1 -10   35.61    4.90
   2   1  -9  100.50    5.96
  -2  -1  -9  116.77    7.90
   2   1  -9  124.61    7.09
   2  -1  -9   99.84    7.60
   2  -1  -9  119.28    6.82
   2   1  -8  191.17    7.97
   2  -1  -8  179.78    8.07
   2  -1  -8  202.27   10.13
  -2  -1  -8  170.67    9.26
   2   1  -8  214.14    8.71
   2   1  -7  110.95    5.78
   2   1  -7  100.62    5.73
  -2  -1  -7  127.42    7.57
   2  -1  -7  105.74    6.05
   2  -1  -7  113.68    7.27
  -2  -1  -6  957.75   19.71
   2   1  -6  941.43   15.93
   2  -1  -6  982.36   17.80
   2  -1  -6  936.52   20.08
   2   1  -6  924.88   16.75
   2  -1  -5   26.71    3.14
   2  -1  -5   22.90    2.61
   2   1  -5   24.03    2.37
   2   1  -5   18.84    2.41
  -2  -1  -5   26.69    3.08
   2  -1  -4  132.90    6.79
  -2  -1  -4  134.00    6.48
   2  -1  -4  135.04    6.21
   2   1  -4  137.56    4.93
   2   1  -4  137.04    6.15
   2   1  -3 1215.85   12.06
   2  -1  -3 1232.11   19.54
  -2  -1  -3 1175.27   17.67
   2   1  -3 1213.07   17.92
   2  -1  -3 1226.35   18.31
   2  -1  -2  153.25    6.72
   2   1  -2  163.18    4.88
   2   1  -2  155.78    6.28
   2  -1  -2  155.94    6.34
   2   1  -2  155.97    4.49
   2  -1  -1   34.00    2.90
   2  -1  -1   37.15    3.15
   2   1  -1   41.88    3.20
   2   1   0   -0.38    0.62
   2   1   0    0.42    0.55
   2  -1   0    1.23    0.62
   2  -1   0    0.29    0.43
   2   1   1   33.01    2.72
   2  -1   1   39.94    3.02
   2   1   1   35.05    2.85
   2   1   2  144.15    6.15
   2  -1   2  147.42    6.01
   2  -1   3 1218.89   17.48
   2   1   3 1175.23   16.53
   2   1   3 1205.48   18.58
   2  -1   4  142.59    6.13
   2   1   4  130.04    6.33
   2   1   4  144.92    5.73
   2   1   5   22.15    2.35
   2  -1   5   22.74    2.51
   2   1   5   28.67    3.16
   2   1   6  943.85   15.15
   2   1   6  947.58   18.83
   2  -1   6  962.98   16.51
   2   1   7  104.13    5.11
   2  -1   7  104.11    5.63
   2   1   7  117.02    6.89
   2   1   8  187.02    6.95
   2   1   8  195.03    9.23
   2  -1   8  187.99    7.81
   2   1   9  102.78    5.32
   2   1   9  108.53    7.24
   2  -1   9  117.38    6.33
   2   1  10   41.30    4.68
   2  -1  10   37.19    3.73
   2   1  10   44.76    3.61
   2   1  11   36.06    3.18
   2  -1  11   37.13    3.75
   2   1  11   35.57    4.22
   2   1  12  654.00   14.09
   2  -1  12  662.20   16.80
   2   1  12  662.73   19.39
   2   1  13   51.85    5.62
   2  -1  13   51.07    4.81
   2   1  13   55.80    4.19
   2  -1  14  175.61    9.24
   2   1  14  160.73    7.24
  -2   1  14  183.47    9.78
   2   1  14  168.77   10.60
   2   1  15   46.03    3.96
   2  -1  15   57.32    5.51
   2   1  15   48.50    5.70
   2   1  16   41.78    3.67
   2  -1  16   45.42    4.92
   2   1  16   46.63    5.97
  -2   1  16   43.54    5.12
   2   1  17    5.72    2.18
   2  -1  17    7.11    2.06
  -2   1  17    7.77    2.33
   2  -1  18   59.32    6.11
   2   1  18   60.86    7.15
  -2   1  18   54.34    5.91
   2  -1  19    8.21    2.79
   2   1  19    3.01    2.76
  -2   1  19    6.79    2.62
   2   1  20   46.83    6.56
   2   1  21   16.74    4.54
   2  -2 -30    8.77    5.15
  -2  -2 -29  104.38   12.90
   2  -2 -29   85.67   11.18
   2  -2 -28    7.64    4.00
  -2  -2 -28   39.92    8.02
  -2  -2 -27   20.78    5.42
   2  -2 -27   14.47    4.64
  -2  -2 -26    8.00    3.35
   2  -2 -26   11.22    4.05
   2  -2 -25  140.15   13.58
  -2  -2 -25  143.14   13.86
  -2  -2 -24   15.92    4.35
   2  -2 -24   17.47    5.47
   2   2 -24   16.17    3.91
  -2  -2 -23  291.88   18.91
   2  -2 -23  232.23   17.28
   2   2 -23  287.62   18.27
   2  -2 -22    6.35    3.42
  -2  -2 -22    5.25    3.45
   2   2 -22    4.23    2.07
   2   2 -21    1.70    1.73
   2  -2 -21    2.63    1.81
  -2  -2 -21    5.08    3.18
   2  -2 -20   17.79    4.11
  -2  -2 -20   24.01    5.70
   2  -2 -19  315.94   18.12
   2   2 -19  299.10   16.80
  -2  -2 -19  291.21   17.63
   2  -2 -18   83.48    9.01
  -2  -2 -18   67.16    7.99
   2   2 -18   80.40    8.15
   2  -2 -17  342.10   18.03
  -2  -2 -17  350.14   18.21
   2   2 -17  317.63   15.84
   2   2 -16    8.65    2.82
   2  -2 -16    7.41    3.01
  -2  -2 -16   11.51    3.45
   2   2 -15   50.25    6.02
   2   2 -15   60.12    5.61
  -2  -2 -15   69.05    8.18
   2   2 -14    9.27    2.34
  -2  -2 -14    7.44    2.68
   2  -2 -14    6.40    2.81
   2   2 -14    3.88    1.43
   2   2 -13 1037.22   24.10
   2  -2 -13  994.75   27.95
  -2  -2 -13 1008.37   28.33
   2  -2 -13 1059.99   25.95
   2   2 -13 1057.99   22.07
   2   2 -12  245.80   11.06
  -2  -2 -12  229.95   13.02
   2  -2 -12  233.54   11.82
   2  -2 -12  223.85   12.95
   2   2 -12  223.15    9.96
  -2   2 -11    4.19    0.74
   2   2 -11    3.82    2.01
   2  -2 -11    3.59    1.76
   2  -2 -11    3.60    2.43
   2   2 -11    4.61    1.52
  -2  -2 -11    8.13    3.25
  -2   2 -10  142.81    4.81
   2  -2 -10  170.32   10.66
   2   2 -10  160.00    7.81
  -2  -2 -10  168.03   10.38
   2   2 -10  152.17    8.00
   2  -2 -10  142.63    9.15
   2  -2  -9  785.12   22.42
   2   2  -9  770.22   16.33
  -2  -2  -9  748.47   20.99
  -2   2  -9  783.90   12.12
   2  -2  -9  796.57   20.73
   2   2  -9  835.67   18.43
  -2  -2  -8   54.08    5.27
   2  -2  -8   57.38    5.80
   2   2  -8   55.06    3.91
  -2   2  -8   47.05    3.19
   2   2  -8   55.86    4.78
   2  -2  -8   57.46    5.51
   2   2  -7  695.61   12.59
   2  -2  -7  681.78   19.35
  -2   2  -7  686.59   12.59
   2   2  -7  687.90   16.77
   2  -2  -7  658.83   18.20
  -2  -2  -7  674.30   18.30
  -2   2  -6   47.76    3.40
   2   2  -6   44.28    4.31
   2   2  -6   43.45    2.82
   2  -2  -6   41.39    4.57
   2   2  -6   47.60    2.46
   2  -2  -6   46.98    4.71
  -2  -2  -6   48.58    4.72
   2   2  -5   84.37    5.76
   2   2  -5   97.00    3.99
   2   2  -5   91.69    3.43
  -2  -2  -5  107.39    6.51
   2  -2  -5  107.09    7.01
  -2   2  -5   95.55    5.01
   2  -2  -5   98.00    6.57
   2  -2  -4  230.58    9.79
   2  -2  -4  238.32    9.97
  -2  -2  -4  225.49    8.83
   2   2  -4  240.05    9.47
   2   2  -4  241.24    6.86
  -2   2  -4  238.16    8.16
  -2  -2  -3 3467.00   31.91
   2  -2  -3 3361.16   36.18
   2  -2  -3 3260.50   36.43
   2   2  -3 3291.01   34.86
   2   2  -3 3422.09   27.74
  -2  -2  -2  418.20   10.23
   2   2  -2  397.08   12.07
   2  -2  -2  394.65   11.77
   2   2  -2  408.53   10.25
   2  -2  -2  404.64   12.62
   2   2  -1 1100.74   20.01
  -2  -2  -1 1117.17   15.10
   2  -2  -1 1118.32   20.48
   2  -2  -1 1133.42   19.47
   2   2   0  220.45    8.29
   2   2   0  215.08    8.80
   2  -2   0  203.89    8.06
   2  -2   1 1159.61   18.67
   2   2   1 1159.21   20.21
   2   2   1 1124.89   20.38
   2  -2   1 1195.76   20.59
   2  -2   2  417.36   12.15
   2   2   2  420.28   12.61
   2  -2   2  422.98   11.27
   2   2   2  427.25   12.65
   2   2   3 3349.15   36.83
   2   2   3 3300.39   35.14
   2   2   4  222.69    9.21
   2  -2   4  231.71    8.92
   2   2   5   87.26    6.51
   2   2   5   84.29    5.65
   2  -2   5   90.46    5.56
   2  -2   6   46.78    4.03
   2   2   6   57.36    5.35
   2   2   6   46.83    4.37
   2  -2   7  677.68   15.54
   2   2   7  685.25   18.73
   2   2   7  691.96   16.88
   2   2   8   52.50    4.76
   2  -2   8   49.50    4.32
   2   2   8   52.67    5.49
   2   2   9  797.79   18.78
   2  -2   9  810.32   17.18
   2   2   9  760.29   21.04
   2   2  10  148.26    8.07
   2  -2  10  154.66    7.60
   2   2  10  147.82    9.43
   2   2  11    2.92    0.86
   2   2  11    5.52    2.15
   2  -2  11    1.69    1.31
   2  -2  12  242.73   10.16
   2   2  12  234.58   12.48
   2   2  12  264.00   11.15
   2  -2  13 1060.83   21.67
   2   2  13 1059.49   23.02
   2   2  13 1067.42   27.19
   2   2  14    8.80    2.31
   2  -2  14    6.25    1.89
   2   2  14    8.09    2.88
   2  -2  15   67.37    5.74
   2   2  15   57.78    5.53
   2   2  15   53.78    6.38
   2  -2  16    8.20    2.17
  -2   2  16    6.84    2.47
   2   2  16    7.56    2.25
   2   2  16    4.67    2.08
   2  -2  17  302.73   12.90
  -2   2  17  317.58   15.85
   2   2  17  324.19   16.52
   2   2  17  306.79   13.09
   2   2  18   56.12    7.25
  -2   2  18   76.08    8.00
   2   2  19  271.07   16.31
  -2   2  19  312.97   16.68
   2   2  20   24.54    5.00
  -2   2  20   15.55    3.82
   2   2  21    8.68    3.87
  -2   2  21    7.51    2.85
   2   2  22    8.27    3.47
   2   2  23  266.15   17.47
   2  -3 -30   -0.17    1.45
  -2  -3 -30    1.48    4.07
   2  -3 -29   13.48    4.93
  -2  -3 -29   23.96    6.62
   2  -3 -28    1.09    1.65
  -2  -3 -28    0.68    3.29
   2  -3 -27    4.29    3.49
  -2  -3 -27    9.07    4.78
  -2  -3 -26    0.90    1.95
   2  -3 -26    1.32    3.09
   2  -3 -25   22.68    5.96
  -2  -3 -25   25.13    5.58
   2  -3 -24    0.30    2.29
  -2  -3 -24   -0.53    2.59
  -2  -3 -23    7.04    3.42
   2  -3 -23    8.80    3.32
  -2  -3 -22    2.21    1.95
   2  -3 -22    3.55    3.39
   2  -3 -21   12.56    3.51
  -2  -3 -21   24.80    6.00
  -2  -3 -20    2.45    1.33
   2  -3 -20   12.05    4.13
  -2  -3 -19   -0.28    1.57
   2  -3 -19   -1.15    1.63
  -2  -3 -18    3.89    2.63
   2   3 -18    7.63    2.60
   2  -3 -18    8.78    2.63
  -2  -3 -17    0.81    1.67
   2   3 -17   -1.19    1.25
   2  -3 -17    2.69    1.51
   2   3 -16   10.05    2.58
  -2  -3 -16    2.32    2.73
   2  -3 -16    8.17    4.22
   2  -3 -15    7.63    2.62
  -2  -3 -15   12.77    4.22
   2   3 -15   14.59    3.41
   2   3 -15    7.04    2.43
   2   3 -14   17.45    2.93
  -2  -3 -14   18.87    5.08
   2   3 -14   16.24    3.23
   2  -3 -14   14.30    3.39
   2  -3 -14   15.08    3.89
   2  -3 -13    0.86    1.19
  -2  -3 -13    3.22    1.99
   2   3 -13    5.83    2.06
  -2   3 -13    6.46    1.78
   2   3 -13    1.73    1.67
   2  -3 -13    4.46    1.86
   2   3 -12   53.43    5.65
   2  -3 -12   54.87    6.87
   2  -3 -12   54.31    6.27
  -2  -3 -12   55.49    6.79
   2   3 -12   48.98    4.73
  -2   3 -12   49.75    3.96
  -2   3 -11   53.99    4.13
  -2  -3 -11   59.23    6.45
   2  -3 -11   59.35    6.67
   2   3 -11   64.65    5.85
   2   3 -11   47.51    4.59
   2   3 -10   59.59    5.73
   2  -3 -10   52.02    6.09
   2   3 -10   61.14    4.57
  -2   3 -10   58.14    4.62
   2  -3 -10   66.82    7.04
  -2  -3 -10   50.68    6.27
  -2  -3  -9   81.72    7.33
  -2   3  -9   69.28    5.15
   2   3  -9   63.27    3.35
   2   3  -9   75.54    6.34
   2   3  -9   74.91    4.46
   2  -3  -9   64.63    6.75
   2  -3  -9   74.11    7.22
  -2   3  -8   16.07    2.55
   2   3  -8   13.24    2.81
   2  -3  -8    5.72    2.33
  -2  -3  -8   12.17    2.59
   2   3  -8    9.68    1.50
   2  -3  -8    7.85    2.64
   2   3  -7   50.27    3.46
   2  -3  -7   48.39    5.59
   2  -3  -7   52.93    5.68
   2   3  -7   44.13    4.83
  -2  -3  -7   47.15    5.14
  -2   3  -7   46.71    4.33
   2   3  -6    2.11    0.90
   2  -3  -6    2.26    1.65
  -2  -3  -6    2.92    1.29
   2  -3  -6    3.13    1.73
  -2   3  -6    2.22    1.45
   2  -3  -5  248.47   12.07
  -2  -3  -5  224.72   10.10
   2   3  -5  258.84   11.35
  -2   3  -5  243.79   10.27
   2  -3  -5  222.01   10.92
   2   3  -4   26.86    3.68
   2  -3  -4   29.21    3.91
   2  -3  -4   28.72    4.00
  -2   3  -4   25.56    3.38
  -2  -3  -4   28.42    3.42
   2  -3  -3   24.32    3.38
  -2  -3  -3   19.61    2.63
  -2   3  -3   20.08    3.06
   2  -3  -3   31.14    4.19
   2   3  -3   23.10    3.63
  -2   3  -2   76.13    6.06
  -2  -3  -2   76.27    4.75
   2   3  -2   76.73    6.35
   2  -3  -2   79.69    6.39
   2  -3  -2   67.57    5.55
   2  -3  -1 1662.85   29.00
   2  -3  -1 1721.83   26.42
  -2  -3  -1 1728.98   20.81
  -2   3  -1 1705.47   28.47
   2   3  -1 1695.97   29.15
   2   3   0  180.75    9.59
   2  -3   0  182.14    9.50
   2  -3   0  186.90    8.66
  -2  -3   0  191.22    5.98
   2   3   1 1733.64   29.70
   2  -3   1 1694.49   28.42
   2  -3   1 1755.85   25.50
   2  -3   2   81.76    5.46
   2   3   2   87.03    6.72
   2  -3   2   75.66    5.88
   2  -3   3   24.36    3.49
   2   3   3   26.72    3.75
   2  -3   3   18.37    2.50
   2  -3   4   27.89    3.69
   2  -3   4   24.59    3.10
   2   3   4   25.59    3.56
   2   3   4   26.33    3.89
   2  -3   5  233.19   10.30
   2   3   5  234.48   11.69
   2   3   5  243.07   11.41
   2   3   6    1.88    0.88
   2  -3   6    1.39    0.64
   2   3   7   48.30    5.11
   2   3   7   44.96    5.44
   2  -3   7   50.96    4.72
   2  -3   8    8.42    2.14
   2   3   8    5.27    1.74
   2   3   8   11.20    2.68
   2   3   9   59.20    5.80
   2   3   9   72.22    7.18
   2  -3   9   75.38    5.84
   2   3  10   66.52    7.09
   2   3  10   55.98    5.79
   2  -3  10   51.43    4.94
   2   3  11   54.96    5.87
   2   3  11   68.65    7.25
   2  -3  11   67.73    5.63
   2   3  12   58.43    6.21
   2  -3  12   49.05    4.64
   2   3  12   65.88    7.26
   2   3  13    8.64    3.00
   2  -3  13    4.87    1.61
   2   3  13    3.57    1.73
   2   3  14   11.27    2.95
   2   3  14   15.29    3.24
   2  -3  14   14.63    2.71
   2   3  15   14.80    3.86
   2  -3  15   10.65    2.18
   2   3  15   13.44    3.31
   2   3  16    3.22    1.57
   2   3  16    4.37    2.75
   2  -3  16    5.69    1.60
   2   3  17    0.35    2.30
   2   3  17    2.82    1.79
  -2   3  18    7.82    2.94
   2   3  18    7.52    2.88
   2   3  18    8.82    3.37
  -2   3  18    5.23    2.61
  -2   3  19   -1.51    2.60
   2   3  19    1.14    2.01
  -2   3  19   -0.78    1.08
  -2   3  20    5.71    2.60
  -2   3  20    5.57    2.72
   2   3  20    5.38    2.63
  -2   3  21   19.77    5.09
   2   3  21   20.37    4.65
   2   3  22   -0.25    1.81
  -2   3  22   -0.11    2.54
   2   3  23    2.69    3.56
   2   3  24    0.70    1.91
   2  -4 -29   66.61    9.82
  -2  -4 -29   58.45    9.70
  -2  -4 -28   19.49    5.56
   2  -4 -28   14.99    4.92
  -2  -4 -27    3.79    1.81
   2  -4 -27    1.36    1.84
   2  -4 -26    6.67    2.59
  -2  -4 -26    9.11    4.40
  -2  -4 -25  138.62   13.63
   2  -4 -25  117.54   12.57
   2  -4 -24    3.35    1.91
  -2  -4 -24    7.83    4.34
   2  -4 -23   88.17   10.66
  -2  -4 -23   76.25    9.97
  -2  -4 -22    8.91    4.25
   2  -4 -22    4.14    3.13
   2  -4 -21    5.76    2.77
  -2  -4 -21    1.02    2.17
  -2  -4 -20   12.85    3.77
   2  -4 -20   11.82    5.06
   2  -4 -19  286.61   18.08
  -2  -4 -19  330.12   19.32
   2  -4 -18   89.28    9.90
  -2  -4 -18   64.05    8.26
  -2  -4 -17  248.16   16.44
   2  -4 -17  250.86   16.60
   2  -4 -16    3.98    2.49
  -2  -4 -16    5.66    1.98
   2  -4 -15   64.87    8.44
  -2  -4 -15   63.86    8.15
   2   4 -15   58.26    6.57
   2  -4 -15   77.93    8.50
   2  -4 -14  117.05   10.71
  -2  -4 -14  121.93   10.49
   2  -4 -14  119.11   10.67
   2   4 -14  104.60    8.52
   2   4 -13  681.85   21.68
   2  -4 -13  620.95   23.85
   2  -4 -13  633.69   23.78
  -2  -4 -13  688.32   24.73
   2   4 -12  199.32   11.65
  -2  -4 -12  196.46   12.96
  -2   4 -12  207.15   10.32
   2  -4 -12  212.66   13.57
   2  -4 -12  185.85   12.53
  -2   4 -11   72.81    6.44
   2   4 -11   83.30    7.59
   2  -4 -11   85.76    8.43
   2  -4 -11   74.46    8.07
  -2  -4 -11   78.83    7.85
  -2   4 -10    6.82    1.98
   2  -4 -10    6.97    2.16
   2   4 -10    8.78    2.64
   2  -4 -10    8.98    2.80
  -2  -4 -10    9.28    3.27
   2   4 -10    6.38    1.36
  -2  -4  -9  717.34   22.67
   2  -4  -9  689.02   23.26
  -2   4  -9  715.84   19.98
   2  -4  -9  690.48   23.71
   2   4  -9  722.92   21.96
  -2  -4  -8   89.94    7.80
   2  -4  -8   79.90    7.88
  -2   4  -8   93.80    7.28
   2  -4  -8   90.39    8.19
   2   4  -8   84.18    7.39
   2   4  -7  193.03   11.26
  -2   4  -7  203.73   10.91
  -2  -4  -7  191.76   10.70
   2  -4  -7  199.97   12.24
   2  -4  -7  194.90   11.70
  -2   4  -6  102.62    7.78
   2  -4  -6   98.48    8.12
  -2  -4  -6   90.70    7.20
   2  -4  -6  109.38    8.93
   2   4  -6   92.12    7.63
  -2   4  -5   60.65    6.10
   2  -4  -5   61.92    6.11
  -2  -4  -5   52.46    5.21
   2  -4  -5   63.40    7.22
   2   4  -5   58.71    6.10
  -2   4  -4  213.29   11.32
   2  -4  -4  200.00   10.82
  -2  -4  -4  231.27   10.37
   2  -4  -4  225.21   12.56
   2   4  -4  218.29   11.82
   2   4  -3  556.10   19.07
   2  -4  -3  580.69   19.95
  -2   4  -3  527.96   17.96
   2  -4  -3  555.60   17.41
  -2  -4  -3  606.34   15.71
   2  -4  -2   48.34    5.73
   2   4  -2   50.82    5.83
  -2  -4  -2   52.77    4.34
   2  -4  -2   51.07    5.31
  -2   4  -2   52.92    5.76
   2  -4  -1 2615.64   35.74
   2  -4  -1 2687.30   41.67
  -2  -4  -1 2699.83   28.78
   2   4  -1 2538.11   40.91
  -2   4  -1 2562.95   40.20
   2   4   0  260.92   13.08
  -2   4   0  293.63   13.68
  -2  -4   0  279.93    8.21
   2  -4   0  267.89   11.07
   2  -4   0  281.37   13.34
   2  -4   1 2638.60   40.60
  -2   4   1 2512.67   40.54
   2   4   1 2411.36   40.44
   2  -4   1 2597.58   34.07
  -2  -4   1 2792.54   22.71
   2   4   2   49.21    5.78
   2  -4   2   52.33    5.69
   2  -4   2   49.11    4.62
  -2   4   2   52.85    5.99
  -2  -4   2   52.82    5.22
   2  -4   3  552.02   15.30
  -2   4   3  587.14   19.85
  -2  -4   3  552.63   16.49
   2  -4   3  595.24   18.71
   2   4   3  536.59   19.09
   2  -4   4  216.50    9.56
  -2   4   4  199.02   11.60
   2  -4   4  199.19   10.71
  -2  -4   4  214.86   10.18
   2   4   4  207.15   11.75
   2   4   5   76.70    7.22
   2  -4   5   59.27    5.74
  -2   4   5   58.19    6.56
   2  -4   5   64.11    5.24
   2  -4   6  107.04    7.80
  -2   4   6   97.95    8.38
   2   4   6   92.38    8.24
   2  -4   6  102.21    6.76
   2  -4   7  170.66    9.84
   2   4   7  185.50   11.82
   2   4   7  196.00   11.96
   2   4   8   94.25    8.28
   2  -4   8   80.49    6.67
   2   4   8   79.00    7.85
   2  -4   9  718.06   20.16
   2   4   9  691.91   22.87
   2   4   9  731.72   24.44
   2   4  10    6.62    2.84
   2  -4  10    5.53    1.89
   2   4  10   11.30    3.20
   2   4  11   68.19    7.19
  -2   4  11   75.03    7.96
   2  -4  11   68.61    6.27
   2   4  11   75.34    8.45
   2   4  12  205.81   12.53
   2   4  12  182.69   13.04
   2  -4  12  193.61   10.46
  -2   4  12  227.37   13.99
   2   4  13  687.36   25.41
   2  -4  13  658.12   19.30
  -2   4  13  689.65   24.78
   2   4  13  671.41   23.41
   2  -4  14  109.74    7.99
   2   4  14  105.21    9.35
   2   4  14  113.50   10.64
  -2   4  14  102.35    9.60
   2  -4  15   76.97    6.55
   2   4  15   83.76    8.31
  -2   4  15   67.16    7.60
   2   4  15   84.01    9.26
  -2   4  16    6.92    3.63
   2   4  16   10.83    3.43
   2   4  16    8.43    2.62
   2   4  17  291.11   16.34
   2   4  17  231.89   15.77
   2   4  18   72.47    8.92
   2   4  18   82.36    8.93
   2   4  19  244.51   16.57
  -2   4  19  243.32   17.03
  -2   4  19  291.43   17.41
   2   4  19  302.41   17.18
  -2   4  20    4.00    2.61
   2   4  20    9.13    3.70
  -2   4  20   12.17    3.69
   2   4  21    0.91    1.98
  -2   4  21    5.49    3.19
  -2   4  21   -0.57    1.70
  -2   4  22    2.96    4.03
   2   4  22    1.14    2.66
   2   4  23   70.72    9.77
  -2   4  23   88.32   11.05
   2   4  24    4.52    1.93
   2   4  25  111.04   13.14
   2  -5 -28    1.66    2.69
  -2  -5 -28    3.93    4.29
  -2  -5 -27   13.09    3.40
   2  -5 -27   10.15    4.41
  -2  -5 -26    1.47    3.27
   2  -5 -26   -4.07    4.38
  -2  -5 -25   16.71    4.75
   2  -5 -25   18.28    5.59
  -2  -5 -24    5.50    2.07
   2  -5 -24    1.56    2.74
  -2  -5 -23    4.43    2.56
   2  -5 -23   14.19    5.20
  -2  -5 -22   19.34    5.53
   2  -5 -22   22.55    6.71
  -2  -5 -21    3.78    3.27
   2  -5 -21   -0.71    2.53
  -2  -5 -20    3.69    3.42
   2  -5 -20    2.77    2.37
   2  -5 -19   21.31    5.55
  -2  -5 -19   23.06    5.77
   2  -5 -18   -1.35    2.63
  -2  -5 -18    3.15    2.87
  -2  -5 -17   10.49    4.15
   2  -5 -17   14.48    4.52
  -2  -5 -16   17.28    4.42
   2  -5 -16   15.64    3.90
   2  -5 -15    8.07    3.28
   2  -5 -15    8.98    3.49
  -2  -5 -15    2.49    1.60
  -2  -5 -14   15.57    3.18
   2  -5 -14   10.49    3.61
   2  -5 -14    9.64    3.84
   2   5 -14    8.77    3.00
   2  -5 -13  115.69   10.61
  -2  -5 -13  110.19   10.35
   2  -5 -13  136.40   11.69
   2   5 -13  131.28   10.50
   2  -5 -12   79.09    8.36
  -2   5 -12   54.60    6.43
   2   5 -12   68.49    7.52
  -2  -5 -12   65.37    8.05
   2  -5 -12   54.84    7.49
   2  -5 -11    2.38    2.60
  -2  -5 -11    6.35    3.01
  -2   5 -11    5.10    2.02
   2  -5 -11    0.83    1.74
   2   5 -11    5.58    1.61
   2  -5 -10   29.43    5.42
  -2   5 -10   33.83    5.11
   2   5 -10   29.42    5.15
  -2  -5 -10   36.41    5.24
   2  -5 -10   35.03    5.95
  -2   5  -9   25.34    4.46
   2   5  -9   25.42    4.44
  -2  -5  -9   29.70    4.76
   2  -5  -9   32.23    5.89
   2  -5  -9   25.34    4.74
   2   5  -8    6.88    2.44
   2  -5  -8    5.99    2.96
   2  -5  -8    5.99    3.13
  -2   5  -8    4.52    2.14
  -2  -5  -8    4.78    2.31
   2  -5  -7    0.10    1.08
   2   5  -7    0.83    2.00
  -2  -5  -7   -0.38    0.84
   2  -5  -7    1.18    1.96
  -2   5  -7    0.67    1.36
  -2   5  -6   16.28    3.99
   2  -5  -6   12.63    3.19
   2   5  -6   14.93    3.70
   2  -5  -6    8.27    3.14
  -2  -5  -6   13.29    2.84
   2  -5  -5   32.11    4.79
  -2  -5  -5   36.86    4.65
  -2   5  -5   30.99    4.93
   2  -5  -5   39.71    5.55
   2   5  -5   42.96    5.89
   2  -5  -4  134.55   10.53
   2  -5  -4  121.64    9.02
   2   5  -4  114.26    9.52
  -2   5  -4  121.55    9.60
  -2  -5  -4  128.02    8.33
   2   5  -3  127.52    9.84
  -2  -5  -3  118.25    7.76
   2  -5  -3  112.27    8.41
   2  -5  -3  126.58   10.22
  -2   5  -3  146.44   10.59
  -2   5  -2   13.95    4.21
   2   5  -2   18.27    3.64
   2  -5  -2   22.19    4.11
   2  -5  -2   17.90    3.41
  -2  -5  -2   14.45    2.33
  -2  -5  -1  537.47   14.47
   2  -5  -1  538.77   17.50
   2   5  -1  584.16   21.53
   2  -5  -1  543.57   20.74
  -2   5  -1  580.71   21.22
   2  -5   0   51.27    5.23
   2  -5   0   44.33    5.80
  -2  -5   0   57.16    4.31
  -2   5   0   39.30    5.68
   2   5   0   58.91    6.97
  -2  -5   1  603.89   12.07
   2  -5   1  545.39   20.34
  -2  -5   1  615.24   20.46
  -2   5   1  536.44   20.60
   2  -5   1  598.73   17.63
   2   5   1  604.23   22.01
   2   5   2   22.59    4.24
   2  -5   2   24.13    4.31
  -2   5   2   12.04    3.09
   2  -5   2   16.32    2.96
  -2  -5   2   11.81    1.56
  -2  -5   2   18.58    3.77
   2   5   3  157.25   11.30
   2  -5   3  137.21    8.28
   2  -5   3  121.26    9.51
  -2  -5   3  143.20    9.59
  -2   5   3  172.21   11.97
   2  -5   4  142.54    8.45
   2   5   4  138.85   10.72
  -2   5   4  154.49   11.13
  -2  -5   4  142.53    9.33
   2  -5   4  123.69    9.47
  -2  -5   5   44.93    5.19
   2   5   5   31.04    5.25
   2  -5   5   30.85    4.77
  -2   5   5   41.14    6.23
   2  -5   5   36.07    4.22
  -2   5   6   11.41    3.63
  -2  -5   6   16.21    3.17
   2  -5   6   14.39    3.37
   2  -5   6   16.16    2.81
   2   5   6   17.56    4.28
   2  -5   7    0.94    1.19
   2   5   7    1.24    2.24
   2  -5   7    0.88    1.29
  -2   5   7    0.61    0.99
   2   5   8    3.01    1.26
   2  -5   8    0.92    1.28
   2   5   8    5.00    2.29
  -2   5   8    3.99    1.21
   2  -5   8    5.13    2.14
   2  -5   9   26.67    4.14
   2   5   9   25.17    4.72
   2   5   9   25.76    4.87
  -2   5   9   29.09    5.27
   2  -5   9   25.69    3.85
   2   5  10   28.41    5.15
   2   5  10   27.32    5.33
   2  -5  10   33.68    4.93
   2   5  11    4.65    1.22
   2  -5  11    5.39    2.47
  -2   5  11    3.51    3.15
   2   5  11    0.48    3.20
   2   5  12   51.65    7.21
  -2   5  12   68.00    8.07
   2  -5  12   63.48    6.71
   2   5  12   55.74    7.87
   2  -5  13  117.06    8.92
   2   5  13  142.79   11.90
  -2   5  13  122.13   10.82
   2   5  13  148.16   12.46
   2   5  14   11.43    3.12
   2   5  14   10.69    3.73
   2  -5  14    9.99    3.04
  -2   5  14   15.93    4.37
  -2   5  15    6.91    3.32
   2   5  15    5.79    3.60
   2   5  15    8.25    3.74
   2   5  16   13.07    3.54
   2   5  16   19.05    4.61
  -2   5  16   24.54    5.61
   2   5  17    5.75    2.78
   2   5  17    6.06    2.75
  -2   5  17    9.91    3.15
  -2   5  18    5.34    2.68
   2   5  18    1.37    1.68
   2   5  18    3.45    2.52
  -2   5  19   12.12    4.51
   2   5  19   27.21    6.05
  -2   5  19   22.69    5.74
   2   5  19   19.65    4.85
   2   5  20    1.41    2.36
  -2   5  20    0.80    1.60
  -2   5  20    6.96    3.64
  -2   5  21   -0.33    2.06
  -2   5  21    0.19    1.51
   2   5  21    3.92    2.54
  -2   5  22   20.06    5.77
   2   5  22   20.23    5.59
  -2   5  23    8.14    2.97
   2   5  23    9.32    3.65
   2   5  24    5.47    4.20
  -2   5  24    4.33    2.69
   2   5  25   17.84    5.09
   2   5  26   -2.59    4.22
   2  -6 -26    2.93    3.86
  -2  -6 -26    9.10    4.91
  -2  -6 -25   67.66   10.65
   2  -6 -25   42.20    8.38
   2  -6 -24   18.55    6.03
  -2  -6 -24   21.65    5.60
  -2  -6 -23   34.26    7.29
   2  -6 -23   28.92    6.32
   2  -6 -22   27.25    6.68
  -2  -6 -22   26.16    6.47
   2  -6 -21   13.80    4.70
  -2  -6 -21   20.69    4.65
   2  -6 -20   18.52    5.52
  -2  -6 -20   16.36    4.91
  -2  -6 -19  234.02   17.37
   2  -6 -19  194.43   15.79
   2  -6 -18   11.31    4.40
  -2  -6 -18   10.38    4.19
   2  -6 -17  122.36   11.61
  -2  -6 -17  103.20   11.01
  -2  -6 -16   16.44    4.50
   2  -6 -16   16.42    5.08
   2  -6 -15  187.64   14.80
   2  -6 -15  177.05   13.66
  -2  -6 -15  176.86   14.15
   2  -6 -14   76.13    9.45
   2  -6 -14   54.42    8.24
  -2  -6 -14   71.54    8.44
   2   6 -14   61.91    7.81
   2  -6 -13  769.77   29.42
   2   6 -13  705.73   26.52
  -2  -6 -13  752.36   28.03
   2  -6 -13  736.50   27.87
  -2   6 -12   11.15    3.89
   2   6 -12   15.93    3.84
  -2  -6 -12   14.74    4.06
   2  -6 -12   22.40    5.41
   2  -6 -12   13.45    3.55
  -2  -6 -11  103.49    9.87
   2   6 -11  110.06   10.40
  -2   6 -11  104.56    9.80
   2  -6 -11  110.26   10.51
   2  -6 -11  105.77   10.49
   2  -6 -10   59.74    7.91
   2   6 -10   45.16    6.79
  -2  -6 -10   52.71    7.05
  -2   6 -10   51.43    6.93
   2  -6 -10   36.14    5.70
   2  -6  -9  595.71   23.70
   2  -6  -9  581.92   24.98
   2   6  -9  599.89   23.58
  -2   6  -9  608.54   23.58
  -2  -6  -9  604.50   22.84
  -2  -6  -8  279.82   15.39
  -2   6  -8  330.14   17.15
   2  -6  -8  320.67   18.32
   2   6  -8  318.91   17.13
   2  -6  -7  544.51   23.73
   2  -6  -7  582.30   22.58
  -2   6  -7  562.30   22.55
   2   6  -7  526.90   22.40
  -2  -6  -7  500.08   19.73
  -2   6  -6    7.26    2.85
   2   6  -6   10.56    3.58
   2  -6  -6   15.71    3.97
  -2  -6  -6   12.56    3.03
   2  -6  -6    7.86    3.04
  -2  -6  -5   50.24    6.10
  -2   6  -5   62.79    7.67
   2  -6  -5   53.96    6.63
   2   6  -5   53.21    7.21
   2   6  -4  640.76   24.34
  -2  -6  -4  567.15   18.82
   2  -6  -4  629.78   24.54
   2  -6  -4  624.29   22.23
  -2   6  -4  634.50   24.05
   2  -6  -3  453.50   20.85
  -2   6  -3  438.26   20.11
   2   6  -3  468.35   21.04
  -2  -6  -3  414.74   15.66
   2  -6  -2  251.32   15.18
  -2   6  -2  191.11   13.07
   2  -6  -2  242.59   13.07
  -2  -6  -2  219.36   10.80
   2   6  -2  202.42   13.91
   2   6  -1  534.03   22.18
  -2   6  -1  487.50   21.09
   2  -6  -1  476.94   21.06
  -2   6   0   36.65    5.99
   2  -6   0   41.57    5.22
  -2  -6   0   41.94    4.05
   2   6   0   55.70    7.34
   2  -6   0   34.18    5.48
  -2  -6   1  502.45   12.75
   2   6   1  518.11   21.87
  -2   6   1  486.63   21.44
   2  -6   1  444.43   16.40
   2  -6   1  517.26   21.52
   2  -6   2  234.42   11.77
  -2  -6   2  215.53    7.20
  -2  -6   2  227.26   13.55
   2  -6   2  239.43   14.55
   2   6   2  211.34   14.29
  -2   6   2  215.38   14.37
  -2  -6   3  449.51   18.87
   2  -6   3  423.13   19.41
   2  -6   3  404.45   15.16
   2   6   3  393.19   19.57
  -2   6   3  448.89   20.61
   2  -6   4  604.85   23.07
   2   6   4  645.69   24.87
  -2  -6   4  635.12   22.16
  -2   6   4  629.24   24.63
   2  -6   4  616.87   18.50
  -2   6   5   67.31    8.36
   2  -6   5   69.04    6.24
  -2  -6   5   64.58    7.11
   2  -6   5   63.44    7.51
   2   6   5   58.55    7.79
   2  -6   6   12.09    3.01
   2   6   6   12.95    3.55
   2  -6   6   14.36    3.67
  -2   6   6   16.20    4.95
  -2   6   7  536.95   23.31
   2   6   7  536.41   23.01
   2  -6   7  523.26   20.92
   2  -6   7  495.43   16.48
   2   6   8  329.79   18.28
   2  -6   8  331.54   16.64
   2  -6   8  344.44   13.89
  -2   6   8  287.86   17.46
   2   6   8  332.14   18.21
  -2   6   9  583.00   24.69
   2   6   9  629.39   25.93
   2  -6   9  582.28   22.43
   2   6   9  529.02   23.40
   2   6  10   40.58    7.02
  -2   6  10   35.05    6.09
   2   6  10   59.60    8.32
   2  -6  10   47.08    6.26
   2  -6  11  104.63    9.17
   2   6  11  119.55   11.21
  -2   6  11   99.25   11.02
   2   6  11  117.27   11.54
  -2   6  12   16.51    5.00
   2   6  12   28.61    5.41
   2  -6  12   16.50    4.14
   2   6  12   16.94    5.10
   2   6  13  754.00   28.98
  -2   6  13  772.25   29.41
   2   6  13  794.41   30.34
  -2   6  14   56.31    7.84
   2   6  14   64.66    8.85
   2   6  14   66.58    9.15
  -2   6  15  151.62   13.46
   2   6  15  152.40   13.92
   2   6  15  167.31   13.94
  -2   6  16   12.75    4.06
   2   6  16   15.09    4.01
   2   6  16   12.47    3.35
   2   6  17  115.31   12.26
  -2   6  17  110.93   11.74
   2   6  17  101.61   11.61
   2   6  18   14.52    4.87
   2   6  18    6.69    2.79
  -2   6  18   15.61    4.31
  -2   6  19  240.18   17.48
   2   6  19  257.44   18.43
  -2   6  19  210.10   16.92
   2   6  19  195.65   16.05
   2   6  20   21.86    5.99
  -2   6  20    8.61    3.97
   2   6  20   20.85    4.91
  -2   6  20   15.71    5.24
   2   6  21   19.99    5.73
  -2   6  21   17.93    5.16
  -2   6  21   18.99    4.98
  -2   6  22   26.18    6.42
   2   6  22   17.39    4.52
  -2   6  22   19.16    4.49
  -2   6  23   18.00    5.06
   2   6  23   36.90    7.69
   2   6  24   12.21    5.35
  -2   6  24   17.12    4.41
   2   6  25   33.22    7.43
  -2   6  25   43.17    8.91
   2   6  26   -0.72    3.96
  -2  -7 -24    1.62    2.14
   2  -7 -24    3.91    2.14
   2  -7 -23    3.58    3.48
  -2  -7 -23   -0.57    3.29
   2  -7 -22    2.28    4.12
  -2  -7 -22    0.39    2.76
   2  -7 -21    6.07    3.93
  -2  -7 -21   10.98    4.31
   2  -7 -20   54.39    9.17
  -2  -7 -20   72.59    9.79
  -2  -7 -19   15.93    5.62
   2  -7 -19   10.21    4.35
   2  -7 -18   40.57    7.34
  -2  -7 -18   31.16    6.96
  -2  -7 -17    5.38    3.31
   2  -7 -17    4.34    3.07
   2  -7 -16   23.67    4.97
  -2  -7 -16   16.80    4.84
   2  -7 -15    4.42    2.85
  -2  -7 -15    1.77    1.62
   2  -7 -14   99.14   11.23
   2  -7 -14   82.05    9.89
  -2  -7 -14  104.82   11.20
   2   7 -13   20.79    5.18
   2  -7 -13   24.07    5.92
   2  -7 -13   21.54    5.19
  -2  -7 -13   18.30    4.70
   2  -7 -12   79.02    9.89
  -2  -7 -12  101.65   10.62
   2   7 -12   96.15   10.78
   2  -7 -12   96.23   10.17
  -2   7 -11   77.37    9.28
   2   7 -11   88.10   10.02
   2  -7 -11   91.96   10.31
  -2  -7 -11   73.48    9.01
   2  -7 -11   61.44    8.26
   2   7 -10   58.86    8.24
   2  -7 -10   78.44    9.25
  -2  -7 -10   46.47    6.99
  -2   7 -10   61.56    8.32
   2  -7 -10   79.85    9.90
  -2  -7  -9   76.85    8.99
   2   7  -9   84.22    9.78
  -2   7  -9   86.09    9.56
   2  -7  -9   77.08    9.48
   2  -7  -9   82.83    9.32
   2   7  -8  174.90   13.79
   2  -7  -8  181.94   13.42
  -2   7  -8  183.61   14.06
   2  -7  -8  200.42   15.01
  -2  -7  -8  176.53   12.83
  -2   7  -7   -0.17    1.30
  -2  -7  -7   -1.20    1.20
   2  -7  -7   -0.22    2.25
   2  -7  -7    0.84    2.56
   2   7  -7    0.35    2.98
   2  -7  -6  219.81   15.90
  -2  -7  -6  224.66   13.58
   2  -7  -6  170.75   12.82
   2   7  -6  217.31   15.31
  -2   7  -6  195.16   14.37
  -2   7  -5  160.56   13.13
   2  -7  -5  179.60   14.09
   2   7  -5  190.32   14.11
  -2  -7  -5  159.97   11.08
   2   7  -4    2.65    3.43
  -2   7  -4    6.15    3.15
   2  -7  -4    6.69    3.07
   2  -7  -4   11.11    4.48
  -2  -7  -4   15.89    3.59
   2  -7  -3  381.01   20.07
  -2  -7  -3  440.29   16.88
   2   7  -3  389.77   20.39
  -2   7  -3  422.41   21.25
  -2  -7  -2   33.93    4.36
   2   7  -2   35.65    5.89
   2  -7  -2   31.34    4.87
  -2   7  -2   24.56    5.05
  -2   7  -1   31.94    6.08
   2  -7  -1   34.30    6.24
   2   7  -1   27.16    5.78
   2  -7  -1   31.28    5.03
  -2   7   0    6.60    2.27
   2   7   0    4.99    2.40
   2  -7   0    6.01    2.37
   2  -7   0    6.66    2.76
   2  -7   1   28.70    4.54
   2   7   1   27.04    5.69
  -2   7   1   25.72    5.45
   2  -7   1   36.76    6.39
  -2   7   2   34.18    6.16
   2  -7   2   47.42    5.86
   2   7   2   38.37    6.96
   2  -7   2   54.05    7.84
   2  -7   3  329.48   14.62
   2  -7   3  370.48   19.68
  -2   7   3  374.69   20.14
  -2   7   4    9.20    3.59
   2  -7   4    9.16    3.44
   2   7   4   12.14    3.47
   2   7   5  174.24   13.67
   2  -7   5  181.33   13.65
  -2   7   5  188.25   14.72
  -2   7   6  197.82   14.87
   2   7   6  211.26   15.68
   2  -7   6  185.20   13.81
  -2   7   7    1.79    2.66
   2   7   7    4.66    2.60
   2  -7   7   -1.52    1.92
   2  -7   8  214.74   14.91
   2   7   8  179.99   14.23
  -2   7   8  181.85   14.51
   2   7   8  178.70   14.26
   2   7   9   78.82    9.35
  -2   7   9   70.59    9.27
   2   7   9   81.04    9.98
   2  -7   9   72.20    8.16
   2  -7  10   71.36    8.63
  -2   7  10   58.88    8.94
   2   7  10   60.05    8.58
   2   7  10   69.50    9.03
   2  -7  11   83.45    9.05
   2   7  11   86.78   10.41
   2   7  11   81.06   10.06
  -2   7  11   71.94    9.58
  -2   7  12   97.12   11.31
   2   7  12   84.24   10.63
   2   7  12   96.55   10.94
   2   7  13   25.50    5.93
  -2   7  13   26.94    6.08
   2   7  13   10.25    4.47
  -2   7  14   90.17   10.91
   2   7  14   90.34   11.06
   2   7  14   90.46   10.79
   2   7  15    0.49    1.38
   2   7  15    1.12    2.59
  -2   7  15    1.59    3.03
  -2   7  16   12.53    4.48
   2   7  16   18.74    5.58
   2   7  16   17.28    4.55
  -2   7  17    4.74    2.38
   2   7  17    1.07    2.18
   2   7  18   31.07    6.13
   2   7  18   38.46    6.92
  -2   7  18   26.10    5.27
   2   7  19   15.56    5.53
   2   7  19    5.22    3.70
  -2   7  19    9.92    4.27
  -2   7  19    2.48    2.70
  -2   7  20   70.21   11.39
   2   7  20   73.29   10.37
   2   7  20   50.31    8.64
  -2   7  20   59.99    9.69
  -2   7  21   13.84    5.05
   2   7  21   11.62    4.53
  -2   7  21    9.01    5.40
  -2   7  22   -1.74    2.29
  -2   7  22   -8.33    5.85
   2   7  22   -1.85    2.37
   2   7  23   -3.11    4.18
  -2   7  23    5.67    5.11
  -2   7  24   -0.29    2.26
   2   7  24    1.10    2.81
  -2  -8 -22   11.13    4.29
   2  -8 -22   16.96    5.05
  -2  -8 -21    5.81    2.95
   2  -8 -21    5.95    4.52
   2  -8 -20   13.01    5.58
  -2  -8 -20    5.76    2.45
  -2  -8 -19   22.46    6.43
   2  -8 -19   29.60    6.13
  -2  -8 -18    3.24    2.02
   2  -8 -18   -1.96    2.43
   2  -8 -17   24.04    5.70
  -2  -8 -17   27.19    6.69
  -2  -8 -16   38.11    7.05
   2  -8 -16   33.15    7.53
  -2  -8 -15    1.51    2.26
   2  -8 -15   -3.66    3.07
  -2  -8 -14    6.30    3.36
   2  -8 -14    5.13    1.78
   2   8 -13   45.94    8.94
   2  -8 -13   32.04    6.53
   2  -8 -13   31.13    7.07
  -2  -8 -13   21.29    5.53
   2   8 -12    0.96    1.65
   2  -8 -12   -1.75    3.14
  -2  -8 -12    2.84    2.42
   2  -8 -12    6.02    2.76
   2  -8 -11    4.78    2.59
  -2   8 -11    2.99    3.78
  -2  -8 -11    2.37    1.86
   2   8 -11    1.93    2.65
   2  -8 -11    3.69    3.33
  -2  -8 -10   14.20    3.54
   2   8 -10   12.89    3.97
   2  -8 -10    9.89    4.17
   2  -8 -10   18.71    5.63
  -2   8 -10    6.57    2.96
   2  -8  -9   43.15    7.17
  -2   8  -9   60.05    8.49
   2  -8  -9   53.84    7.59
  -2  -8  -9   39.63    6.79
   2   8  -9   59.24    8.71
   2  -8  -8    7.55    3.90
  -2  -8  -8    5.31    2.60
   2  -8  -8   13.96    4.08
  -2   8  -8   13.32    3.90
   2   8  -8    2.34    1.55
   2  -8  -7   64.20    8.96
  -2   8  -7   72.16    9.65
   2   8  -7   72.18    9.71
  -2  -8  -7   85.96    9.28
   2  -8  -7   83.16    9.37
  -2  -8  -6   10.83    3.87
  -2   8  -6   24.16    5.26
   2   8  -6   15.26    3.85
   2  -8  -6   25.16    6.00
   2  -8  -6   14.18    4.17
  -2   8  -5   35.55    6.79
   2  -8  -5   24.49    5.21
   2  -8  -5   20.71    4.37
   2   8  -5   17.43    5.05
   2   8  -4   76.95    9.74
   2  -8  -4   86.76    8.84
   2  -8  -4   98.18   10.76
  -2   8  -4   71.14    9.59
  -2   8  -3  254.91   17.44
   2   8  -3  250.45   17.24
   2  -8  -3  255.75   17.51
   2  -8  -3  280.75   16.40
   2   8  -2    2.41    1.83
   2  -8  -2    2.65    1.77
   2  -8  -2    5.60    2.93
  -2   8  -2    8.57    3.88
   2  -8  -1    9.98    3.91
  -2   8  -1    3.82    3.26
   2   8   0   15.11    4.88
   2  -8   0   23.93    5.48
  -2   8   0    9.53    3.58
  -2   8   1   14.87    5.19
   2   8   1   15.06    4.86
   2  -8   1   16.61    5.36
   2  -8   2    7.86    3.39
  -2   8   2    9.91    2.81
   2   8   2    4.19    3.50
  -2   8   3  296.66   18.97
   2   8   3  281.26   18.62
   2   8   4   90.21   10.55
   2  -8   4   80.83    9.81
  -2   8   4  101.81   11.14
  -2   8   5   21.36    5.83
   2   8   5   30.91    6.63
   2  -8   5   24.27    5.31
   2  -8   6   13.07    4.07
   2   8   6   18.60    5.42
  -2   8   6   17.75    5.07
  -2   8   7   87.12   10.72
   2  -8   7   75.41    9.20
   2   8   7   60.71    8.57
   2   8   7   80.39    9.85
   2   8   8    3.55    2.11
   2   8   8    8.58    4.35
  -2   8   8    9.06    3.72
   2  -8   8   10.86    3.95
   2   8   9   54.12    8.40
   2   8   9   53.26    8.22
  -2   8   9   62.94    9.07
   2  -8   9   52.84    7.69
   2  -8  10    8.82    4.27
   2   8  10   14.63    4.79
  -2   8  10   12.72    4.51
   2   8  10    5.75    3.33
   2   8  11    3.51    2.27
   2   8  11    9.05    4.32
  -2   8  11    2.80    2.44
   2   8  12   -1.80    4.03
   2   8  12    0.81    1.83
  -2   8  12    4.63    3.48
   2   8  13   43.22    7.92
   2   8  13   43.84    7.93
  -2   8  13   58.66    8.71
  -2   8  14    7.78    5.36
   2   8  14    6.79    2.91
   2   8  14    9.64    3.64
  -2   8  15    4.88    3.96
   2   8  15   -0.80    2.42
   2   8  15   -0.97    1.60
   2   8  16   25.65    6.37
   2   8  16   30.18    6.00
  -2   8  16   31.27    6.12
   2   8  17   32.44    7.45
  -2   8  17   36.01    7.88
   2   8  17   35.21    7.29
   2   8  18   -6.07    4.27
  -2   8  18   -3.03    4.06
  -2   8  19   13.09    4.87
   2   8  19   14.86    4.82
   2   8  19   23.64    7.00
  -2   8  19   19.39    5.61
   2   8  20    7.33    4.69
  -2   8  20    2.25    3.31
  -2   8  20    1.05    1.60
   2   8  20    9.48    4.72
  -2   8  21   10.82    4.72
  -2   8  21    6.60    5.67
   2   8  21   -1.89    3.59
  -2   8  22   19.76    6.17
  -2   8  22   18.99    5.95
   2   8  22    1.06    2.70
  -2  -9 -19    0.32    3.98
   2  -9 -19    7.42    3.96
  -2  -9 -18    4.29    3.95
   2  -9 -18   -0.10    2.67
   2  -9 -17   -1.37    4.15
  -2  -9 -17    2.82    3.49
   2  -9 -16    5.14    3.10
  -2  -9 -16    7.18    4.50
   2  -9 -15    3.62    3.10
  -2  -9 -15    1.99    2.29
   2  -9 -14    6.32    3.83
  -2  -9 -14    9.05    4.93
   2  -9 -13    4.20    2.11
  -2  -9 -13    3.03    1.86
   2  -9 -12    0.68    1.55
   2   9 -12    3.73    4.37
   2  -9 -12   -3.54    3.96
   2  -9 -11    4.36    1.75
   2   9 -11    0.69    2.53
   2   9 -10   13.50    3.88
   2  -9 -10   19.29    5.70
  -2   9 -10   13.76    5.19
   2  -9 -10   17.42    4.88
   2  -9  -9   -4.24    4.86
   2   9  -9   -3.53    2.56
  -2   9  -9    3.88    3.94
   2  -9  -9    4.37    4.10
   2   9  -8    8.35    3.93
   2  -9  -8    5.19    2.80
  -2   9  -8    4.91    4.15
   2  -9  -8   -0.30    3.37
  -2   9  -7   -2.86    3.40
   2  -9  -7    2.02    1.50
   2   9  -7    4.59    2.64
  -2   9  -6   19.06    4.75
   2   9  -6   24.06    6.13
   2  -9  -6   25.34    5.91
   2  -9  -5   18.22    5.25
   2   9  -5   15.08    4.51
  -2   9  -5   20.79    6.28
   2   9  -4   17.58    5.42
  -2   9  -4   19.14    4.79
   2  -9  -4    3.96    2.52
   2   9  -3   39.03    7.47
  -2   9  -3   24.87    5.64
   2  -9  -3   36.50    6.65
   2   9  -2    5.86    2.42
   2  -9  -2   17.15    4.71
  -2   9  -2    8.94    4.00
   2   9  -1    9.47    4.11
   2  -9  -1    4.82    2.95
  -2   9  -1    5.18    3.42
   2   9   0    8.58    2.50
   2  -9   0    7.26    2.40
  -2   9   0    6.65    3.55
  -2   9   1    6.36    3.34
   2  -9   1    6.80    3.80
   2   9   1    6.87    3.79
   2   9   2   11.07    3.63
   2  -9   2   12.28    4.28
  -2   9   2    8.43    1.85
   2   9   3   31.49    6.20
  -2   9   3   26.39    6.70
   2  -9   3   28.20    6.56
  -2   9   4   20.97    5.36
   2   9   4   23.20    6.33
   2   9   4   14.48    4.21
   2  -9   4   21.98    5.08
  -2   9   5   19.33    6.15
   2   9   5   26.87    6.80
   2   9   5   26.57    6.58
   2  -9   5   18.87    4.62
   2  -9   6   18.44    5.65
   2   9   6   16.09    5.06
  -2   9   6   20.02    5.87
   2   9   6   24.02    5.63
  -2   9   7    2.79    3.20
   2  -9   7    2.26    2.81
   2   9   7   -1.06    2.33
   2   9   7    4.09    2.62
   2   9   8    2.93    1.42
   2  -9   8    3.28    3.13
  -2   9   8    3.33    2.39
   2   9   8    2.49    3.14
   2  -9   9   -2.68    3.54
  -2   9   9    2.68    3.68
   2   9   9   -2.21    1.80
   2   9   9   -0.36    1.90
   2   9  10   12.91    5.41
  -2   9  10    2.17    2.52
   2   9  10   18.52    5.16
   2   9  11    0.52    2.49
  -2   9  11    6.57    3.78
   2   9  11    3.36    3.37
   2   9  12    2.74    2.44
   2   9  12    0.17    1.95
  -2   9  12    4.71    3.70
   2   9  13    8.39    3.58
  -2   9  13    3.24    2.37
   2   9  13    2.76    2.34
  -2   9  14    7.04    4.38
   2   9  14    6.73    3.57
   2   9  14   -0.36    3.17
   2   9  15    1.46    3.30
   2   9  15   -1.77    2.46
  -2   9  15   -1.32    2.03
   2   9  16    7.62    4.19
  -2   9  16    3.76    3.35
   2   9  16    6.45    3.97
   2   9  17   -0.19    1.54
  -2   9  17   -3.36    2.21
   2   9  17   -2.01    2.33
   2   9  18    7.66    3.26
  -2   9  18    6.60    4.47
  -2   9  18   14.28    4.53
   2   9  18    3.55    4.09
  -2   9  19    3.49    3.59
   2   9  19    3.31    2.74
  -2   9  19   -0.07    3.16
   2   9  19    2.07    2.65
   2 -10 -15   13.97    5.49
   2  10 -11   20.27    6.17
   2  10 -10    2.53    2.08
   2 -10 -10    3.65    2.64
  -2  10  -9   10.48    3.75
   2 -10  -9    9.45    4.36
   2  10  -9   20.25    5.38
  -2  10  -8   10.71    4.15
   2  10  -8   13.69    4.88
   2 -10  -8    5.52    3.50
   2 -10  -7   99.57   12.37
   2  10  -7  108.95   12.76
  -2  10  -7   79.87   11.08
   2  10  -6   10.30    4.17
  -2  10  -6   11.21    4.11
   2 -10  -6   21.93    5.78
   2  10  -5   -1.26    3.26
   2 -10  -5   10.69    4.50
  -2  10  -5    6.16    3.80
   2 -10  -4   15.70    4.47
   2  10  -4   19.96    6.05
  -2  10  -4   30.47    7.22
   2  10  -4   20.37    5.83
   2  10  -3   54.22    9.10
   2  10  -3   36.24    7.25
   2 -10  -3   43.28    8.10
  -2  10  -3   42.06    8.14
  -2  10  -2   23.91    6.53
   2  10  -2   26.62    6.47
   2  10  -2   27.79    6.90
   2 -10  -2   24.56    5.67
   2  10  -1    2.19    2.57
  -2  10  -1    7.53    4.85
   2  10  -1    1.57    3.13
   2 -10  -1    2.06    1.96
   2  10   0    3.56    3.31
   2  10   0    7.68    3.63
  -2  10   0   -0.03    1.47
   2 -10   0   -1.12    2.41
  -2  10   1    1.17    2.50
   2  10   1    7.11    3.72
   2  10   1    5.49    3.78
   2 -10   1    3.25    3.30
  -2  10   2   24.31    6.16
   2  10   2   26.40    6.35
   2  10   2   34.75    7.32
   2 -10   2   17.99    4.81
   2  10   3   32.30    7.31
  -2  10   3   41.41    8.94
   2  10   3   64.11    9.67
   2 -10   3   53.85    8.92
   2  10   4   22.48    5.28
   2  10   4   23.52    5.35
   2 -10   4   24.97    6.79
  -2  10   4    9.41    3.20
  -2  10   5    7.11    3.78
   2  10   5    3.61    2.30
   2  10   5    1.17    2.77
   2 -10   5    6.52    2.37
   2 -10   6   20.61    6.50
   2  10   6   10.24    3.54
   2  10   6   29.42    7.85
  -2  10   6   17.46    6.09
   2  10   7  108.66   12.88
  -2  10   7  108.29   12.77
   2 -10   7  113.66   12.75
   2  10   7   95.87   12.07
   2  10   8   15.71    4.92
   2  10   8   12.75    5.04
  -2  10   8   11.40    4.71
   2  10   9   29.91    6.88
   2  10   9   23.49    6.45
  -2  10   9   30.70    7.04
   2  10  10    4.18    4.32
   2  10  10   -1.08    2.97
  -2  10  10    3.28    2.83
   2  10  11   21.40    5.57
  -2  10  11   18.46    5.36
   2  10  11   26.33    6.50
  -2  10  12    2.17    2.51
   2  10  12    6.25    4.71
   2  10  12    7.31    3.46
   2  10  13   39.60    8.87
   2  10  13   37.61    7.39
  -2  10  13   39.57    8.12
   2  10  14   12.23    4.17
  -2  10  14   15.40    5.36
   2  10  14   12.81    5.39
  -2  10  15   12.20    5.84
   2  10  15    5.29    3.25
   2  10  15    5.04    3.36
   2  11 -10   -5.77    3.10
   2  11  -9    3.78    2.75
  -2  11  -8    3.46    3.63
   2  11  -8    5.57    4.48
   2  11  -7    5.57    3.85
  -2  11  -7    1.33    2.54
   2 -11  -7    1.33    2.54
   2 -11  -6    4.81    4.23
   2  11  -6    4.80    3.26
  -2  11  -6   -1.19    3.37
   2 -11  -5   -1.67    2.26
  -2  11  -5    0.01    2.13
   2  11  -5    3.19    4.09
  -2  11  -4    2.02    2.51
   2 -11  -4   -0.52    2.19
   2  11  -4    0.96    3.98
   2  11  -3    6.21    4.47
  -2  11  -3    6.77    3.25
   2 -11  -3   -0.45    2.24
   2  11  -2    2.52    3.96
  -2  11  -2    8.47    4.31
   2 -11  -2    1.68    1.63
   2  11  -2    0.78    2.59
   2  11  -1    6.69    4.21
  -2  11  -1   12.70    5.18
   2 -11  -1   11.39    4.40
   2  11  -1   13.27    5.64
   2  11   0   -0.03    2.34
  -2  11   0   -2.84    3.31
   2 -11   0    6.82    3.44
   2  11   0   10.96    5.52
   2 -11   1    5.52    4.25
  -2  11   1   13.00    4.53
   2  11   1    3.95    3.37
   2  11   1    6.71    3.92
   2  11   2    2.81    3.19
  -2  11   2    6.96    3.49
   2  11   2    7.78    3.64
   2 -11   2    8.55    3.89
   2  11   3    4.05    2.60
  -2  11   3   12.09    6.03
   2 -11   3    2.99    3.00
   2  11   3    7.42    4.56
   2  11   4    1.33    1.97
   2 -11   4    8.25    4.60
  -2  11   4    0.74    2.33
   2  11   4    5.27    4.08
   2  11   5    2.29    3.98
  -2  11   5    6.48    4.04
   2 -11   5   -0.45    2.47
   2  11   5    6.63    3.46
  -2  11   6   16.04    6.11
   2  11   6   10.34    4.71
   2  11   6   14.15    5.52
   2  11   7    4.81    2.81
  -2  11   7   -3.13    2.50
   2  11   7    0.56    2.48
   2  11   8    5.22    4.41
  -2  11   8    2.32    2.72
   2  11   8    3.37    2.32
   2  11   9    4.46    2.26
  -2  11   9    3.77    2.10
   2  11   9    2.40    2.75
  -2  11  10    3.63    3.00
   2  11  10   -0.19    2.14
   2  11  10    6.28    2.96
   3   0 -30    3.29    3.04
   3   0 -29    2.60    2.64
   3   0 -28   -1.93    2.72
   3   0 -27    1.93    2.49
   3   0 -26   -1.43    3.22
   3   0 -25    2.06    1.98
   3   0 -24   -1.93    2.00
   3   0 -23    0.06    2.21
   3   0 -22    0.31    1.93
   3   0 -21   -1.16    1.77
   3   0 -20    0.34    2.08
   3   0 -19   -0.92    1.22
   3   0 -18    1.03    1.92
   3   0 -17   -0.20    1.61
   3   0 -16   -0.69    1.60
   3   0 -15   -1.49    1.85
   3   0 -14    0.31    1.18
   3   0 -13    1.32    0.95
   3   0 -12    0.10    1.00
   3   0 -12    0.62    0.95
   3   0 -11    0.40    0.58
   3   0 -11    0.21    1.37
   3   0 -10    0.92    0.66
   3   0 -10   -0.52    0.73
   3   0  -9    0.90    1.15
   3   0  -9    0.16    0.38
   3   0  -8    0.01    0.58
   3   0  -8    0.59    1.35
   3   0  -7   -0.21    0.33
   3   0  -7   -0.59    1.04
   3   0  -6    0.69    0.85
   3   0  -6   -0.31    0.47
   3   0  -6    0.32    0.47
   3   0  -5   -0.41    0.47
   3   0  -5    0.43    0.53
   3   0  -5   -0.22    0.78
   3   0  -4    0.18    0.38
   3   0  -4    0.38    0.76
   3   0  -4    0.23    0.61
   3   0  -3   -0.03    0.39
   3   0  -3    0.89    0.65
   3   0  -3    0.04    0.80
   3   0  -2   -0.45    0.39
   3   0  -2   -0.56    0.67
   3   0  -2   -0.49    0.82
   3   0  -1   -0.08    0.58
   3   0  -1    0.65    1.04
   3   0  -1   -0.03    0.57
   3   0   0    0.19    0.36
   3   0   0   -0.51    0.33
   3   0   1    0.16    0.51
   3   0   1    0.40    0.92
   3   0   2    0.29    0.40
   3   0   2    0.36    0.38
   3   0   3    0.51    0.54
   3   0   3   -0.10    0.80
   3   0   4    0.26    0.56
   3   0   4   -0.08    0.30
   3   0   5    0.21    0.70
   3   0   5    0.18    0.29
   3   0   6   -0.12    0.33
   3   0   6   -0.09    0.54
   3   0   7    0.05    0.65
   3   0   7   -0.27    0.40
   3   0   8    0.03    0.92
   3   0   8    0.20    0.37
   3   0   9   -0.33    1.28
   3   0   9   -0.24    0.20
   3   0  10   -0.24    0.76
   3   0  11   -0.28    0.78
   3   0  12   -0.02    0.99
   3   0  13   -0.42    0.93
   3   0  14    0.48    0.73
  -3   0  14    0.20    0.85
  -3   0  15   -0.26    0.74
   3   0  15   -0.22    1.45
   3   0  16   -0.39    0.83
  -3   0  16   -1.41    1.15
  -3   0  17    0.60    0.88
   3   0  17   -0.68    1.08
   3   0  18    0.69    1.20
   3   0  19   -0.18    1.60
   3   0  20    0.38    2.18
   3   0  21   -0.67    1.24
   3  -1 -30    5.13    3.36
   3  -1 -29   48.69    9.22
   3  -1 -28   39.82    8.37
   3   1 -28   41.82    9.25
   3  -1 -27   39.40    7.80
   3   1 -27   28.05    6.83
   3   1 -26   13.77    4.27
   3  -1 -26   19.51    5.78
   3  -1 -25   56.23    8.91
   3   1 -25   45.52    7.50
   3   1 -24   33.52    6.83
   3  -1 -24   22.59    5.26
   3   1 -23  161.23   14.01
   3  -1 -23  155.59   13.73
   3   1 -22   47.05    7.36
   3  -1 -22   44.26    7.20
  -3  -1 -22   42.35    7.08
  -3  -1 -21   12.84    4.34
   3   1 -21    9.61    3.55
   3  -1 -21    5.86    2.07
   3  -1 -20   74.60    8.71
   3   1 -20   61.28    8.18
  -3  -1 -20   62.86    8.09
   3  -1 -19  163.82   13.08
   3   1 -19  159.69   12.21
  -3  -1 -19  165.66   13.18
  -3  -1 -18   22.59    4.40
   3  -1 -18   18.87    4.38
   3   1 -18   13.89    3.92
   3  -1 -17  191.37   13.24
  -3  -1 -17  178.98   13.11
   3   1 -17  188.03   12.62
  -3  -1 -16   74.95    8.14
   3   1 -16   76.47    7.82
   3  -1 -16   55.01    7.14
  -3  -1 -15   34.85    5.82
   3  -1 -15   29.40    4.82
   3   1 -15   39.13    5.22
  -3  -1 -14   98.69    9.19
   3  -1 -14   94.45    7.07
   3  -1 -14  105.58    9.47
   3   1 -14   88.97    7.83
   3  -1 -13  512.49   19.51
  -3  -1 -13  565.92   21.18
   3  -1 -13  508.82   16.20
   3   1 -13  531.23   18.17
   3   1 -12  456.45   16.44
   3  -1 -12  459.26   14.86
  -3  -1 -12  440.03   17.91
   3   1 -12  422.07   14.70
   3  -1 -12  411.30   17.17
   3   1 -11   81.46    6.74
   3  -1 -11   94.78    6.69
   3   1 -11  100.74    6.88
   3  -1 -11   98.91    8.22
  -3  -1 -11   84.91    7.79
   3   1 -10  237.85   10.38
   3   1 -10  214.13   10.20
   3  -1 -10  239.83   12.26
   3  -1 -10  238.82   10.30
  -3  -1 -10  216.11   11.71
  -3  -1  -9  752.02   21.10
   3   1  -9  722.82   17.71
   3  -1  -9  725.16   20.86
   3   1  -9  754.69   18.27
   3  -1  -9  750.77   17.87
   3  -1  -8  205.97   10.86
   3   1  -8  228.82    9.59
   3   1  -8  239.20    9.98
  -3  -1  -8  223.48   10.98
   3  -1  -8  239.70    9.73
   3   1  -7  437.87   12.54
   3  -1  -7  457.01   15.02
   3  -1  -7  425.88   12.83
   3   1  -7  448.62   13.33
   3  -1  -6 1243.21   24.22
   3  -1  -6 1250.21   21.44
   3   1  -6 1263.59   19.94
   3   1  -5   88.04    5.01
   3   1  -5   88.62    3.71
   3   1  -5   81.51    5.46
   3  -1  -5   85.16    6.11
   3  -1  -5   83.88    5.49
   3   1  -4  785.96   13.85
   3   1  -4  798.56   16.78
   3  -1  -4  754.37   16.10
   3  -1  -4  791.23   18.01
   3   1  -3 4043.59   37.20
   3  -1  -3 4117.96   40.18
   3   1  -3 4128.09   30.60
   3   1  -3 4031.12   28.61
   3  -1  -3 4083.56   36.86
   3  -1  -2 1564.02   22.71
   3  -1  -2 1582.49   23.59
   3   1  -2 1547.01   18.58
   3   1  -2 1608.25   22.92
   3   1  -2 1585.82   18.45
   3   1  -1  882.72   14.74
   3  -1  -1  883.16   17.43
   3  -1  -1  884.36   16.82
   3   1  -1  871.28   16.58
   3   1   0  829.07   16.01
   3  -1   0  819.81   16.13
   3   1   0  804.82   15.07
   3  -1   0  781.25   16.49
   3   1   1  904.27   16.40
   3  -1   1  875.20   16.81
   3   1   1  873.33   16.34
   3  -1   2 1575.73   22.85
   3   1   2 1553.75   21.29
   3  -1   3 4145.21   37.33
   3   1   3 4188.15   38.29
   3   1   3 4055.57   33.97
   3  -1   4  817.86   16.81
   3   1   4  799.77   14.94
   3   1   4  837.90   17.75
   3   1   5   93.67    5.14
   3  -1   5   91.69    5.78
   3   1   5   85.88    6.11
   3   1   6 1229.98   23.22
   3   1   6 1252.99   18.72
   3  -1   6 1278.44   21.72
   3   1   7  446.92   14.38
   3   1   7  433.22   11.08
   3  -1   7  413.82   12.79
   3   1   8  243.85   11.11
   3   1   8  213.51    7.66
   3  -1   8  224.67    9.64
   3   1   9  778.69   14.81
   3   1   9  739.89   19.70
   3  -1   9  727.83   17.77
   3   1  10  230.11    8.07
   3  -1  10  215.08    9.85
   3   1  10  217.21   11.07
   3  -1  11   83.09    6.48
   3   1  11   91.74    5.17
   3   1  11  103.60    7.76
   3  -1  12  417.17   14.61
   3   1  12  419.73   11.09
   3   1  12  400.51   15.77
   3   1  13  543.32   19.06
   3  -1  13  530.84   16.95
   3   1  13  558.83   12.85
   3   1  14  107.21    8.63
   3   1  14   98.50    5.41
   3  -1  14  100.54    7.53
   3  -1  15   30.06    4.09
   3   1  15   31.31    3.12
   3   1  15   37.87    5.32
  -3   1  16   75.86    6.88
   3  -1  16   70.94    6.78
   3   1  16   54.24    4.08
   3   1  16   65.92    7.06
   3  -1  17  169.77   10.95
   3   1  17  184.93   12.24
  -3   1  17  172.05   10.47
   3  -1  18   10.73    3.13
  -3   1  18   15.37    3.07
   3   1  19  131.24   10.92
   3  -1  19  128.72    9.91
  -3   1  19  147.19   10.15
   3   1  20   73.55    8.22
   3   1  21    7.81    2.98
   3   1  22   36.21    6.56
   3  -2 -30    6.37    4.07
   3  -2 -29   21.34    5.54
   3  -2 -28    0.08    2.74
   3  -2 -27   19.64    5.41
   3  -2 -26   -0.15    2.33
  -3  -2 -25    5.59    3.43
   3  -2 -25    8.27    4.72
   3  -2 -24    3.66    3.14
  -3  -2 -24    4.30    3.12
  -3  -2 -23   18.44    5.34
   3   2 -23   17.60    4.54
   3  -2 -23   20.26    5.61
  -3  -2 -22    0.22    2.48
   3  -2 -22    1.07    1.85
   3   2 -22   -0.64    1.51
   3   2 -21   49.47    7.16
   3  -2 -21   38.85    6.70
  -3  -2 -21   58.02    8.20
   3   2 -20   13.16    3.99
  -3  -2 -20   16.96    4.51
   3  -2 -20   14.04    4.37
   3  -2 -19   20.44    4.48
  -3  -2 -19   15.49    4.11
   3   2 -19   23.66    4.84
   3  -2 -18    8.40    2.65
  -3  -2 -18    3.79    2.73
   3   2 -18    6.97    2.50
   3   2 -17    3.09    2.44
   3  -2 -17    4.06    2.11
  -3  -2 -17    6.94    3.51
   3   2 -16   15.73    3.71
  -3  -2 -16   22.88    5.01
   3   2 -16   17.85    3.29
   3  -2 -16   22.20    4.53
   3   2 -15   47.85    5.63
  -3  -2 -15   50.93    7.03
   3  -2 -15   46.20    5.83
   3  -2 -15   51.42    6.88
   3   2 -15   51.11    5.91
  -3  -2 -14    1.70    1.07
   3  -2 -14    3.71    2.70
   3  -2 -14    2.39    1.92
   3   2 -14    3.70    2.05
   3   2 -14    3.19    1.06
   3   2 -13    2.41    1.12
  -3  -2 -13    2.11    1.28
   3   2 -13    0.62    0.68
   3  -2 -13   -0.04    1.12
   3  -2 -12   43.74    5.45
   3   2 -12   43.18    4.67
   3   2 -12   42.51    4.81
  -3  -2 -12   52.66    6.43
   3  -2 -12   47.09    6.27
   3  -2 -11  244.28   13.55
  -3  -2 -11  283.55   14.20
   3   2 -11  264.57   11.73
   3   2 -11  264.42   11.04
   3  -2 -11  262.01   12.71
   3   2 -10   81.76    6.04
   3  -2 -10   80.17    7.52
   3  -2 -10   78.20    6.79
  -3   2 -10   79.34    3.65
  -3  -2 -10   79.85    7.28
   3   2 -10   77.64    6.24
  -3   2  -9   19.47    1.96
   3  -2  -9   28.85    4.62
   3   2  -9   17.92    3.05
   3   2  -9   23.73    2.85
  -3  -2  -9   20.34    3.16
   3  -2  -9   12.79    2.58
   3  -2  -8   79.10    6.56
   3   2  -8   87.79    6.41
  -3   2  -8   85.51    4.40
  -3  -2  -8   95.58    7.44
   3   2  -8   85.33    5.11
   3  -2  -8   90.47    7.43
   3   2  -7   50.52    4.84
   3   2  -7   48.21    3.59
  -3  -2  -7   41.94    4.80
   3  -2  -7   51.58    5.51
   3  -2  -7   45.86    4.91
   3   2  -7   42.40    2.46
  -3   2  -7   54.82    3.62
  -3  -2  -6  241.06   10.77
   3  -2  -6  248.80   11.55
   3   2  -6  222.68    6.16
   3   2  -6  226.95   10.25
   3  -2  -6  234.30   10.82
   3   2  -6  232.12    7.16
   3  -2  -5  290.12   12.15
   3  -2  -5  268.04   11.34
   3   2  -5  290.57    7.29
  -3  -2  -5  304.72   11.56
   3   2  -5  296.58   11.37
   3   2  -5  284.61    7.75
   3  -2  -4   49.18    4.97
  -3  -2  -4   51.79    4.46
   3   2  -4   54.24    4.83
   3   2  -4   50.92    2.91
   3   2  -4   50.94    3.55
   3  -2  -4   49.04    4.71
   3   2  -3 1702.17   16.53
   3   2  -3 1675.50   21.28
   3  -2  -3 1741.22   28.16
   3   2  -3 1672.36   26.89
   3  -2  -3 1740.20   28.24
   3  -2  -2  866.69   19.75
   3   2  -2  867.43   15.98
   3   2  -2  887.78   19.33
   3  -2  -1  342.57   12.21
   3  -2  -1  367.94   12.37
   3   2  -1  384.87   12.64
   3   2  -1  366.46   10.93
   3  -2   0  336.60   11.62
   3  -2   0  332.47   12.07
   3   2   0  321.40   11.56
   3   2   0  355.15   11.20
   3   2   1  377.76   12.03
   3  -2   1  379.38   12.15
   3  -2   1  374.95   12.57
   3  -2   2  878.89   19.20
   3   2   2  884.30   19.24
   3  -2   2  866.88   18.47
   3   2   2  922.50   19.39
   3   2   3 1774.67   26.95
   3   2   3 1710.91   27.38
   3  -2   3 1786.25   27.04
   3   2   4   56.86    5.12
   3   2   4   56.21    4.79
   3  -2   4   48.15    4.62
   3   2   5  272.16   10.65
   3   2   5  303.80   12.06
   3  -2   5  276.59   10.81
   3   2   6  211.80    9.40
   3  -2   6  240.71   10.17
   3   2   6  249.75   11.42
   3   2   7   40.52    4.15
   3  -2   7   41.90    4.42
   3   2   8   75.69    5.86
   3   2   8   73.26    6.60
   3   2   9   25.36    3.40
   3  -2   9   23.93    3.40
   3   2   9   20.61    3.58
   3   2  10   74.49    5.94
   3  -2  10   76.32    6.06
   3   2  10   81.60    7.08
   3   2  11  269.29   13.36
   3   2  11  267.91   11.15
   3  -2  11  255.97   11.41
   3  -2  12   40.30    4.65
   3   2  12   41.95    4.38
   3   2  12   50.67    6.04
   3   2  13   -1.21    1.59
   3  -2  13    0.69    1.10
   3   2  13    1.48    1.52
   3   2  14    1.20    0.88
   3   2  14    3.84    2.01
   3  -2  14    2.42    1.33
   3  -2  15   50.37    5.26
   3   2  15   41.31    4.64
   3   2  15   44.77    6.09
   3   2  16   19.12    4.18
   3   2  16   23.99    3.67
   3  -2  16   18.45    3.41
   3  -2  17    0.98    0.80
   3   2  17    1.31    2.15
   3   2  18    5.68    2.19
   3  -2  18    7.45    2.80
  -3   2  18    6.52    2.58
  -3   2  19   22.90    4.85
   3   2  19   20.69    4.87
  -3   2  20   10.41    3.56
   3   2  20   15.99    3.98
   3   2  21   45.65    7.24
   3   2  22    5.77    3.00
   3   2  23   18.50    5.25
   3  -3 -29   67.25   10.68
   3  -3 -28   35.90    7.55
   3  -3 -27   55.99    9.26
  -3  -3 -27   69.11   10.17
   3  -3 -26   43.13    7.54
  -3  -3 -26   54.69    8.96
  -3  -3 -25   47.97    8.27
   3  -3 -25   44.11    7.52
   3  -3 -24    8.24    4.46
  -3  -3 -24    4.96    2.48
  -3  -3 -23  119.01   12.21
   3  -3 -23   90.51   10.72
   3  -3 -22   12.56    4.78
  -3  -3 -22   16.81    4.97
  -3  -3 -21    5.03    3.12
   3  -3 -21    2.23    2.39
   3  -3 -20    9.12    4.05
  -3  -3 -20   17.12    4.79
  -3  -3 -19   81.40    9.72
   3  -3 -19   75.67    9.53
   3  -3 -18  102.13   10.26
  -3  -3 -18  114.60   11.02
   3   3 -17   74.73    7.53
   3  -3 -17   85.58    9.68
  -3  -3 -17   88.31    9.77
   3   3 -16   78.16    7.32
  -3  -3 -16   79.01    8.90
   3   3 -16   47.74    5.65
   3  -3 -16   55.82    7.48
   3  -3 -16   69.92    7.61
  -3  -3 -15  149.94   12.03
   3   3 -15  143.12    9.44
   3  -3 -15  143.03   11.26
   3  -3 -15  120.24   10.73
   3   3 -15  148.66    9.92
   3   3 -14   21.98    3.87
  -3  -3 -14   23.16    4.96
   3  -3 -14   27.70    4.79
   3   3 -14   24.47    3.88
  -3  -3 -13  444.25   19.64
   3  -3 -13  527.21   21.64
   3  -3 -13  482.64   19.60
   3   3 -13  509.07   15.93
   3   3 -13  494.81   17.92
  -3   3 -12  744.95   14.86
   3  -3 -12  841.56   26.81
   3   3 -12  837.37   19.28
   3   3 -12  817.15   22.84
   3  -3 -12  809.55   25.33
  -3  -3 -12  821.70   26.06
  -3  -3 -11   76.94    7.67
   3   3 -11   83.78    5.52
   3  -3 -11   79.10    8.06
   3  -3 -11   83.02    7.78
   3   3 -11   81.54    7.15
  -3   3 -11   68.54    4.91
   3   3 -10  269.63   12.75
   3   3 -10  272.76    9.28
  -3  -3 -10  257.07   13.53
   3  -3 -10  234.44   13.36
   3  -3 -10  279.61   14.22
  -3   3 -10  252.92    9.57
   3   3  -9 1298.31   27.79
  -3   3  -9 1324.09   22.41
   3   3  -9 1292.09   18.35
  -3  -3  -9 1285.47   29.25
   3  -3  -9 1281.88   30.92
   3  -3  -8   39.38    5.26
   3   3  -8   38.19    2.80
   3  -3  -8   41.76    5.53
  -3  -3  -8   37.41    4.75
   3   3  -8   47.16    5.33
  -3   3  -8   49.91    4.38
   3   3  -7  909.37   15.03
   3   3  -7  895.08   22.53
   3   3  -7  854.56   11.62
   3  -3  -7  941.94   25.13
  -3   3  -7  906.59   19.63
  -3  -3  -7  911.43   22.90
   3  -3  -7  836.87   23.44
   3   3  -6 1007.02   24.08
   3   3  -6 1030.39   17.37
   3  -3  -6 1053.34   25.84
   3  -3  -6 1028.94   25.30
  -3   3  -6 1045.99   21.19
  -3  -3  -6  995.87   22.89
   3   3  -5  135.63    6.69
   3  -3  -5  127.65    8.73
  -3  -3  -5  123.71    7.62
   3  -3  -5  122.66    8.66
   3   3  -5  131.33    8.59
  -3   3  -5  127.34    7.49
   3  -3  -4 1807.90   32.74
  -3  -3  -4 1876.28   28.68
   3   3  -4 1831.98   26.03
   3   3  -4 1870.93   32.38
   3   3  -3 3663.24   44.78
   3  -3  -3 3593.69   45.51
   3  -3  -3 3689.93   44.31
   3   3  -3 3580.86   37.82
   3  -3  -2  644.68   18.16
   3   3  -2  662.07   18.97
  -3  -3  -2  630.09   14.45
   3   3  -2  670.92   16.76
   3  -3  -2  676.21   19.43
   3   3  -1  966.25   20.90
   3  -3  -1 1010.58   23.62
   3  -3  -1 1032.76   22.66
   3   3  -1  950.44   22.54
   3  -3   0  705.18   19.49
   3   3   0  719.02   19.79
   3  -3   0  743.90   18.76
   3   3   0  681.76   18.28
   3   3   1  982.00   22.89
   3   3   1  918.47   21.75
   3  -3   1  968.30   21.37
   3  -3   1  924.67   22.27
   3   3   2  650.55   18.81
   3  -3   2  628.81   18.12
   3  -3   2  635.18   17.13
   3   3   2  646.95   18.56
   3   3   3 3591.94   45.05
   3   3   3 3725.55   45.16
   3  -3   3 3627.97   43.63
   3  -3   3 3636.73   40.88
   3   3   4 1842.35   33.20
   3  -3   4 1856.37   31.61
   3  -3   4 1910.18   29.61
   3   3   4 1957.14   33.35
   3  -3   5  122.11    8.16
   3   3   5  136.67    9.08
   3   3   5  126.56    8.48
   3  -3   6 1073.94   23.77
   3   3   6 1032.61   24.23
   3   3   6 1049.24   25.96
   3  -3   7  887.80   21.67
   3   3   7  871.04   22.43
   3   3   7  855.80   23.78
   3   3   8   40.12    5.38
   3  -3   8   33.29    4.35
   3   3   8   37.49    4.66
   3   3   9 1311.73   30.67
   3   3   9 1301.31   27.89
   3   3  10  288.64   13.30
   3  -3  10  260.59   11.93
   3   3  10  286.11   14.68
   3   3  11   91.28    7.51
   3  -3  11   81.25    6.74
   3   3  11   81.17    8.00
   3  -3  12  820.75   21.68
   3   3  12  849.62   23.38
   3   3  12  823.85   25.78
   3   3  13  514.04   18.42
   3  -3  13  488.82   16.84
   3   3  13  513.14   20.68
   3   3  14   28.26    4.39
   3  -3  14   20.63    3.55
   3   3  14   29.67    5.16
   3   3  15  140.03   11.31
   3   3  15  137.82    9.83
   3  -3  15  129.43    8.87
   3  -3  16   62.01    6.31
   3   3  16   74.90    8.10
   3   3  16   67.04    6.89
   3   3  17   88.68    8.00
   3  -3  17   70.70    6.75
   3   3  17   80.02    9.28
   3   3  18  111.29    9.34
   3   3  18  118.49   10.95
  -3   3  19   71.36    8.59
   3   3  19   86.70    9.80
   3   3  20   13.76    4.93
  -3   3  20    5.89    2.79
  -3   3  21    1.16    1.53
   3   3  21    2.14    2.48
   3   3  22   27.39    6.18
   3   3  23   99.37   11.32
   3   3  24    1.20    1.78
   3  -4 -29    2.97    2.21
   3  -4 -28   25.80    6.39
  -3  -4 -28   16.72    5.78
  -3  -4 -27   37.31    7.42
   3  -4 -27   27.78    6.38
   3  -4 -26    5.91    2.50
  -3  -4 -26    8.39    4.65
  -3  -4 -25   32.33    7.62
   3  -4 -25   28.52    7.00
  -3  -4 -24    3.75    2.07
   3  -4 -24    1.93    3.29
   3  -4 -23    8.01    3.65
  -3  -4 -23    4.96    3.38
   3  -4 -22    8.37    2.83
  -3  -4 -22    9.27    2.23
   3  -4 -21   20.13    5.29
  -3  -4 -21   22.85    5.55
   3  -4 -20   10.70    4.43
  -3  -4 -20    6.30    2.63
  -3  -4 -19   63.37    9.14
   3  -4 -19   43.22    7.46
  -3  -4 -18   14.77    4.63
   3  -4 -18   13.26    3.58
  -3  -4 -17   -0.16    1.59
   3  -4 -17   -0.07    1.78
   3  -4 -17   -0.34    1.75
   3  -4 -16   14.01    3.33
   3  -4 -16    9.35    4.42
  -3  -4 -16   14.47    3.11
   3  -4 -15   29.45    5.58
   3  -4 -15   40.03    6.89
   3   4 -15   34.39    5.10
  -3  -4 -15   24.36    4.53
   3  -4 -14   -1.94    1.55
  -3  -4 -14    0.64    1.41
   3   4 -14    0.42    1.33
   3  -4 -14    0.49    2.09
   3  -4 -13   33.34    5.78
  -3  -4 -13   29.95    4.93
   3  -4 -13   27.72    5.14
   3   4 -13   40.01    5.62
  -3  -4 -12   22.44    5.01
  -3   4 -12   16.85    2.92
   3  -4 -12   16.93    3.93
   3   4 -12   12.66    3.35
   3  -4 -12    7.95    2.54
  -3   4 -11   68.63    6.10
  -3  -4 -11   79.36    8.15
   3  -4 -11   74.98    8.60
   3  -4 -11   64.51    7.45
   3   4 -10  136.95    9.80
   3   4 -10  130.56    6.03
  -3   4 -10  133.74    8.73
  -3  -4 -10  143.50   10.56
   3  -4 -10  144.49   11.14
   3  -4 -10  142.29   11.07
   3  -4  -9   71.06    7.29
  -3  -4  -9   80.24    7.84
   3   4  -9   83.78    7.77
  -3   4  -9   78.53    6.63
   3   4  -9   66.66    4.83
   3  -4  -9   64.79    7.20
  -3  -4  -8   84.29    7.57
   3   4  -8   67.39    5.17
   3  -4  -8   69.73    7.30
  -3   4  -8   73.90    6.55
   3  -4  -8   84.50    8.45
   3   4  -8   69.61    7.18
  -3   4  -7   58.96    5.97
   3  -4  -7   60.16    6.91
   3   4  -7   68.58    6.92
   3  -4  -7   70.32    7.14
   3   4  -7   62.44    5.15
  -3  -4  -7   69.17    6.66
   3   4  -6   74.09    7.15
  -3  -4  -6   85.38    7.06
   3  -4  -6   76.66    7.72
  -3   4  -6   82.75    6.92
   3  -4  -6   69.23    6.82
   3   4  -6   88.15    6.31
  -3   4  -5  345.30   14.45
   3   4  -5  372.44   15.78
  -3  -4  -5  358.84   13.76
   3   4  -5  361.23   13.38
   3  -4  -5  378.35   16.79
   3  -4  -5  347.90   15.27
  -3   4  -4  242.49   12.18
   3   4  -4  229.93   12.46
   3  -4  -4  225.86   11.92
   3  -4  -4  238.06   12.98
   3   4  -4  218.99   10.62
  -3  -4  -4  230.87   10.59
   3   4  -3  160.49    9.21
  -3  -4  -3  162.17    8.42
  -3   4  -3  160.88   10.00
   3  -4  -3  172.94   11.10
   3  -4  -3  149.67    9.65
   3   4  -3  173.06   10.81
   3  -4  -2  359.51   14.52
   3   4  -2  387.77   16.32
  -3   4  -2  393.80   15.80
  -3  -4  -2  402.23   12.45
   3   4  -2  400.63   15.04
   3  -4  -1  523.37   18.77
  -3   4  -1  499.34   17.91
   3   4  -1  517.67   17.20
  -3  -4  -1  524.58   13.07
   3  -4  -1  493.59   16.71
   3   4  -1  487.81   18.22
   3   4   0  185.09   11.25
   3   4   0  164.33    9.87
   3  -4   0  197.25   10.49
   3  -4   0  166.29   10.54
   3  -4   1  517.25   16.68
   3   4   1  476.58   17.28
   3   4   1  514.48   18.82
   3  -4   1  472.77   17.68
   3   4   2  415.30   16.51
   3   4   2  403.41   16.60
   3  -4   2  375.33   14.28
   3  -4   2  414.22   16.36
   3   4   3  158.89   10.41
   3   4   3  146.10    9.94
   3  -4   3  163.01   10.07
   3   4   4  242.05   12.88
   3  -4   4  239.81   11.19
   3  -4   4  246.07   12.56
   3   4   4  245.03   13.16
   3  -4   5  359.10   15.03
   3   4   5  372.15   16.24
   3  -4   5  366.16   14.19
   3   4   5  336.37   15.92
   3   4   6   83.95    7.89
   3   4   6   79.19    7.59
   3  -4   6   86.59    6.76
   3  -4   6   86.32    7.50
   3  -4   7   57.50    6.14
   3   4   7   73.48    7.33
   3   4   7   76.26    7.93
   3   4   8   64.09    7.34
   3   4   8   78.24    7.49
   3  -4   8   75.62    6.91
   3   4   9   74.80    8.04
   3   4   9   75.92    7.56
   3  -4   9   71.63    6.64
   3  -4  10  121.63    8.80
   3   4  10  119.94    9.77
   3   4  10  129.21   10.75
   3  -4  11   77.21    7.11
   3   4  11   55.58    6.94
   3   4  11   76.01    7.92
   3   4  12   15.18    3.90
   3  -4  12   15.70    3.37
   3   4  12    7.54    2.53
   3  -4  13   31.19    4.84
   3   4  13   33.29    5.29
   3   4  13   34.74    5.97
   3   4  14   -0.76    1.11
   3   4  14   -0.64    1.34
   3  -4  14   -0.07    0.95
   3   4  15   34.32    5.51
   3   4  15   36.17    6.17
   3  -4  15   29.02    4.30
   3   4  16    8.64    2.60
   3   4  16    5.92    2.47
   3   4  17    1.09    2.06
   3   4  17    4.24    2.58
   3   4  18    8.17    3.33
   3   4  18   14.39    3.71
   3   4  19   56.96    7.91
  -3   4  19   74.15    9.13
   3   4  20    0.82    1.80
  -3   4  20    7.34    3.86
  -3   4  21   10.95    3.57
  -3   4  21   24.83    5.73
   3   4  21   21.50    5.15
  -3   4  22    0.81    2.73
   3   4  22   12.23    4.56
  -3   4  23    5.74    3.03
   3   4  23   17.16    4.80
   3   4  24   11.55    4.26
   3   4  25   27.29    7.35
   3  -5 -27   21.73    6.08
  -3  -5 -27   27.39    6.63
  -3  -5 -26   25.25    5.99
   3  -5 -26   20.96    5.52
   3  -5 -25   39.64    8.31
  -3  -5 -25   55.66    8.77
   3  -5 -24   29.43    6.39
  -3  -5 -24   12.37    3.70
  -3  -5 -23   23.93    5.60
   3  -5 -23   19.96    6.31
   3  -5 -22   11.77    4.64
  -3  -5 -22    7.63    3.53
   3  -5 -21    2.06    2.46
  -3  -5 -21   10.42    4.13
  -3  -5 -20   40.69    7.67
   3  -5 -20   37.59    6.91
   3  -5 -19   78.48   10.09
  -3  -5 -19   99.64   11.29
  -3  -5 -18   31.18    6.02
   3  -5 -18   49.02    7.60
   3  -5 -17   70.82    8.99
   3  -5 -17   86.38    9.78
  -3  -5 -17   73.66    8.89
  -3  -5 -16   51.11    7.82
   3  -5 -16   56.70    8.27
   3   5 -15   84.41    8.87
   3  -5 -15   81.95    9.72
   3  -5 -15   92.81   10.03
  -3  -5 -15  104.30   10.79
   3  -5 -14  101.34   10.27
   3   5 -14  112.49   10.09
   3  -5 -14   90.44    9.99
  -3  -5 -14   91.35    9.35
   3  -5 -13  316.51   18.12
   3  -5 -13  325.73   17.99
  -3  -5 -13  291.45   16.92
   3   5 -13  323.75   16.93
  -3  -5 -12  169.68   12.46
   3   5 -12  170.29   12.43
  -3   5 -12  146.98   10.53
   3  -5 -12  153.10   12.43
   3  -5 -12  160.62   12.80
   3  -5 -11   64.25    7.99
   3   5 -11   58.73    7.35
  -3   5 -11   56.88    6.34
   3  -5 -11   55.87    7.66
  -3  -5 -11   67.67    7.98
   3   5 -10   61.59    7.47
  -3  -5 -10   64.80    7.66
   3  -5 -10   55.95    7.44
  -3   5 -10   71.95    7.17
   3  -5 -10   68.27    8.21
   3   5  -9  279.27   15.38
  -3   5  -9  261.46   13.93
   3  -5  -9  258.95   15.07
   3  -5  -9  302.92   17.12
   3   5  -9  274.60   11.71
  -3  -5  -8   27.84    4.47
   3   5  -8   31.13    5.11
  -3   5  -8   22.92    4.20
   3  -5  -8   20.95    4.56
   3  -5  -8   26.31    4.87
   3   5  -8   29.07    3.93
  -3   5  -7  145.48   10.29
   3  -5  -7  141.71   10.84
   3   5  -7  136.85   10.59
   3  -5  -7  134.90   11.09
  -3  -5  -7  132.23    9.67
   3   5  -7  143.70    8.93
   3   5  -6   88.29    8.64
  -3  -5  -6  102.51    8.12
   3   5  -6  105.56    7.99
   3  -5  -6  110.88    9.39
   3  -5  -6  106.86    9.98
  -3   5  -6   96.27    8.61
  -3   5  -5   11.98    3.24
   3   5  -5    9.63    2.76
   3   5  -5    8.23    2.30
  -3  -5  -5    8.05    2.31
   3  -5  -5    9.15    2.88
   3  -5  -5    9.88    3.25
   3  -5  -4  101.00    8.62
  -3  -5  -4   70.14    6.12
   3   5  -4   77.29    7.64
  -3   5  -4   79.32    7.86
   3  -5  -4   77.27    8.32
   3   5  -4   82.39    7.33
   3   5  -3  283.62   13.66
   3  -5  -3  292.29   14.08
   3  -5  -3  253.25   14.77
  -3  -5  -3  282.69   11.97
  -3   5  -3  260.01   14.23
   3   5  -3  270.50   14.72
   3  -5  -2   17.68    4.22
   3  -5  -2   11.54    2.68
  -3  -5  -2   12.77    2.23
   3   5  -2   20.02    4.07
   3   5  -2    9.15    2.95
  -3   5  -2    9.49    2.56
   3   5  -1  316.52   16.17
  -3  -5  -1  339.33   11.47
   3  -5  -1  347.66   16.69
  -3   5  -1  325.17   15.82
   3  -5  -1  328.28   14.66
   3   5  -1  328.49   15.48
   3   5   0  154.91   11.20
   3  -5   0  173.38   11.95
   3   5   0  184.80   11.73
   3  -5   0  143.30    9.58
  -3   5   0  179.01   12.04
   3   5   1  309.22   15.97
   3   5   1  316.70   15.60
  -3   5   1  354.64   17.23
   3  -5   1  320.98   14.17
   3  -5   1  328.90   16.12
   3  -5   2   11.38    3.58
  -3   5   2   15.90    4.20
   3   5   2   10.14    3.14
   3   5   2   12.76    3.13
   3  -5   2   16.24    3.43
   3  -5   3  295.10   15.01
   3   5   3  241.00   14.24
   3   5   3  255.14   14.25
  -3   5   3  257.05   14.58
   3  -5   3  251.82   12.40
   3   5   4   99.16    9.07
   3   5   4  101.95    9.12
   3  -5   4   85.26    7.85
   3  -5   4   79.76    6.85
  -3   5   4   78.55    8.28
   3  -5   5   12.00    3.06
  -3   5   5    8.11    3.31
   3   5   5    6.29    2.36
   3  -5   5   10.58    2.25
   3   5   5    8.53    2.76
   3   5   6   97.63    9.53
   3   5   6  107.76    9.41
  -3   5   6  103.64    9.40
   3  -5   6  113.89    9.33
   3  -5   6  108.78    7.94
   3   5   7  136.21   10.99
   3   5   7  127.92   10.38
  -3   5   7  131.28   10.65
   3  -5   7  130.43    9.04
   3  -5   7  127.20    9.71
   3  -5   8   21.24    3.69
   3   5   8   25.70    4.97
   3   5   8   35.58    5.74
  -3   5   8   26.61    5.34
   3  -5   8   24.30    4.19
  -3   5   9  274.22   16.19
   3  -5   9  273.78   13.68
   3   5   9  275.62   15.55
   3  -5   9  292.90   14.88
   3   5   9  296.54   17.20
   3   5  10   66.04    7.64
   3  -5  10   69.71    7.10
  -3   5  10   71.01    8.24
   3   5  10   60.32    7.95
   3   5  11   55.82    6.78
   3   5  11   58.84    7.89
  -3   5  11   64.67    8.34
   3  -5  11   56.73    6.47
   3   5  12  153.61   12.18
   3   5  12  158.68   12.50
  -3   5  12  164.05   12.57
   3  -5  12  159.09   10.90
   3  -5  13  300.65   15.37
   3   5  13  318.39   17.62
   3   5  13  315.33   18.27
  -3   5  13  313.21   18.01
   3   5  14   91.75    9.33
   3   5  14   91.99    9.76
  -3   5  14  106.50   10.72
   3  -5  14   87.16    8.31
  -3   5  15   82.75    9.72
   3   5  15   94.84    9.63
   3   5  15   86.88    9.65
   3   5  16   65.25    8.61
   3   5  16   58.00    7.92
  -3   5  16   55.41    8.35
  -3   5  17   77.70    9.29
   3   5  17   82.19    9.19
   3   5  18   41.18    7.16
  -3   5  18   33.74    6.41
   3   5  18   25.84    5.65
   3   5  19   91.66   10.53
   3   5  19   78.28    9.71
  -3   5  19   81.23   10.30
   3   5  20   55.79    8.76
  -3   5  20   37.37    7.10
   3   5  21   11.32    3.65
  -3   5  21   10.17    4.75
  -3   5  21    8.82    3.43
  -3   5  22   13.72    4.93
  -3   5  22   20.08    6.21
   3   5  22   10.46    2.98
  -3   5  23   17.26    5.20
   3   5  23   25.13    5.79
  -3   5  24    7.18    2.75
   3   5  24   14.36    4.62
   3   5  25   38.87    8.53
   3   5  26   16.35    5.12
  -3  -6 -26    4.50    3.85
   3  -6 -26    6.07    3.24
   3  -6 -25    7.07    4.28
  -3  -6 -25   12.18    4.35
   3  -6 -24    2.80    2.96
  -3  -6 -24    7.14    2.84
   3  -6 -23    2.06    2.26
  -3  -6 -23    6.32    3.87
   3  -6 -22    3.70    1.77
  -3  -6 -22    1.33    2.66
   3  -6 -21   12.62    4.76
  -3  -6 -21   11.62    3.96
   3  -6 -20    4.09    3.69
  -3  -6 -20    3.53    2.28
  -3  -6 -19   68.94    9.08
   3  -6 -19   63.60    9.13
  -3  -6 -18   37.22    7.11
   3  -6 -18   34.97    6.88
   3  -6 -17   12.17    3.41
  -3  -6 -17   13.91    4.77
   3  -6 -17    0.87    1.81
  -3  -6 -16   30.70    6.20
   3  -6 -16   43.05    7.18
   3  -6 -16   34.96    6.08
   3  -6 -15   68.97    9.15
   3  -6 -15   81.97    9.87
  -3  -6 -15   65.99    8.95
   3  -6 -14   28.98    5.78
   3  -6 -14   25.19    5.72
  -3  -6 -14   18.88    4.34
   3   6 -14   10.72    4.08
  -3  -6 -13  185.10   14.03
   3  -6 -13  198.93   14.72
   3  -6 -13  191.60   14.57
  -3  -6 -12   23.08    5.27
   3   6 -12    7.61    3.17
   3  -6 -12   15.98    4.71
   3  -6 -12   14.54    3.37
  -3   6 -11   93.63    9.03
   3  -6 -11   96.68   10.34
  -3  -6 -11  112.00   10.39
   3  -6 -11   81.76    9.16
   3   6 -11   91.37    9.59
  -3  -6 -10   48.44    6.86
  -3   6 -10   36.40    5.76
   3   6 -10   55.47    7.50
   3  -6 -10   51.31    7.52
   3  -6 -10   41.42    6.95
   3   6  -9   35.67    6.17
  -3   6  -9   56.80    7.28
  -3  -6  -9   32.89    5.69
   3  -6  -9   43.22    6.84
   3  -6  -9   38.58    6.18
  -3   6  -8   47.01    6.62
   3  -6  -8   50.35    7.54
   3  -6  -8   31.07    5.22
   3   6  -8   39.64    6.28
   3   6  -8   38.93    5.35
  -3  -6  -8   28.52    4.87
   3   6  -7  121.52   10.80
   3   6  -7  120.33    9.46
  -3   6  -7  120.88   10.52
  -3  -6  -7  107.32    9.11
   3  -6  -7  125.48   11.42
   3  -6  -7  109.72    9.61
   3   6  -6   23.62    4.51
  -3   6  -6   18.65    4.36
  -3  -6  -6   20.06    3.72
   3   6  -6   15.20    4.12
   3  -6  -6   14.98    4.13
   3  -6  -6   24.48    5.44
   3   6  -5  100.04    9.64
   3   6  -5   94.02    8.46
  -3   6  -5   94.82    9.28
   3  -6  -5  100.67   10.09
  -3  -6  -5  111.48    8.78
   3   6  -4   27.06    5.48
  -3  -6  -4   15.79    3.11
   3  -6  -4    7.30    2.98
   3   6  -4   21.26    3.90
   3  -6  -4   20.28    4.23
  -3   6  -4   18.25    4.32
   3   6  -3  122.87   10.85
  -3  -6  -3  126.17    8.49
   3  -6  -3  136.84   11.45
   3   6  -3  130.59   10.24
  -3   6  -3  104.25   10.00
   3  -6  -3  111.20    9.58
  -3   6  -2  134.36   11.31
  -3  -6  -2  139.69    8.40
   3   6  -2  146.21   11.00
   3  -6  -2  142.75   10.27
   3   6  -2  135.22   11.33
   3  -6  -2  134.61   11.56
  -3   6  -1  137.36   11.42
   3  -6  -1  142.44   10.15
   3   6  -1  131.97   10.71
  -3  -6  -1  130.51    7.89
   3   6  -1  117.04   10.51
   3  -6  -1  135.30   11.31
  -3   6   0    0.96    1.54
   3  -6   0   -0.35    1.35
   3   6   0   -0.80    1.24
   3   6   0   -1.30    1.50
   3  -6   0   -0.13    1.96
   3   6   1  118.88   10.96
  -3   6   1  134.71   11.35
   3   6   1  138.17   11.08
   3  -6   1  123.73   10.43
   3  -6   1  122.76    9.40
  -3   6   2  145.11   11.84
   3   6   2  137.06   11.55
   3   6   2  150.40   11.79
   3  -6   2  135.98    9.67
   3  -6   2  135.67   10.97
   3   6   3  126.11   10.83
   3   6   3  117.19   10.36
  -3   6   3  118.74   11.09
   3  -6   3  126.66    9.38
   3  -6   3  112.96   10.42
   3  -6   4   16.53    3.46
   3  -6   4   17.99    4.33
  -3   6   4   17.41    3.95
   3   6   4   18.29    4.83
   3   6   4   16.75    3.88
   3   6   5   96.77    9.66
   3   6   5   81.96    9.18
  -3   6   5  106.32   10.06
   3  -6   5   98.71    9.23
   3  -6   5  101.06    8.19
   3   6   6   25.04    5.22
   3   6   6   25.24    5.05
  -3   6   6   24.63    5.43
   3  -6   6   16.73    3.43
   3  -6   6   23.58    4.70
   3   6   7  140.78   12.04
   3   6   7  126.06   11.33
  -3   6   7  130.31   11.86
   3  -6   7  124.60   10.52
   3  -6   7  117.66    9.08
   3   6   8   45.58    7.00
   3  -6   8   37.84    5.07
   3   6   8   40.71    6.88
   3  -6   8   40.27    5.68
  -3   6   8   43.67    6.17
   3   6   9   32.85    6.03
   3  -6   9   39.19    6.03
   3   6   9   37.77    6.90
  -3   6   9   48.58    7.32
   3  -6   9   42.05    5.60
   3  -6  10   41.65    5.89
   3   6  10   39.10    6.86
   3   6  10   45.32    6.65
   3  -6  10   43.91    6.15
  -3   6  10   50.41    7.45
   3  -6  11   80.21    8.77
   3   6  11   89.68    9.79
  -3   6  11   86.76    9.57
   3   6  11   95.50   10.55
  -3   6  12    9.72    4.40
   3   6  12   13.92    3.56
   3  -6  12   14.13    4.02
   3   6  12    8.47    3.23
   3   6  13  196.11   14.95
  -3   6  13  210.64   15.47
   3   6  13  203.42   15.21
   3  -6  13  181.62   12.85
   3   6  14   11.50    3.76
   3   6  14   17.27    4.94
  -3   6  14   11.63    3.11
  -3   6  15   70.87    9.30
   3   6  15   92.11   10.47
   3   6  15   94.07   10.75
   3   6  16   37.75    7.30
   3   6  16   37.53    7.24
  -3   6  16   32.90    6.32
  -3   6  17   17.34    4.84
   3   6  17   24.97    5.97
   3   6  17   10.63    3.79
  -3   6  18   29.38    6.59
   3   6  18   37.64    7.25
   3   6  18   26.28    6.12
   3   6  19   57.12    8.96
   3   6  19   58.15    8.67
  -3   6  19   53.31    8.84
   3   6  20    1.30    1.75
  -3   6  20   -1.88    3.09
  -3   6  21   15.55    4.88
  -3   6  21   11.73    4.60
   3   6  21   18.14    4.96
   3   6  22    4.13    3.53
  -3   6  22    4.42    2.51
  -3   6  22   -0.43    1.99
   3   6  23    0.24    2.84
  -3   6  23   -0.75    2.75
  -3   6  24   13.38    4.60
   3   6  24    2.91    3.24
   3   6  25   12.33    4.31
   3   6  26   -2.09    3.17
   3  -7 -24   21.53    5.25
  -3  -7 -24   20.79    6.60
   3  -7 -23   19.02    6.11
  -3  -7 -23   11.78    4.89
   3  -7 -22   31.56    7.12
  -3  -7 -22   24.34    5.98
   3  -7 -21    5.71    2.11
  -3  -7 -21   16.45    4.55
  -3  -7 -20    9.67    4.26
   3  -7 -20   20.26    6.37
   3  -7 -19   53.49    8.15
  -3  -7 -19   43.18    7.70
   3  -7 -18    4.15    2.18
  -3  -7 -18    4.11    3.60
  -3  -7 -17   45.82    7.79
   3  -7 -17   45.84    7.53
   3  -7 -16   74.25   10.38
   3  -7 -16   61.77    9.13
  -3  -7 -16   74.15    9.79
   3  -7 -15   10.12    3.35
  -3  -7 -15   19.81    5.34
  -3  -7 -14   25.01    5.37
   3   7 -14   22.11    6.06
   3  -7 -14   21.83    5.88
   3  -7 -14   16.44    4.91
   3   7 -13  104.05   11.17
   3  -7 -13   95.98   10.94
  -3  -7 -13   70.79    8.87
   3  -7 -13   90.50   10.60
  -3  -7 -12   24.52    5.43
   3  -7 -12   19.93    5.06
   3  -7 -12   21.76    4.90
   3   7 -12   21.36    5.18
   3   7 -11    4.92    3.31
  -3  -7 -11    6.64    3.05
   3  -7 -11    0.07    1.64
   3  -7 -11    2.48    2.01
  -3   7 -11    2.33    2.26
   3   7 -10   41.98    6.97
  -3   7 -10   41.30    6.84
  -3  -7 -10   50.65    7.37
   3  -7 -10   43.59    7.22
   3  -7 -10   54.93    7.48
  -3   7  -9  132.68   12.20
  -3  -7  -9  142.36   11.78
   3   7  -9  162.39   13.44
   3  -7  -9  168.90   13.70
   3  -7  -9  136.41   12.78
   3   7  -8   25.51    5.44
  -3  -7  -8   22.20    4.47
  -3   7  -8   20.94    4.78
   3  -7  -8   20.70    4.60
   3  -7  -8   29.86    6.47
   3   7  -7   56.55    8.08
   3   7  -7   37.95    6.13
  -3   7  -7   37.26    6.45
  -3  -7  -7   42.50    6.41
   3  -7  -7   49.55    7.46
   3  -7  -7   43.49    6.51
   3   7  -6   70.51    8.53
   3   7  -6   69.42    8.21
  -3   7  -6   80.13    9.06
  -3  -7  -6   85.25    8.43
   3  -7  -6  103.30   11.13
   3  -7  -6   77.01    8.63
   3  -7  -5   21.18    4.58
   3   7  -5   35.38    6.12
  -3   7  -5   37.22    6.83
   3   7  -5   34.73    5.98
  -3  -7  -5   40.34    5.70
   3  -7  -5   34.25    6.39
   3   7  -4  180.65   13.99
  -3   7  -4  168.05   13.57
   3   7  -4  141.44   11.86
  -3  -7  -4  173.75   11.20
   3  -7  -4  164.76   13.48
   3  -7  -4  151.53   12.09
   3   7  -3  177.63   13.15
   3  -7  -3  171.32   12.63
  -3   7  -3  168.67   13.13
   3  -7  -3  153.16   12.67
  -3  -7  -3  167.58   10.54
   3   7  -3  186.11   14.27
   3  -7  -2  105.60    9.46
   3   7  -2  106.06   11.07
   3   7  -2  118.31   10.78
  -3   7  -2  101.74   10.72
   3  -7  -2  103.23   10.70
  -3   7  -1  341.40   19.40
   3  -7  -1  371.52   17.78
   3   7  -1  341.76   19.28
   3  -7  -1  346.68   19.57
   3   7  -1  321.45   17.78
   3  -7   0  211.31   13.09
   3   7   0  252.68   16.12
   3  -7   0  249.25   16.46
   3   7   0  222.86   15.58
  -3   7   0  261.43   16.91
   3  -7   1  308.10   15.63
   3   7   1  333.23   18.33
  -3   7   1  368.67   20.15
   3  -7   1  363.44   19.63
   3   7   1  374.52   20.25
  -3   7   2  106.82   11.12
   3  -7   2  102.20    8.99
   3   7   2  107.03   10.99
   3   7   2   97.61   10.25
   3  -7   2   90.60   10.09
   3  -7   3  128.44   11.49
   3   7   3  174.98   14.10
   3   7   3  156.04   12.89
   3  -7   3  160.00   10.97
  -3   7   3  171.99   13.72
   3  -7   4  148.16   10.31
   3   7   4  171.35   13.79
  -3   7   4  167.07   13.88
   3  -7   4  153.70   12.65
   3   7   4  180.32   14.02
   3   7   5   37.00    6.71
   3   7   5   39.01    6.25
   3  -7   5   36.63    5.95
  -3   7   5   37.42    6.93
   3  -7   5   36.73    5.45
   3  -7   6   82.44    9.07
  -3   7   6   75.15    9.43
   3   7   6   78.21    9.50
   3   7   6   95.39   10.47
   3   7   7   47.12    7.23
   3   7   7   54.67    8.32
  -3   7   7   54.07    8.04
   3  -7   7   47.44    6.98
   3   7   8   19.28    4.92
  -3   7   8   25.23    5.40
   3   7   8   20.96    4.78
   3  -7   8   18.88    4.77
  -3   7   9  174.50   14.44
   3   7   9  157.64   13.43
   3  -7   9  149.60   12.57
   3   7   9  149.96   13.15
   3   7  10   48.82    7.93
   3   7  10   46.58    7.68
   3  -7  10   40.61    6.88
  -3   7  10   37.51    6.83
  -3   7  11    5.15    3.22
   3  -7  11    4.20    2.95
   3   7  11    3.34    2.41
   3   7  11    4.35    3.87
   3  -7  12   22.72    5.16
   3   7  12   10.52    3.58
   3   7  12   25.89    5.91
  -3   7  12   32.22    6.65
   3   7  13  107.15   11.67
  -3   7  13   70.99    9.74
   3   7  13  100.28   11.34
  -3   7  14   25.19    5.31
   3   7  14   25.87    5.88
   3   7  14   37.80    6.99
  -3   7  15   18.57    4.99
   3   7  15   15.55    4.55
   3   7  15   17.25    4.36
   3   7  16   64.10    9.42
  -3   7  16   93.14   11.37
   3   7  16   81.57   10.42
   3   7  17   48.58    8.36
   3   7  17   36.49    6.93
  -3   7  17   41.06    8.29
  -3   7  18   -1.11    2.68
   3   7  18    3.75    3.24
   3   7  18    4.36    3.61
   3   7  19   55.16    9.14
   3   7  19   54.55    8.84
  -3   7  19   54.34    9.41
  -3   7  20   12.74    4.26
   3   7  20    8.15    4.50
   3   7  20   13.68    4.60
  -3   7  21   11.05    4.29
  -3   7  21    4.72    4.41
   3   7  21    7.26    4.08
  -3   7  22   23.49    6.99
  -3   7  22   31.37    7.35
   3   7  22   20.95    5.61
  -3   7  23   19.70    5.39
   3   7  23   25.52    7.76
   3   7  24   22.16    6.81
  -3   7  24   13.12    5.14
  -3  -8 -22   -2.28    3.61
   3  -8 -22    4.83    4.01
  -3  -8 -21    1.21    3.71
   3  -8 -21    2.09    2.11
  -3  -8 -20   13.00    5.81
   3  -8 -20    3.69    3.36
  -3  -8 -19   15.55    5.74
   3  -8 -19   11.08    4.55
  -3  -8 -18   -0.84    2.83
   3  -8 -18    4.81    3.63
   3  -8 -17   20.24    5.36
  -3  -8 -17   13.35    5.50
  -3  -8 -16   11.04    4.61
   3  -8 -16   11.27    4.50
   3  -8 -15   15.63    4.99
  -3  -8 -15   18.02    5.67
   3  -8 -15   27.83    6.65
   3  -8 -14    7.53    2.79
   3  -8 -14   13.56    3.47
  -3  -8 -13   66.73    9.08
   3  -8 -13   76.10   10.22
   3  -8 -13   79.58   10.43
   3   8 -13   85.08   11.18
   3  -8 -12   20.90    5.53
  -3  -8 -12   21.85    5.81
   3   8 -12   20.94    5.89
   3  -8 -12   16.57    4.74
   3  -8 -11    1.09    1.59
  -3  -8 -11   -0.02    2.28
   3   8 -11   -0.02    2.99
   3  -8 -11    0.19    1.76
   3  -8 -10   14.97    5.04
   3   8 -10    8.64    3.31
  -3   8 -10   18.51    5.37
  -3  -8 -10   18.09    4.98
   3  -8 -10   10.47    3.50
   3  -8  -9   45.62    7.80
  -3  -8  -9   38.58    6.28
  -3   8  -9   36.48    6.68
   3  -8  -9   45.20    7.09
   3   8  -9   53.72    8.55
   3  -8  -8   15.77    4.36
  -3   8  -8   22.99    5.66
   3   8  -8   14.91    4.66
   3  -8  -8   11.38    4.46
  -3  -8  -8   19.27    5.06
   3   8  -7   33.15    6.41
   3  -8  -7   11.13    4.02
   3  -8  -7   34.44    6.60
  -3   8  -7   21.66    6.04
   3  -8  -6    7.76    4.09
  -3   8  -6    2.38    3.12
   3   8  -6    2.79    2.04
   3  -8  -6    1.11    2.18
   3   8  -6    3.05    2.68
   3   8  -5   18.11    4.64
   3   8  -5   14.66    5.39
  -3   8  -5   12.58    3.99
   3  -8  -5    6.86    3.50
   3  -8  -5   20.00    5.05
   3   8  -4   42.72    7.07
  -3   8  -4   61.47    8.93
   3  -8  -4   56.35    8.30
   3   8  -4   42.81    7.88
   3  -8  -4   42.43    7.03
   3   8  -3   32.07    6.80
  -3   8  -3   19.15    4.87
   3   8  -3   22.31    5.17
   3  -8  -3   27.13    5.66
   3  -8  -3   36.29    6.46
   3  -8  -2    3.39    1.89
   3   8  -2    0.82    2.12
  -3   8  -2    2.51    2.65
   3   8  -2    2.95    2.69
   3  -8  -2    8.43    3.57
   3   8  -1   43.64    7.00
  -3   8  -1   39.03    6.49
   3  -8  -1   38.64    6.27
   3  -8  -1   34.80    6.40
   3  -8   0    4.54    2.73
   3   8   0    8.40    4.01
  -3   8   0    8.48    3.99
   3   8   0   -1.19    2.32
   3  -8   1   40.32    7.10
  -3   8   1   46.63    7.67
   3   8   1   51.77    7.76
   3   8   1   44.32    7.24
   3  -8   2    5.85    3.84
   3   8   2   10.47    3.97
  -3   8   2    5.33    2.66
   3   8   2    5.71    2.76
   3  -8   3   37.15    7.48
   3   8   3   30.92    6.12
   3   8   3   27.30    6.36
  -3   8   3   34.20    7.02
   3   8   4   57.72    8.80
   3   8   4   43.50    7.64
  -3   8   4   49.12    8.44
   3  -8   4   48.08    7.46
   3  -8   5   14.99    4.89
  -3   8   5   22.81    5.34
   3   8   5   19.25    5.85
   3   8   5   14.67    5.26
  -3   8   6    6.34    2.84
   3   8   6    4.76    2.61
   3  -8   6    3.59    3.08
   3   8   6    3.68    3.31
   3  -8   7   25.91    5.71
   3   8   7   28.27    6.48
  -3   8   7   29.31    5.92
   3   8   7   16.86    5.31
   3   8   8    8.22    3.40
   3  -8   8   13.79    4.29
  -3   8   8   16.16    4.01
   3   8   8   17.11    4.57
   3   8   9   40.34    7.25
   3   8   9   39.14    7.71
  -3   8   9   40.04    7.93
   3  -8   9   41.39    7.04
   3   8  10   24.22    6.24
  -3   8  10   19.08    5.18
   3  -8  10   20.71    5.36
   3   8  10   15.29    5.19
  -3   8  11    4.99    2.87
   3   8  11    6.62    4.32
   3   8  11    3.08    2.85
   3  -8  11    3.29    2.47
  -3   8  12   26.67    6.03
   3   8  12   14.34    4.96
   3   8  12   28.57    6.41
   3   8  13   76.45   10.45
   3   8  13   90.70   11.40
  -3   8  13   72.16   10.37
   3   8  14   15.28    5.44
   3   8  14   12.59    4.08
  -3   8  14    4.14    2.40
   3   8  15   17.44    5.94
   3   8  15   34.95    7.46
  -3   8  15   29.65    6.72
   3   8  16    2.07    2.83
   3   8  16   10.33    4.27
  -3   8  16   10.66    3.83
   3   8  17    8.51    3.93
  -3   8  17    9.65    4.85
   3   8  17    5.56    3.90
  -3   8  18    6.19    3.99
   3   8  18   -5.01    4.94
   3   8  18    6.93    3.95
   3   8  19    4.93    3.19
  -3   8  19   14.59    5.16
   3   8  19    4.24    3.36
  -3   8  20    1.24    2.33
  -3   8  20    2.60    2.80
   3   8  20    4.89    3.63
   3   8  20    2.87    3.58
  -3   8  21    6.84    4.64
  -3   8  21    5.92    4.16
   3   8  21    5.38    4.53
   3   8  22    1.19    1.91
  -3   8  22   13.32    5.20
  -3   8  22    9.64    5.12
   3  -9 -19   19.78    7.02
  -3  -9 -19   17.65    4.15
   3  -9 -18   -5.74    4.08
  -3  -9 -18   15.38    4.72
   3  -9 -17    6.36    3.87
  -3  -9 -17    0.61    3.60
  -3  -9 -16   16.14    6.18
   3  -9 -16   18.94    5.23
   3  -9 -15   21.62    5.97
  -3  -9 -15   14.44    4.23
   3  -9 -14   11.82    3.91
  -3  -9 -14    5.92    2.32
   3  -9 -14   13.31    4.49
   3  -9 -13   17.41    5.10
   3  -9 -13   21.51    5.92
   3  -9 -12    4.50    2.57
   3   9 -12    2.36    4.40
   3  -9 -12    4.02    3.13
   3  -9 -11   11.30    4.48
   3   9 -11   11.41    5.36
   3  -9 -11    9.40    4.25
   3   9 -10   37.59    7.56
  -3   9 -10   13.28    6.21
   3  -9 -10   37.24    7.40
   3  -9 -10   31.03    6.81
   3   9  -9  100.71   12.03
  -3   9  -9   98.05   11.50
   3  -9  -9  129.06   12.82
   3  -9  -9   92.84   10.98
  -3   9  -8   37.32    7.71
   3   9  -8   39.44    7.44
   3  -9  -8   40.26    7.81
   3  -9  -8   38.20    7.08
   3   9  -7   78.22   10.60
  -3   9  -7   75.23   10.59
   3  -9  -7   93.72   11.74
   3  -9  -7   84.07    9.96
   3   9  -6   82.37   10.76
  -3   9  -6   67.30    9.76
   3  -9  -6   64.06    8.83
   3  -9  -6   72.45    9.80
  -3   9  -5   56.92    9.31
   3  -9  -5   86.42   10.50
   3   9  -5   64.34   10.05
  -3   9  -4   94.29   11.98
   3  -9  -4  114.41   12.41
   3   9  -4   88.59   10.65
   3  -9  -3  169.17   14.90
   3   9  -3  134.74   13.29
  -3   9  -3  165.25   15.09
   3   9  -3  160.43   14.28
  -3   9  -2   40.68    7.86
   3   9  -2   40.53    7.61
   3  -9  -2   29.34    6.95
   3   9  -2   37.39    6.88
   3   9  -1   77.12   10.32
  -3   9  -1  104.83   12.00
   3  -9  -1   90.24   10.87
   3   9   0   55.33    8.50
   3   9   0   54.44    8.89
  -3   9   0   70.69    9.77
   3  -9   0   51.78    8.57
   3   9   1  107.17   11.82
  -3   9   1  101.96   11.53
   3  -9   1   97.04   11.36
   3   9   1   98.56   11.40
   3  -9   2   27.46    7.05
  -3   9   2   26.87    6.57
   3   9   2   34.23    7.34
   3   9   2   27.06    6.48
   3   9   3  163.21   14.57
   3   9   3  161.74   14.66
   3  -9   3  147.78   14.34
  -3   9   3  130.10   13.16
   3   9   4   87.24   10.65
   3   9   4  105.07   12.00
  -3   9   4  101.72   12.31
   3  -9   4   93.15   11.04
   3   9   5   76.94   10.65
  -3   9   5   66.32    9.43
   3  -9   5   78.34   10.19
   3   9   6   66.89    9.81
   3   9   6   72.41    9.85
   3  -9   6   60.34    9.10
  -3   9   6   60.53    9.18
   3   9   7   69.57    9.87
   3   9   7   82.40   10.70
  -3   9   7   70.31    9.96
   3  -9   7   65.98    9.82
  -3   9   8   40.82    7.87
   3   9   8   42.39    7.73
   3   9   8   45.70    8.20
   3  -9   8   38.63    7.69
   3   9   9  108.28   12.40
  -3   9   9   87.61   11.22
   3   9   9  100.22   11.85
   3  -9   9   95.65   11.66
   3   9  10   34.20    6.86
  -3   9  10   26.96    6.88
   3   9  10   38.99    7.91
   3   9  11    9.57    3.98
  -3   9  11    9.97    4.31
   3   9  11    2.16    2.16
   3   9  12   -2.43    1.97
  -3   9  12    2.31    2.17
   3   9  12    2.24    3.45
   3   9  13   21.73    5.96
   3   9  13   19.46    5.54
  -3   9  13   30.65    7.54
   3   9  14   14.39    4.94
  -3   9  14   14.85    4.80
   3   9  14   11.32    4.24
   3   9  15   18.10    5.08
   3   9  15   19.74    5.75
  -3   9  15   16.50    4.22
  -3   9  16    8.19    3.00
   3   9  16    6.36    3.14
   3   9  17   12.09    4.00
   3   9  17    5.03    3.60
  -3   9  17    3.12    3.59
   3   9  18    7.70    4.53
  -3   9  18    0.30    2.81
   3   9  19   31.09    8.50
  -3   9  19   35.28    7.39
   3   9  19   27.97    6.87
  -3   9  19   41.85    9.18
   3 -10 -15   -3.18    4.23
   3 -10 -14    0.79    2.90
   3  10 -12   -3.75    2.53
   3 -10 -12    2.51    3.59
   3  10 -11   40.91    8.07
   3 -10 -11   35.71    7.92
   3 -10 -10    4.34    3.03
   3  10 -10   10.13    4.56
   3  10  -9   35.65    8.11
  -3  10  -9   22.60    8.38
   3 -10  -9   17.83    5.09
  -3  10  -8   33.88    7.37
   3  10  -8   26.98    6.57
   3 -10  -8   44.05    7.78
   3  10  -7    0.68    1.86
  -3  10  -7    1.02    2.83
   3 -10  -7    1.12    2.62
   3  10  -6   16.65    5.99
  -3  10  -6    7.67    4.26
   3 -10  -6    9.99    3.90
   3  10  -5   52.49    8.59
  -3  10  -5   33.40    7.06
   3 -10  -5   38.34    7.51
   3 -10  -4   51.07    9.03
  -3  10  -4   43.77    7.92
   3  10  -4   60.60    9.65
   3  10  -3  126.83   13.38
   3  10  -3  140.46   14.29
  -3  10  -3  129.46   14.13
   3 -10  -3  123.56   13.50
   3  10  -2   18.64    5.68
  -3  10  -2   18.86    6.33
   3 -10  -2   20.37    5.74
   3  10  -2   18.17    4.90
   3  10  -1   15.32    4.75
   3  10  -1    8.25    3.29
  -3  10  -1   10.60    4.39
   3 -10  -1   10.41    3.75
   3  10   0   18.75    6.17
   3  10   0   10.06    3.92
  -3  10   0   12.15    5.09
   3 -10   0   16.75    5.56
   3  10   1   10.86    4.59
   3  10   1   19.02    5.28
  -3  10   1    5.65    3.43
   3 -10   1    6.57    3.65
  -3  10   2   22.41    5.59
   3  10   2   17.36    4.71
   3  10   2   18.86    5.80
   3 -10   2   13.15    3.80
   3  10   3  136.74   14.35
   3 -10   3  119.44   13.55
   3  10   3  158.96   15.22
  -3  10   3  118.66   13.58
  -3  10   4   60.04    9.70
   3  10   4   52.92    8.67
   3  10   4   53.15    8.89
   3 -10   4   54.55    9.16
  -3  10   5   32.45    6.89
   3  10   5   54.11    8.92
   3  10   5   48.01    8.22
   3 -10   5   33.44    7.51
   3  10   6    3.44    4.70
  -3  10   6    3.00    2.59
   3  10   6   14.07    4.95
   3 -10   6    3.59    2.29
   3  10   7    3.64    3.50
  -3  10   7    3.65    3.98
   3  10   7    0.43    2.44
   3 -10   7    3.50    3.43
   3  10   8   34.89    6.97
  -3  10   8   36.82    7.59
   3 -10   8   22.95    6.08
   3  10   8   34.89    7.77
   3  10   9   16.86    5.15
  -3  10   9    4.92    2.85
  -3  10  10   17.89    4.65
   3  10  10   16.91    5.91
   3  10  10    4.70    1.87
   3  10  11   45.16    9.00
  -3  10  11   27.40    6.42
   3  10  11   38.97    7.61
   3  10  12    6.08    3.69
   3  10  12    4.15    3.43
  -3  10  12    1.99    2.95
   3  10  13    5.54    2.97
   3  10  13    5.09    2.31
  -3  10  14    7.56    3.51
   3  10  14    0.27    2.83
   3  10  14    6.78    3.76
  -3  10  15    2.93    3.01
   3  10  15    2.16    2.54
   3  10  15    5.65    4.42
   3  11  -9   11.31    4.55
   3 -11  -9   10.94    3.99
   3  11  -8   25.55    5.85
  -3  11  -8   41.01    9.83
   3 -11  -8   34.45    7.57
  -3  11  -7   32.05    7.64
   3  11  -7   38.34    8.14
   3 -11  -7   21.98    6.87
   3  11  -6    7.86    3.38
   3 -11  -6   10.18    3.87
  -3  11  -6   11.57    4.44
  -3  11  -5    7.12    3.64
   3  11  -5   12.23    4.43
   3 -11  -5   10.21    4.47
   3  11  -4   22.04    6.02
  -3  11  -4   13.33    4.28
   3  11  -3    7.11    3.03
  -3  11  -3    0.85    2.46
   3 -11  -3    7.50    2.94
   3  11  -2    1.40    2.26
  -3  11  -2    8.65    3.57
   3 -11  -2    8.50    3.34
   3  11  -1    2.38    1.79
  -3  11  -1    1.89    2.46
   3 -11  -1    1.34    3.47
   3  11  -1    6.29    3.74
   3  11   0   -0.85    1.75
  -3  11   0    4.92    3.33
   3 -11   0    0.84    2.17
   3  11   0    6.09    4.46
  -3  11   1    3.34    3.44
   3  11   1    8.89    5.15
   3 -11   1   -0.73    3.26
   3  11   1    3.13    2.90
   3  11   2   -0.72    2.73
  -3  11   2   10.83    5.06
   3 -11   2    1.94    2.83
   3  11   2    7.81    4.82
   3  11   3   11.97    4.54
  -3  11   3   13.42    6.07
   3 -11   3    5.62    2.38
   3  11   3    2.46    2.15
   3 -11   4   14.95    4.15
   3  11   4   27.66    6.89
  -3  11   4   20.34    6.19
   3  11   4    6.35    4.36
   3  11   5   13.08    5.58
   3 -11   5   10.22    4.06
  -3  11   5   10.86    4.35
   3  11   5    7.38    4.34
   3  11   6    9.17    5.04
  -3  11   6    7.96    3.91
   3  11   6    3.29    3.38
   3  11   7   41.35    8.39
  -3  11   7   49.72    8.80
   3  11   7   33.97    7.86
   3  11   8   25.73    6.44
   3  11   8   37.04    7.68
  -3  11   8   32.43    6.97
   3  11   9    5.84    3.32
  -3  11   9   14.82    5.63
   3  11   9   10.05    4.31
   4   0 -30    7.19    3.55
   4   0 -29    4.67    3.00
   4   0 -28    5.38    2.71
   4   0 -27   51.32    8.60
   4   0 -26  138.60   13.57
   4   0 -25   20.86    5.49
   4   0 -24   33.85    6.94
   4   0 -23   59.12    8.60
   4   0 -22   90.28   10.08
   4   0 -21  117.75   11.41
   4   0 -20  121.58   11.13
   4   0 -19  152.95   12.45
   4   0 -18  187.62   13.43
   4   0 -17  791.22   26.87
   4   0 -16  187.81   12.63
   4   0 -15  279.63   15.07
   4   0 -14  264.74   14.05
   4   0 -14  235.28    9.36
   4   0 -13  143.81   10.18
   4   0 -13  149.31    7.35
   4   0 -12  133.27    6.88
   4   0 -12  141.37    9.75
   4   0 -11 1453.18   30.63
   4   0 -11 1330.77   21.60
   4   0 -10  119.02    8.54
   4   0 -10  103.72    5.89
   4   0  -9 1305.50   20.59
   4   0  -9 1197.59   26.23
   4   0  -8  359.75   10.60
   4   0  -8  337.09   13.24
   4   0  -7   60.21    5.37
   4   0  -7   60.97    4.30
   4   0  -7   55.27    5.09
   4   0  -6  175.27    7.38
   4   0  -6  166.71    8.67
   4   0  -6  157.39    8.39
   4   0  -5  371.24   10.69
   4   0  -5  377.39   12.62
   4   0  -5  379.85   12.79
   4   0  -4  165.19    7.05
   4   0  -4  158.99    8.18
   4   0  -4  157.94    8.08
   4   0  -3 1663.91   22.71
   4   0  -3 1639.94   25.38
   4   0  -3 1690.19   25.49
   4   0  -2 1109.49   20.31
   4   0  -2 1117.93   19.21
   4   0  -2 1132.17   20.47
   4   0  -1  616.24   14.14
   4   0  -1  594.53   14.84
   4   0  -1  603.29   14.54
   4   0   0  750.81   16.03
   4   0   0  765.25   16.09
   4   0   1  572.36   14.26
   4   0   1  592.58   13.83
   4   0   2 1096.78   20.15
   4   0   2 1065.48   18.14
   4   0   3 1679.48   22.00
   4   0   3 1642.52   25.45
   4   0   4  144.70    7.86
   4   0   4  154.95    6.50
   4   0   5  385.08   13.13
   4   0   5  379.13    9.91
   4   0   6  202.41    9.78
   4   0   6  163.08    6.34
   4   0   7   55.11    5.19
   4   0   7   44.04    3.17
   4   0   8  353.26    8.65
   4   0   8  374.43   13.82
   4   0   9 1298.78   26.51
   4   0   9 1269.35   15.75
   4   0  10   97.01    4.15
   4   0  10  104.16    7.74
   4   0  11 1303.28   27.97
   4   0  11 1241.17   13.76
   4   0  12  136.73    9.21
   4   0  13  141.59    9.68
   4   0  14  243.82   13.01
   4   0  15  303.11   15.07
  -4   0  16  156.70    8.08
   4   0  16  181.25   11.81
   4   0  17  816.40   25.77
   4   0  18  211.84   13.58
   4   0  19  169.26   12.39
   4   0  20  143.01   11.68
   4   0  21   95.73    9.97
   4  -1 -30   -0.97    2.69
   4  -1 -29    1.71    2.63
   4  -1 -28    5.61    1.87
   4   1 -27    1.97    3.01
   4  -1 -27    6.94    4.56
   4   1 -26    8.62    4.33
   4  -1 -26    1.24    1.90
   4  -1 -25    9.80    4.21
   4   1 -25    9.24    3.22
   4   1 -24   59.66    8.47
   4  -1 -24   56.29    8.62
   4   1 -23    9.46    4.34
   4  -1 -23   10.04    3.74
   4  -1 -22   21.72    4.99
   4   1 -22    8.12    3.73
   4  -1 -21   10.45    3.92
   4   1 -21    6.92    2.66
   4  -1 -20    1.92    2.10
   4   1 -20    7.24    3.25
   4   1 -19   51.64    7.23
   4  -1 -19   58.63    7.83
   4   1 -18   76.36    8.18
   4  -1 -18   82.20    9.08
   4   1 -17   24.12    4.65
   4  -1 -17   29.78    5.61
   4   1 -16  337.11   16.65
   4  -1 -16  350.60   17.80
   4  -1 -16  314.10   13.79
   4  -1 -15    7.71    2.33
   4  -1 -15   10.31    3.43
   4   1 -15    4.33    1.63
   4  -1 -14   39.07    6.02
   4   1 -14   48.70    6.04
   4  -1 -14   51.61    5.42
   4   1 -13   65.11    6.84
   4   1 -13   61.56    6.09
   4  -1 -13   53.84    5.68
   4  -1 -13   68.01    7.68
   4   1 -12   71.02    6.92
   4  -1 -12   71.49    6.07
   4   1 -12   61.08    3.03
   4   1 -12   76.37    6.63
   4  -1 -11  112.14    8.96
   4  -1 -11  116.35    7.59
   4   1 -11  122.25    4.48
   4   1 -11  125.14    8.43
   4   1 -11  114.41    8.00
   4   1 -10  796.02   20.44
   4  -1 -10  729.72   22.42
   4   1 -10  755.48   20.11
   4  -1 -10  802.17   19.62
   4   1 -10  746.57   11.32
   4   1  -9    5.70    1.86
   4  -1  -9    7.36    1.81
   4  -1  -9    3.44    1.53
   4   1  -9    7.51    1.20
   4   1  -9   10.58    2.62
   4   1  -8  230.73   10.09
   4   1  -8  213.86    6.56
   4  -1  -8  222.56    9.98
   4   1  -8  219.82   10.41
   4  -1  -8  219.44   11.42
   4   1  -7   56.01    4.73
   4   1  -7   60.25    3.62
   4  -1  -7   49.52    4.73
   4  -1  -7   59.70    5.82
   4   1  -7   53.00    5.00
   4  -1  -6  148.00    7.87
   4   1  -6  140.35    7.24
   4   1  -6  134.98    5.53
   4  -1  -6  129.24    8.28
   4   1  -6  143.73    8.16
   4   1  -5  112.76    5.17
   4   1  -5  108.11    6.27
   4   1  -5  117.29    7.09
   4  -1  -5  113.38    6.94
   4  -1  -5  108.05    7.40
   4   1  -4  441.08   12.06
   4  -1  -4  439.97   14.67
   4   1  -4  438.61   10.78
   4  -1  -4  461.88   13.70
   4   1  -4  451.38   13.91
   4   1  -3   46.94    3.86
   4  -1  -3   53.08    5.06
   4  -1  -3   47.51    4.38
   4   1  -3   50.40    4.64
   4   1  -3   46.19    3.55
   4   1  -2   90.28    5.32
   4   1  -2   90.48    5.35
   4   1  -2   91.03    6.03
   4  -1  -2   93.38    6.10
   4  -1  -2   82.07    6.00
   4  -1  -1   22.69    2.90
   4   1  -1   21.35    3.00
   4  -1  -1   24.12    3.09
   4   1   0  235.78    9.31
   4   1   0  266.18    9.63
   4  -1   0  260.69   10.13
   4  -1   0  273.99   10.68
   4   1   1   24.43    3.16
   4   1   1   20.38    2.81
   4   1   2   82.13    5.52
   4   1   2   93.80    6.12
   4  -1   2   91.97    6.08
   4   1   3   41.53    4.10
   4  -1   3   52.23    4.56
   4   1   3   46.96    4.11
   4   1   4  455.32   12.53
   4   1   4  434.84   13.96
   4  -1   4  427.84   13.45
   4   1   5  118.61    6.35
   4   1   5  104.65    7.16
   4  -1   5  106.08    6.93
   4   1   6  129.39    8.12
   4   1   6  130.95    6.61
   4  -1   6  122.18    7.42
   4   1   7   55.62    4.32
   4  -1   7   59.64    5.46
   4   1   7   56.37    5.43
   4   1   8  234.07   11.36
   4   1   8  206.54    8.29
   4  -1   8  221.21   10.48
   4   1   9    8.35    1.59
   4  -1   9    7.23    2.07
   4   1   9   11.05    2.34
   4  -1  10  753.06   20.31
   4   1  10  774.86   21.86
   4   1  10  763.65   15.87
   4  -1  11  121.68    8.36
   4   1  11  119.79    6.26
   4   1  11  117.96    8.92
   4   1  12   75.66    4.98
   4   1  12   77.32    7.34
   4  -1  12   72.91    6.74
   4   1  13   57.24    4.24
   4   1  13   62.57    6.79
   4  -1  13   46.11    5.48
   4   1  14   42.40    5.65
   4   1  14   44.89    3.67
   4  -1  14   50.30    5.57
   4   1  15   10.31    3.10
   4  -1  15    7.57    2.48
   4   1  15    6.55    1.56
   4   1  16  328.33   16.43
   4  -1  16  322.93   15.46
   4  -1  17   20.29    3.71
   4   1  17   20.76    4.15
   4   1  18   81.31    8.36
   4  -1  18   69.37    7.69
  -4   1  18   67.58    6.95
   4   1  19   50.88    7.21
   4  -1  19   52.72    6.95
   4  -1  20    2.26    2.13
   4   1  20    5.44    2.72
   4   1  21   14.85    4.17
   4   1  22   21.34    4.56
   4   1  23    9.03    4.06
   4  -2 -30    0.17    3.52
   4  -2 -29    4.85    3.26
   4  -2 -28    1.39    2.71
   4  -2 -27   88.48   11.33
   4  -2 -26   66.92    9.70
   4  -2 -25   71.20   10.07
   4  -2 -24   10.98    4.15
   4  -2 -23    4.19    3.87
   4   2 -22   68.87    9.10
   4  -2 -22   55.19    8.31
   4   2 -21   74.72    9.04
   4  -2 -21   80.55    9.51
   4   2 -20    0.97    1.36
  -4  -2 -20    2.09    1.71
   4  -2 -20    3.38    2.43
   4   2 -19  121.94   10.96
   4  -2 -19  156.56   12.78
  -4  -2 -19  148.75   12.83
   4  -2 -18   20.27    4.69
  -4  -2 -18   12.84    4.12
   4   2 -18   13.85    3.61
  -4  -2 -17   21.22    4.50
   4   2 -17   12.95    3.43
   4  -2 -17    6.96    2.61
   4  -2 -17   14.99    4.48
   4   2 -17   17.80    3.74
   4   2 -16  278.51   14.42
   4   2 -16  295.26   14.52
  -4  -2 -16  283.22   16.71
   4  -2 -16  267.56   14.23
   4  -2 -16  247.06   15.36
   4  -2 -15  150.83   10.51
  -4  -2 -15  158.08   12.18
   4   2 -15  145.93   10.07
   4   2 -15  127.77    9.35
   4  -2 -15  137.39   11.63
   4  -2 -14   55.68    6.86
  -4  -2 -14   52.22    7.04
   4   2 -14   57.42    6.23
   4  -2 -14   51.92    6.17
   4   2 -14   55.92    6.26
   4   2 -13  140.90    9.18
  -4  -2 -13  123.75   10.13
   4  -2 -13  132.51   10.77
   4  -2 -13  144.62   10.22
   4   2 -13  128.72    9.24
   4  -2 -12  251.46   13.04
  -4  -2 -12  283.15   14.92
   4  -2 -12  286.90   15.44
   4   2 -12  231.02   11.93
   4   2 -12  257.73   11.82
   4  -2 -11   53.64    6.08
  -4   2 -11   48.25    2.87
   4  -2 -11   52.64    6.87
   4   2 -11   65.69    5.71
  -4  -2 -11   49.63    5.98
   4   2 -11   56.60    6.06
  -4  -2 -10  281.08   14.13
   4   2 -10  282.51   11.25
  -4   2 -10  278.10    7.70
   4  -2 -10  309.19   15.11
   4  -2 -10  291.71   13.62
   4   2 -10  286.05   13.15
   4   2  -9   89.47    3.26
  -4   2  -9   98.88    4.83
   4  -2  -9  110.03    8.81
   4   2  -9  108.31    6.57
   4  -2  -9  101.09    7.79
   4   2  -9   87.89    7.02
   4  -2  -8   26.64    4.08
   4   2  -8   22.71    2.90
   4   2  -8   27.38    3.82
   4  -2  -8   19.73    3.32
   4   2  -8   23.28    1.99
   4  -2  -7    4.68    1.91
   4   2  -7    4.32    1.93
   4   2  -7    6.59    1.16
   4   2  -7    6.71    1.59
   4  -2  -7    8.51    2.56
   4   2  -6    8.37    2.01
   4  -2  -6    4.92    1.63
   4   2  -6    6.02    1.30
   4  -2  -6    4.93    1.70
   4   2  -6    4.92    1.37
   4   2  -5   42.47    3.45
   4   2  -5   46.91    3.54
   4  -2  -5   45.05    5.07
   4   2  -5   39.04    4.50
   4  -2  -5   34.36    4.35
   4  -2  -4  901.59   22.34
   4   2  -4  911.04   16.52
   4  -2  -4  893.98   21.77
   4   2  -4  897.54   14.99
   4  -2  -3  262.18   11.59
   4   2  -3  278.74   11.67
   4   2  -3  292.87    8.59
   4   2  -3  296.04    9.85
   4  -2  -3  276.97   12.34
   4  -2  -2  142.83    8.47
   4  -2  -2  136.52    8.41
   4   2  -2  117.52    7.51
   4   2  -2  119.48    6.72
   4   2  -1   77.98    6.19
   4  -2  -1   85.18    6.60
   4   2  -1   78.12    5.39
   4  -2  -1   77.63    6.26
   4  -2   0  106.83    7.20
   4  -2   0   92.54    6.82
   4   2   0  104.43    7.01
   4   2   0   99.21    6.36
   4  -2   1   85.71    6.51
   4   2   1   74.80    5.92
   4  -2   1   60.34    5.42
   4   2   1   75.18    5.78
   4   2   2  123.31    7.61
   4  -2   2  142.93    8.33
   4  -2   2  135.28    8.03
   4   2   2  117.75    7.40
   4   2   3  270.19   11.45
   4   2   3  263.57   10.91
   4  -2   3  280.12   11.76
   4   2   4  888.56   20.47
   4  -2   4  914.06   21.22
   4   2   4  944.95   22.02
   4  -2   5   33.54    4.21
   4   2   5   33.12    3.94
   4   2   6    6.10    1.84
   4  -2   6    7.71    2.02
   4   2   6    2.59    1.96
   4  -2   7    5.13    1.86
   4   2   7    4.83    1.84
   4   2   7    7.94    1.85
   4  -2   8   21.98    3.52
   4   2   8   18.25    3.29
   4   2   8   21.11    3.12
   4  -2   9   97.99    7.39
   4   2   9   99.09    6.86
   4   2   9   90.84    7.88
   4   2  10  272.16   11.25
   4   2  10  296.07   14.35
   4  -2  10  300.12   13.03
   4   2  11   55.49    5.13
   4   2  11   55.36    6.34
   4  -2  11   71.27    6.38
   4  -2  12  237.62   12.03
   4   2  12  254.49   11.12
   4   2  12  262.85   14.25
   4  -2  13  119.04    8.76
   4   2  13  137.00   10.34
   4   2  13  147.26    8.61
   4  -2  14   60.13    6.39
   4   2  14   57.71    5.38
   4   2  14   57.43    7.07
   4   2  15  139.83   11.57
   4  -2  15  157.42   10.40
   4   2  15  137.09    8.46
   4   2  16  248.85   11.61
   4  -2  16  262.90   13.85
   4   2  17    9.69    3.34
   4  -2  17   19.47    3.91
   4  -2  18   14.68    3.52
   4   2  18   29.75    5.71
   4   2  19  141.79   11.96
   4  -2  19  145.06   10.84
   4   2  20   11.78    4.18
  -4   2  20    6.58    2.70
   4   2  21   65.93    8.72
   4   2  22   59.86    8.48
   4   2  23    2.25    2.60
   4   2  24    4.23    2.60
   4  -3 -29    7.74    3.57
   4  -3 -28    9.14    5.42
   4  -3 -27    9.64    3.67
   4  -3 -26   -1.42    2.52
   4  -3 -25    2.38    2.95
   4  -3 -24    4.04    2.47
   4  -3 -23    7.54    3.32
  -4  -3 -23    6.38    3.82
   4  -3 -22    3.60    3.13
  -4  -3 -22    3.49    2.51
  -4  -3 -21    5.85    2.92
   4  -3 -21   -2.37    2.65
  -4  -3 -20    2.72    2.56
   4  -3 -20   -1.34    2.12
  -4  -3 -19    4.41    1.74
   4  -3 -19    5.63    3.12
   4  -3 -18    7.01    2.41
  -4  -3 -18    8.26    3.34
   4  -3 -18   10.22    3.25
   4   3 -17   -4.01    1.74
   4  -3 -17   36.26    6.31
  -4  -3 -17   40.03    6.67
   4  -3 -17   34.48    5.91
   4   3 -17   -0.11    1.85
  -4  -3 -16   13.99    4.12
   4   3 -16   13.84    3.35
   4  -3 -16   16.43    4.29
   4  -3 -16   17.03    4.01
   4   3 -16   20.00    3.75
   4  -3 -15   82.91    8.81
   4   3 -15   64.84    6.97
  -4  -3 -15   67.78    7.79
   4   3 -15   63.45    6.47
   4  -3 -15   62.63    7.48
   4   3 -14    2.80    2.23
   4   3 -14    4.40    2.22
  -4  -3 -14    1.69    2.36
   4  -3 -14   -0.28    2.05
   4  -3 -14    6.97    2.57
   4   3 -13   38.43    5.43
   4  -3 -13   37.04    5.66
  -4  -3 -13   30.11    5.04
   4   3 -13   29.47    4.06
   4  -3 -13   24.06    4.55
  -4   3 -12   41.95    3.89
   4  -3 -12   44.18    6.58
  -4  -3 -12   49.75    6.47
   4  -3 -12   47.69    6.26
   4   3 -12   38.82    5.31
   4   3 -12   44.40    4.54
   4   3 -11   15.74    3.20
   4  -3 -11    7.99    3.14
   4   3 -11   12.48    2.36
  -4   3 -11    9.42    1.86
   4  -3 -11   16.73    3.92
  -4  -3 -11   11.93    3.38
   4   3 -10   19.70    3.76
  -4   3 -10   20.11    2.80
   4   3 -10   16.99    2.59
   4  -3 -10   20.01    4.58
   4   3 -10   16.43    1.43
   4  -3 -10   17.42    3.40
  -4  -3 -10   28.01    4.53
   4   3  -9   49.12    3.21
  -4  -3  -9   39.68    5.38
  -4   3  -9   50.91    4.65
   4  -3  -9   42.91    5.63
   4   3  -9   55.19    5.83
   4  -3  -9   41.62    5.56
   4   3  -9   47.67    3.83
   4   3  -8    5.64    1.22
  -4   3  -8    3.77    1.11
   4  -3  -8    4.87    2.53
   4   3  -8    4.36    1.90
  -4  -3  -8    4.91    1.78
   4   3  -8    4.10    1.05
   4  -3  -8    7.47    2.02
   4   3  -7   58.43    4.11
  -4  -3  -7   54.83    5.64
   4   3  -7   51.88    3.32
  -4   3  -7   61.24    5.11
   4  -3  -7   61.59    6.53
   4  -3  -7   48.74    5.77
   4   3  -7   53.22    6.10
   4   3  -6  437.56   12.32
  -4  -3  -6  443.64   15.73
   4  -3  -6  452.56   17.46
   4   3  -6  441.17    8.86
   4   3  -6  457.31   16.86
   4  -3  -6  418.12   16.82
   4   3  -5   56.52    5.99
   4   3  -5   61.63    3.11
   4  -3  -5   73.77    7.07
   4   3  -5   59.85    4.63
   4  -3  -5   61.89    6.43
   4  -3  -4   20.17    3.94
   4   3  -4   21.86    3.80
   4  -3  -4   19.28    3.52
   4   3  -4   18.55    1.79
   4   3  -4   19.47    2.86
   4   3  -3   79.79    5.84
   4   3  -3   68.19    6.31
   4  -3  -3   76.97    6.83
   4  -3  -3   78.57    6.92
   4   3  -3   69.06    3.69
   4   3  -2   66.57    5.41
   4   3  -2   64.93    6.37
   4  -3  -2   69.62    6.55
   4  -3  -2   66.38    6.32
   4   3  -1  133.51    8.97
   4  -3  -1  135.92    8.87
   4   3  -1  132.68    8.07
   4  -3  -1  144.06    9.40
   4  -3   0  442.05   16.21
   4   3   0  444.96   16.17
   4   3   0  444.52   14.97
   4  -3   0  436.98   15.75
   4  -3   1  143.54    9.16
   4   3   1  136.91    8.96
   4   3   1  136.52    8.56
   4  -3   1  155.46    9.33
   4  -3   2   66.81    6.21
   4  -3   2   67.06    6.07
   4   3   2   72.70    6.61
   4   3   2   56.43    5.62
   4  -3   3   74.48    6.63
   4   3   3   75.39    6.62
   4   3   3   68.78    6.32
   4  -3   3   74.25    6.62
   4  -3   4   23.35    3.76
   4   3   4   12.54    2.92
   4  -3   4   13.63    2.75
   4   3   4   16.42    2.95
   4  -3   5   64.86    6.34
   4   3   5   62.26    5.93
   4   3   5   59.71    6.30
   4  -3   6  428.28   15.91
   4   3   6  452.43   16.51
   4   3   6  449.26   17.38
   4  -3   7   51.00    5.53
   4   3   7   64.53    6.65
   4   3   7   58.19    5.88
   4  -3   8    3.33    1.53
   4   3   8    4.44    2.18
   4   3   8    2.85    1.24
   4   3   9   43.13    5.84
   4   3   9   41.09    5.00
   4  -3   9   43.70    5.30
   4   3  10   22.23    3.55
   4   3  10   21.83    4.44
   4  -3  10   16.89    3.39
   4   3  11   15.10    3.32
   4   3  11    7.06    1.64
   4  -3  11   16.22    3.09
   4   3  12   41.67    4.95
   4  -3  12   50.83    5.84
   4   3  12   41.62    5.70
   4   3  13   32.22    4.37
   4  -3  13   32.76    4.76
   4   3  13   38.84    5.87
   4  -3  14    0.20    0.98
   4   3  14   -0.73    1.28
   4   3  15   61.63    6.51
   4  -3  15   46.43    5.79
   4   3  15   73.70    8.42
   4   3  16   18.25    3.45
   4   3  16   16.87    4.49
   4  -3  16   17.41    3.88
   4  -3  17   30.36    4.84
   4   3  17   33.57    5.03
   4   3  17   35.49    6.06
   4   3  18    9.62    3.23
   4   3  19    6.50    2.73
   4   3  20    2.23    2.21
   4   3  21    1.72    2.27
  -4   3  21    3.96    2.99
   4   3  22    2.14    2.41
   4   3  23    0.98    1.94
   4   3  24    7.89    3.81
   4   3  25    4.48    3.24
   4  -4 -28    0.52    2.15
   4  -4 -27   19.73    5.75
   4  -4 -26   39.35    7.69
  -4  -4 -25   15.72    3.26
   4  -4 -25   28.99    6.56
  -4  -4 -24   12.37    4.09
   4  -4 -24   14.72    5.13
   4  -4 -23   26.67    6.66
  -4  -4 -23   48.70    8.39
  -4  -4 -22   21.00    5.89
   4  -4 -22   20.59    5.80
  -4  -4 -21  108.42   11.89
   4  -4 -21   81.39   10.51
  -4  -4 -20   50.55    8.34
   4  -4 -20   48.19    7.66
  -4  -4 -19    9.90    3.37
   4  -4 -19   11.38    4.13
   4  -4 -18   10.96    4.02
   4  -4 -18   20.43    5.02
  -4  -4 -18   12.31    4.31
   4  -4 -17    9.08    3.62
   4  -4 -17   11.21    3.49
  -4  -4 -17    5.46    3.74
   4  -4 -16  163.09   13.02
  -4  -4 -16  154.97   12.85
   4  -4 -16  142.54   12.42
   4   4 -16  150.73   11.45
   4  -4 -15  681.27   26.32
   4   4 -15  700.55   24.68
  -4  -4 -15  727.91   27.17
   4  -4 -14  106.40   10.33
  -4  -4 -14  100.65   10.04
   4  -4 -14  137.48   11.90
   4   4 -14  126.59   10.11
  -4  -4 -13   56.87    7.55
   4  -4 -13   59.09    7.64
   4   4 -13   55.95    6.78
   4  -4 -13   54.42    7.42
   4   4 -12  209.06   12.82
   4  -4 -12  198.98   14.03
   4  -4 -12  191.46   13.39
  -4  -4 -12  217.28   13.95
   4   4 -11  201.94   12.59
  -4   4 -11  190.67   10.35
   4  -4 -11  204.02   13.60
   4  -4 -11  172.37   12.42
  -4  -4 -11  188.56   12.59
   4   4 -10  203.53   12.70
  -4   4 -10  190.51   10.33
  -4  -4 -10  205.55   12.89
   4  -4 -10  186.22   12.89
   4  -4 -10  173.38   12.41
   4  -4  -9  102.65    9.73
   4   4  -9  116.10    9.47
  -4   4  -9  128.04    8.69
   4   4  -9  128.46    6.48
   4  -4  -9  123.05   10.15
  -4  -4  -9  131.80    9.93
   4   4  -8   20.79    4.13
  -4  -4  -8   21.77    4.29
  -4   4  -8   18.11    3.05
   4   4  -8   12.77    2.43
   4  -4  -8   19.52    4.12
   4  -4  -8   20.15    4.19
   4   4  -7  196.82    9.37
   4   4  -7  208.84   12.44
  -4  -4  -7  216.40   11.92
  -4   4  -7  207.27   11.12
   4  -4  -7  203.04   12.68
   4  -4  -7  202.25   12.91
   4   4  -6   19.13    4.05
  -4   4  -6   26.02    4.18
  -4  -4  -6   23.44    3.75
   4  -4  -6   28.22    4.47
   4   4  -6   15.77    2.87
   4  -4  -6   16.03    3.60
   4  -4  -5  110.73    9.05
   4   4  -5  109.30    7.45
   4   4  -5  110.26    9.05
  -4  -4  -5  108.95    7.84
   4  -4  -5  101.86    8.98
  -4   4  -5   98.94    7.75
   4  -4  -4  385.91   16.52
   4   4  -4  374.24   16.42
   4   4  -4  354.34   13.78
   4  -4  -4  396.43   17.39
   4   4  -3  130.01    9.59
   4  -4  -3  147.13   10.44
   4   4  -3  147.85    9.29
   4  -4  -3  159.78   10.38
   4   4  -2    9.09    2.08
   4  -4  -2   10.65    2.87
   4   4  -2    8.55    2.80
   4  -4  -2    9.88    2.58
   4  -4  -1    7.81    2.53
   4   4  -1    8.77    2.43
   4  -4  -1    8.02    2.51
   4   4  -1   12.22    3.12
   4   4   0   14.64    2.94
   4   4   0   12.29    3.01
   4  -4   0   15.49    3.17
   4  -4   0   20.29    3.82
   4   4   1    3.50    1.97
   4   4   1    3.32    2.27
   4  -4   1    5.52    2.19
   4  -4   1    7.46    2.71
   4   4   2   12.48    3.08
   4   4   2   11.86    2.92
   4  -4   2   10.62    2.64
   4  -4   2   11.90    2.88
   4   4   3  137.64    9.91
   4  -4   3  147.40    9.53
   4   4   3  143.91    9.95
   4  -4   3  168.40   10.97
   4  -4   4  392.54   16.77
   4   4   4  397.74   16.88
   4   4   4  395.09   17.07
   4  -4   4  395.98   15.54
   4   4   5  107.68    8.93
   4   4   5  106.16    8.84
   4  -4   5  111.03    8.83
   4  -4   5  110.83    8.26
   4   4   6   17.19    3.55
   4   4   6   29.40    4.87
   4  -4   6   21.90    3.88
   4  -4   6   31.47    4.76
   4  -4   7  203.66   12.04
   4   4   7  223.67   12.88
   4   4   7  184.21   12.42
   4  -4   8   21.41    3.76
   4   4   8   17.56    3.91
   4   4   8   25.05    4.61
   4   4   9  135.95   10.26
   4   4   9  113.90    9.85
   4   4  10  186.61   12.14
   4   4  10  181.20   12.63
   4  -4  11  177.60   11.76
   4   4  11  186.07   12.31
   4   4  11  189.16   13.10
   4  -4  12  194.77   12.15
   4   4  12  193.43   13.41
   4   4  12  212.73   13.09
   4  -4  13   61.94    6.97
   4   4  13   57.46    7.12
   4   4  13   55.65    6.86
   4   4  14  118.78   11.20
   4  -4  14  113.38    9.40
   4   4  14  121.07   10.14
   4   4  15  656.65   26.05
   4  -4  15  644.81   22.71
   4   4  15  686.98   24.59
   4   4  16  130.99   11.67
   4  -4  16  152.06   11.01
   4   4  16  158.44   11.92
   4   4  17    8.97    2.77
   4   4  17   10.47    3.52
   4   4  18   13.42    3.85
   4   4  18   17.34    4.90
   4   4  19   16.22    3.91
   4   4  20   53.12    7.58
   4   4  21   84.89   10.45
   4   4  22   28.10    6.25
  -4   4  22   12.70    4.05
  -4   4  22   19.27    5.45
   4   4  23   30.24    6.81
   4   4  24   11.05    4.35
   4   4  25   29.08    7.05
   4   4  26   57.62    9.18
   4  -5 -27    5.41    3.26
   4  -5 -26   -2.49    3.74
  -4  -5 -26   -0.23    2.52
   4  -5 -25    3.29    2.58
  -4  -5 -25   10.86    5.30
   4  -5 -24   35.54    7.61
  -4  -5 -24   26.68    6.43
  -4  -5 -23    4.81    2.30
   4  -5 -23    4.20    2.09
  -4  -5 -22   12.78    5.11
   4  -5 -22   11.08    3.69
  -4  -5 -21    1.14    2.02
   4  -5 -21    2.22    1.94
   4  -5 -20   13.23    4.35
  -4  -5 -20   16.69    4.26
  -4  -5 -19    8.35    3.99
   4  -5 -19   13.31    5.19
   4  -5 -18   26.98    6.23
  -4  -5 -18   25.44    5.73
   4  -5 -18   36.91    6.65
   4  -5 -17   81.42   10.00
   4  -5 -17   93.81   10.41
  -4  -5 -17   83.68    9.83
   4  -5 -16   84.59    9.43
  -4  -5 -16   83.93    9.75
   4  -5 -16  102.50   11.08
  -4  -5 -15  150.97   12.83
   4  -5 -15  183.93   14.29
   4  -5 -15  181.96   14.17
   4   5 -15  153.84   12.70
  -4  -5 -14    9.31    3.30
   4   5 -14   11.94    3.82
   4  -5 -14   13.08    3.77
   4  -5 -14   15.44    4.08
   4  -5 -13  130.92   12.29
   4   5 -13  103.81    9.90
   4  -5 -13  121.89   11.86
  -4  -5 -13  119.34   11.07
   4  -5 -12  137.11   11.98
  -4  -5 -12  145.97   11.90
   4  -5 -12  143.83   12.47
  -4  -5 -11    2.96    2.67
   4   5 -11    4.01    2.37
  -4   5 -11    6.04    3.08
   4  -5 -11    5.63    3.39
   4  -5 -11    4.73    2.42
   4   5 -10   67.04    7.50
   4  -5 -10   76.56    8.59
  -4   5 -10   66.83    7.14
   4  -5 -10   70.19    8.21
  -4  -5 -10   66.02    7.77
   4  -5  -9   30.46    6.07
   4   5  -9   28.34    5.17
   4   5  -9   38.74    4.88
  -4   5  -9   46.54    6.01
  -4  -5  -9   41.34    5.83
   4  -5  -9   30.88    5.66
  -4   5  -8   10.18    2.80
   4   5  -8   11.58    3.04
   4   5  -8   16.62    3.02
  -4  -5  -8   23.81    4.62
   4  -5  -8   14.02    3.37
   4  -5  -8   15.52    3.88
   4   5  -7   35.10    5.55
   4   5  -7   30.03    4.18
  -4  -5  -7   35.58    5.21
  -4   5  -7   33.82    5.19
   4  -5  -7   34.66    5.63
   4  -5  -7   30.56    5.73
   4   5  -6   15.94    3.42
   4  -5  -6   11.15    3.10
   4   5  -6   16.94    3.56
  -4  -5  -6   10.63    2.81
   4  -5  -6   14.00    3.14
  -4   5  -6   11.30    3.25
  -4   5  -5   30.74    4.82
   4   5  -5   25.80    4.49
  -4  -5  -5   33.36    4.52
   4   5  -5   21.42    3.77
   4  -5  -5   23.96    4.48
   4  -5  -5   20.63    4.86
   4   5  -4  112.86    9.90
  -4   5  -4  110.78    9.33
   4   5  -4   99.62    8.21
  -4  -5  -4   98.64    7.60
   4  -5  -4   98.06    8.77
   4  -5  -4   95.07    9.33
   4  -5  -3   29.88    5.14
  -4   5  -3   21.83    4.14
   4   5  -3   36.60    6.03
   4  -5  -3   21.86    4.86
   4   5  -3   22.55    3.91
   4   5  -2    1.14    1.28
  -4   5  -2    3.13    2.27
   4  -5  -2    4.40    2.83
   4  -5  -2    0.84    1.12
   4   5  -2    0.88    0.87
   4   5  -1   78.89    8.10
  -4   5  -1   75.03    7.76
   4  -5  -1   71.52    7.29
   4  -5  -1   70.17    7.70
   4   5  -1   72.16    7.26
   4  -5   0   29.45    4.58
   4   5   0   38.62    5.34
   4   5   0   30.52    4.97
  -4   5   0   26.11    4.68
   4  -5   0   32.35    5.19
   4   5   1   80.54    8.08
   4  -5   1   63.51    6.75
   4   5   1   81.83    7.96
   4  -5   1   73.69    7.79
   4   5   2    3.49    1.76
   4  -5   2    0.81    0.87
   4   5   2    3.33    1.55
   4  -5   2   -0.21    1.41
   4   5   3   30.59    5.23
   4   5   3   26.65    4.72
   4  -5   3   21.58    4.02
   4  -5   3   29.99    5.17
   4   5   4  114.15    9.76
   4  -5   4  103.83    8.70
   4  -5   4  117.26    9.63
   4   5   4  104.01    9.58
   4   5   5   18.86    4.38
   4  -5   5   26.14    4.38
   4   5   5   30.52    5.31
   4  -5   5   24.91    4.72
   4  -5   6   13.54    3.28
   4   5   6   16.37    3.46
   4  -5   6   15.65    3.35
   4   5   6   14.86    4.20
   4   5   7   33.84    5.67
   4   5   7   32.60    5.17
   4  -5   7   32.05    5.24
   4  -5   7   25.42    4.26
   4  -5   8   17.15    3.93
   4   5   8   17.13    3.49
   4   5   8   29.68    4.98
   4  -5   8   24.75    4.37
   4   5   9   38.27    5.95
   4   5   9   41.09    6.17
   4  -5   9   34.46    4.97
   4  -5   9   38.97    5.85
   4   5  10   83.68    8.95
   4   5  10   77.99    9.17
   4  -5  10   86.43    8.27
   4  -5  11    6.61    2.41
   4   5  11    5.40    2.68
   4   5  12  142.17   11.63
   4   5  12  130.32   11.81
   4  -5  12  144.64   11.08
   4   5  13  107.31   10.32
   4   5  13  122.98   11.49
   4  -5  13  108.79    9.57
   4  -5  14   24.03    4.87
   4   5  14   14.82    4.56
   4   5  14   18.25    4.41
   4   5  15  164.17   13.56
   4   5  15  175.06   13.74
   4  -5  15  175.33   12.50
   4   5  16   81.24    9.63
   4   5  16  106.67   10.90
  -4   5  17   90.38   10.41
   4   5  17   97.86   10.29
   4   5  17   91.75   10.35
   4   5  18   30.40    5.97
   4   5  18   25.58    5.73
  -4   5  18   34.03    6.88
   4   5  19    3.94    2.20
   4   5  19    7.82    3.31
  -4   5  19    4.54    3.21
   4   5  20   19.09    5.51
  -4   5  20    5.40    3.52
  -4   5  21   10.22    4.35
   4   5  21    2.32    2.06
  -4   5  22    5.92    3.58
  -4   5  22    1.56    3.14
   4   5  22    7.90    4.64
   4   5  23    3.06    2.80
  -4   5  23   -0.01    2.19
   4   5  24   25.00    6.12
   4   5  25    2.74    3.94
   4   5  26   -1.35    3.17
   4   5  27   -2.87    2.79
  -4  -6 -26   21.22    6.47
   4  -6 -26   25.51    6.63
  -4  -6 -25   14.56    5.30
   4  -6 -25    8.24    2.55
  -4  -6 -24   25.94    6.70
   4  -6 -24   27.09    6.21
  -4  -6 -23   27.06    5.97
   4  -6 -23   28.26    5.97
  -4  -6 -22   27.71    7.05
   4  -6 -22   31.41    6.73
  -4  -6 -21   67.76   10.04
   4  -6 -21   71.67   10.21
  -4  -6 -20  163.03   14.94
   4  -6 -20  171.51   15.10
  -4  -6 -19   12.08    4.47
   4  -6 -19    8.66    4.13
  -4  -6 -18    9.56    2.53
   4  -6 -18    6.78    3.57
   4  -6 -18    8.32    3.19
  -4  -6 -17   88.81   10.45
   4  -6 -17   95.15   11.14
   4  -6 -17   94.24   10.86
   4  -6 -16   26.72    5.82
  -4  -6 -16   33.64    6.27
   4  -6 -16   33.86    6.40
   4  -6 -15  440.71   23.42
   4  -6 -15  447.44   23.19
  -4  -6 -15  430.08   22.57
   4   6 -15  481.61   23.27
  -4  -6 -14  126.09   12.05
   4  -6 -14  111.69   11.74
   4   6 -14  116.50   11.27
   4  -6 -14  122.98   12.25
   4   6 -13   22.56    5.40
  -4  -6 -13   20.77    5.46
   4  -6 -13   27.88    5.46
   4  -6 -13   29.18    5.81
   4   6 -12   44.41    6.92
  -4  -6 -12   39.44    6.56
   4  -6 -12   31.62    6.33
   4  -6 -12   28.91    5.94
   4   6 -11  414.30   20.93
  -4   6 -11  413.90   20.06
  -4  -6 -11  414.80   20.53
   4  -6 -11  421.85   21.93
   4  -6 -11  442.57   22.27
  -4   6 -10   78.80    8.64
  -4  -6 -10  108.78    9.98
   4  -6 -10   97.36   10.37
   4   6 -10  102.18   10.46
   4  -6 -10  118.86   11.23
   4   6  -9  206.25   14.51
   4  -6  -9  183.81   13.85
  -4   6  -9  164.85   12.33
  -4  -6  -9  188.84   12.68
   4  -6  -9  153.25   12.82
   4   6  -8   47.54    6.97
  -4   6  -8   38.16    5.75
  -4  -6  -8   53.66    6.90
   4   6  -8   46.18    6.22
   4  -6  -8   46.07    7.07
   4  -6  -8   49.56    7.51
   4   6  -7   19.89    4.05
   4  -6  -7   22.25    4.68
   4   6  -7   18.91    4.52
  -4  -6  -7   24.65    4.68
  -4   6  -7   17.68    4.68
   4  -6  -7   14.89    4.15
   4   6  -6  201.22   14.09
   4  -6  -6  180.13   13.90
  -4  -6  -6  193.66   12.18
  -4   6  -6  193.39   13.70
   4   6  -6  193.78   12.22
   4  -6  -6  217.85   14.42
   4  -6  -5  277.77   15.98
  -4  -6  -5  257.43   13.62
  -4   6  -5  269.97   16.03
   4   6  -5  259.60   14.35
   4  -6  -5  250.64   15.97
   4   6  -5  265.18   16.17
   4  -6  -4    3.22    2.26
   4   6  -4    8.88    3.73
  -4  -6  -4    7.49    2.47
   4  -6  -4    5.15    2.49
  -4   6  -4    8.76    3.08
   4   6  -4    6.09    2.56
   4  -6  -3  116.28   10.09
   4   6  -3  116.24   10.74
  -4   6  -3  111.45   10.20
   4  -6  -3  132.28   11.54
   4   6  -3  130.18   10.55
  -4   6  -2   14.89    3.64
   4   6  -2   25.54    4.83
   4  -6  -2   21.65    4.73
   4   6  -2   29.63    5.40
   4  -6  -2   23.57    4.54
   4   6  -1  154.48   12.19
  -4   6  -1  166.62   12.74
   4  -6  -1  162.07   12.66
   4   6  -1  149.55   11.51
   4  -6  -1  149.00   10.80
   4   6   0  216.55   14.64
  -4   6   0  206.96   14.26
   4  -6   0  243.52   13.82
   4  -6   0  213.98   14.36
   4   6   0  205.21   13.67
  -4   6   1  177.75   13.13
   4  -6   1  162.05   12.50
   4   6   1  145.45   11.82
   4  -6   1  162.18   11.36
   4   6   1  144.45   11.34
   4   6   2   20.61    4.54
   4  -6   2   23.28    4.46
   4   6   2   21.22    4.61
   4  -6   2   22.86    4.53
  -4   6   2   19.57    4.82
   4   6   3  110.65   10.87
  -4   6   3  122.66   10.88
   4   6   3  134.45   11.46
   4  -6   3  139.96   11.59
   4  -6   3  121.89    9.97
   4   6   4   12.38    4.04
   4   6   4   12.66    4.13
   4  -6   4    3.80    1.45
   4  -6   4    8.54    2.64
  -4   6   4    5.22    3.00
   4   6   5  277.57   16.92
  -4   6   5  250.24   15.89
   4   6   5  265.67   16.35
   4  -6   5  271.96   15.72
   4  -6   5  284.76   15.14
   4   6   6  235.73   15.52
  -4   6   6  185.58   13.96
   4   6   6  212.05   14.83
   4  -6   6  197.61   13.50
   4  -6   6  197.37   12.33
  -4   6   7   12.67    3.87
   4  -6   7   19.94    4.50
   4   6   7   17.75    4.10
   4   6   7   20.12    4.01
   4  -6   7   16.58    3.68
   4   6   8   42.86    6.50
  -4   6   8   61.39    8.07
   4  -6   8   46.06    6.18
   4   6   8   45.58    6.72
   4  -6   8   38.38    6.12
   4   6   9  181.68   13.97
   4  -6   9  161.59   11.50
  -4   6   9  174.52   13.71
   4   6   9  160.38   13.42
   4  -6   9  191.34   13.41
   4   6  10  112.53   11.07
  -4   6  10  111.29   10.77
   4   6  10  113.92   10.95
   4  -6  10   77.28    8.55
   4  -6  10   84.89    8.63
   4  -6  11  385.53   18.80
   4   6  11  438.14   21.91
   4  -6  11  401.69   19.73
   4   6  11  431.83   22.15
  -4   6  11  409.32   21.40
   4   6  12   32.29    6.66
   4   6  12   44.51    6.77
  -4   6  12   39.26    6.95
   4  -6  12   32.50    5.59
   4  -6  12   23.81    5.11
   4  -6  13   15.60    4.05
   4   6  13   27.24    5.76
  -4   6  13   16.53    4.59
   4   6  13   22.54    5.63
   4   6  14   94.07   10.70
   4   6  14  105.14   11.14
  -4   6  14  106.30   11.65
   4  -6  14  117.01   10.84
   4   6  15  390.09   21.77
   4   6  15  468.85   23.85
   4   6  16   23.93    5.71
   4   6  16   19.02    4.98
  -4   6  16   24.45    5.67
   4   6  17   69.99    9.49
   4   6  17   89.74   10.93
  -4   6  17   97.39   11.68
   4   6  18    9.57    3.96
  -4   6  18    8.81    3.86
   4   6  18    9.72    3.92
   4   6  19   14.97    4.72
   4   6  19   14.16    4.97
  -4   6  19    8.17    3.97
   4   6  20  159.54   14.89
  -4   6  20  165.20   15.31
  -4   6  21   70.00    9.93
   4   6  21   69.34    9.68
  -4   6  22   16.81    6.21
  -4   6  22   13.34    4.14
   4   6  22   19.72    6.04
  -4   6  23   34.50    7.48
   4   6  23   34.14    7.54
  -4   6  23   34.91    7.85
  -4   6  24   25.70    7.44
   4   6  24   22.58    5.69
   4   6  25    5.77    4.40
   4   6  26   20.87    6.21
   4  -7 -24   -2.17    3.02
  -4  -7 -24   -3.36    4.14
   4  -7 -23    6.39    3.48
  -4  -7 -23   -0.46    1.73
  -4  -7 -22    5.63    2.79
   4  -7 -22    8.84    4.45
  -4  -7 -21    7.77    4.25
   4  -7 -21    2.43    3.49
   4  -7 -20   21.64    5.82
  -4  -7 -20   16.89    4.88
   4  -7 -19   45.15    8.42
  -4  -7 -19   34.21    7.07
   4  -7 -18   40.10    7.23
  -4  -7 -18   44.32    7.81
   4  -7 -18   44.46    7.81
   4  -7 -17   18.26    4.98
  -4  -7 -17    5.09    4.14
   4  -7 -17   10.34    4.65
  -4  -7 -16   16.68    5.42
   4  -7 -16   29.50    6.31
   4  -7 -16   17.85    6.00
   4  -7 -15   13.81    3.95
  -4  -7 -15   13.00    4.53
   4  -7 -15   13.44    3.72
   4   7 -14    7.95    3.15
  -4  -7 -14   12.09    5.30
   4  -7 -14   20.23    5.62
   4  -7 -14    6.91    3.40
   4   7 -13   74.30    9.34
  -4  -7 -13   57.18    8.43
   4  -7 -13   50.01    7.99
   4  -7 -13   56.96    8.47
   4   7 -12   11.76    3.79
   4  -7 -12   15.10    4.49
   4  -7 -12    9.17    3.97
  -4  -7 -12    7.94    2.98
   4  -7 -11   53.94    8.46
   4   7 -11   40.30    7.34
  -4  -7 -11   39.60    6.44
   4  -7 -11   53.08    8.01
   4   7 -10  102.48   10.81
  -4   7 -10   81.24    9.78
  -4  -7 -10  102.03   10.46
   4  -7 -10   76.52    9.97
   4  -7 -10   73.78    9.48
   4   7  -9   11.25    3.95
  -4  -7  -9    5.18    2.40
  -4   7  -9   14.27    4.21
   4  -7  -9    3.71    3.27
   4  -7  -9   10.07    3.12
  -4   7  -8   87.92   10.11
  -4  -7  -8   71.72    8.34
   4  -7  -8   74.38    9.15
   4   7  -8   97.05   10.50
   4  -7  -8  104.58   11.26
   4  -7  -7    1.63    2.81
   4   7  -7    4.89    3.00
   4   7  -7   11.37    4.66
  -4   7  -7    6.80    2.57
  -4  -7  -7    4.06    2.64
   4  -7  -7   -1.42    2.34
   4   7  -6   34.66    6.11
  -4  -7  -6   27.93    5.02
  -4   7  -6   24.05    5.53
   4  -7  -6   39.40    6.91
   4  -7  -6   18.60    4.46
   4   7  -6   28.56    5.42
   4  -7  -5   21.60    5.21
   4   7  -5   28.08    5.97
  -4  -7  -5   28.19    4.83
   4  -7  -5   21.22    5.25
   4   7  -5   28.45    5.30
  -4   7  -5   26.82    5.44
   4   7  -4   13.23    3.88
  -4   7  -4    7.24    3.44
   4  -7  -4    5.92    2.80
   4  -7  -4   10.68    3.50
   4   7  -4    3.54    2.27
  -4  -7  -4    9.57    2.97
  -4   7  -3   15.29    3.64
   4  -7  -3    9.21    2.43
   4  -7  -3   11.63    3.87
   4   7  -3   18.42    5.09
  -4   7  -2   11.83    3.91
   4   7  -2   12.96    4.48
   4   7  -2    8.68    3.64
   4  -7  -2    4.19    2.47
   4  -7  -2    8.28    3.71
   4   7  -1    6.68    3.40
   4  -7  -1   12.08    3.22
   4   7  -1   12.48    4.43
  -4   7  -1   13.68    4.31
   4  -7  -1   11.73    3.22
   4  -7   0   34.90    5.51
   4   7   0   34.68    6.22
  -4   7   0   50.30    7.56
   4  -7   0   41.75    6.78
   4   7   0   34.38    5.62
  -4   7   1   13.59    4.75
   4   7   1    2.34    1.92
   4  -7   1    5.89    2.24
   4   7   1   15.86    4.19
   4  -7   1   13.01    3.94
   4   7   2   16.11    4.22
   4   7   2   14.76    3.84
  -4   7   2   10.79    4.10
   4  -7   2    8.94    2.60
   4  -7   2    9.53    3.60
   4   7   3   19.21    4.17
   4   7   3   16.28    3.63
   4  -7   3   20.13    4.38
  -4   7   3   15.47    3.77
   4  -7   3   15.08    4.37
   4   7   4    9.28    2.61
   4  -7   4    8.12    3.38
  -4   7   4    4.82    2.17
   4  -7   4    5.75    3.29
   4   7   4   10.23    2.57
   4   7   5   31.16    5.86
  -4   7   5   30.66    5.54
   4  -7   5   17.42    4.30
   4   7   5   30.77    6.26
   4  -7   5   30.69    5.45
   4   7   6   23.03    5.65
   4  -7   6   16.15    4.12
  -4   7   6   24.29    4.76
   4   7   6   24.00    5.11
   4  -7   6   32.71    6.00
  -4   7   7    3.73    2.23
   4   7   7    6.57    3.20
   4   7   7    1.87    2.06
   4  -7   7    2.86    1.84
   4   7   8   85.57   10.27
  -4   7   8   90.53   10.58
   4   7   8   83.37   10.03
   4  -7   8   75.17    9.14
   4   7   9    2.01    2.07
   4   7   9    8.26    2.95
   4  -7   9   10.06    3.34
  -4   7   9    7.66    3.60
   4   7  10   85.13   10.47
  -4   7  10   98.92   11.17
   4   7  10   82.06   10.23
   4  -7  10   82.27    9.37
   4   7  11   54.64    8.11
   4   7  11   38.44    6.94
  -4   7  11   52.28    8.35
   4  -7  11   35.48    6.35
   4  -7  12    8.94    3.40
  -4   7  12    7.28    2.96
   4   7  12    9.46    3.00
   4   7  13   54.48    8.59
   4   7  13   61.62    8.83
  -4   7  13   66.48    9.39
   4   7  14   11.08    3.02
  -4   7  14    8.22    4.19
   4   7  14   13.01    4.17
  -4   7  15   30.92    6.41
   4   7  15   14.89    5.54
   4   7  15   15.72    5.35
  -4   7  16   11.51    3.55
   4   7  16   18.30    4.93
   4   7  16   17.77    5.28
   4   7  17   14.73    4.13
  -4   7  17   23.65    5.28
   4   7  17   17.54    4.86
   4   7  18   56.71    9.38
   4   7  18   44.47    8.05
  -4   7  18   43.44    8.01
   4   7  19   34.53    7.34
   4   7  19   33.40    6.71
  -4   7  19   47.80    8.66
   4   7  20   18.75    5.65
  -4   7  20   21.75    6.67
   4   7  21   -2.39    3.30
  -4   7  21    3.66    4.32
   4   7  22   10.32    4.35
  -4   7  22   13.52    5.42
  -4   7  22   12.08    4.65
  -4   7  23    7.91    3.45
   4   7  23    5.18    4.16
  -4   7  23    5.05    4.52
  -4   7  24    4.21    3.86
   4   7  24    1.55    2.98
  -4  -8 -21   38.16    8.29
   4  -8 -21   32.97    6.38
  -4  -8 -20   23.04    6.11
   4  -8 -20   20.60    5.95
  -4  -8 -19   31.95    8.24
   4  -8 -19   45.20    8.35
  -4  -8 -18   42.52    8.28
   4  -8 -18   47.55    8.78
  -4  -8 -17    0.14    1.94
   4  -8 -17   -3.63    3.58
   4  -8 -17   -1.53    2.74
  -4  -8 -16   21.02    5.72
   4  -8 -16   18.25    5.59
   4  -8 -16   23.13    5.77
   4  -8 -15    5.51    3.77
  -4  -8 -15    5.64    2.19
   4  -8 -15    7.67    4.35
   4  -8 -14    1.37    2.73
  -4  -8 -14    2.55    3.60
   4  -8 -14    2.45    1.85
  -4  -8 -13   15.28    5.14
   4  -8 -13   20.25    5.38
   4  -8 -13   18.14    5.02
   4   8 -13   12.87    4.95
   4   8 -12    3.70    4.05
   4  -8 -12    7.66    2.79
   4  -8 -12    5.84    2.59
  -4  -8 -12    5.95    3.50
   4   8 -11   11.47    3.99
  -4  -8 -11    5.65    2.80
   4  -8 -11   12.43    5.07
   4  -8 -11    4.78    2.78
   4   8 -10  144.47   13.65
  -4   8 -10  141.03   13.75
  -4  -8 -10  150.27   13.60
   4  -8 -10  172.83   14.42
   4  -8 -10  147.65   14.17
   4   8  -9   34.59    6.92
  -4  -8  -9   32.05    5.61
  -4   8  -9   19.42    4.73
   4  -8  -9   17.34    5.11
   4  -8  -9   26.54    6.35
   4   8  -8   12.20    3.98
  -4   8  -8    4.39    3.25
   4  -8  -8    8.33    3.12
   4  -8  -8   11.87    3.82
   4   8  -7  119.41   12.24
  -4   8  -7   79.96   10.18
   4  -8  -7  103.79   11.36
   4  -8  -7   95.11   10.53
   4   8  -6  152.08   13.76
   4  -8  -6  129.41   11.88
  -4   8  -6  147.81   13.71
   4  -8  -6  142.74   13.67
   4   8  -5   52.84    8.13
  -4   8  -5   49.58    7.43
   4  -8  -5   38.89    6.49
   4  -8  -5   49.62    7.97
   4   8  -5   40.75    6.60
   4  -8  -4   11.93    3.98
   4   8  -4   19.31    5.10
  -4   8  -4   19.67    5.56
   4  -8  -4   16.39    4.62
   4   8  -4   13.24    5.16
   4   8  -3   10.43    3.67
   4   8  -3    7.02    2.84
  -4   8  -3    9.35    3.68
   4  -8  -3    6.38    3.09
   4  -8  -3   10.05    3.40
   4  -8  -2   12.14    3.76
   4   8  -2   14.00    4.42
   4   8  -2    9.69    4.18
  -4   8  -2    9.60    4.46
   4  -8  -2   12.63    4.58
   4  -8  -1  136.31   13.09
  -4   8  -1  144.15   13.61
   4   8  -1  145.55   13.30
   4   8  -1  156.30   13.77
   4  -8  -1  118.01   11.01
   4   8   0  185.35   15.12
  -4   8   0  160.12   14.05
   4  -8   0  174.17   14.74
   4   8   0  191.98   14.96
   4  -8   0  173.57   13.12
   4   8   1  142.07   13.26
   4   8   1  140.01   13.05
  -4   8   1  161.30   13.96
   4  -8   1  127.02   11.17
   4   8   2    8.93    3.85
   4  -8   2   12.88    4.07
   4   8   2   10.85    3.73
  -4   8   2   15.16    4.75
   4  -8   3   17.81    4.57
  -4   8   3    8.43    3.87
   4   8   3   17.89    4.54
   4   8   3    7.99    3.61
   4   8   4   17.80    4.88
   4   8   4   12.44    3.48
  -4   8   4   18.17    4.70
   4  -8   4   14.31    4.34
   4  -8   5   37.84    6.84
   4   8   5   49.24    7.85
  -4   8   5   42.68    7.74
   4   8   5   45.69    7.51
   4   8   6  136.60   13.11
  -4   8   6  133.64   12.86
   4  -8   6  132.82   12.91
   4   8   6  148.15   13.50
   4   8   7   79.73    9.84
   4   8   7   87.10   10.93
  -4   8   7   84.19   10.44
   4  -8   7   82.85   10.08
   4   8   8    6.95    3.42
   4   8   8   12.07    3.99
   4  -8   8    7.98    3.78
  -4   8   9   19.31    4.86
   4   8   9   14.09    4.75
   4   8   9   31.83    6.53
   4  -8   9   28.62    6.18
   4   8  10  147.21   14.03
  -4   8  10  159.09   14.58
   4   8  10  133.17   13.28
   4  -8  10  154.98   13.87
   4   8  11   13.97    4.84
   4   8  11    9.95    3.43
  -4   8  11   11.44    2.82
   4  -8  11   11.06    4.58
   4   8  12    2.98    1.75
   4   8  12   11.39    3.97
  -4   8  12    6.78    3.85
   4   8  13   15.00    3.90
   4   8  13   15.15    5.50
  -4   8  13   17.11    5.51
   4   8  14    2.39    3.29
  -4   8  14    2.14    2.52
   4   8  14    6.75    3.52
  -4   8  15    5.63    3.14
   4   8  15    1.60    2.07
   4   8  15    2.61    2.02
   4   8  16   30.49    6.94
  -4   8  16   17.03    4.92
   4   8  16   33.17    7.12
   4   8  17   -0.07    2.00
   4   8  17    1.69    1.55
  -4   8  18   47.37    8.32
   4   8  18   36.32    6.99
   4   8  18   21.77    4.65
   4   8  19   45.03    8.03
   4   8  19   35.38    7.66
  -4   8  19   55.83    9.17
   4   8  20   21.29    5.96
  -4   8  20    9.90    4.68
   4   8  21   16.60    5.45
  -4   8  21    9.49    3.43
   4   8  22   23.16    6.18
  -4   8  22   20.99    6.74
   4  -9 -19   -4.66    3.61
  -4  -9 -19    2.72    3.63
  -4  -9 -18    0.16    2.22
   4  -9 -18    4.05    2.48
   4  -9 -17    1.76    2.66
  -4  -9 -17    4.14    2.85
  -4  -9 -16   -2.76    3.16
   4  -9 -16    0.53    2.30
   4  -9 -15    0.83    3.60
   4  -9 -15    3.92    3.46
   4  -9 -14   -0.87    3.56
   4  -9 -14   -0.67    2.19
   4   9 -13   10.40    4.87
   4  -9 -13   17.52    5.38
   4  -9 -13   18.03    5.15
   4   9 -12   31.59    7.91
   4  -9 -12   30.32    7.03
   4  -9 -12   26.70    6.59
   4  -9 -11    4.76    3.43
   4   9 -11    1.98    3.42
   4  -9 -11   -0.37    2.34
   4  -9 -10   -3.33    3.22
   4   9 -10    3.34    3.47
   4  -9 -10   -0.05    3.22
   4   9  -9    9.57    4.24
  -4   9  -9   16.36    5.30
   4  -9  -9   16.40    4.62
   4  -9  -9   13.48    4.95
   4   9  -8   41.06    8.08
  -4   9  -8   26.37    6.88
   4  -9  -8   16.63    5.12
   4  -9  -8   36.48    7.11
   4   9  -7   20.22    5.39
  -4   9  -7    7.89    4.09
   4  -9  -7   17.54    5.21
   4  -9  -7   16.58    4.75
   4   9  -6    1.23    2.24
  -4   9  -6    4.03    2.34
   4  -9  -6    1.34    2.95
   4  -9  -6   -1.16    3.07
   4  -9  -5    3.85    3.98
   4   9  -5   -0.63    2.43
  -4   9  -5   -1.93    2.89
   4  -9  -5   -2.64    2.81
   4   9  -4    7.57    3.60
   4   9  -4   21.93    6.25
  -4   9  -4   19.13    5.47
   4  -9  -4    5.52    2.05
   4   9  -3   13.74    5.22
  -4   9  -3   21.39    5.71
   4  -9  -3   10.65    4.10
   4   9  -3   17.25    5.53
   4   9  -2    4.72    3.86
   4   9  -2    1.37    1.54
  -4   9  -2    1.04    1.98
   4  -9  -2    6.95    3.68
   4   9  -1   18.63    5.34
   4   9  -1   21.50    5.37
  -4   9  -1   19.26    5.81
   4  -9  -1   18.31    5.91
   4   9   0   72.73   10.05
  -4   9   0   57.19    8.61
   4  -9   0   61.02    8.82
   4   9   0   55.71    8.65
   4   9   1   23.40    5.18
  -4   9   1   18.09    5.03
   4   9   1   21.55    5.92
   4  -9   1   21.82    5.12
  -4   9   2    1.32    2.31
   4   9   2    6.62    2.59
   4   9   2    4.03    3.27
   4  -9   2    0.44    2.68
   4   9   3    9.78    4.13
   4  -9   3   25.60    6.42
  -4   9   3   24.94    5.95
   4   9   3   12.02    3.76
   4   9   4   19.03    4.69
  -4   9   4   14.28    5.55
   4   9   4   18.87    5.31
   4  -9   4   16.79    4.41
   4   9   5    7.11    4.54
  -4   9   5   -1.87    2.84
   4  -9   5   -0.86    2.59
   4   9   5   -0.11    1.98
   4   9   6    0.22    1.99
  -4   9   6    8.98    4.73
   4   9   6    4.03    3.72
   4  -9   6    2.00    2.55
   4   9   7   14.86    3.74
   4   9   7   15.68    4.47
  -4   9   7   19.77    5.59
   4  -9   7   20.27    5.34
   4   9   8   31.90    6.41
   4   9   8   27.30    6.93
   4  -9   8   34.34    7.08
  -4   9   8   23.54    5.22
   4   9   9   19.04    4.97
   4  -9   9   22.32    6.29
   4   9   9   22.43    6.32
  -4   9   9   13.72    4.25
  -4   9  10   -1.67    2.77
   4   9  10   -1.47    2.30
   4   9  10   -2.63    3.43
   4  -9  10    1.04    3.04
   4   9  11    3.17    1.98
   4   9  11   -1.03    2.02
  -4   9  11   -0.81    2.01
  -4   9  12   38.97    7.51
   4   9  12   20.63    4.91
   4   9  12   29.24    6.77
   4   9  13   11.03    4.03
   4   9  13   10.28    4.09
  -4   9  13   14.92    4.76
   4   9  14    6.11    2.47
  -4   9  14    2.00    2.46
   4   9  14    6.39    3.95
   4   9  15   11.56    3.67
  -4   9  15   13.27    5.64
   4   9  15    4.02    4.19
   4   9  16    4.54    3.18
  -4   9  16    3.38    4.06
   4   9  16    3.06    2.66
   4   9  17    5.56    4.26
  -4   9  17   10.91    5.61
   4   9  17    3.39    2.72
   4   9  18   -1.40    3.08
  -4   9  18   -2.44    2.46
   4   9  18    0.21    2.84
   4   9  19    7.80    5.38
  -4   9  19    5.62    4.16
   4   9  19    2.66    3.05
   4 -10 -15    2.88    1.89
   4 -10 -14    9.33    3.46
   4 -10 -14    8.86    5.50
   4 -10 -13    9.54    6.03
   4 -10 -13   10.51    4.63
   4  10 -12   -1.53    2.92
   4 -10 -12   10.21    3.63
   4  10 -11   18.71    5.23
   4 -10 -11   31.45    7.23
   4  10 -10   29.80    7.40
   4 -10 -10   26.20    7.20
   4 -10  -9   53.41    8.76
   4  10  -9   57.67    9.74
   4  10  -8   17.57    5.45
  -4  10  -8   10.52    4.15
   4 -10  -8    9.85    3.64
   4  10  -7   17.46    5.40
  -4  10  -7    6.96    2.91
   4 -10  -7   24.28    6.56
   4  10  -6   25.82    6.20
  -4  10  -6   40.12    8.61
   4 -10  -6   23.84    6.07
  -4  10  -5   33.17    7.43
   4  10  -5   33.05    7.69
   4 -10  -5   41.99    8.08
   4  10  -4   31.07    7.09
  -4  10  -4   19.45    6.08
   4 -10  -4   19.46    5.54
   4  10  -3    0.46    2.29
   4  10  -3   -2.42    2.02
  -4  10  -3   13.19    4.32
   4 -10  -3   17.57    5.31
   4  10  -2    4.41    2.44
  -4  10  -2    9.22    4.33
   4 -10  -2   10.62    4.91
   4  10  -2   -1.92    2.60
   4  10  -1    5.82    3.41
   4  10  -1   20.54    5.76
  -4  10  -1   16.18    5.68
   4 -10  -1   16.84    4.67
   4  10   0   59.78    9.72
  -4  10   0   65.59   10.19
   4 -10   0   53.91    9.68
   4  10   0   45.27    8.20
   4  10   1   17.50    5.06
   4 -10   1   21.46    6.39
   4  10   1   23.48    5.95
  -4  10   1   13.86    4.15
   4  10   2    3.38    2.23
   4  10   2    8.68    3.78
   4 -10   2    7.65    5.00
  -4  10   2    6.89    3.37
   4  10   3    7.63    5.26
   4  10   3   12.28    2.95
  -4  10   3    9.11    3.63
   4 -10   3    9.95    4.02
   4  10   4   16.63    5.81
  -4  10   4   25.00    7.18
   4 -10   4   27.17    6.43
   4  10   5   38.51    7.67
   4  10   5   37.77    7.40
  -4  10   5   35.96    8.07
   4 -10   5   31.62    7.70
   4  10   6   22.90    6.23
   4  10   6   22.84    6.17
  -4  10   6   34.22    7.56
   4 -10   6   13.64    5.67
   4 -10   7   21.34    5.56
   4  10   7   18.17    5.24
   4  10   7   13.67    4.70
  -4  10   7    9.38    4.24
   4 -10   8   12.38    5.75
   4  10   8   13.01    5.26
   4  10   8   17.70    4.86
  -4  10   8   17.57    5.79
   4  10   9   67.69    9.79
   4  10   9   69.63   10.69
  -4  10   9   74.46   11.19
   4  10  10   27.52    6.45
  -4  10  10   23.73    5.02
   4  10  10   38.65    8.14
   4  10  11   14.87    5.46
   4  10  11   23.24    6.24
  -4  10  11   19.24    5.47
   4  10  12    3.32    3.98
   4  10  12    4.73    2.00
  -4  10  12   -1.72    2.78
   4  10  13    8.10    3.90
  -4  10  13   15.96    5.19
   4  10  13   10.03    3.25
   4  10  14    4.07    3.05
  -4  10  14    1.07    2.57
   4  10  14    2.86    3.26
   4  10  15   11.61    5.64
  -4  10  15    3.17    3.12
   4  10  15    5.34    3.47
   4  11  -8    8.09    3.80
   4 -11  -8    6.76    4.41
   4 -11  -7   23.57    6.19
  -4  11  -7   13.00    4.80
   4  11  -7   28.82    7.32
   4  11  -6   10.67    4.64
  -4  11  -6   15.84    5.92
   4 -11  -6    0.93    2.79
   4  11  -5    1.10    3.24
  -4  11  -5    4.07    4.73
   4 -11  -5   -2.00    3.67
  -4  11  -4    0.36    2.33
   4  11  -4    1.54    2.55
   4 -11  -4   -0.60    2.04
   4  11  -3    2.77    3.48
  -4  11  -3   -2.01    3.48
   4 -11  -3    4.06    2.87
   4  11  -2    9.71    5.07
   4 -11  -2    4.17    2.97
  -4  11  -2    1.29    2.42
   4  11  -1   17.18    5.79
   4  11  -1   23.17    7.40
  -4  11  -1   15.61    4.91
   4 -11  -1    7.81    3.99
   4  11   0    9.55    3.83
   4  11   0   13.62    3.91
  -4  11   0   13.28    3.99
   4 -11   0    8.79    4.55
   4  11   1   12.74    3.54
  -4  11   1   20.76    5.74
   4 -11   1   18.09    5.61
   4  11   1   14.95    5.32
   4 -11   2   11.42    5.67
   4  11   2    4.54    3.60
   4  11   2    4.99    2.86
  -4  11   2    0.38    2.15
   4  11   3    2.92    3.03
   4  11   3    9.84    4.52
  -4  11   3    0.58    1.87
   4 -11   3    5.70    3.04
   4  11   4   -0.34    2.87
   4  11   4    1.60    2.48
  -4  11   4   -0.74    2.07
   4 -11   4   -0.13    3.43
   4  11   5    4.50    4.06
   4 -11   5    1.69    2.64
  -4  11   5   -1.11    2.30
   4  11   5    4.91    4.63
   4  11   6    7.79    3.95
   4  11   6    9.39    3.73
  -4  11   6    4.67    3.04
   4 -11   6    8.15    4.08
  -4  11   7   21.03    5.71
   4  11   7   25.66    6.75
   4  11   7   22.86    5.93
   4  11   8    0.96    2.39
   4  11   8    9.74    3.59
  -4  11   8    8.26    5.43
   5   0 -30   11.05    6.29
   5   0 -29   -3.21    3.60
   5   0 -28    2.79    3.60
   5   0 -27    2.93    4.08
   5   0 -26   -0.41    1.71
   5   0 -25   -0.45    1.51
   5   0 -24    4.13    3.81
   5   0 -23   -1.10    2.60
   5   0 -22    0.52    2.00
   5   0 -21   -0.86    1.80
   5   0 -20   -2.00    2.09
   5   0 -19    1.61    1.52
   5   0 -18    1.69    2.20
   5   0 -17   -2.63    2.68
   5   0 -16    0.85    1.38
   5   0 -15    0.11    1.03
   5   0 -14    0.42    0.66
   5   0 -14    1.21    1.32
   5   0 -13    0.87    1.95
   5   0 -13    0.49    0.79
   5   0 -12    0.21    1.23
   5   0 -12    0.10    0.84
   5   0 -11   -0.29    0.53
   5   0 -11    2.85    1.91
   5   0 -10    0.81    0.72
   5   0 -10   -0.06    0.87
   5   0  -9   -0.20    0.61
   5   0  -9    0.32    1.09
   5   0  -8    0.19    0.72
   5   0  -8   -0.35    0.84
   5   0  -7   -0.34    0.93
   5   0  -7    0.20    0.67
   5   0  -7    0.60    0.99
   5   0  -6    0.78    1.18
   5   0  -6    1.49    1.75
   5   0  -6   -0.07    0.74
   5   0  -5   -0.23    0.70
   5   0  -5    1.10    0.89
   5   0  -5   -0.65    0.84
   5   0  -4    0.12    0.79
   5   0  -4   -0.76    0.83
   5   0  -4   -0.21    0.61
   5   0  -3    0.06    0.51
   5   0  -3   -0.51    0.57
   5   0  -3   -0.06    0.62
   5   0  -2   -0.31    0.89
   5   0  -2    1.02    0.72
   5   0  -2   -0.15    0.86
   5   0  -1   -0.78    1.13
   5   0  -1    0.48    1.19
   5   0  -1   -0.12    0.66
   5   0   0    0.15    0.72
   5   0   0   -0.76    0.71
   5   0   1    0.48    0.88
   5   0   1   -0.63    0.57
   5   0   2    0.47    0.92
   5   0   2    0.44    0.78
   5   0   3    0.18    0.80
   5   0   3    1.01    0.95
   5   0   4    0.16    0.88
   5   0   4    0.01    1.30
   5   0   5   -0.41    0.78
   5   0   5    0.17    1.36
   5   0   6    0.62    0.82
   5   0   6   -0.46    1.09
   5   0   7    0.25    0.75
   5   0   7    0.42    0.76
   5   0   8   -0.28    0.48
   5   0   8   -0.18    1.18
   5   0   9    0.67    1.36
   5   0   9    0.00    0.60
   5   0  10    0.76    2.03
   5   0  10    0.16    0.53
   5   0  11   -0.78    1.02
   5   0  11    1.06    0.86
   5   0  12    0.89    0.67
   5   0  12   -0.12    0.55
   5   0  13   -0.60    1.46
   5   0  13    0.27    0.45
   5   0  14   -0.02    0.96
   5   0  15    0.04    1.15
   5   0  16   -0.61    1.06
   5   0  17   -0.11    1.43
   5   0  18    0.47    1.70
   5   0  19    1.13    2.25
   5   0  20    1.38    2.95
   5   0  21   -1.42    2.16
   5   0  22    0.08    2.19
   5  -1 -30   12.84    5.29
   5  -1 -29   21.15    6.00
   5  -1 -28   18.68    6.30
   5  -1 -27   56.45    9.06
   5   1 -26   98.49   12.33
   5  -1 -26  112.62   12.50
   5   1 -25   93.77   11.38
   5  -1 -25   94.56   11.31
   5   1 -24    8.49    4.36
   5  -1 -24   10.04    3.64
   5   1 -23    7.26    3.18
   5  -1 -23    8.52    3.24
   5   1 -22   31.75    6.69
   5  -1 -22   31.93    6.48
   5   1 -21   59.50    8.29
   5  -1 -21   47.25    8.00
   5   1 -20    4.00    3.01
   5  -1 -20    0.89    1.59
   5  -1 -19   37.86    6.84
   5   1 -19   36.93    6.28
   5   1 -18   51.67    7.02
   5  -1 -18   50.24    7.21
   5  -1 -17   51.40    7.32
   5   1 -17   54.03    6.99
   5  -1 -16  620.43   19.93
   5   1 -16  610.19   22.63
   5  -1 -16  575.97   23.33
   5  -1 -15  339.76   17.63
   5  -1 -15  332.16   14.39
   5  -1 -14  236.71   11.98
   5   1 -14  224.03   12.92
   5  -1 -13  112.13    9.64
   5   1 -13  100.09    8.51
   5  -1 -13   99.02    7.80
   5   1 -13  109.96    8.73
   5  -1 -12  155.16    9.43
   5  -1 -12  153.16   11.24
   5   1 -12  159.51   10.29
   5   1 -12  152.77    6.08
   5   1 -12  152.96   10.26
   5  -1 -11  241.12   13.67
   5   1 -11  241.33   12.84
   5   1 -11  262.46   13.11
   5  -1 -11  245.26   11.72
   5   1 -11  232.05    7.72
   5   1 -10  600.21   18.63
   5  -1 -10  576.26   20.47
   5  -1 -10  580.92   17.84
   5   1 -10  601.51   19.26
   5   1 -10  556.96   12.23
   5   1  -9   29.84    4.05
   5   1  -9   29.26    2.95
   5  -1  -9   27.90    3.84
   5  -1  -9   28.63    4.51
   5   1  -9   37.31    4.68
   5  -1  -8   25.84    4.23
   5   1  -8   26.12    3.65
   5   1  -8   25.68    2.80
   5   1  -8   24.78    3.74
   5  -1  -8   33.06    4.29
   5   1  -7   13.67    2.85
   5  -1  -7   16.46    3.03
   5   1  -7   16.50    2.22
   5   1  -7   15.04    2.77
   5  -1  -7   20.95    3.69
   5   1  -6 1241.04   20.35
   5  -1  -6 1274.20   24.87
   5  -1  -6 1249.64   27.21
   5   1  -6 1242.21   23.82
   5   1  -6 1209.06   25.70
   5  -1  -5  379.28   14.79
   5  -1  -5  379.87   13.61
   5   1  -5  384.35   14.10
   5   1  -5  381.74   12.90
   5   1  -5  363.58   10.99
   5  -1  -4 2088.87   31.69
   5   1  -4 2039.19   29.71
   5   1  -4 2058.51   26.72
   5  -1  -4 2013.61   33.63
   5  -1  -3  288.16   11.58
   5   1  -3  284.49   10.88
   5   1  -3  265.52   11.48
   5  -1  -3  264.46   12.06
   5   1  -3  274.15   10.15
   5   1  -2   33.90    3.97
   5  -1  -2   37.96    4.21
   5  -1  -2   38.26    4.33
   5   1  -2   39.59    3.96
   5   1  -2   33.95    3.75
   5   1  -1   45.63    4.57
   5  -1  -1   44.93    4.83
   5  -1  -1   49.47    4.95
   5   1  -1   52.18    4.69
   5   1   0   49.66    4.65
   5  -1   0   46.02    4.72
   5  -1   0   45.89    4.75
   5   1   0   33.57    4.01
   5   1   1   49.57    4.75
   5   1   1   40.20    4.32
   5  -1   1   47.01    4.72
   5  -1   2   32.97    4.17
   5   1   2   37.21    4.02
   5   1   2   32.91    3.89
   5   1   3  266.71   10.55
   5  -1   3  287.76   12.12
   5   1   3  279.67   11.77
   5   1   4 1916.39   28.53
   5   1   4 2023.80   32.65
   5  -1   4 2011.86   32.10
   5  -1   5  414.56   14.75
   5   1   5  392.03   12.78
   5   1   5  405.06   14.92
   5   1   6 1238.10   22.47
   5   1   6 1272.94   27.01
   5  -1   7    9.57    2.65
   5   1   7   13.76    2.30
   5   1   7   16.84    3.49
   5   1   8   28.79    4.33
   5  -1   8   27.37    4.03
   5   1   8   30.83    3.51
   5   1   9   37.15    3.88
   5  -1   9   33.71    4.43
   5   1   9   26.50    4.04
   5   1  10  582.17   14.98
   5   1  10  554.99   19.55
   5   1  11  257.85   13.59
   5   1  11  243.80    9.62
   5  -1  11  244.30   12.68
   5   1  12  160.99    7.79
   5   1  12  142.89   10.36
   5  -1  12  162.95   10.50
   5   1  13  108.94    6.28
   5   1  13   91.11    8.31
   5  -1  13   98.44    8.41
   5   1  14  212.72   13.28
   5  -1  14  221.42   12.77
   5   1  14  228.42    9.05
   5   1  15  320.83   16.51
   5   1  15  321.14   10.46
   5  -1  15  320.63   15.81
   5   1  16  617.04   23.66
   5  -1  16  563.34   21.43
   5   1  17   60.68    7.51
   5  -1  17   55.05    6.97
   5   1  18   40.40    6.60
   5  -1  18   41.25    6.22
   5   1  19   46.10    7.35
   5  -1  19   46.11    6.86
   5  -1  20    0.61    1.62
   5   1  20    1.44    2.07
   5   1  21   57.09    8.22
   5   1  22   21.83    5.23
   5   1  23    7.83    3.59
   5  -2 -29    6.35    4.88
   5  -2 -28    5.56    3.32
   5  -2 -27    0.01    2.78
   5  -2 -26   19.86    4.51
   5  -2 -25   38.08    7.69
   5  -2 -24   13.85    4.79
   5  -2 -23   50.96    7.85
   5  -2 -22   15.50    4.21
   5   2 -21    8.10    3.78
   5  -2 -21    4.03    1.31
   5   2 -20    9.03    3.91
   5  -2 -20   18.86    4.94
   5   2 -19  162.63   12.82
   5  -2 -19  188.59   14.57
   5   2 -18   32.35    5.56
   5  -2 -18   23.98    5.98
   5  -2 -17   46.57    6.22
   5   2 -17   41.38    5.81
   5  -2 -17   45.43    6.91
   5   2 -17   45.97    6.41
   5  -2 -16   91.78    8.75
   5  -2 -16  104.73   10.29
   5   2 -16   88.65    8.32
   5   2 -16  103.22    9.38
   5   2 -15  812.72   24.40
   5  -2 -15  794.08   27.86
   5  -2 -15  754.34   25.18
   5   2 -15  775.73   24.89
   5  -2 -14  153.49   11.89
   5  -2 -14  134.56   10.09
   5   2 -14  137.98   10.14
   5   2 -14  135.66    9.70
   5   2 -13  344.34   14.81
   5  -2 -13  363.77   18.30
   5  -2 -13  364.01   16.46
   5   2 -13  375.58   16.55
   5   2 -12   11.82    2.86
   5  -2 -12   11.53    3.47
   5   2 -12   16.57    3.15
   5  -2 -12   14.89    3.29
  -5   2 -11   82.10    4.49
   5   2 -11  101.47    7.28
   5  -2 -11   87.44    8.75
   5  -2 -11   85.94    7.79
   5   2 -11   83.27    7.63
   5  -2 -10    7.13    2.24
   5   2 -10    2.89    1.58
   5   2 -10    2.36    0.70
   5  -2 -10    3.76    2.37
   5   2 -10    3.94    1.68
   5   2  -9    8.11    2.44
   5  -2  -9   10.25    2.82
   5  -2  -9   11.45    2.95
   5   2  -9   12.75    2.77
   5   2  -9    9.92    1.62
   5  -2  -8  102.91    8.73
   5   2  -8   95.67    5.04
   5  -2  -8   92.63    7.80
   5   2  -8   88.41    6.16
   5   2  -8   96.76    7.84
   5  -2  -7  605.67   20.60
   5  -2  -7  630.71   19.80
   5   2  -7  637.70   13.67
   5   2  -7  617.31   15.95
   5   2  -7  654.58   19.94
   5   2  -6  368.43   11.81
   5  -2  -6  371.51   15.01
   5  -2  -6  382.34   16.20
   5   2  -6  369.67   11.12
   5   2  -6  364.49   14.80
   5   2  -5  105.17    7.91
   5   2  -5  104.86    6.16
   5  -2  -5  108.59    8.17
   5  -2  -5   98.36    7.92
   5   2  -5  107.81    6.25
   5   2  -4   74.38    6.41
   5  -2  -4   66.16    6.21
   5   2  -4   69.58    5.16
   5   2  -4   69.46    4.95
   5  -2  -4   66.48    6.60
   5  -2  -3  314.35   13.45
   5   2  -3  328.23   11.68
   5  -2  -3  348.70   14.61
   5   2  -3  311.83   10.38
   5   2  -3  338.78   13.75
   5  -2  -2  148.74    9.16
   5   2  -2  153.22    8.03
   5   2  -2  161.23    9.41
   5  -2  -2  149.17    9.54
   5   2  -1   63.56    5.78
   5  -2  -1   63.97    5.95
   5   2  -1   75.19    5.89
   5  -2  -1   82.56    6.92
   5  -2   0  435.73   15.62
   5   2   0  426.67   14.13
   5  -2   0  437.57   15.78
   5   2   1   61.59    5.66
   5  -2   1   71.77    6.30
   5  -2   1   69.85    6.53
   5   2   1   67.72    5.84
   5   2   2  153.48    8.96
   5   2   2  139.83    8.67
   5  -2   2  150.89    9.27
   5  -2   2  159.86    9.44
   5  -2   3  328.38   13.70
   5   2   3  321.45   12.99
   5  -2   4   65.14    6.04
   5   2   4   69.42    5.96
   5   2   4   55.43    5.66
   5   2   5  107.76    7.45
   5   2   5   92.86    7.41
   5  -2   5  101.74    7.78
   5   2   6  368.73   13.87
   5  -2   6  391.97   15.24
   5   2   6  373.85   15.41
   5   2   7  619.36   17.90
   5  -2   7  609.98   19.35
   5   2   7  614.32   20.23
   5   2   8  102.41    7.20
   5  -2   8   90.83    7.61
   5   2   8   96.57    8.19
   5   2   9   16.26    3.44
   5  -2   9   15.15    3.32
   5   2   9   15.57    2.93
   5   2  10    4.15    1.90
   5   2  10    3.60    1.96
   5  -2  10    2.03    1.06
   5   2  11   88.25    6.75
   5  -2  11   84.23    7.52
   5   2  11   95.94    8.51
   5   2  12   15.31    2.91
   5  -2  12    8.98    2.46
   5   2  12   10.43    2.88
   5   2  13  370.53   14.21
   5   2  13  371.19   17.75
   5  -2  13  375.20   16.53
   5  -2  14  132.70    9.99
   5   2  14  133.19    8.38
   5   2  14  140.71   11.15
   5   2  15  746.72   20.39
   5   2  15  712.54   25.53
   5  -2  15  785.77   25.12
   5   2  16  103.02    7.50
   5   2  16   86.67    9.22
   5  -2  16   97.57    8.96
   5   2  17   62.03    7.85
   5  -2  17   42.64    6.10
   5  -2  18   29.97    5.22
   5   2  18   47.23    7.28
   5   2  19  151.79   13.04
   5  -2  19  160.92   12.35
   5   2  20   14.20    4.18
   5   2  21   10.05    3.61
   5   2  22   18.98    4.21
   5   2  23   42.10    7.45
   5   2  24    9.22    3.78
   5  -3 -29    6.55    3.97
   5  -3 -28   30.88    7.20
   5  -3 -27  107.53   12.35
   5  -3 -26   13.65    5.29
   5  -3 -25  141.20   13.71
   5  -3 -24    6.75    2.42
   5  -3 -23    8.51    3.82
   5  -3 -22  138.72   13.82
   5  -3 -21  176.25   14.50
   5  -3 -20   95.55   11.27
   5  -3 -19  146.77   13.10
   5  -3 -19  141.38   12.17
   5  -3 -18   23.77    5.90
   5  -3 -18   23.62    4.76
   5  -3 -17   29.15    6.06
   5  -3 -17   26.46    5.29
   5   3 -17   24.84    4.67
   5  -3 -16  180.83   14.09
   5  -3 -16  157.43   12.42
   5   3 -16  181.49   12.61
   5   3 -15  560.17   19.46
   5  -3 -15  602.68   25.01
   5   3 -15  569.06   21.76
   5  -3 -15  595.65   23.92
   5   3 -14  102.60    7.90
   5  -3 -14  109.64   10.49
   5  -3 -14  107.42   10.00
   5   3 -14  122.84   10.01
   5   3 -13   24.07    3.69
   5  -3 -13   20.10    3.78
   5   3 -13   23.07    4.24
   5  -3 -13   21.98    4.62
   5   3 -12   67.47    7.17
   5   3 -12   64.50    5.66
   5  -3 -12   58.17    7.69
   5  -3 -12   63.71    7.33
  -5   3 -11  129.69    7.27
   5  -3 -11  125.15   10.76
   5  -3 -11  133.42   10.47
   5   3 -11  120.50    7.21
   5   3 -11  122.21    9.55
   5  -3 -10  205.24   13.27
  -5   3 -10  229.77    9.94
   5   3 -10  232.97    7.18
   5   3 -10  223.29    9.38
   5  -3 -10  235.52   13.64
   5   3 -10  251.10   13.51
   5   3  -9   68.65    7.10
   5  -3  -9   71.14    7.93
   5  -3  -9   50.55    6.12
   5   3  -9   61.55    4.15
   5   3  -9   55.37    4.51
   5   3  -8   21.35    2.69
   5  -3  -8   22.11    4.12
   5   3  -8   18.15    3.93
   5  -3  -8   12.04    3.54
   5   3  -8   23.75    2.83
   5   3  -7  151.18   10.29
   5   3  -7  147.80    6.57
   5  -3  -7  148.43   10.57
   5   3  -7  147.24    7.27
   5  -3  -7  130.60    9.89
   5  -3  -6  608.94   21.14
   5   3  -6  583.46   20.26
   5   3  -6  627.47   15.77
   5   3  -6  612.03   12.87
   5  -3  -6  626.66   21.12
   5   3  -5  540.02   15.19
   5   3  -5  555.15   19.48
   5   3  -5  536.54   12.07
   5  -3  -5  526.00   19.46
   5  -3  -5  584.44   20.21
   5   3  -4  250.06   10.78
   5   3  -4  278.93   13.60
   5  -3  -4  260.46   13.36
   5   3  -4  263.25    8.61
   5  -3  -4  262.97   13.57
   5   3  -3  182.47   10.99
   5  -3  -3  183.77   11.18
   5   3  -3  174.52    9.34
   5  -3  -3  181.89   11.45
   5   3  -3  175.23    7.05
   5  -3  -2  407.89   16.54
   5   3  -2  421.37   14.62
   5   3  -2  434.75   16.94
   5  -3  -2  446.55   17.31
   5  -3  -1 1456.51   31.16
   5   3  -1 1444.32   30.82
   5   3  -1 1456.28   27.94
   5  -3  -1 1460.43   30.68
   5  -3   0 1059.62   26.90
   5   3   0 1210.29   28.00
   5   3   0 1064.05   24.49
   5  -3   0 1166.65   27.53
   5  -3   1 1398.62   30.70
   5   3   1 1624.98   31.96
   5   3   1 1485.37   29.68
   5  -3   1 1533.95   31.26
   5   3   2  442.82   16.75
   5  -3   2  422.59   16.69
   5   3   2  427.29   16.07
   5  -3   2  416.33   16.26
   5  -3   3  171.01   10.38
   5  -3   3  187.68   11.12
   5   3   3  173.51   10.53
   5   3   4  252.43   12.75
   5  -3   4  260.31   13.12
   5  -3   4  266.25   13.06
   5   3   4  278.31   13.42
   5   3   5  535.37   19.15
   5  -3   5  526.53   18.69
   5   3   5  555.18   18.67
   5  -3   6  655.85   20.62
   5   3   6  663.23   20.39
   5   3   6  641.20   21.21
   5  -3   7  169.70   10.53
   5   3   7  143.09    9.51
   5   3   8   22.86    4.05
   5  -3   8   23.65    4.14
   5   3   8   23.80    3.97
   5  -3   9   51.49    5.79
   5   3   9   59.00    6.21
   5   3   9   55.82    6.78
   5  -3  10  247.12   13.15
   5   3  10  235.59   12.38
   5   3  10  254.01   14.47
   5   3  11  135.85    9.44
   5  -3  11  122.27    9.40
   5   3  11  131.86   10.67
   5   3  12   63.12    6.45
   5  -3  12   56.37    6.59
   5   3  12   48.89    6.81
   5   3  13   24.29    4.25
   5   3  13   26.44    4.74
   5  -3  13   13.59    3.01
   5   3  14  108.69    8.84
   5  -3  14  105.91    9.19
   5   3  14  115.61   10.56
   5   3  15  568.55   20.33
   5  -3  15  569.98   21.47
   5   3  15  543.78   23.18
   5   3  16  161.60   11.29
   5  -3  16  182.47   12.51
   5   3  16  147.81   12.63
   5  -3  17   21.04    4.28
   5   3  17   24.43    4.63
   5   3  17   28.84    5.70
   5  -3  18   35.39    6.41
   5   3  18   24.71    5.39
   5   3  19  157.41   13.47
   5   3  20  100.25   10.89
   5   3  21  168.59   14.50
   5   3  22  144.82   13.61
   5   3  23    3.30    3.73
   5   3  24   14.39    5.41
   5   3  25  117.60   13.37
   5  -4 -28   -1.94    2.68
   5  -4 -27   -4.69    3.94
   5  -4 -26    1.21    2.06
   5  -4 -25    8.38    3.26
   5  -4 -24   36.69    7.24
   5  -4 -23   20.08    5.40
   5  -4 -22    3.41    1.91
   5  -4 -21   22.58    5.43
   5  -4 -20   83.29    9.99
   5  -4 -20   80.57   10.14
   5  -4 -19    6.96    3.27
   5  -4 -19    6.83    3.84
   5  -4 -18    6.89    2.75
  -5  -4 -18   11.10    3.73
   5  -4 -18    8.43    3.52
  -5  -4 -17  310.49   18.87
   5  -4 -17  302.66   18.53
   5  -4 -17  260.46   17.03
  -5  -4 -16  122.87   11.64
   5   4 -16   96.30    9.56
   5  -4 -16  114.12   11.33
   5  -4 -16  105.32   10.58
  -5  -4 -15   61.79    8.05
   5  -4 -15   47.57    7.25
   5  -4 -15   44.23    7.51
   5   4 -15   50.36    6.79
   5   4 -14   21.24    4.56
  -5  -4 -14   18.45    4.37
   5  -4 -14   12.71    3.80
   5  -4 -14   20.72    4.40
  -5  -4 -13  109.23   10.25
   5  -4 -13  103.78   10.39
   5  -4 -13  123.57   11.13
   5   4 -13  117.79   10.15
   5   4 -12  167.21   12.00
  -5  -4 -12  171.97   12.51
   5  -4 -12  198.70   14.30
   5  -4 -12  185.62   13.45
   5   4 -11   40.30    5.60
   5  -4 -11   42.03    6.44
  -5  -4 -11   52.02    7.18
  -5   4 -11   49.91    5.24
   5  -4 -11   32.75    5.40
   5   4 -10   25.02    4.64
  -5   4 -10   13.63    3.03
   5  -4 -10   18.03    4.26
   5  -4 -10   15.47    4.07
   5   4  -9  127.08    6.99
   5   4  -9  141.22   10.71
   5  -4  -9  121.33   10.62
   5  -4  -9  157.73   11.88
  -5   4  -9  128.77    8.80
   5   4  -8   30.62    3.59
   5  -4  -8   14.36    3.50
  -5   4  -8   29.80    4.46
   5  -4  -8   25.23    4.59
   5   4  -8   27.10    4.64
   5   4  -7   74.39    7.88
   5   4  -7   71.68    5.82
   5  -4  -7   70.83    7.52
   5  -4  -7   79.09    8.07
  -5   4  -7   69.33    6.62
   5   4  -6  225.28   13.36
   5  -4  -6  242.61   14.13
   5   4  -6  209.98   10.47
   5  -4  -6  222.00   13.77
   5  -4  -5   67.25    7.38
   5   4  -5   70.79    7.63
   5   4  -5   58.90    2.82
   5   4  -5   71.01    6.15
   5  -4  -5   70.98    7.66
   5  -4  -4  119.10    9.57
   5   4  -4  119.14    9.41
   5  -4  -4  129.10   10.14
   5   4  -4  125.97    8.47
   5  -4  -3    8.95    3.45
   5   4  -3    8.00    2.18
   5   4  -3    3.71    1.53
   5  -4  -3    4.93    1.62
   5   4  -3    6.37    1.30
   5   4  -2   33.72    4.45
   5   4  -2   25.19    4.56
   5  -4  -2   31.19    4.97
   5  -4  -2   28.41    4.89
   5  -4  -1    1.58    2.63
   5   4  -1    3.36    1.87
   5   4  -1    5.44    2.26
   5  -4  -1    8.65    2.74
   5   4   0  111.49    8.59
   5   4   0   99.87    8.73
   5  -4   0  111.93    8.83
   5  -4   0  119.78    9.56
   5   4   1    9.05    3.14
   5  -4   1    4.35    1.99
   5  -4   1    3.21    1.73
   5   4   1    7.80    2.29
   5  -4   2   31.74    4.92
   5   4   2   30.71    5.09
   5   4   2   32.71    4.85
   5  -4   2   32.97    4.89
   5  -4   3    8.52    3.24
   5   4   3    4.99    1.81
   5   4   3    5.82    2.42
   5  -4   3    7.73    2.84
   5  -4   4  119.97    9.55
   5   4   4  107.52    8.93
   5   4   4  120.11    9.42
   5  -4   4  125.32    9.40
   5  -4   5   72.75    7.54
   5   4   5   82.95    7.83
   5   4   5   75.01    7.69
   5  -4   5   89.50    8.01
   5  -4   6  240.68   13.65
   5   4   6  219.12   13.37
   5   4   6  244.39   13.69
   5  -4   6  225.43   12.89
   5  -4   7   76.67    8.04
   5   4   7   74.77    7.63
   5   4   7   79.26    8.03
   5  -4   8   24.39    4.56
   5   4   8   28.43    4.82
   5   4   8   23.51    4.53
   5   4   9  137.80   11.03
   5   4   9  144.99   10.86
   5  -4   9  144.82   10.80
   5   4  10   17.92    3.87
   5   4  10   22.13    4.58
   5  -4  10   17.19    3.51
   5  -4  11   45.02    5.91
   5   4  11   50.27    6.34
   5   4  11   42.12    6.41
   5  -4  12  181.41   12.18
   5   4  12  181.04   12.29
   5  -4  13  111.10    9.63
   5   4  13  112.72    9.81
   5   4  13  115.12   10.68
   5   4  14   23.73    4.52
   5   4  14   23.56    4.49
   5  -4  14   15.18    3.59
   5  -4  15   47.48    6.56
   5   4  15   56.32    7.46
   5   4  15   55.40    7.38
   5  -4  16   91.99    9.13
   5   4  16   97.21    9.51
   5   4  16   99.25   10.63
   5  -4  17  271.82   15.76
   5   4  17  281.06   16.28
   5   4  17  294.95   18.17
   5   4  18   16.46    4.65
   5   4  19    2.10    3.27
   5   4  20   69.15    9.48
   5   4  21   29.71    6.99
   5   4  22   11.92    4.21
   5   4  23   31.89    6.81
   5   4  24   69.76   10.63
   5   4  25    3.37    3.42
   5   4  26   -1.44    2.14
   5  -5 -27    6.61    3.32
   5  -5 -26   16.12    5.58
   5  -5 -25   13.71    4.83
   5  -5 -24   44.79    8.57
   5  -5 -23    9.30    4.70
   5  -5 -22    6.85    2.14
   5  -5 -21   47.36    8.15
  -5  -5 -20  121.49   12.86
   5  -5 -20  111.89   11.91
   5  -5 -20  120.49   13.14
  -5  -5 -19    5.97    3.74
   5  -5 -19    1.42    2.50
   5  -5 -19    6.41    3.02
  -5  -5 -18    4.34    1.99
   5  -5 -18   11.92    3.96
   5  -5 -18    9.33    3.81
  -5  -5 -17   65.29    9.04
   5  -5 -17   81.41   10.32
   5  -5 -17   53.21    7.94
   5   5 -16    1.93    1.77
  -5  -5 -16   -0.91    1.71
   5  -5 -16   -1.24    3.46
   5  -5 -16   -0.04    1.69
  -5  -5 -15  157.89   13.24
   5  -5 -15  152.85   13.53
   5   5 -15  145.75   12.69
   5  -5 -15  150.58   13.33
   5   5 -14   46.76    6.97
  -5  -5 -14   66.68    8.33
   5  -5 -14   70.37    9.09
   5  -5 -14   64.06    9.04
   5  -5 -13    2.82    2.70
   5   5 -13    6.13    2.56
  -5  -5 -13    0.91    1.93
   5  -5 -13    5.71    3.24
   5   5 -12   15.84    4.01
  -5  -5 -12   23.81    5.13
   5  -5 -12   22.92    5.34
   5  -5 -12   30.84    6.16
   5   5 -11  180.41   13.63
  -5  -5 -11  189.96   13.48
  -5   5 -11  167.01   11.38
   5  -5 -11  184.16   14.37
   5  -5 -11  188.71   13.95
  -5  -5 -10   67.60    8.44
  -5   5 -10   53.26    6.77
   5  -5 -10   52.94    7.70
   5  -5 -10   38.24    6.62
   5   5 -10   60.63    7.83
   5   5  -9  106.88   10.15
  -5  -5  -9  108.80    9.95
  -5   5  -9  121.64    9.71
   5  -5  -9  101.95   10.15
   5  -5  -9  117.17   11.03
   5   5  -8   23.20    4.68
  -5   5  -8   37.63    5.67
   5  -5  -8   30.04    5.76
   5   5  -8   19.47    3.22
   5  -5  -8   32.19    5.46
   5   5  -7   24.74    5.05
  -5   5  -7   21.51    3.92
   5  -5  -7   21.29    5.39
   5  -5  -7   31.98    5.63
   5   5  -7   31.42    4.55
   5   5  -6  331.40   17.23
   5   5  -6  358.75   15.11
  -5   5  -6  382.25   17.54
   5  -5  -6  338.76   17.45
   5  -5  -6  358.40   18.58
   5  -5  -5  179.54   12.60
   5   5  -5  181.57   11.40
  -5   5  -5  178.60   12.07
   5   5  -5  178.21   12.68
   5  -5  -5  191.54   13.63
   5  -5  -4   12.06    3.08
   5   5  -4   10.72    3.95
   5   5  -4   11.94    3.07
   5  -5  -4    8.86    2.64
  -5   5  -4   13.77    3.66
   5   5  -3   44.21    6.19
   5   5  -3   39.09    5.42
  -5   5  -3   39.88    5.68
   5  -5  -3   44.98    6.15
   5  -5  -3   31.40    5.37
   5   5  -2   26.26    4.76
   5   5  -2   33.85    5.06
   5  -5  -2   34.31    5.59
   5  -5  -2   29.21    5.22
   5   5  -1   70.81    7.38
   5  -5  -1   70.95    8.19
   5   5  -1   63.80    7.86
   5  -5  -1   59.45    7.00
   5   5   0  191.41   12.85
   5   5   0  229.81   13.54
   5  -5   0  213.82   13.35
   5  -5   0  206.28   13.57
   5   5   1   63.06    7.52
   5   5   1   61.08    6.99
   5  -5   1   55.81    6.62
   5  -5   1   62.69    7.40
   5   5   2   35.60    5.28
   5   5   2   37.43    5.48
   5  -5   2   31.13    5.13
   5  -5   2   34.53    5.51
   5   5   3   41.76    5.68
   5   5   3   45.76    6.20
   5  -5   3   44.64    5.76
   5  -5   3   34.35    5.39
   5  -5   4   11.73    3.66
   5   5   4   13.04    3.68
   5  -5   4   15.78    3.96
   5   5   4   10.21    2.86
   5   5   5  154.75   11.76
   5  -5   5  182.93   12.05
   5   5   5  168.88   12.21
   5  -5   5  176.54   12.59
   5   5   6  346.95   17.71
   5  -5   6  324.18   16.81
   5  -5   6  333.13   16.30
   5   5   6  357.56   17.88
   5  -5   7   33.14    5.54
   5   5   7   26.57    5.47
   5   5   7   24.98    5.45
   5  -5   7   34.05    4.93
   5   5   8   26.42    4.87
   5  -5   8   23.16    4.68
   5   5   8   25.87    4.94
   5  -5   8   15.71    3.82
   5  -5   9   94.94    9.32
   5   5   9  117.09   11.14
   5  -5   9  111.97   10.00
   5  -5  10   62.35    7.34
   5   5  10   54.63    6.98
   5   5  10   59.22    7.73
   5   5  11  169.10   13.44
   5   5  11  193.90   13.28
   5  -5  11  199.14   13.33
   5  -5  12   28.56    5.13
   5   5  12   19.36    4.27
   5   5  12   26.05    4.98
   5  -5  13    3.28    1.72
   5   5  13   -0.31    2.25
   5   5  13    2.09    1.57
   5   5  14   57.70    7.71
   5  -5  14   50.92    7.02
   5   5  14   51.82    7.16
   5   5  15  179.28   14.23
   5  -5  15  154.67   12.50
   5   5  15  177.16   13.48
   5   5  16   -2.40    2.71
   5   5  16   -2.78    3.01
   5   5  17   71.96    9.64
   5   5  17   51.77    7.82
   5   5  18   14.61    4.15
   5   5  18    8.35    3.18
   5   5  19    4.50    3.52
  -5   5  20  118.98   12.91
  -5   5  21   39.24    8.24
   5   5  21   38.84    7.44
   5   5  22    2.96    1.75
  -5   5  22    4.67    2.01
  -5   5  23   -0.40    3.36
   5   5  23   10.18    4.00
  -5   5  23   14.47    5.86
   5   5  24   66.38   10.30
   5   5  25   11.37    4.04
   5   5  26   15.08    5.11
   5   5  27    8.57    4.05
   5  -6 -25   11.41    4.12
   5  -6 -24    9.87    3.55
   5  -6 -23   -2.64    3.17
   5  -6 -22   10.85    4.18
   5  -6 -21    0.37    2.19
  -5  -6 -21   10.78    4.97
  -5  -6 -20    6.83    3.81
   5  -6 -20    3.98    2.57
   5  -6 -20    1.84    2.52
  -5  -6 -19   -0.18    2.95
   5  -6 -19   -0.30    2.09
   5  -6 -19    4.27    3.77
  -5  -6 -18    4.14    3.29
   5  -6 -18    9.61    3.83
   5  -6 -18    6.16    2.33
   5  -6 -17   21.77    5.36
  -5  -6 -17   10.50    4.74
   5  -6 -17   19.12    5.12
   5  -6 -16   27.17    6.28
  -5  -6 -16   42.61    8.13
   5  -6 -16   30.78    6.05
   5   6 -15   43.19    7.42
   5  -6 -15   46.99    7.63
  -5  -6 -15   37.99    7.19
   5  -6 -15   56.61    8.42
   5   6 -14    7.07    3.20
  -5  -6 -14   10.53    2.94
   5  -6 -14   12.37    4.80
   5  -6 -14   11.78    4.11
   5   6 -13   23.23    5.44
  -5  -6 -13   22.74    5.26
   5  -6 -13   12.69    4.79
   5  -6 -13   15.00    4.34
   5   6 -12   86.60    9.61
  -5  -6 -12   85.94    9.64
   5  -6 -12   78.28    9.34
   5  -6 -12   73.52    9.33
   5  -6 -11   21.95    5.10
   5   6 -11   19.22    4.93
  -5  -6 -11   22.72    4.79
   5  -6 -11   16.79    4.24
   5   6 -10    7.60    2.66
  -5  -6 -10    3.47    1.43
  -5   6 -10   13.65    3.67
   5  -6 -10    5.97    3.13
   5  -6 -10   12.17    4.47
   5   6  -9   25.71    4.92
  -5  -6  -9   42.50    6.83
  -5   6  -9   44.45    6.52
   5  -6  -9   39.50    6.55
   5  -6  -9   40.85    7.10
  -5   6  -8   36.87    6.71
   5  -6  -8   32.18    6.60
   5  -6  -8   26.71    5.13
   5   6  -8   40.23    6.82
   5   6  -7   95.64    8.53
   5   6  -7   93.82    9.79
  -5   6  -7  105.81   10.16
   5  -6  -7   99.51   10.26
   5  -6  -7  122.28   11.26
   5   6  -6    7.48    3.07
   5   6  -6    5.08    2.14
  -5   6  -6    5.32    3.08
   5  -6  -6    7.48    3.29
   5  -6  -6    9.75    3.55
   5   6  -5   11.08    2.85
   5   6  -5   10.60    3.82
   5  -6  -5   11.51    3.71
  -5   6  -5   11.02    3.49
   5  -6  -5   13.34    3.77
   5  -6  -4  137.71   11.34
   5   6  -4  130.17   10.37
  -5   6  -4  147.79   11.77
   5  -6  -4  143.31   12.36
   5   6  -4  129.38   11.46
   5   6  -3   30.40    5.59
   5   6  -3   32.96    5.42
  -5   6  -3   27.73    5.72
   5  -6  -3   26.15    4.66
   5  -6  -3   29.11    5.40
   5   6  -2   70.10    7.85
  -5   6  -2   58.29    7.26
   5  -6  -2   47.50    7.03
   5   6  -2   56.29    7.73
   5  -6  -2   67.86    7.95
   5  -6  -1   72.62    8.45
   5   6  -1   92.35    9.79
   5   6  -1   66.89    7.66
  -5   6  -1   79.44    9.08
   5  -6  -1   88.65    8.80
   5  -6   0   78.54    8.82
   5   6   0   79.93    9.10
   5   6   0   71.18    7.96
  -5   6   0   76.15    8.48
   5  -6   0   67.97    7.83
   5   6   1   91.17    9.31
   5   6   1   90.11    9.19
  -5   6   1   68.05    8.21
   5  -6   1   76.56    8.94
   5  -6   1   85.27    8.60
   5   6   2   62.56    7.53
   5   6   2   63.12    7.80
  -5   6   2   69.13    8.30
   5  -6   2   74.47    8.70
   5  -6   2   71.22    8.24
   5   6   3   45.12    6.99
  -5   6   3   36.91    6.19
   5  -6   3   31.38    5.36
   5   6   3   27.87    5.39
   5  -6   3   26.30    4.73
   5  -6   4  132.33   11.38
   5   6   4  126.49   11.52
  -5   6   4  138.30   11.84
   5   6   4  146.49   11.93
   5  -6   4  114.07   10.15
   5   6   5   12.21    3.58
   5  -6   5   10.31    3.65
   5   6   5   13.44    4.37
   5  -6   5   10.44    3.37
   5   6   6    3.34    2.17
   5  -6   6   11.27    3.58
   5   6   6    6.92    3.64
   5  -6   6    6.21    1.86
   5   6   7   87.12    9.53
   5   6   7  111.31   10.71
   5  -6   7  104.70    9.83
   5  -6   7   95.33   10.07
   5  -6   8   44.34    6.28
   5   6   8   30.43    5.93
   5   6   8   40.87    6.88
   5  -6   8   43.10    6.35
   5  -6   9   34.68    5.72
   5   6   9   36.59    6.18
   5   6   9   37.57    6.40
   5  -6   9   45.85    6.91
   5  -6  10    8.32    3.21
   5   6  10    8.85    3.81
   5   6  10    5.85    2.88
   5  -6  10    4.25    2.24
   5   6  11   15.07    3.97
   5  -6  11   12.22    3.86
   5   6  11   13.73    3.88
   5  -6  11    8.62    2.74
   5   6  12   85.63    9.73
   5   6  12   75.35    9.41
   5  -6  12   85.79    9.45
   5  -6  12   90.11   10.04
   5   6  13   14.43    4.33
   5   6  13   21.27    5.50
   5  -6  13   18.61    5.08
   5  -6  13   10.54    3.39
  -5   6  13   13.79    4.98
   5  -6  14   14.78    4.34
  -5   6  14   13.67    4.38
   5   6  14   14.15    4.01
   5   6  14    8.59    3.67
   5   6  15   49.12    7.74
   5   6  15   41.23    7.13
  -5   6  15   39.85    6.66
   5   6  16   25.73    5.88
   5   6  16   37.63    7.17
  -5   6  16   30.28    5.94
   5   6  17   11.35    3.66
  -5   6  17   14.19    4.56
   5   6  17    7.81    3.41
  -5   6  18   10.65    4.46
   5   6  18    1.82    1.97
   5   6  18    4.01    3.37
   5   6  19    4.75    3.46
  -5   6  19   -0.97    2.24
   5   6  20   -1.70    3.51
  -5   6  20    2.14    3.65
  -5   6  21    8.52    4.68
   5   6  21    1.82    2.81
  -5   6  22   12.41    5.59
   5   6  22    8.89    3.33
   5   6  23    0.94    1.54
  -5   6  23    2.50    3.17
   5   6  24   10.75    4.30
   5   6  25    4.05    3.46
   5  -7 -23   -0.43    2.50
   5  -7 -22   18.55    5.68
   5  -7 -21   44.95    8.59
  -5  -7 -20   25.18    5.46
   5  -7 -20   18.14    5.65
   5  -7 -19   32.97    7.34
  -5  -7 -19   40.25    7.76
   5  -7 -19   36.67    7.30
  -5  -7 -18   36.46    7.10
   5  -7 -18   45.12    8.21
   5  -7 -18   49.39    8.96
  -5  -7 -17   50.11    8.18
   5  -7 -17   56.97    8.80
   5  -7 -17   48.55    8.30
  -5  -7 -16   69.50    9.84
   5  -7 -16   67.36    9.49
   5  -7 -16   66.76    9.50
   5   7 -15    8.56    4.61
  -5  -7 -15    3.40    2.42
   5  -7 -15   16.47    4.84
   5  -7 -15   10.43    4.16
  -5  -7 -14   11.88    3.96
   5  -7 -14   29.40    6.78
   5  -7 -14   23.32    6.03
   5   7 -14   28.35    6.73
   5   7 -13   34.04    6.84
  -5  -7 -13   15.65    4.61
   5  -7 -13   36.86    6.68
   5  -7 -13   23.34    5.30
   5   7 -12   33.39    6.36
  -5  -7 -12   31.62    6.16
   5  -7 -12   19.55    5.08
   5  -7 -12   27.68    5.78
   5   7 -11  110.13   11.76
  -5  -7 -11  110.14   11.16
   5  -7 -11  131.47   12.86
   5  -7 -11  119.18   12.20
  -5   7 -10  183.87   14.39
  -5  -7 -10  185.82   14.12
   5  -7 -10  165.49   14.50
   5  -7 -10  174.26   14.71
   5   7 -10  165.62   13.91
  -5   7  -9   92.26   10.00
   5  -7  -9   88.39   10.35
   5  -7  -9  110.57   11.36
   5   7  -9   90.14   10.52
   5   7  -8  115.87   11.44
  -5   7  -8  105.78   10.85
   5  -7  -8  108.42   11.03
   5  -7  -8   95.85   10.68
  -5   7  -7  130.02   11.76
   5  -7  -7  141.88   12.37
   5  -7  -7  131.46   12.50
   5   7  -7  122.33   11.82
   5   7  -6   62.06    8.77
   5   7  -6   48.36    6.77
  -5   7  -6   55.05    8.51
   5  -7  -6   50.07    8.01
   5  -7  -6   44.88    7.11
   5   7  -5  128.97   12.12
   5   7  -5  105.65   10.30
  -5   7  -5  124.09   11.70
   5  -7  -5  117.89   11.35
   5  -7  -5  112.94   11.34
   5  -7  -4   30.74    5.91
   5   7  -4   25.22    4.94
   5   7  -4   38.70    7.21
  -5   7  -4   39.12    6.82
   5  -7  -4   35.96    6.45
   5   7  -3    7.90    3.02
   5   7  -3    2.50    2.68
   5  -7  -3   -0.28    2.26
  -5   7  -3    7.41    3.68
   5  -7  -3    3.42    2.73
   5  -7  -2   40.90    6.51
   5   7  -2   40.69    7.09
  -5   7  -2   45.16    7.25
   5   7  -2   46.20    6.84
   5  -7  -2   40.98    7.13
   5  -7  -1   99.43    9.78
   5   7  -1   89.58   10.16
  -5   7  -1  104.38   11.08
   5   7  -1   95.38    9.94
   5  -7  -1   95.29   10.54
   5   7   0   11.41    3.50
   5  -7   0   12.87    3.12
   5   7   0    9.84    4.45
   5  -7   0   21.46    4.51
  -5   7   0   16.26    4.61
   5  -7   1   94.24    9.03
  -5   7   1  109.51   11.45
   5   7   1   92.15    9.89
   5   7   1   92.12   10.43
   5  -7   1  115.63   11.28
   5  -7   2   32.79    6.04
   5   7   2   32.78    6.45
  -5   7   2   36.62    6.64
   5  -7   2   35.81    6.11
   5   7   2   36.97    6.45
   5  -7   3    2.99    2.53
   5   7   3    4.82    1.87
   5   7   3    5.14    3.13
  -5   7   3    6.10    1.63
   5  -7   3    2.21    2.19
   5   7   4   31.89    5.31
   5   7   4   37.70    6.44
   5  -7   4   36.82    6.10
   5  -7   4   39.29    6.72
  -5   7   4   47.40    7.53
   5   7   5  133.18   12.22
   5   7   5  118.50   11.71
  -5   7   5  124.10   11.83
   5  -7   5  107.54   10.44
   5  -7   5  139.73   12.35
   5  -7   6   60.67    7.59
   5  -7   6   58.89    8.41
   5   7   6   73.46    9.04
   5   7   6   51.61    7.60
  -5   7   6   58.78    8.44
   5  -7   7  121.99   11.59
   5   7   7  130.11   12.54
   5   7   7  125.84   11.95
  -5   7   7  122.02   12.15
   5  -7   7  120.89   11.00
   5   7   8  109.50   11.43
   5   7   8  106.60   11.33
   5  -7   8   96.03   10.69
  -5   7   8   98.78   11.27
   5   7   9   92.17   10.68
   5   7   9   77.87    9.89
  -5   7   9   91.49   11.07
   5  -7   9   82.15    9.73
   5   7  10  137.41   13.05
   5   7  10  136.58   13.19
   5   7  11  112.26   11.97
   5   7  11   87.65   10.31
  -5   7  11  122.76   12.57
   5  -7  11  121.72   12.17
   5  -7  12   19.87    5.14
   5   7  12   33.87    6.63
  -5   7  12   32.51    6.38
   5   7  12   29.67    6.17
   5   7  13   31.90    5.97
   5  -7  13   26.84    5.65
  -5   7  13   40.10    7.83
   5   7  13   26.03    5.96
   5   7  14   21.32    5.64
  -5   7  14   16.93    4.95
   5   7  14   19.25    5.26
  -5   7  15   10.13    3.61
   5   7  15   14.37    5.10
   5   7  15    5.78    2.77
   5   7  16   40.56    7.61
  -5   7  16   62.42    9.58
   5   7  16   72.44   10.23
   5   7  17   54.65    9.20
   5   7  17   50.97    8.72
  -5   7  17   53.50    9.06
   5   7  18   64.89    9.70
  -5   7  18   41.42    7.96
   5   7  18   61.22    9.61
   5   7  19   30.38    6.61
   5   7  19   39.85    8.11
  -5   7  19   47.78    9.19
   5   7  20   29.30    7.02
  -5   7  20   32.26    6.57
  -5   7  21   36.80    8.46
   5   7  21   58.85    9.78
  -5   7  22   17.15    7.05
   5   7  22   16.22    5.51
  -5   7  23    1.61    3.26
   5   7  23    4.08    4.06
  -5   7  23   -3.33    3.42
   5  -8 -21   -1.18    3.07
   5  -8 -20    2.66    4.15
   5  -8 -19   -2.61    2.94
   5  -8 -19   -1.62    3.08
   5  -8 -18    8.15    4.25
   5  -8 -18    7.08    3.01
  -5  -8 -17    5.67    4.00
   5  -8 -17    4.11    2.73
   5  -8 -17    6.64    3.33
   5  -8 -16    6.87    3.22
   5  -8 -16   10.24    4.16
  -5  -8 -16    0.34    3.36
   5  -8 -15   35.40    7.19
  -5  -8 -15   22.98    6.35
   5  -8 -15   35.21    7.13
   5   8 -14    6.42    4.23
  -5  -8 -14    1.07    3.43
   5  -8 -14    2.20    2.31
   5  -8 -14    7.65    3.04
   5   8 -13    4.85    4.20
  -5  -8 -13    1.34    2.32
   5  -8 -13   -0.27    2.54
   5  -8 -13    4.76    2.46
   5   8 -12   12.56    4.23
   5  -8 -12   14.55    4.34
   5  -8 -12    9.22    3.49
   5   8 -11    2.35    2.83
   5  -8 -11    2.89    2.94
   5  -8 -11   10.42    4.58
   5   8 -10   14.38    4.90
   5  -8 -10   10.73    3.82
   5  -8 -10    5.82    1.77
   5   8  -9    0.57    2.83
  -5   8  -9    5.50    3.21
   5  -8  -9    0.91    2.30
   5  -8  -9    4.50    3.41
   5   8  -8   29.11    6.45
   5  -8  -8   23.27    5.90
  -5   8  -8   16.02    5.19
   5  -8  -8   18.25    5.55
   5   8  -7   13.72    4.65
  -5   8  -7   21.95    5.76
   5  -8  -7   22.70    5.59
   5  -8  -7   29.73    6.22
   5   8  -6   31.70    5.95
  -5   8  -6   41.30    7.29
   5  -8  -6   52.33    8.64
   5  -8  -6   40.20    7.87
   5   8  -5    2.43    3.31
   5   8  -5    1.14    2.63
   5  -8  -5    7.00    3.28
  -5   8  -5    1.39    2.29
   5  -8  -5   -0.17    3.39
   5   8  -4   17.32    5.16
  -5   8  -4   21.82    4.95
   5   8  -4   20.99    4.81
   5  -8  -4   32.40    6.68
   5  -8  -4   24.49    6.06
   5   8  -3   10.28    4.02
   5   8  -3   12.98    4.21
  -5   8  -3   13.95    4.31
   5  -8  -3   12.23    4.47
   5  -8  -3   13.72    4.69
   5   8  -2   11.59    4.14
   5   8  -2    7.65    2.60
  -5   8  -2   20.93    5.43
   5  -8  -2   20.44    5.78
   5  -8  -2   17.94    4.81
   5   8  -1    0.48    2.12
   5   8  -1    3.49    2.81
  -5   8  -1    4.88    3.19
   5  -8  -1    0.61    2.86
   5  -8  -1    4.25    2.94
   5   8   0  103.04   11.47
  -5   8   0   98.85   11.38
   5  -8   0  117.17   11.37
   5  -8   0  101.60   11.68
   5   8   0  109.52   11.28
   5  -8   1    3.98    2.42
  -5   8   1    3.88    2.23
   5   8   1    4.28    2.59
   5   8   1    4.93    2.22
   5  -8   1    2.43    2.62
   5   8   2   22.68    5.17
   5  -8   2    8.55    3.39
   5   8   2    9.39    3.57
  -5   8   2   12.81    4.49
   5  -8   2   18.74    5.28
   5   8   3    9.60    3.19
   5   8   3    6.05    2.61
  -5   8   3    0.94    2.41
   5  -8   3   10.02    3.99
   5  -8   4   21.11    4.98
   5   8   4   27.90    6.48
   5   8   4   17.36    5.23
  -5   8   4   19.18    4.48
  -5   8   5    0.28    3.06
   5   8   5    1.69    2.31
   5   8   5    3.10    2.38
   5  -8   5    0.34    1.68
   5   8   6   36.05    7.25
   5   8   6   39.71    7.55
   5  -8   6   29.74    6.28
  -5   8   6   33.46    6.83
   5   8   7   24.39    5.60
   5   8   7   23.23    4.70
  -5   8   7   17.36    5.31
   5  -8   7   22.98    5.02
   5   8   8   27.90    6.37
   5   8   8   17.12    4.49
  -5   8   8   26.71    5.65
   5  -8   8   15.30    3.62
   5   8   9   -1.92    1.64
  -5   8   9    0.83    1.58
   5  -8   9    0.75    1.87
   5   8  10   11.66    4.50
   5   8  10    4.21    3.04
  -5   8  10    8.57    3.88
   5  -8  10    9.78    3.20
   5   8  11    2.81    3.69
  -5   8  11    2.00    2.95
   5   8  11    8.54    3.72
   5  -8  11    1.68    3.12
   5   8  12   14.28    3.97
   5   8  12   12.83    4.52
  -5   8  12   15.16    5.15
   5   8  13   -0.33    1.98
  -5   8  13   -1.31    2.67
   5   8  13    1.41    2.06
   5   8  14    2.86    3.20
  -5   8  14    5.86    4.64
   5   8  14    3.36    3.01
  -5   8  15   33.61    7.50
   5   8  15   19.40    5.64
   5   8  15   27.04    6.35
   5   8  16    4.19    3.87
   5   8  16    5.25    3.65
  -5   8  16   11.64    5.07
   5   8  17    6.04    2.84
   5   8  17    4.10    3.38
  -5   8  17    9.34    4.21
   5   8  18    3.25    5.49
   5   8  18    1.67    3.31
  -5   8  18    8.11    4.04
   5   8  19    3.31    4.34
  -5   8  19    6.11    4.01
   5   8  19    0.75    1.66
  -5   8  20   -1.50    3.18
   5   8  20   -1.07    1.42
   5   8  21   -1.75    1.79
  -5   8  21    2.39    3.10
   5  -9 -18   23.94    6.12
   5  -9 -18   21.88    6.18
   5  -9 -17   21.59    6.84
   5  -9 -17   33.67    7.86
   5  -9 -16   60.80    9.80
   5  -9 -16   49.39    9.28
   5  -9 -15   11.24    4.28
   5  -9 -15   11.79    3.72
   5  -9 -14   10.84    4.37
   5  -9 -14    4.51    2.68
   5   9 -13   18.17    5.98
   5  -9 -13   20.24    5.14
   5  -9 -13   20.83    5.33
   5   9 -12   27.59    6.77
   5  -9 -12   40.23    7.81
   5  -9 -12   34.50    7.68
   5   9 -11   63.78    9.85
   5  -9 -11   54.02    8.93
   5  -9 -11   46.95    8.76
   5  -9 -10   53.42    8.69
   5   9 -10   55.53    8.85
   5  -9 -10   52.84    9.32
   5   9  -9   46.23    8.72
   5  -9  -9   38.74    7.61
   5  -9  -9   37.31    7.53
   5   9  -8   27.00    6.05
  -5   9  -8   30.42    6.38
   5  -9  -8   24.12    6.25
   5  -9  -7   81.43   10.71
   5   9  -7   69.95   10.03
  -5   9  -7   80.31   11.07
   5  -9  -7   90.78   11.13
   5  -9  -6   23.04    5.90
   5   9  -6   27.48    6.18
  -5   9  -6   14.32    5.22
   5  -9  -6   19.66    6.09
   5   9  -5  114.19   12.42
  -5   9  -5  120.71   13.22
   5  -9  -5  100.41   11.55
   5  -9  -5  123.78   12.96
   5  -9  -4   56.28    8.43
  -5   9  -4   33.64    7.17
   5  -9  -4   45.11    8.43
   5   9  -4   38.82    7.59
   5   9  -3    5.05    3.23
   5   9  -3    4.40    3.93
   5  -9  -3    4.88    3.08
  -5   9  -3    5.09    4.03
   5   9  -2   30.78    6.54
   5   9  -2   37.55    7.57
  -5   9  -2   17.89    4.67
   5  -9  -2   18.94    4.77
   5   9  -1  139.43   13.56
  -5   9  -1  138.57   13.69
   5  -9  -1  114.70   12.50
   5   9  -1  145.20   14.12
  -5   9   0   32.97    7.81
   5   9   0   30.93    6.85
   5   9   0   40.15    7.93
   5  -9   0   37.55    7.51
   5   9   1  133.63   13.26
   5   9   1  119.46   12.59
  -5   9   1  118.46   12.93
   5  -9   1  139.22   14.31
   5   9   2   12.99    4.52
   5   9   2   19.74    5.35
  -5   9   2   23.74    6.38
   5  -9   2   18.86    5.87
   5   9   3    3.43    2.89
   5   9   3    8.59    4.91
  -5   9   3    2.30    1.88
   5  -9   3    2.35    2.54
   5   9   4   30.29    6.71
   5   9   4   55.97    9.12
  -5   9   4   46.59    7.92
   5  -9   4   42.15    7.78
   5   9   5   98.00   11.24
  -5   9   5   90.84   11.54
   5   9   5  107.51   11.99
   5  -9   5  118.85   12.86
   5   9   6   21.76    5.08
   5   9   6   29.52    6.45
   5  -9   6   21.58    5.82
  -5   9   6   12.88    3.47
   5   9   7   82.07   10.97
  -5   9   7  102.19   11.80
   5   9   7   70.47   10.05
   5  -9   7   88.91   11.12
   5   9   8   37.04    7.34
   5  -9   8   49.77    8.59
   5   9   8   40.36    8.18
  -5   9   8   24.35    5.95
   5   9   9   41.86    7.99
  -5   9   9   37.91    8.52
   5  -9   9   39.80    8.21
   5   9   9   29.64    6.59
  -5   9  10   42.12    8.88
   5   9  10   47.13    8.42
   5  -9  10   40.98    7.99
   5   9  11   51.94    9.20
   5   9  11   44.08    7.97
  -5   9  11   47.40    8.93
   5   9  12   50.66    8.26
   5   9  12   42.27    7.52
  -5   9  12   43.90    8.79
   5   9  13   11.78    4.32
   5   9  13    8.65    3.49
  -5   9  13   11.39    5.27
   5   9  14    8.37    3.27
   5   9  14   17.98    5.93
  -5   9  14   11.81    4.64
   5   9  15   18.18    6.30
   5   9  15   13.58    4.67
  -5   9  15   14.28    5.59
   5   9  16   59.22    9.54
   5   9  16   53.76    9.74
  -5   9  16   37.42    8.29
   5   9  17   25.78    7.31
  -5   9  17   22.95    6.66
   5   9  17   30.83    6.53
   5   9  18   10.44    5.34
   5   9  18   11.62    5.38
  -5   9  18   19.34    5.21
   5 -10 -14   -1.70    4.27
   5 -10 -14   -2.23    1.97
   5 -10 -13   -0.23    3.83
   5 -10 -13    3.88    3.51
   5  10 -12    7.12    4.44
   5 -10 -12    4.82    3.28
   5 -10 -12    2.40    3.57
   5  10 -11    1.40    2.82
   5 -10 -11    2.92    2.55
   5 -10 -11    5.44    2.66
   5  10 -10   16.86    5.02
   5 -10 -10   24.09    5.21
   5  10  -9    2.71    3.74
   5 -10  -9   -1.45    3.43
   5  10  -8   -1.55    2.13
  -5  10  -8    7.18    5.56
   5 -10  -8    3.17    2.75
   5  10  -7    3.70    3.19
  -5  10  -7    0.82    3.46
   5 -10  -7    5.52    2.73
   5  10  -6    5.35    2.81
  -5  10  -6    7.52    4.92
   5 -10  -6    6.48    4.25
   5  10  -5    9.71    3.15
  -5  10  -5   10.73    3.90
   5 -10  -5   13.92    5.04
   5  10  -4    3.33    3.49
   5 -10  -4    2.41    2.98
  -5  10  -4    2.71    1.56
   5  10  -3   10.22    5.39
  -5  10  -3    3.13    2.74
   5 -10  -3    6.87    4.60
   5  10  -2   13.11    5.48
  -5  10  -2    3.33    4.07
   5 -10  -2   12.67    4.35
   5  10  -2   15.19    5.01
   5  10  -1   12.51    3.75
   5  10  -1   32.30    6.82
  -5  10  -1   19.83    5.28
   5 -10  -1   18.39    5.62
   5  10   0    0.74    3.06
   5  10   0   -0.56    1.93
  -5  10   0    4.01    3.52
   5 -10   0   -0.37    2.59
   5  10   1   25.67    5.69
   5  10   1   23.78    6.01
  -5  10   1   25.06    6.24
   5 -10   1   31.40    7.08
   5  10   2   18.88    5.37
   5  10   2    2.62    2.40
  -5  10   2   21.10    5.60
   5 -10   2   17.97    5.47
   5  10   3   -1.34    1.65
  -5  10   3    2.69    1.88
   5 -10   3    2.03    2.60
   5  10   4   -3.97    2.99
  -5  10   4   -2.34    3.71
   5  10   4    1.07    2.14
   5 -10   4    0.10    1.55
   5  10   5   15.69    5.90
  -5  10   5   14.09    5.18
   5 -10   5    9.88    3.73
   5  10   5   11.06    4.49
   5  10   6    5.27    3.71
   5  10   6    0.98    3.18
  -5  10   6   -3.48    2.34
   5 -10   6   -2.58    3.14
   5 -10   7    0.10    2.11
  -5  10   7   10.50    4.73
   5  10   7    8.27    3.51
   5  10   7    7.62    4.10
   5  10   8    4.39    3.40
  -5  10   8    3.25    3.62
   5 -10   8    5.69    3.49
   5  10   8   -1.77    1.81
   5  10   9    0.26    2.37
  -5  10   9   -5.75    4.20
   5  10   9   -0.71    1.81
  -5  10  10   17.92    6.32
   5  10  10   15.30    4.36
   5  10  10   28.02    6.45
   5  10  11    1.65    2.16
  -5  10  11    1.60    3.05
   5  10  11   -0.91    2.75
   5  10  12    4.72    3.61
  -5  10  12    7.53    3.36
   5  10  12    3.45    2.62
   5  10  13   -2.17    2.15
   5  10  13   -1.16    1.26
  -5  10  13   -4.39    4.02
   5  10  14    2.62    2.69
  -5  10  14    1.87    4.24
   5  10  14   -0.63    1.55
   5  11  -7    6.67    4.27
  -5  11  -7   -0.68    3.47
   5 -11  -7    0.07    2.78
   5  11  -6    5.75    2.62
  -5  11  -6    6.34    5.11
   5 -11  -6   10.44    4.98
   5  11  -5   23.23    6.25
  -5  11  -5   17.11    5.77
   5 -11  -5   12.13    4.67
   5  11  -4   -1.69    3.43
  -5  11  -4    2.80    2.80
   5 -11  -4    7.11    4.85
   5  11  -3    5.94    4.71
  -5  11  -3    2.32    3.37
   5 -11  -3   -2.70    2.92
   5  11  -2    5.50    3.01
  -5  11  -2    4.03    3.91
   5 -11  -2    2.94    2.82
   5  11  -1    3.28    3.52
  -5  11  -1    0.33    3.04
   5 -11  -1    0.94    2.25
   5  11   0   22.93    6.52
  -5  11   0   18.08    5.13
   5 -11   0   14.48    5.36
   5  11   0   22.55    5.99
   5  11   1    0.07    2.76
  -5  11   1   -1.73    4.18
   5 -11   1    2.45    3.66
   5  11   1    1.55    3.62
   5  11   2    7.37    3.85
  -5  11   2    6.53    4.59
   5 -11   2    6.00    4.17
   5  11   2    2.25    1.81
   5  11   3   -1.02    2.42
  -5  11   3    5.25    3.93
   5 -11   3   -1.74    2.41
   5  11   3    5.78    4.88
   5  11   4   -6.13    4.63
  -5  11   4    4.84    4.59
   5 -11   4    4.92    3.33
   5  11   4    0.90    3.10
   5  11   5   12.22    5.62
  -5  11   5   24.28    6.52
   5  11   5   21.49    6.05
   5 -11   5   28.38    7.87
   5  11   6    0.93    2.41
  -5  11   6    5.36    2.16
   5  11   6    5.64    2.65
   5 -11   6    7.71    5.35
  -5  11   7   -0.41    2.08
   5  11   7    3.44    4.51
   5 -11   7   -0.02    2.72
   5  11   7    0.71    2.28
   6   0 -29    5.44    2.17
   6   0 -28  187.13   17.34
   6   0 -27   58.62    9.08
   6   0 -26    6.85    4.23
   6   0 -25   18.08    5.24
   6   0 -24  181.46   16.13
   6   0 -23   10.61    4.17
   6   0 -22  162.93   14.38
   6   0 -21   30.34    6.67
   6   0 -20    1.78    1.54
   6   0 -19   40.82    6.69
   6   0 -18   14.60    4.33
   6   0 -17  173.51   13.02
   6   0 -16 1740.96   40.95
   6   0 -15  425.80   19.89
   6   0 -14  917.58   21.58
   6   0 -14 1031.91   29.99
   6   0 -13  219.18   13.57
   6   0 -13  213.35   10.25
   6   0 -12  158.29    8.81
   6   0 -12  150.24   10.73
   6   0 -11  150.45    8.56
   6   0 -11  184.39   11.75
   6   0 -10  728.72   22.86
   6   0 -10  734.67   18.75
   6   0  -9  501.60   15.57
   6   0  -9  507.25   18.57
   6   0  -8  180.78   10.92
   6   0  -8  181.79    9.34
   6   0  -8  183.73   11.01
   6   0  -7  129.21    9.12
   6   0  -7  144.67    8.26
   6   0  -7  136.28    9.36
   6   0  -6  698.08   18.02
   6   0  -6  675.83   20.49
   6   0  -6  689.77   20.64
   6   0  -5 1955.39   30.57
   6   0  -5 1989.43   34.45
   6   0  -5 1941.13   34.02
   6   0  -4 1132.01   23.31
   6   0  -4 1096.78   25.11
   6   0  -4 1110.29   25.43
   6   0  -3 1036.03   24.15
   6   0  -3 1056.69   22.56
   6   0  -3 1078.63   24.34
   6   0  -2 5278.56   54.19
   6   0  -2 5193.95   52.59
   6   0  -1 1905.31   32.48
   6   0  -1 1909.22   31.09
   6   0  -1 1970.03   31.77
   6   0   0  625.59   18.01
   6   0   0  611.01   17.28
   6   0   1 1861.36   31.40
   6   0   1 1909.13   30.25
   6   0   2 5305.85   53.44
   6   0   2 5302.40   49.85
   6   0   3 1026.79   23.95
   6   0   3 1031.53   21.69
   6   0   4 1155.54   25.78
   6   0   4 1172.54   22.74
   6   0   5 2030.89   34.73
   6   0   5 2041.65   29.77
   6   0   6  688.44   20.63
   6   0   6  684.71   16.83
   6   0   7  150.96    9.87
   6   0   7  129.59    7.31
   6   0   8  172.03    8.12
   6   0   8  163.92   10.52
   6   0   9  454.24   12.93
   6   0   9  493.67   18.53
   6   0  10  705.72   22.64
   6   0  10  655.40   15.27
   6   0  11  161.61    7.39
   6   0  11  139.07   10.35
   6   0  12  161.61    7.05
   6   0  12  151.48   10.74
   6   0  13  187.14    7.21
   6   0  13  202.66   12.78
   6   0  14  993.76   29.19
   6   0  15  407.04   18.87
   6   0  16 1767.21   40.79
   6   0  17  169.18   12.63
   6   0  18   14.16    4.34
   6   0  19   27.35    5.51
   6   0  20    3.98    2.40
   6   0  21   58.04    8.34
   6   0  22  175.38   14.50
   6  -1 -29    1.95    3.16
   6  -1 -28   12.55    4.13
   6  -1 -27    3.01    3.27
   6  -1 -26   26.31    5.53
   6   1 -25   16.58    5.44
   6  -1 -25   20.78    5.74
   6   1 -24    7.75    4.08
   6  -1 -24    5.05    2.76
   6   1 -23   51.29    7.89
   6  -1 -23   24.78    5.78
   6  -1 -22   17.85    4.59
   6   1 -22    8.91    3.62
   6  -1 -21   35.53    6.55
   6   1 -21   40.27    6.92
   6   1 -20  111.67   11.02
   6  -1 -20  107.05   10.96
   6   1 -19   34.82    6.07
   6  -1 -19   36.16    5.54
   6  -1 -18   21.59    5.04
   6   1 -18   23.39    5.29
   6   1 -17   22.90    5.02
   6  -1 -17   29.21    5.34
   6  -1 -16   21.93    4.94
   6  -1 -16   12.44    3.26
   6   1 -15  111.40    9.84
   6  -1 -15  122.48   11.07
   6  -1 -15  113.88    8.71
   6  -1 -14  367.51   18.37
   6   1 -14  337.63   16.65
   6  -1 -14  341.59   15.06
   6  -1 -13   33.10    4.85
   6   1 -13   36.41    5.24
   6  -1 -13   49.55    6.78
   6   1 -13   44.23    6.39
   6   1 -12  101.10    8.44
   6  -1 -12   86.45    7.50
   6   1 -12   89.59    8.19
   6   1 -12   88.54    5.43
   6  -1 -12   93.18    8.95
   6  -1 -11   97.92    8.85
   6  -1 -11  101.58    7.84
   6   1 -11  106.37    8.93
   6   1 -11   97.72    8.35
   6   1 -11   80.48    5.37
   6  -1 -10    9.77    3.32
   6  -1 -10    6.57    2.00
   6   1 -10    3.91    1.51
   6   1 -10    4.78    1.73
   6   1 -10    7.10    1.96
   6   1  -9   68.12    6.56
   6   1  -9   55.73    4.75
   6   1  -9   42.76    5.17
   6  -1  -9   50.24    5.40
   6  -1  -9   73.09    7.47
   6  -1  -8   42.83    4.95
   6   1  -8   39.47    4.93
   6   1  -8   40.17    3.99
   6  -1  -8   39.48    5.31
   6   1  -8   46.30    5.78
   6  -1  -7  339.99   13.98
   6   1  -7  348.22   11.79
   6  -1  -7  342.71   15.44
   6   1  -7  335.07   13.85
   6   1  -7  337.29   14.76
   6  -1  -6  516.80   17.15
   6  -1  -6  529.50   19.01
   6   1  -6  559.44   15.12
   6   1  -6  566.93   17.79
   6   1  -6  515.72   17.98
   6  -1  -5  716.72   21.86
   6  -1  -5  713.69   19.97
   6   1  -5  687.01   19.13
   6   1  -5  732.81   17.70
   6   1  -5  700.45   20.68
   6  -1  -4  145.55    8.95
   6  -1  -4  138.21    9.40
   6   1  -4  136.87    7.74
   6   1  -4  130.98    8.36
   6   1  -4  139.79    9.28
   6  -1  -3  111.48    7.88
   6  -1  -3  109.41    8.70
   6   1  -3   97.96    6.70
   6   1  -3  107.64    7.34
   6  -1  -2    1.22    0.77
   6   1  -2    1.34    0.76
   6  -1  -2    1.79    0.92
   6   1  -2    1.75    1.66
   6   1  -1    9.82    2.45
   6  -1  -1   16.58    3.34
   6  -1  -1   14.16    2.93
   6   1  -1   16.83    2.91
   6   1   0    4.43    1.26
   6   1   0    1.76    0.86
   6  -1   0    0.69    0.74
   6  -1   0    1.15    1.34
   6  -1   1   17.90    3.21
   6   1   1   16.76    2.93
   6   1   1   17.99    3.16
   6   1   2    1.64    1.36
   6   1   2    4.39    1.91
   6  -1   2    1.59    1.14
   6   1   3  106.90    7.87
   6  -1   3  109.53    8.03
   6   1   3  103.94    7.29
   6   1   4  143.03    9.17
   6  -1   4  133.68    8.99
   6   1   4  137.40    8.33
   6   1   5  708.77   18.79
   6   1   5  665.68   20.46
   6  -1   5  716.83   20.85
   6   1   6  504.20   15.66
   6   1   6  506.57   18.23
   6  -1   6  514.87   18.02
   6   1   7  358.08   13.09
   6   1   7  327.34   14.85
   6  -1   7  364.98   15.48
   6   1   8   46.49    4.78
   6   1   8   42.87    5.42
   6  -1   8   46.68    5.84
   6   1   9   52.15    6.23
   6   1   9   52.29    5.06
   6  -1   9   50.82    6.09
   6   1  10    5.35    1.31
   6  -1  10    4.53    1.98
   6   1  10    3.48    1.89
   6   1  11  102.02    6.79
   6   1  11   90.73    8.44
   6  -1  11   93.94    8.37
   6   1  12   78.72    8.01
   6  -1  12   77.77    7.63
   6   1  13   34.26    5.50
   6  -1  13   39.65    5.70
   6   1  13   29.67    3.56
   6   1  14  355.58   17.73
   6   1  14  339.18   11.87
   6  -1  14  353.90   17.00
   6   1  15  124.49   10.75
   6  -1  15  122.25   10.22
   6   1  15  117.65    6.87
   6   1  16   36.20    5.80
   6  -1  16   28.83    5.20
   6  -1  17   23.27    4.86
   6   1  17   30.68    5.88
   6  -1  18   15.68    4.09
   6   1  18   25.86    5.22
   6   1  19   50.13    7.65
   6  -1  19   37.25    6.21
   6   1  20  136.98   12.76
   6  -1  20  125.14   11.91
   6  -1  21   38.42    6.13
   6   1  21   44.90    7.57
   6   1  22   22.64    5.98
   6   1  23   36.61    6.66
   6  -2 -29    0.14    3.19
   6  -2 -28   61.45    9.68
   6  -2 -27    3.02    2.35
   6  -2 -26   10.17    3.16
   6  -2 -25    0.93    1.70
   6  -2 -24   80.55   10.79
   6  -2 -23    3.66    1.96
   6  -2 -22    8.65    3.24
   6  -2 -21    3.97    2.95
   6   2 -20   51.59    8.06
   6  -2 -20   41.48    7.11
   6   2 -19    3.50    2.65
   6  -2 -19    1.32    2.23
   6   2 -18   26.50    5.37
   6  -2 -18   22.68    5.31
   6  -2 -17    4.26    3.12
   6   2 -17    1.75    1.31
   6  -2 -17    1.51    2.12
   6   2 -17    1.06    1.62
   6   2 -16  218.20   13.63
   6  -2 -16  233.77   15.79
   6   2 -16  258.14   15.31
   6  -2 -16  213.39   13.75
   6   2 -15  169.72   11.54
   6  -2 -15  173.78   12.07
   6   2 -15  180.90   12.32
   6  -2 -15  177.01   13.59
   6  -2 -14  582.44   21.97
   6   2 -14  589.97   20.88
   6   2 -14  572.23   21.71
   6   2 -13   49.95    6.03
   6  -2 -13   44.82    6.59
   6  -2 -13   50.53    6.43
   6   2 -13   47.10    6.27
   6   2 -12   86.97    7.74
   6  -2 -12   85.56    9.03
   6  -2 -12  102.10    8.77
   6   2 -12  105.45    8.81
   6   2 -11   92.76    7.62
   6  -2 -11   81.99    7.85
   6  -2 -11   79.73    8.48
   6   2 -11   94.94    8.63
   6   2 -10   50.47    5.56
   6  -2 -10   56.49    6.52
   6   2 -10   50.72    3.94
   6  -2 -10   64.13    7.36
   6   2 -10   55.66    6.20
   6   2  -9    7.61    2.58
   6  -2  -9    8.96    2.67
   6  -2  -9    5.37    2.19
   6   2  -9    5.83    1.85
   6   2  -9    4.76    1.31
   6   2  -8   17.51    3.81
   6   2  -8   20.93    3.25
   6   2  -8   22.62    2.96
   6  -2  -8   18.45    3.38
   6  -2  -8   15.88    3.80
   6   2  -7   14.04    3.18
   6   2  -7   12.02    2.10
   6  -2  -7   14.58    3.47
   6  -2  -7   21.08    3.99
   6   2  -7   13.14    2.56
   6  -2  -6  225.57   12.44
   6  -2  -6  247.84   13.50
   6   2  -6  245.03   10.70
   6   2  -6  233.79    9.60
   6   2  -6  218.23   12.04
   6  -2  -5   81.94    7.54
   6  -2  -5   76.82    7.41
   6   2  -5   73.68    5.92
   6   2  -5   74.66    5.72
   6   2  -5   68.29    6.80
   6   2  -4    2.05    1.09
   6  -2  -4    6.47    2.44
   6   2  -4    5.24    1.87
   6   2  -4    3.31    1.48
   6  -2  -4    8.53    2.84
   6   2  -3   49.15    5.86
   6   2  -3   51.43    4.97
   6  -2  -3   46.93    5.53
   6  -2  -3   51.76    6.01
   6   2  -3   56.66    5.01
   6   2  -2  442.25   16.72
   6   2  -2  455.26   15.22
   6  -2  -2  436.45   16.75
   6  -2  -2  415.96   17.17
   6   2  -2  443.39   14.31
   6   2  -1   73.85    6.76
   6   2  -1   86.98    6.78
   6  -2  -1   74.07    6.91
   6  -2  -1   64.04    6.38
   6   2   0    3.73    1.48
   6  -2   0    2.57    1.51
   6   2   0    1.99    1.49
   6  -2   0    0.87    1.16
   6   2   1   83.90    7.05
   6  -2   1   71.26    6.55
   6   2   1   74.49    6.60
   6  -2   1   82.10    7.35
   6  -2   2  404.52   16.11
   6   2   2  396.28   15.28
   6   2   2  438.23   16.08
   6  -2   2  412.03   16.75
   6   2   3   46.37    5.44
   6   2   3   46.67    5.43
   6   2   4    7.15    2.25
   6  -2   4    4.41    2.23
   6  -2   5   68.33    6.91
   6   2   5   80.46    7.54
   6   2   5   75.46    6.61
   6   2   6  227.35   11.42
   6  -2   6  230.83   12.38
   6   2   6  226.64   12.56
   6   2   7   16.49    3.09
   6   2   7   12.31    3.43
   6  -2   7   21.83    4.19
   6   2   8   11.51    2.78
   6   2   8   13.41    3.28
   6  -2   8   17.17    3.69
   6   2   9    2.54    1.14
   6   2   9    5.30    2.19
   6  -2   9    6.49    1.96
   6   2  10   74.97    6.53
   6   2  10   58.99    6.75
   6  -2  10   59.17    6.61
   6   2  11   84.15    6.99
   6  -2  11   77.20    7.75
   6   2  11   77.44    8.14
   6   2  12   82.28    7.04
   6   2  12   85.19    8.75
   6  -2  12   93.32    8.50
   6   2  13   50.02    5.36
   6   2  13   36.15    5.82
   6  -2  13   55.52    6.67
   6   2  14  586.25   18.75
   6   2  14  578.95   23.40
   6  -2  14  584.98   22.40
   6   2  15  152.61    9.53
   6   2  15  172.87   12.80
   6  -2  15  190.09   12.95
   6   2  16  235.61   15.55
   6  -2  16  227.04   14.55
   6  -2  17    2.30    2.08
   6   2  17   -1.15    2.18
   6  -2  18   27.43    5.57
   6   2  18   26.06    5.24
   6  -2  19    0.56    1.11
   6   2  19    3.24    1.76
   6  -2  20   30.35    5.29
   6   2  20   39.24    6.79
   6   2  21    9.47    4.56
   6   2  22   11.30    4.82
   6   2  23    1.33    2.66
   6   2  24   80.71   10.34
   6   2  25    9.71    3.85
   6  -3 -28   -0.75    2.08
   6  -3 -27   11.81    3.84
   6  -3 -26   24.83    6.26
   6  -3 -25   53.39    8.83
   6  -3 -24   13.26    4.24
   6  -3 -23    4.44    4.20
   6  -3 -22    5.36    3.00
   6  -3 -21   13.28    4.72
   6  -3 -20   36.35    6.54
   6  -3 -19  132.39   12.43
   6  -3 -18   55.09    7.70
   6  -3 -18   62.61    8.91
   6   3 -18   78.61    8.95
   6  -3 -17  159.74   12.77
   6  -3 -17  168.73   13.84
   6   3 -17  151.99   12.04
   6  -3 -16   56.51    7.59
   6  -3 -16   61.81    8.74
   6   3 -16   57.69    7.50
   6  -3 -15   31.30    5.62
   6   3 -15   29.36    5.41
   6  -3 -15   26.72    5.07
   6   3 -14  172.25   10.64
   6  -3 -14  202.81   14.08
   6   3 -14  199.53   13.36
   6  -3 -13   63.14    8.09
   6   3 -13   55.54    5.71
   6   3 -13   65.95    7.65
   6  -3 -13   70.44    7.96
   6   3 -12   70.71    7.81
   6  -3 -12   71.85    8.64
   6   3 -12   73.27    6.35
   6  -3 -12   83.32    8.65
   6   3 -11  175.16   12.07
   6   3 -11  160.47    9.00
  -6   3 -11  160.03    8.56
   6  -3 -11  178.08   12.97
   6  -3 -11  179.19   12.45
   6  -3 -10   23.22    5.07
   6   3 -10   29.23    3.25
   6   3 -10   32.32    3.94
   6  -3 -10   29.25    4.93
   6   3 -10   35.65    5.39
   6  -3  -9   71.64    7.72
   6   3  -9   59.49    4.63
   6  -3  -9   62.36    7.51
   6   3  -9   66.25    7.23
   6   3  -8   71.13    7.51
   6   3  -8   70.33    5.49
   6  -3  -8   81.51    8.21
   6   3  -8   75.32    5.58
   6  -3  -8   78.33    8.19
   6   3  -7  337.06   16.00
   6   3  -7  346.77   12.47
   6   3  -7  346.16   11.61
   6  -3  -7  301.96   15.70
   6  -3  -7  341.74   16.50
   6   3  -6  366.47   16.58
   6   3  -6  367.58   11.74
   6   3  -6  370.46   13.26
   6  -3  -6  336.34   16.50
   6  -3  -6  360.01   16.80
   6   3  -5  473.47   15.29
   6   3  -5  466.72   18.49
   6   3  -5  477.28   13.29
   6  -3  -5  467.60   19.33
   6  -3  -5  451.92   18.63
   6  -3  -4  332.44   15.87
   6   3  -4  329.61   15.46
   6  -3  -4  338.43   16.33
   6   3  -4  306.27   12.74
   6   3  -4  332.87   11.24
   6  -3  -3  703.26   23.06
   6   3  -3  731.85   23.10
   6   3  -3  750.51   20.26
   6   3  -3  740.81   17.36
   6  -3  -3  753.21   24.19
   6   3  -2   92.08    8.00
   6  -3  -2   92.24    8.31
   6   3  -2  101.75    7.64
   6  -3  -2   86.94    8.15
   6  -3  -1   61.44    6.90
   6   3  -1   79.16    7.62
   6  -3  -1   77.81    7.78
   6   3  -1   75.63    6.70
   6   3   0   53.32    6.33
   6  -3   0   51.63    6.42
   6  -3   0   56.25    6.30
   6   3   1   79.86    7.35
   6  -3   1   96.33    8.40
   6   3   1   83.06    7.37
   6  -3   1   87.54    7.85
   6   3   2   86.71    7.78
   6  -3   2   88.44    8.11
   6  -3   2  105.46    8.60
   6   3   3  702.90   22.05
   6  -3   3  771.45   23.77
   6  -3   3  753.03   23.36
   6   3   3  723.91   22.47
   6   3   4  296.39   14.41
   6  -3   4  320.15   15.16
   6   3   4  300.39   14.71
   6  -3   4  329.32   15.38
   6   3   5  449.02   17.71
   6  -3   5  453.95   18.32
   6   3   5  446.00   18.32
   6   3   6  350.00   16.40
   6   3   6  371.42   16.02
   6  -3   6  323.13   15.52
   6  -3   7  370.70   16.74
   6   3   7  353.21   15.91
   6   3   7  358.35   16.92
   6   3   8   71.62    7.07
   6  -3   8   59.45    6.88
   6   3   8   79.66    8.09
   6   3   9   68.47    6.95
   6  -3   9   60.97    6.95
   6   3   9   75.29    7.96
   6  -3  10   16.62    3.67
   6   3  10   28.75    4.51
   6   3  10   28.83    5.04
   6   3  11  151.31   10.49
   6  -3  11  167.97   11.59
   6   3  11  166.71   12.20
   6  -3  12   74.05    8.05
   6   3  12   80.56    7.70
   6   3  12   77.06    8.72
   6   3  13   64.76    7.01
   6  -3  13   58.95    7.03
   6   3  13   59.31    7.63
   6   3  14  228.82   13.07
   6  -3  14  227.62   14.10
   6   3  14  188.70   13.77
   6   3  15   33.60    5.18
   6  -3  15   31.70    5.62
   6   3  15   44.81    7.08
   6   3  16   51.82    7.88
   6   3  16   57.72    6.73
   6  -3  16   46.72    6.80
   6  -3  17  142.45   11.74
   6   3  17  140.99   12.69
   6  -3  18   58.46    7.74
   6   3  18   68.80    8.96
   6   3  19  135.20   13.00
   6   3  20   47.92    8.16
   6   3  21   13.02    3.98
   6   3  22    5.29    3.05
   6   3  23    4.56    1.86
   6   3  24    1.96    2.01
   6   3  25   54.87    8.99
   6   3  26   15.30    5.48
   6  -4 -27    5.10    2.60
   6  -4 -26   12.01    4.21
   6  -4 -25    8.67    3.27
   6  -4 -24   65.91   10.21
   6  -4 -23   21.92    5.24
   6  -4 -22   37.95    7.19
   6  -4 -21   34.03    7.40
   6  -4 -20   22.71    5.81
   6  -4 -19    0.81    1.92
   6  -4 -19   -0.90    2.72
   6  -4 -18  215.07   16.32
   6  -4 -18  248.85   17.31
   6  -4 -17   74.89    9.77
   6  -4 -17   71.68    9.20
   6   4 -17   73.39    8.74
   6  -4 -16   45.49    7.37
   6  -4 -16   29.76    5.49
   6   4 -16   51.44    7.29
   6  -4 -15   51.67    8.12
   6   4 -15   47.93    6.95
   6  -4 -15   39.94    7.00
   6   4 -14    8.33    2.81
   6  -4 -14   15.55    4.33
   6  -4 -14    7.60    3.45
   6  -4 -13   79.78    9.44
   6  -4 -13   88.03    9.63
   6   4 -13   91.70    9.43
   6  -4 -12  389.83   20.24
   6  -4 -12  396.39   20.13
   6   4 -12  391.85   19.06
   6   4 -11  142.36   11.37
  -6   4 -11  168.76   10.45
   6  -4 -11  161.26   12.86
   6  -4 -11  165.60   12.80
   6  -4 -10   28.64    5.70
  -6   4 -10   31.08    4.70
   6   4 -10   39.06    5.97
   6  -4 -10   36.45    5.71
   6   4  -9  122.90   10.47
  -6   4  -9  114.92    8.72
   6  -4  -9  119.94   10.57
   6  -4  -9  111.19    9.93
   6   4  -9  116.75    7.51
   6  -4  -8  473.29   20.91
   6   4  -8  459.37   15.43
   6   4  -8  513.44   21.09
   6  -4  -8  465.24   20.78
   6   4  -7   41.69    6.12
   6   4  -7   31.38    4.04
   6  -4  -7   37.46    5.88
   6  -4  -7   41.66    6.38
   6   4  -6   91.29    8.85
   6   4  -6   75.00    6.59
   6  -4  -6   71.13    8.17
   6   4  -6   75.52    4.49
   6  -4  -6   83.62    8.59
   6   4  -5  520.94   20.97
   6   4  -5  552.50   12.36
   6   4  -5  563.17   18.20
   6  -4  -5  545.11   21.67
   6  -4  -5  540.85   21.62
   6  -4  -4    2.05    1.95
   6   4  -4    2.71    1.69
   6  -4  -4    1.97    1.20
   6   4  -4    2.11    1.47
   6   4  -4    2.91    1.16
   6   4  -3  204.42   12.95
   6  -4  -3  229.23   13.99
   6  -4  -3  203.56   13.17
   6   4  -3  201.84   11.38
   6   4  -3  218.92    8.71
   6   4  -2  101.20    9.20
   6  -4  -2  116.26    9.86
   6  -4  -2  118.64   10.02
   6  -4  -1   89.73    8.79
   6  -4  -1   89.12    8.53
   6   4  -1   95.52    7.90
   6   4  -1  101.04    8.92
   6  -4   0  147.85   11.14
   6   4   0  128.26   10.14
   6  -4   0  147.90   10.71
   6   4   0  150.74   10.32
   6  -4   1   94.47    8.72
   6   4   1   93.87    8.77
   6  -4   1   86.05    8.41
   6   4   1   91.11    8.17
   6  -4   2  114.91    9.75
   6   4   2  117.46    9.65
   6  -4   2  118.38    9.81
   6   4   2  105.86    8.80
   6  -4   3  203.73   13.21
   6   4   3  206.00   12.82
   6  -4   3  204.40   12.67
   6   4   3  185.76   12.49
   6   4   4    0.14    1.57
   6  -4   4    1.74    1.10
   6  -4   4    2.05    1.04
   6   4   4    1.86    1.48
   6  -4   5  519.04   21.05
   6   4   5  549.96   21.21
   6  -4   5  505.56   20.41
   6  -4   6   71.80    7.77
   6   4   6   74.95    7.83
   6  -4   6   82.45    8.29
   6   4   6   83.69    8.42
   6  -4   7   36.28    5.57
   6   4   7   40.44    5.84
   6   4   7   26.07    5.16
   6   4   8  516.96   20.78
   6  -4   8  483.04   20.58
   6   4   8  520.01   21.61
   6   4   9  124.09   10.27
   6  -4   9  123.45   10.24
   6   4   9  117.28   10.51
   6   4  10   36.69    5.76
   6  -4  10   23.76    4.60
   6   4  10   32.80    5.55
   6   4  11  188.03   12.56
   6   4  11  160.78   12.34
   6   4  12  384.69   18.27
   6  -4  12  388.20   19.04
   6   4  12  387.85   19.90
   6   4  13   77.21    9.45
   6   4  13   84.21    8.63
   6  -4  13   93.26    9.16
   6   4  14   12.24    3.09
   6  -4  14   13.98    3.29
   6   4  14   16.13    4.90
   6   4  15   51.65    7.02
   6  -4  15   36.91    6.24
   6   4  15   50.18    7.49
   6   4  16   59.70    7.33
   6  -4  16   38.94    6.42
   6   4  16   55.64    8.38
   6   4  17   63.95    8.14
   6  -4  17   57.94    7.69
   6   4  17   64.46    9.02
   6   4  18  228.90   16.66
   6   4  19    6.02    2.81
   6   4  20   32.72    6.73
   6   4  21   42.55    8.15
   6   4  22   37.82    8.04
   6   4  23   23.67    6.02
   6   4  24   59.71    9.34
   6   4  25   10.71    4.13
   6   4  26   13.75    4.52
   6  -5 -26    3.39    1.91
   6  -5 -25   30.91    7.02
   6  -5 -24    6.01    3.81
   6  -5 -23    2.07    2.06
   6  -5 -22   16.40    5.56
   6  -5 -21   13.48    4.49
   6  -5 -21   34.23    7.41
   6  -5 -20    3.34    2.53
   6  -5 -20    2.34    1.57
   6  -5 -19    8.29    3.79
   6  -5 -19   -0.39    2.99
   6  -5 -18   14.67    5.51
   6  -5 -18    4.49    2.17
   6  -5 -17   29.45    6.44
   6  -5 -17   31.83    6.54
   6   5 -16   13.09    3.91
   6  -5 -16   11.18    4.20
   6  -5 -16   22.88    5.75
   6   5 -15   10.35    4.50
   6  -5 -15   18.71    4.36
   6  -5 -15   13.28    4.45
   6  -5 -14   20.06    5.52
   6   5 -14   18.41    4.53
   6  -5 -14   17.58    4.66
   6   5 -13   78.54    8.88
   6  -5 -13   84.48    9.89
   6  -5 -13   73.27    9.37
   6   5 -12   10.35    3.71
   6  -5 -12   10.94    3.48
   6  -5 -12    8.74    4.03
   6   5 -11    2.07    1.07
   6  -5 -11    4.76    2.30
   6  -5 -11    5.18    2.83
   6  -5 -10    9.20    3.04
   6   5 -10    9.14    2.95
  -6   5 -10   10.81    2.94
   6  -5 -10   17.62    4.71
   6   5  -9   40.96    6.45
  -6   5  -9   33.78    5.14
   6  -5  -9   37.16    6.15
   6  -5  -9   43.68    6.87
  -6   5  -8   35.05    5.59
   6   5  -8   19.28    4.45
   6   5  -8   23.86    4.25
   6  -5  -8   22.24    5.01
   6  -5  -8   22.27    5.03
   6   5  -7   18.66    4.05
  -6   5  -7   20.52    4.44
   6   5  -7   18.91    3.92
   6  -5  -7   16.19    4.41
   6  -5  -7   28.11    5.56
   6  -5  -6    8.77    3.32
   6   5  -6   11.83    3.17
   6   5  -6    6.61    1.36
   6  -5  -6   11.76    3.51
  -6   5  -6   13.00    3.26
   6  -5  -5   37.42    6.08
   6   5  -5   41.24    6.46
   6   5  -5   45.43    5.55
   6  -5  -5   43.15    6.73
   6   5  -4   91.40    9.23
   6  -5  -4  105.32    9.91
   6  -5  -4   95.57    9.68
   6   5  -4  104.09    8.68
   6   5  -3   84.56    8.90
   6  -5  -3   93.05    8.99
   6  -5  -3   93.30    9.29
   6   5  -3   70.54    7.29
   6   5  -2   76.36    8.56
   6  -5  -2   79.05    8.67
   6  -5  -2   74.95    8.49
   6   5  -2   84.91    8.08
   6   5  -1   26.52    4.66
   6  -5  -1   22.93    5.17
   6   5  -1   14.90    3.83
   6  -5  -1   19.56    4.24
   6   5   0   23.54    4.48
   6  -5   0   19.46    4.36
   6   5   0   24.10    5.14
   6  -5   0   23.77    4.81
   6   5   1   26.53    5.05
   6   5   1   16.46    4.05
   6  -5   1   20.83    4.35
   6   5   2   54.70    6.98
   6   5   2   88.45    8.80
   6  -5   2   76.59    8.22
   6  -5   2   76.38    8.67
   6   5   3   79.34    8.27
   6   5   3   88.69    9.19
   6  -5   3   91.93    9.27
   6  -5   3   91.92    9.41
   6  -5   4   93.72    9.21
   6   5   4  101.32    9.55
   6   5   4  113.19   10.22
   6  -5   4   87.42    8.78
   6  -5   5   55.34    7.39
   6   5   5   33.94    5.94
   6   5   5   47.18    7.10
   6  -5   5   54.16    6.90
   6  -5   6    5.70    1.91
   6   5   6    9.46    2.83
   6   5   6    9.93    3.34
   6  -5   7   24.54    4.83
   6   5   7   23.73    5.06
   6   5   7   22.45    5.08
   6  -5   7   21.24    4.87
   6  -5   8   25.83    4.83
   6   5   8   23.85    4.99
   6   5   8   24.13    5.05
   6  -5   8   28.85    5.72
   6  -5   9   31.72    4.90
   6   5   9   39.79    5.70
   6   5   9   40.60    6.10
   6  -5   9   32.61    5.95
   6   5  10   17.47    4.29
   6  -5  10    5.67    2.03
   6   5  10   14.05    3.78
   6   5  11    0.11    1.98
   6  -5  11    1.04    1.36
   6   5  11   -1.17    2.85
   6   5  12   10.79    4.29
   6   5  12   11.18    2.70
   6  -5  12    6.24    2.54
   6   5  13   58.23    7.60
   6   5  13   87.36    9.73
   6   5  14   23.67    4.88
   6  -5  14   21.46    5.28
   6   5  14   16.58    4.72
   6   5  15   17.14    4.43
   6  -5  15   17.42    4.95
   6   5  15   22.15    4.77
   6   5  16   17.23    4.25
   6  -5  16   12.01    4.33
   6   5  16   11.83    4.52
   6   5  17   33.74    6.47
   6   5  17   37.68    6.99
   6   5  18   18.40    5.82
   6   5  19   -0.52    1.80
   6   5  20    2.50    1.46
   6   5  21   18.33    5.57
   6   5  22   32.11    6.35
   6   5  23    2.19    3.42
  -6   5  23    2.40    2.28
   6   5  24   -4.89    3.69
   6   5  25   23.58    6.36
   6   5  26   14.32    6.11
   6  -6 -25   22.56    5.31
   6  -6 -24   61.53    9.83
   6  -6 -23    9.03    2.63
   6  -6 -22  100.16   12.32
   6  -6 -21   29.97    7.71
   6  -6 -21   29.18    6.85
   6  -6 -20    1.89    2.75
   6  -6 -20   10.04    4.87
   6  -6 -19   20.77    5.38
   6  -6 -19   24.77    6.37
   6  -6 -18  218.17   16.40
   6  -6 -18  169.08   15.57
   6  -6 -17   35.28    6.74
   6  -6 -17   38.48    7.23
   6   6 -16   -0.23    2.08
   6  -6 -16   -0.98    2.95
   6  -6 -16    1.22    1.79
   6   6 -15   11.58    4.03
   6  -6 -15    3.23    4.00
   6  -6 -15    7.88    3.18
   6   6 -14    5.94    3.92
   6  -6 -14    7.23    4.46
   6  -6 -14    8.07    3.75
   6   6 -13   10.32    3.77
   6  -6 -13   10.05    3.79
   6  -6 -13   12.60    4.68
   6   6 -12  187.49   14.74
   6  -6 -12  144.10   13.04
   6  -6 -12  173.69   14.72
   6   6 -11   40.44    6.61
   6  -6 -11   43.35    7.40
   6  -6 -11   36.47    6.92
   6   6 -10    2.96    1.98
  -6   6 -10    2.68    2.37
   6  -6 -10    3.84    3.63
   6  -6 -10    2.33    3.12
   6   6  -9   44.85    7.43
   6  -6  -9   40.44    7.15
  -6   6  -9   29.56    5.30
   6  -6  -9   36.20    6.44
   6   6  -8  342.66   19.34
  -6   6  -8  404.80   20.35
   6  -6  -8  422.12   21.61
   6  -6  -8  365.21   20.59
   6   6  -7   88.76    9.62
   6  -6  -7   73.05    9.16
  -6   6  -7   92.28    9.67
   6   6  -7   89.58    8.50
   6  -6  -7   77.90    9.40
   6   6  -6    1.37    1.68
  -6   6  -6    1.04    1.67
   6  -6  -6   -0.94    2.53
   6   6  -6    1.30    1.57
   6  -6  -6    0.96    1.90
   6   6  -5   51.24    7.49
   6  -6  -5   51.90    7.59
  -6   6  -5   55.64    7.55
   6  -6  -5   67.67    8.85
   6   6  -5   43.90    6.14
  -6   6  -4  181.74   13.39
   6   6  -4  182.69   12.52
   6   6  -4  191.36   14.21
   6  -6  -4  202.93   14.00
   6  -6  -4  189.58   14.25
   6  -6  -3    4.32    3.50
   6   6  -3    0.28    1.74
   6   6  -3    5.79    2.78
   6  -6  -3    2.92    3.12
  -6   6  -3    3.66    2.60
   6   6  -2  347.58   18.02
   6   6  -2  357.34   19.26
  -6   6  -2  319.02   17.79
   6  -6  -2  308.30   18.07
   6  -6  -2  356.10   18.67
   6   6  -1   77.66    8.24
   6  -6  -1   75.20    8.33
   6   6  -1   66.11    8.12
  -6   6  -1   86.08    9.35
   6  -6  -1   74.64    8.81
   6   6   0    2.59    2.26
   6  -6   0    0.59    1.03
   6   6   0    5.33    2.10
   6   6   1   88.26    9.43
   6   6   1   73.01    8.38
   6  -6   1   86.00    9.03
   6  -6   1   72.58    8.45
   6   6   2  352.71   19.00
   6   6   2  323.73   17.82
   6  -6   2  302.54   17.23
   6  -6   2  323.24   18.47
   6  -6   3    5.02    3.03
   6   6   3    3.74    1.97
   6  -6   3    1.21    1.06
   6   6   3    5.91    2.96
   6   6   4  194.14   14.05
   6   6   4  170.80   13.07
   6  -6   4  196.39   14.02
   6  -6   4  179.03   13.64
   6   6   5   65.83    8.42
   6   6   5   40.20    6.81
   6  -6   5   58.53    7.78
   6  -6   5   56.61    7.87
   6  -6   6    0.96    1.48
   6   6   6    0.13    2.36
   6   6   6    1.10    2.62
   6  -6   6    0.96    1.86
   6   6   7   58.74    7.93
   6   6   7   72.40    8.67
   6  -6   7   76.25    8.79
   6  -6   7   87.26    9.52
   6   6   8  394.59   20.59
   6   6   8  395.51   20.94
   6  -6   8  392.90   19.73
   6  -6   8  403.93   20.75
   6   6   9   42.38    6.99
   6   6   9   41.93    7.06
   6  -6   9   36.24    5.87
   6  -6   9   39.90    6.66
   6  -6  10    1.61    3.13
   6   6  10    3.35    2.39
   6   6  10    2.27    1.73
   6  -6  10    4.02    3.37
   6   6  11   28.37    5.90
   6   6  11   30.61    6.19
   6  -6  11   40.76    6.91
   6  -6  11   48.38    7.30
   6   6  12  159.90   13.61
   6   6  12  156.24   13.51
   6  -6  12  149.17   13.12
   6  -6  12  141.96   12.90
   6  -6  13   13.93    4.19
   6   6  13   19.72    4.78
   6   6  13   15.29    4.21
   6  -6  13   11.34    3.34
   6   6  14    1.99    2.82
   6   6  14    0.69    1.75
   6  -6  14    2.09    2.08
   6   6  15   10.80    3.98
   6  -6  15    8.28    3.14
   6   6  15   14.70    4.82
   6   6  16    1.80    2.20
   6   6  16   -1.54    2.51
   6   6  17   26.18    5.50
   6   6  17   31.80    6.65
   6   6  18  177.22   15.13
   6   6  18  204.56   16.40
  -6   6  19   23.32    6.02
   6   6  19   23.06    6.15
  -6   6  20   -1.68    3.12
   6   6  20   -0.69    2.11
   6   6  21   36.38    6.75
  -6   6  21   46.33    8.75
  -6   6  22   82.01   11.94
   6   6  22   97.47   12.33
   6   6  23    6.94    4.77
  -6   6  23   -0.73    3.92
   6   6  24   56.27    9.58
   6   6  25   18.86    6.42
   6  -7 -23    7.65    4.52
   6  -7 -22    1.46    4.38
   6  -7 -21   40.54    8.12
   6  -7 -21   30.87    6.93
   6  -7 -20   13.99    4.49
   6  -7 -20   28.25    6.77
   6  -7 -19   24.83    6.86
   6  -7 -19   22.15    6.39
   6  -7 -18   52.04    8.77
   6  -7 -18   43.87    8.21
   6  -7 -17    3.44    2.66
   6  -7 -17    5.96    2.96
   6  -7 -16   25.75    5.34
   6  -7 -16   15.80    4.92
   6   7 -15   24.52    5.55
   6  -7 -15   15.09    4.49
   6  -7 -15   21.26    6.20
   6   7 -14   18.80    4.90
   6  -7 -14   10.46    4.40
   6  -7 -14    9.90    4.76
   6   7 -13   36.44    6.83
   6  -7 -13   36.88    7.41
   6  -7 -13   47.30    8.31
   6   7 -12   19.80    4.98
   6  -7 -12   18.82    5.12
   6  -7 -12   19.08    6.19
   6   7 -11    7.32    3.11
   6  -7 -11    4.61    3.59
   6  -7 -11    9.20    3.21
   6  -7 -10   55.72    8.86
   6  -7 -10   53.00    8.34
   6   7 -10   56.34    8.30
   6   7  -9    7.48    3.29
  -6   7  -9    2.53    2.46
   6  -7  -9    4.72    2.82
   6  -7  -9   11.69    4.98
   6   7  -8   92.25   10.76
   6  -7  -8   90.95   10.44
  -6   7  -8   75.80    9.29
   6  -7  -8   76.09   10.16
   6   7  -7   20.61    5.24
   6  -7  -7   27.88    6.17
  -6   7  -7   22.16    5.41
   6  -7  -7   29.23    6.10
   6   7  -6   16.94    4.53
   6   7  -6   11.00    3.51
   6  -7  -6    9.62    3.16
  -6   7  -6   18.98    5.15
   6  -7  -6    9.67    2.75
   6   7  -5   32.08    6.29
   6   7  -5   22.87    4.90
  -6   7  -5   39.94    6.70
   6  -7  -5   26.93    5.65
   6  -7  -5   23.02    5.64
   6   7  -4   97.57    9.83
   6   7  -4  114.22   11.65
   6  -7  -4  103.75   10.84
  -6   7  -4   98.37   10.78
   6  -7  -4  101.43   11.35
   6   7  -3   44.32    7.14
   6   7  -3   41.04    6.46
  -6   7  -3   38.61    6.44
   6  -7  -3   33.59    6.25
   6  -7  -3   41.69    7.14
   6   7  -2  130.51   11.94
   6   7  -2  143.96   12.04
  -6   7  -2  169.45   14.00
   6  -7  -2  125.95   11.82
   6  -7  -2  147.45   13.48
   6  -7  -1   30.77    6.06
   6   7  -1   22.66    4.91
  -6   7  -1   19.36    4.99
   6   7  -1   20.14    5.25
   6  -7  -1   23.88    5.53
   6  -7   0    1.92    1.51
   6   7   0    9.37    3.60
  -6   7   0    7.17    3.40
   6   7   0    6.41    2.96
   6  -7   0    2.54    2.83
   6  -7   1   15.05    4.12
   6   7   1   26.51    5.67
  -6   7   1   20.38    5.50
   6   7   1   18.52    4.40
   6  -7   1   26.45    5.95
   6   7   2  153.71   13.26
   6   7   2  156.53   12.95
  -6   7   2  151.35   13.31
   6  -7   2  132.08   11.94
   6  -7   2  124.61   12.18
   6   7   3   39.79    6.71
   6   7   3   39.13    5.72
  -6   7   3   49.29    7.54
   6  -7   3   28.72    5.50
   6  -7   3   45.29    6.98
   6   7   4   96.67   10.44
   6   7   4  120.19   11.58
  -6   7   4  117.99   11.87
   6  -7   4  106.14   10.57
   6  -7   4  101.63   10.93
   6  -7   5   26.18    5.38
   6   7   5   19.36    4.40
  -6   7   5   28.89    5.94
   6   7   5   35.05    6.18
   6  -7   5   23.33    5.40
   6  -7   6   13.40    4.31
   6   7   6    6.13    1.91
   6   7   6    9.28    4.29
  -6   7   6    8.88    4.92
   6  -7   6    1.42    1.71
   6  -7   7   14.75    3.94
   6   7   7   18.80    5.41
  -6   7   7   13.30    4.85
   6   7   7   23.93    5.31
   6  -7   7   19.27    4.97
   6   7   8   78.28   10.04
   6   7   8   75.62    9.59
   6  -7   8   83.90    9.73
  -6   7   8   87.55   10.33
   6  -7   8   84.73   10.18
   6  -7   9   12.63    3.39
   6   7   9    5.15    2.94
   6   7   9   13.38    3.78
  -6   7   9    3.89    3.67
   6  -7   9    4.78    1.70
   6   7  10   58.83    8.31
  -6   7  10   55.72    8.25
   6   7  10   35.05    6.57
   6  -7  10   46.23    7.78
   6  -7  11   15.21    4.97
   6   7  11   11.43    4.59
   6   7  11    8.41    3.41
  -6   7  11    6.73    3.50
  -6   7  12   13.92    4.49
   6  -7  12    9.85    4.10
   6   7  12   19.49    5.01
   6   7  12   13.33    4.23
   6   7  13   40.27    8.00
  -6   7  13   42.73    7.76
   6   7  13   36.21    6.88
   6  -7  13   41.63    7.68
   6   7  14   12.03    3.66
   6   7  14    5.00    3.72
  -6   7  14   11.88    4.66
   6   7  15   22.50    5.67
   6   7  15   13.18    4.75
  -6   7  15   15.17    4.97
   6   7  16   20.34    5.39
   6   7  16   14.20    4.85
  -6   7  16   30.38    7.09
   6   7  17    6.45    2.28
   6   7  17   13.14    5.21
  -6   7  17   11.69    5.02
   6   7  18   35.29    7.09
   6   7  18   40.48    7.93
  -6   7  18   43.47    7.94
  -6   7  19   11.05    3.77
   6   7  19   15.98    4.68
  -6   7  20   11.33    4.87
   6   7  20   18.72    6.04
   6   7  21   34.33    6.92
  -6   7  21   53.52    9.51
   6   7  22    6.76    4.24
  -6   7  22    8.39    5.24
  -6   7  23    0.56    3.40
   6   7  23    8.16    4.50
   6  -8 -20   13.03    4.47
   6  -8 -20   27.57    7.36
   6  -8 -19    9.99    4.56
   6  -8 -19   14.07    3.94
   6  -8 -18   52.81    9.09
   6  -8 -18   51.04    8.71
   6  -8 -17   12.15    2.81
   6  -8 -17   18.61    5.19
   6  -8 -16   16.71    4.32
   6  -8 -16   23.59    6.11
   6  -8 -15   21.99    5.35
   6  -8 -15   18.38    5.61
   6   8 -14   36.76    7.31
   6  -8 -14   42.48    8.41
   6  -8 -14   43.85    8.11
   6  -8 -13   55.99    9.14
   6   8 -13   67.04   10.58
   6  -8 -13   57.41    8.45
   6  -8 -12   59.94    9.32
   6   8 -12   39.20    7.37
   6  -8 -12   42.62    7.77
   6   8 -11   31.67    6.40
   6  -8 -11   29.97    6.24
   6  -8 -11   38.58    7.39
   6   8 -10   26.75    6.08
   6  -8 -10   31.37    7.12
   6  -8 -10   18.54    6.22
   6   8  -9   18.48    5.31
  -6   8  -9   21.32    6.47
   6  -8  -9   13.24    3.66
   6  -8  -9   30.07    6.34
   6   8  -8  119.19   12.06
  -6   8  -8  102.36   11.40
   6  -8  -8   89.15   10.85
   6  -8  -8   98.90   11.65
   6   8  -7   60.02    8.76
  -6   8  -7   52.97    7.97
   6  -8  -7   59.77    8.86
   6  -8  -7   48.80    8.54
   6   8  -6   14.27    4.52
  -6   8  -6   17.11    5.57
   6  -8  -6   17.73    4.99
   6  -8  -6   11.18    4.19
   6   8  -5   31.34    6.41
  -6   8  -5   47.26    7.79
   6  -8  -5   49.84    7.81
   6  -8  -5   44.39    7.71
   6   8  -4   64.12    9.79
   6   8  -4   59.74    8.36
  -6   8  -4   69.89    9.74
   6  -8  -4   77.25   10.01
   6  -8  -4   66.67    9.91
   6   8  -3    2.55    2.77
   6   8  -3   -0.05    2.05
  -6   8  -3    1.05    2.12
   6  -8  -3    0.48    1.79
   6  -8  -3    0.76    2.10
   6   8  -2   87.30   10.54
   6   8  -2   71.08    9.23
   6  -8  -2   81.77   10.22
  -6   8  -2   81.40   10.41
   6  -8  -2   86.52   11.01
   6   8  -1   20.46    5.68
  -6   8  -1   20.97    5.21
   6   8  -1   22.33    5.73
   6  -8  -1   19.94    5.01
   6  -8  -1   26.40    6.02
   6   8   0    2.16    2.52
  -6   8   0    3.77    3.24
   6  -8   0    4.69    3.66
   6   8   0    3.56    2.02
   6  -8   0   -1.11    2.44
   6   8   1   24.32    5.38
   6   8   1   17.43    4.63
   6  -8   1   25.67    6.08
  -6   8   1   29.76    6.42
   6  -8   1   27.05    5.88
   6  -8   2   68.74    9.19
   6   8   2   98.27   11.30
   6   8   2   88.88   10.45
  -6   8   2   75.70    9.71
   6  -8   2   78.10   10.11
   6  -8   3    0.01    2.83
   6   8   3    9.26    4.93
   6   8   3    4.81    3.24
  -6   8   3   -0.40    2.83
   6  -8   3    2.98    2.10
   6   8   4   64.25    9.21
   6   8   4   61.89    8.79
  -6   8   4   62.21    9.13
   6  -8   4   70.07    9.44
   6   8   5   34.65    7.01
   6   8   5   46.77    7.60
  -6   8   5   53.35    8.57
   6  -8   5   47.64    8.36
   6   8   6   16.55    5.02
  -6   8   6   25.50    5.63
   6  -8   6   16.78    4.84
   6   8   6   12.38    4.76
   6   8   7   46.48    7.32
   6   8   7   43.23    7.82
  -6   8   7   57.21    9.41
   6  -8   7   62.29    9.04
   6   8   8  112.38   12.27
   6   8   8  111.18   12.10
  -6   8   8  115.33   12.34
   6  -8   8  107.30   12.35
   6  -8   9   18.07    4.81
   6   8   9   29.61    6.55
  -6   8   9   25.27    5.96
   6   8   9   15.09    5.08
   6  -8  10   22.14    6.01
   6   8  10   32.90    6.28
  -6   8  10   26.37    6.64
   6   8  10   26.58    6.40
   6  -8  11   32.24    6.91
  -6   8  11   44.92    7.86
   6   8  11   42.77    7.87
   6   8  11   33.27    6.54
   6   8  12   52.38    8.50
   6   8  12   55.06    8.64
  -6   8  12   44.68    8.20
   6  -8  12   59.71    9.58
   6   8  13   60.66    9.05
   6   8  13   68.78   10.15
  -6   8  13   65.68    9.64
  -6   8  14   31.57    7.44
   6   8  14   36.38    7.85
   6   8  14   34.13    7.21
   6   8  15   34.49    7.01
   6   8  15   30.62    7.16
  -6   8  15   30.95    6.62
   6   8  16   17.92    5.33
   6   8  16   16.16    5.40
  -6   8  16   15.64    4.74
   6   8  17   26.38    6.71
   6   8  17   19.45    6.24
  -6   8  17   21.24    5.85
   6   8  18   51.03    8.66
  -6   8  18   59.68    9.82
   6   8  18   48.36    8.93
  -6   8  19   15.90    5.61
   6   8  19   20.68    5.43
  -6   8  20   17.34    5.71
   6   8  20   15.63    4.55
   6  -9 -17   -3.02    3.52
   6  -9 -17    1.70    2.27
   6  -9 -16   -2.35    2.14
   6  -9 -16   12.03    5.47
   6  -9 -15   -0.29    3.17
   6  -9 -15    1.97    3.13
   6  -9 -14    4.73    1.75
   6   9 -14   10.61    5.20
   6  -9 -14   15.98    4.71
   6  -9 -13   -0.78    2.82
   6   9 -13    4.57    3.44
   6  -9 -13    0.07    2.05
   6   9 -12   19.42    6.09
   6  -9 -12   16.81    5.24
   6  -9 -12   27.35    6.81
   6   9 -11    0.97    1.73
   6  -9 -11    1.88    2.96
   6  -9 -11    2.16    2.00
   6   9 -10    4.99    3.81
   6  -9 -10    6.37    3.38
   6  -9 -10    3.71    3.91
   6  -9  -9    7.84    4.68
   6   9  -9    7.07    3.93
   6  -9  -9    2.42    2.36
   6   9  -8   11.04    4.91
  -6   9  -8   13.03    4.85
   6  -9  -8    7.03    2.42
   6  -9  -8    9.08    3.10
   6   9  -7    5.68    2.26
  -6   9  -7   12.49    4.10
   6  -9  -7    2.88    3.85
   6  -9  -7    7.22    4.33
   6   9  -6   16.71    4.52
  -6   9  -6   12.18    4.68
   6  -9  -6   20.94    6.03
   6  -9  -6   20.45    5.79
   6   9  -5   13.23    4.67
   6  -9  -5   10.40    4.72
  -6   9  -5   14.37    4.92
   6  -9  -5   14.04    4.78
   6   9  -4   -0.35    1.58
  -6   9  -4    5.01    2.73
   6  -9  -4    7.20    4.38
   6  -9  -4    3.90    3.85
   6   9  -3    6.59    2.88
   6  -9  -3   11.39    4.30
  -6   9  -3   11.28    4.43
   6   9  -3   14.70    5.17
   6  -9  -3    9.15    1.83
   6   9  -2   -0.39    2.28
  -6   9  -2    2.12    3.11
   6   9  -2   -0.66    2.92
   6  -9  -2    4.61    3.48
   6   9  -1   23.59    5.52
   6   9  -1   21.15    5.65
  -6   9  -1   13.13    4.61
   6  -9  -1   15.35    5.15
   6   9   0   17.98    4.54
   6   9   0   16.34    5.07
  -6   9   0   11.87    4.83
   6  -9   0   13.20    4.67
   6  -9   1   11.43    4.85
   6   9   1   23.42    6.47
  -6   9   1   11.70    4.46
   6   9   1   22.13    5.50
   6   9   2    4.64    3.80
  -6   9   2    0.13    2.58
   6   9   2    0.62    1.45
   6  -9   2    4.28    3.82
   6  -9   3    6.72    2.86
   6   9   3   10.53    4.60
  -6   9   3    2.16    2.49
   6   9   3    2.94    1.75
   6   9   4    4.74    4.20
  -6   9   4    0.40    2.45
   6   9   4   -0.80    1.24
   6  -9   4   -1.71    3.56
  -6   9   5   11.97    4.69
   6   9   5   11.42    3.17
   6   9   5    9.52    3.69
   6  -9   5   18.48    5.05
   6   9   6   19.82    5.26
  -6   9   6   28.85    6.85
   6   9   6   16.55    4.32
   6  -9   6   27.79    6.73
   6   9   7    8.59    4.36
  -6   9   7    8.44    3.68
   6   9   7    7.88    4.18
   6  -9   7   13.16    4.90
   6   9   8   16.43    4.59
  -6   9   8    8.77    5.07
   6   9   8    9.99    4.50
   6  -9   8    5.72    2.81
   6   9   9    7.76    4.07
   6   9   9    4.80    3.88
  -6   9   9   -0.33    1.89
   6  -9   9    2.97    2.87
   6   9  10    1.62    3.53
   6   9  10    4.94    2.91
  -6   9  10   10.55    3.94
   6  -9  10    4.43    2.40
  -6   9  11   -1.68    1.87
   6   9  11   -1.76    2.27
   6   9  12   31.36    6.90
   6   9  12   17.01    5.20
  -6   9  12   24.40    7.01
   6   9  13    2.90    2.75
   6   9  13    1.58    2.07
  -6   9  13    3.72    4.15
   6   9  14   10.93    4.70
   6   9  14   12.72    4.35
  -6   9  14   10.06    4.89
   6   9  15   -3.11    2.15
   6   9  15    0.67    3.23
  -6   9  15   -0.72    2.54
   6   9  16    2.00    2.48
   6   9  16   -1.04    3.65
  -6   9  16    4.70    4.61
   6   9  17   -0.08    2.25
   6   9  17   -8.02    6.26
  -6   9  17   -2.57    2.91
   6 -10 -13    3.31    3.29
   6 -10 -13    0.36    3.37
   6  10 -12   16.23    5.88
   6 -10 -12   13.35    5.19
   6 -10 -12   27.16    7.17
   6 -10 -11    8.70    4.32
   6  10 -11    4.63    2.46
   6 -10 -11   16.02    6.28
   6  10 -10   -1.34    1.63
   6 -10 -10   -0.08    2.16
   6  10  -9    3.82    2.75
   6 -10  -9    8.65    4.36
   6  10  -8   38.82    7.99
   6 -10  -8   48.83    9.46
   6  10  -7    4.52    1.95
  -6  10  -7    6.09    3.63
   6 -10  -7    7.39    2.58
   6  10  -6   10.05    4.50
  -6  10  -6    7.52    3.40
   6 -10  -6   10.44    3.70
   6  10  -5   27.85    6.28
  -6  10  -5   17.02    6.57
   6 -10  -5   18.92    5.84
   6  10  -4   34.29    7.44
  -6  10  -4   38.25    7.87
   6 -10  -4   37.48    7.76
   6  10  -3    4.88    3.14
  -6  10  -3    8.30    3.77
   6 -10  -3   -2.30    2.89
   6  10  -2   51.25    8.62
  -6  10  -2   28.58    6.88
   6 -10  -2   41.34    7.86
   6  10  -1   13.08    3.90
   6  10  -1   16.82    5.84
  -6  10  -1    9.21    3.39
   6 -10  -1   15.25    5.20
   6  10   0   -0.11    1.50
  -6  10   0    4.76    2.58
   6 -10   0    0.43    2.77
   6  10   0    4.25    3.81
   6  10   1   19.28    5.26
   6  10   1   20.37    5.93
  -6  10   1   10.99    4.58
   6 -10   1   13.63    4.89
   6  10   2   42.41    8.11
  -6  10   2   52.61    9.04
   6  10   2   45.11    8.27
   6 -10   2   33.33    6.91
   6  10   3    7.55    3.85
  -6  10   3    6.68    4.07
   6  10   3   10.90    3.72
   6 -10   3    3.48    3.16
   6  10   4   42.59    8.81
  -6  10   4   33.88    7.30
   6 -10   4   32.23    7.36
   6  10   4   29.30    6.62
   6  10   5   19.25    5.25
   6 -10   5    9.89    4.91
  -6  10   5   26.27    6.48
   6  10   5   23.23    5.50
   6  10   6    3.33    3.13
  -6  10   6    6.24    3.33
   6  10   6   12.71    4.49
   6 -10   6    4.77    2.19
   6  10   7   11.46    4.91
   6 -10   7    4.17    3.81
   6  10   7    6.47    3.91
  -6  10   7    2.88    2.62
   6  10   8   47.25    8.98
   6  10   8   37.54    7.37
  -6  10   8   47.91    8.48
   6 -10   8   29.21    7.01
   6  10   9   11.54    3.91
   6  10   9    6.46    4.22
   6 -10   9    4.12    4.09
  -6  10   9    8.50    5.68
   6  10  10   -3.47    4.18
   6  10  10    4.32    3.72
  -6  10  10    0.47    2.96
   6  10  11   10.86    4.68
   6  10  11   16.78    5.22
  -6  10  11   18.07    5.85
   6  10  12   19.71    4.89
   6  10  12   16.45    5.62
  -6  10  12   17.76    5.09
   6  10  13    3.20    2.41
  -6  10  13   11.71    6.18
   6  11  -5    2.03    3.47
  -6  11  -5    2.02    4.13
   6 -11  -5    6.61    3.32
   6  11  -4    0.07    2.58
  -6  11  -4   -1.96    2.33
   6 -11  -4    2.33    1.94
   6  11  -3    4.22    2.55
  -6  11  -3   10.26    5.52
   6 -11  -3    4.05    3.22
   6  11  -2    0.40    2.07
   6 -11  -2   -0.77    3.50
  -6  11  -1   11.54    5.38
   6  11  -1   10.66    3.79
   6 -11  -1    6.39    3.33
   6  11   0    8.32    3.57
  -6  11   0    4.85    3.92
   6 -11   0    8.51    3.20
   6  11   1   12.11    4.55
  -6  11   1    9.50    4.35
   6 -11   1    7.23    4.42
   6  11   1   12.29    5.03
   6  11   2   -2.37    3.07
  -6  11   2    4.96    4.60
   6  11   2    1.50    1.58
   6 -11   2    9.55    5.18
   6  11   3    6.64    3.53
   6  11   3    8.35    4.03
  -6  11   3    2.16    2.19
   6 -11   3    2.67    3.17
   6  11   4   -1.08    2.64
  -6  11   4    4.55    2.81
   6  11   4    0.39    2.21
   6 -11   4   -0.26    2.62
   6  11   5    4.72    3.81
   6  11   5    7.24    4.87
  -6  11   5    8.36    3.45
   6 -11   5   -0.76    3.69
   7   0 -28   -6.70    5.42
   7   0 -27    5.16    3.85
   7   0 -26   -4.28    3.83
   7   0 -25    6.07    3.63
   7   0 -24   -1.66    3.20
   7   0 -23    3.85    3.54
   7   0 -22   -0.88    1.89
   7   0 -21   -1.02    1.86
   7   0 -20    1.37    2.38
   7   0 -19   -1.56    2.71
   7   0 -18   -0.13    2.01
   7   0 -17    0.93    2.74
   7   0 -16    0.54    1.94
   7   0 -15   -1.23    2.62
   7   0 -14   -1.72    1.26
   7   0 -14   -0.21    0.98
   7   0 -13    0.84    1.06
   7   0 -13   -0.27    1.05
   7   0 -12    1.53    1.69
   7   0 -12    0.29    1.72
   7   0 -11   -0.10    0.79
   7   0 -11    0.40    1.53
   7   0 -10   -0.25    1.11
   7   0 -10   -0.45    1.56
   7   0  -9    1.94    1.21
   7   0  -9    1.79    1.70
   7   0  -8   -0.85    0.85
   7   0  -8    1.58    1.63
   7   0  -8    0.73    1.33
   7   0  -7    0.79    0.96
   7   0  -7    3.00    2.11
   7   0  -7    0.42    2.59
   7   0  -6   -0.24    0.89
   7   0  -6    0.69    1.57
   7   0  -6    1.15    1.78
   7   0  -5    0.34    1.41
   7   0  -5    0.71    0.71
   7   0  -5   -0.22    1.26
   7   0  -4    1.98    1.34
   7   0  -4    1.28    1.56
   7   0  -4   -0.03    1.36
   7   0  -3    0.65    0.99
   7   0  -3    0.15    1.42
   7   0  -3    0.12    1.30
   7   0  -2   -1.00    1.25
   7   0  -2    1.07    1.52
   7   0  -2    0.57    1.48
   7   0  -1    3.42    2.02
   7   0  -1   -0.87    1.70
   7   0  -1   -0.35    0.87
   7   0   0    0.03    1.29
   7   0   0   -0.75    1.34
   7   0   1    0.38    0.69
   7   0   1   -0.25    1.75
   7   0   2    0.31    0.82
   7   0   2    1.28    1.62
   7   0   3    0.74    1.23
   7   0   3    0.47    1.21
   7   0   4    1.32    1.25
   7   0   4   -0.01    0.71
   7   0   5    1.56    1.58
   7   0   5    0.08    0.93
   7   0   6    0.01    0.70
   7   0   6    0.47    0.87
   7   0   7   -0.43    1.52
   7   0   7    0.25    0.76
   7   0   8    0.09    1.38
   7   0   8    0.04    1.06
   7   0   9    0.50    1.80
   7   0   9    0.04    0.66
   7   0  10   -0.44    0.93
   7   0  10    1.05    1.32
   7   0  11   -0.98    1.82
   7   0  11    0.95    1.15
   7   0  12    0.60    1.43
   7   0  12    1.32    0.65
   7   0  13    0.49    1.50
   7   0  13   -0.09    1.24
   7   0  14   -1.25    1.08
   7   0  15   -0.76    2.11
   7   0  16   -0.47    2.12
   7   0  17    1.68    1.98
   7   0  18    2.03    3.13
   7   0  19    0.24    2.46
   7   0  20   -1.62    1.85
   7   0  21    0.84    1.65
   7   0  22   -0.79    1.64
   7   0  23    0.13    1.90
   7  -1 -29   -0.96    2.26
   7  -1 -28  106.61   12.20
   7  -1 -27    3.86    2.46
   7  -1 -26    8.60    4.03
   7  -1 -25   39.55    7.44
   7   1 -24  213.14   16.85
   7  -1 -24  186.13   16.50
   7   1 -23   18.33    4.72
   7  -1 -23   16.15    5.15
   7   1 -22  102.05   11.19
   7  -1 -22   86.13   10.45
   7   1 -21   49.96    8.44
   7  -1 -21   42.67    7.15
   7   1 -20   72.71    9.13
   7  -1 -20   91.11   10.49
   7   1 -19   60.95    8.08
   7  -1 -19   61.12    8.36
   7  -1 -18   62.70    8.44
   7   1 -18   86.46    9.62
   7   1 -17   52.34    7.46
   7  -1 -17   65.85    8.44
   7   1 -16  513.18   22.29
   7  -1 -16  640.64   25.87
   7  -1 -15  120.93    9.51
   7   1 -15  122.25   10.52
   7  -1 -15   93.47   10.07
   7   1 -14 1010.29   29.82
   7  -1 -14 1022.42   32.20
   7   1 -13   76.30    8.07
   7  -1 -13   75.02    8.45
   7  -1 -13   66.77    7.19
   7   1 -13   72.42    7.82
   7  -1 -12  147.16   11.79
   7   1 -12  155.56   10.92
   7   1 -12  149.47   11.29
   7  -1 -12  143.48    9.98
   7   1 -12  125.80    7.50
   7   1 -11  194.40    9.65
   7   1 -11  218.63   12.71
   7  -1 -11  203.82   13.29
   7   1 -11  213.05   13.09
   7  -1 -11  198.43   11.72
   7   1 -10   76.12    6.05
   7  -1 -10   65.57    7.72
   7   1 -10   80.00    7.62
   7   1 -10   74.14    7.50
   7  -1 -10   73.75    6.99
   7  -1  -9   19.17    3.53
   7   1  -9   21.44    3.13
   7   1  -9   27.74    4.60
   7  -1  -9   22.55    4.49
   7   1  -9   13.18    3.39
   7  -1  -8  161.28   10.31
   7   1  -8  148.72    8.53
   7  -1  -8  136.83   10.55
   7   1  -8  138.49    9.52
   7   1  -8  136.42    9.92
   7  -1  -7  163.96   10.28
   7   1  -7  161.23    8.88
   7   1  -7  180.57   10.96
   7  -1  -7  171.56   11.53
   7   1  -7  166.37   11.17
   7  -1  -6  374.39   15.54
   7   1  -6  379.66   13.86
   7  -1  -6  388.06   17.29
   7   1  -6  378.01   15.42
   7   1  -6  337.79   15.47
   7  -1  -5  446.14   16.71
   7   1  -5  468.25   15.58
   7  -1  -5  428.56   17.78
   7   1  -5  449.18   16.55
   7   1  -5  439.01   17.25
   7  -1  -4  321.06   14.24
   7   1  -4  302.37   12.71
   7  -1  -4  304.53   14.81
   7   1  -4  299.28   13.57
   7   1  -4  286.32   13.81
   7  -1  -3  580.85   19.30
   7  -1  -3  593.15   20.65
   7   1  -3  570.07   17.84
   7   1  -3  544.68   18.05
   7   1  -3  584.26   19.70
   7  -1  -2 1114.70   26.47
   7  -1  -2 1099.23   27.72
   7   1  -2 1098.93   25.68
   7   1  -2 1110.88   24.73
   7   1  -2 1141.29   26.99
   7   1  -1   35.50    4.82
   7  -1  -1   37.55    5.06
   7  -1  -1   31.74    4.89
   7   1  -1   33.41    4.45
   7   1  -1   33.31    4.45
   7   1   0    2.54    1.04
   7   1   0    3.67    1.64
   7  -1   0    1.10    0.96
   7  -1   0    3.63    2.69
   7   1   1   29.10    4.29
   7  -1   1   33.24    4.89
   7  -1   1   28.56    4.65
   7   1   1   28.16    4.19
   7  -1   2 1096.79   27.09
   7   1   2 1152.29   27.09
   7   1   3  614.98   20.18
   7   1   3  626.10   18.97
   7  -1   3  587.28   19.89
   7   1   4  333.29   15.11
   7  -1   4  320.23   14.77
   7   1   4  295.18   13.08
   7   1   5  454.74   17.86
   7  -1   5  451.62   17.80
   7   1   5  476.99   16.43
   7   1   6  336.00   15.87
   7  -1   6  379.12   16.47
   7   1   6  354.29   14.09
   7   1   7  169.79   11.08
   7   1   7  146.94    9.01
   7  -1   7  159.45   10.74
   7   1   8  146.71   10.61
   7  -1   8  148.59   10.66
   7   1   8  156.26    9.23
   7   1   9   19.40    3.08
   7  -1   9   18.97    4.24
   7   1   9   20.73    4.10
   7   1  10   81.47    8.40
   7   1  10   75.84    6.44
   7  -1  10   79.75    7.74
   7   1  11  168.95   12.02
   7  -1  11  187.97   12.56
   7   1  11  181.23    9.87
   7   1  12  168.27   12.37
   7  -1  12  156.70   11.51
   7   1  12  142.24    8.88
   7   1  13   60.55    7.69
   7   1  13   80.49    6.49
   7  -1  13   78.91    8.37
   7   1  14  986.72   30.93
   7  -1  14  953.38   29.28
   7   1  14  943.71   21.73
   7   1  15  111.50   10.65
   7  -1  15  118.37   10.46
   7   1  16  679.07   26.45
   7  -1  16  581.65   24.00
   7   1  17   65.06    8.22
   7  -1  17   61.32    7.81
   7   1  18   77.20    9.47
   7  -1  18   75.97    9.14
   7  -1  19   66.29    8.70
   7   1  19   58.65    8.44
   7   1  20   83.02    9.95
   7  -1  20   88.74   10.18
   7   1  21   48.25    8.34
   7  -1  21   38.54    6.67
   7   1  22   90.97   10.70
   7  -1  22   98.08   11.29
   7   1  23   22.21    5.68
   7   1  24  179.26   15.70
   7  -2 -28   11.55    4.81
   7  -2 -27   -0.03    2.80
   7  -2 -26   -2.04    3.48
   7  -2 -25   25.87    5.96
   7  -2 -24   13.88    4.66
   7  -2 -23   30.53    6.68
   7  -2 -22   12.51    4.40
   7  -2 -21   43.56    7.88
   7  -2 -20   16.61    5.44
   7   2 -19    4.61    4.66
   7  -2 -19    4.34    3.02
   7  -2 -18   73.34    9.60
   7   2 -18   79.53    8.81
   7  -2 -17   49.71    7.74
   7   2 -17   31.80    5.51
   7   2 -17   42.37    6.44
   7   2 -16  501.88   20.59
   7  -2 -16  519.06   23.85
   7  -2 -16  538.09   22.12
   7   2 -16  521.78   22.83
   7   2 -15  129.92   11.21
   7   2 -15  129.25   10.48
   7  -2 -15  159.26   13.26
   7  -2 -15  132.55   10.75
   7   2 -14  124.09   10.35
   7  -2 -14  113.11   10.13
   7   2 -14  127.97   10.69
   7   2 -13  101.46    8.76
   7  -2 -13   81.04    9.30
   7  -2 -13   92.34    8.62
   7   2 -13   81.93    8.59
   7   2 -12  232.11   12.98
   7  -2 -12  213.55   14.46
   7  -2 -12  233.61   13.92
   7   2 -12  209.02   13.44
   7   2 -11   12.21    3.12
   7  -2 -11   13.24    3.60
   7   2 -11   19.79    3.00
   7  -2 -11    8.56    2.40
   7   2 -11   13.61    3.29
   7   2 -10   79.76    7.86
   7   2 -10   86.83    5.91
   7  -2 -10   76.73    7.72
   7  -2 -10   83.43    8.65
   7   2 -10   80.89    7.15
   7  -2  -9  198.84   13.27
   7   2  -9  208.13    9.59
   7   2  -9  192.42   11.14
   7   2  -9  213.08   13.19
   7  -2  -9  212.84   12.96
   7   2  -8  452.58   14.59
   7   2  -8  444.47   18.99
   7   2  -8  467.37   16.50
   7  -2  -8  432.35   19.17
   7  -2  -8  487.84   19.41
   7   2  -7   18.30    2.92
   7   2  -7   15.20    3.18
   7  -2  -7   12.22    2.81
   7  -2  -7   17.38    3.84
   7   2  -7   15.71    2.96
   7  -2  -6   43.44    5.50
   7  -2  -6   42.19    5.98
   7   2  -6   53.79    5.61
   7   2  -6   47.00    4.69
   7   2  -6   49.26    6.15
   7  -2  -5  273.40   14.25
   7  -2  -5  270.46   14.78
   7   2  -5  266.22   12.20
   7   2  -5  242.61   11.04
   7   2  -5  245.70   13.60
   7  -2  -4   38.52    5.36
   7  -2  -4   40.90    5.63
   7   2  -4   38.65    4.56
   7   2  -4   40.31    4.68
   7   2  -4   45.59    5.77
   7  -2  -3  287.43   14.29
   7  -2  -3  274.56   14.63
   7   2  -3  282.65   12.38
   7   2  -3  285.37   14.27
   7   2  -2  112.90    8.18
   7  -2  -2  102.45    8.59
   7   2  -2  127.43    9.27
   7  -2  -2  123.32    9.79
   7   2  -2  130.71    8.53
   7   2  -1    2.39    1.90
   7  -2  -1    3.40    1.97
   7   2  -1    1.95    1.60
   7  -2  -1   -0.32    1.31
   7   2   0    0.80    1.06
   7  -2   0    2.13    1.98
   7   2   0    2.06    0.89
   7  -2   0   -0.04    1.39
   7   2   1    1.01    1.23
   7  -2   1    1.07    0.96
   7   2   1    3.12    1.91
   7  -2   1   -0.09    1.24
   7   2   2  106.64    8.39
   7   2   2  123.63    9.11
   7  -2   2  131.75    9.82
   7  -2   2  133.54    9.90
   7   2   3  283.15   13.57
   7  -2   3  262.28   13.96
   7   2   3  260.26   13.34
   7   2   4   40.52    5.00
   7   2   4   40.61    5.51
   7  -2   4   31.71    4.63
   7   2   5  267.01   13.16
   7   2   5  290.56   14.66
   7  -2   5  245.54   13.43
   7   2   6   45.39    5.41
   7   2   6   57.67    6.93
   7  -2   6   54.05    6.46
   7   2   7   12.65    3.08
   7  -2   7   16.04    3.40
   7   2   7   14.21    3.57
   7   2   8  468.05   17.30
   7   2   8  506.95   20.28
   7  -2   8  447.39   18.57
   7   2   9  216.41   11.85
   7   2   9  201.08   12.87
   7  -2   9  185.33   12.23
   7   2  10   87.45    7.62
   7   2  10   83.76    8.45
   7  -2  10   92.22    8.69
   7   2  11   18.37    3.53
   7  -2  11    8.77    3.65
   7   2  11   19.94    4.84
   7   2  12  218.81   12.04
   7   2  12  213.66   14.12
   7  -2  12  214.06   13.72
   7   2  13   77.09    7.15
   7   2  13   96.70    9.70
   7  -2  13   83.27    8.67
   7   2  14  143.47    9.66
   7   2  14  131.12   11.38
   7  -2  14  124.17   10.73
   7   2  15  121.69    9.15
   7   2  15  131.24   11.76
   7  -2  15  126.94   10.89
   7   2  16  539.87   24.01
   7  -2  16  422.30   20.38
   7   2  17   44.21    7.26
   7  -2  17   39.86    6.38
   7   2  18   92.48   10.09
   7  -2  18   70.67    8.79
   7  -2  19   -3.52    3.28
   7   2  19    1.73    2.62
   7   2  20   22.71    5.20
   7  -2  20   26.85    5.69
   7   2  21   37.99    6.56
   7   2  22    7.78    3.48
   7   2  23   40.69    7.83
   7   2  24    2.98    3.95
   7   2  25   19.16    6.26
   7  -3 -28   45.31    8.52
   7  -3 -27    5.38    3.37
   7  -3 -26   23.51    5.62
   7  -3 -25    2.80    2.57
   7  -3 -24  126.65   13.54
   7  -3 -23   10.27    3.40
   7  -3 -22    1.50    2.44
   7  -3 -21    7.20    3.99
   7  -3 -20  234.69   17.07
   7  -3 -19   24.76    6.01
   7  -3 -18  523.66   24.80
   7  -3 -18  558.79   25.96
   7   3 -18  539.09   24.25
   7  -3 -17   27.88    6.70
   7  -3 -17   21.62    5.14
   7   3 -17   27.53    5.53
   7  -3 -16    8.05    3.09
   7  -3 -16    7.39    3.01
   7   3 -16   12.94    3.12
   7  -3 -15   29.03    5.79
   7  -3 -15   25.99    5.61
   7   3 -15   29.53    5.51
   7  -3 -14 1271.97   37.28
   7   3 -14 1244.16   34.72
   7   3 -13    5.90    3.18
   7   3 -13    0.66    0.83
   7  -3 -13    4.61    2.45
   7  -3 -13    1.64    2.30
   7  -3 -12 1242.16   35.80
   7   3 -12 1206.81   33.27
   7  -3 -12 1269.22   34.49
   7  -3 -11   99.80    9.69
   7   3 -11  106.66    8.05
   7  -3 -11   97.33    9.69
   7   3 -11  120.92   10.47
   7  -3 -10   49.55    7.02
   7  -3 -10   40.38    6.38
   7   3 -10   41.36    6.36
   7   3  -9   35.46    4.41
   7  -3  -9   32.50    5.29
   7   3  -9   37.60    4.21
   7  -3  -9   33.34    5.66
   7   3  -9   37.13    5.71
   7  -3  -8 1084.58   31.40
   7   3  -8 1083.44   23.20
   7   3  -8 1093.69   23.00
   7  -3  -8 1083.69   30.77
   7   3  -8 1098.36   30.43
   7  -3  -7   18.25    3.91
   7  -3  -7   20.90    4.30
   7   3  -7   15.12    2.82
   7   3  -7   21.94    3.40
   7   3  -6  694.11   23.68
   7   3  -6  655.43   19.55
   7  -3  -6  683.67   24.88
   7   3  -6  635.45   18.01
   7  -3  -6  660.20   23.57
   7   3  -5   52.71    6.63
   7  -3  -5   64.86    7.46
   7   3  -5   65.91    6.17
   7  -3  -5   62.72    7.40
   7   3  -5   61.25    5.40
   7   3  -4    3.97    2.48
   7   3  -4    5.45    1.66
   7  -3  -4    3.74    1.33
   7   3  -4    7.97    2.59
   7  -3  -4    4.01    2.62
   7  -3  -3   27.67    5.02
   7   3  -3   25.02    4.03
   7  -3  -3   16.41    3.56
   7   3  -3   28.69    3.90
   7   3  -3   30.37    4.79
   7   3  -2 1095.97   29.23
   7  -3  -2 1113.85   30.46
   7   3  -2 1141.57   27.12
   7  -3  -2 1076.94   29.82
   7   3  -1   21.99    4.00
   7  -3  -1   18.58    4.14
   7   3  -1   27.44    4.26
   7  -3  -1   23.18    4.67
   7   3   0    2.60    1.95
   7   3   0   -0.03    1.19
   7  -3   0    0.33    1.44
   7  -3   0   -0.70    1.42
   7   3   1   25.49    4.51
   7  -3   1   28.52    4.71
   7   3   1   31.72    4.82
   7  -3   1   25.32    4.78
   7  -3   2 1185.08   30.61
   7   3   2 1151.59   28.91
   7   3   2 1144.43   29.45
   7  -3   2 1073.54   29.60
   7  -3   3   16.76    3.50
   7   3   3   25.28    4.42
   7   3   3   26.59    4.48
   7  -3   3   25.11    4.68
   7  -3   4    2.53    1.80
   7   3   4    4.11    1.94
   7   3   4    4.64    2.80
   7  -3   4    7.64    3.20
   7  -3   5   51.22    6.47
   7   3   5   50.66    6.15
   7   3   5   70.61    7.48
   7   3   6  691.54   24.08
   7   3   6  645.37   22.39
   7  -3   6  649.09   23.23
   7   3   7   19.29    3.50
   7  -3   7   22.53    4.33
   7   3   7   27.04    5.08
   7   3   8 1138.78   31.61
   7   3   8 1111.84   29.08
   7  -3   8 1172.83   31.35
   7   3   9   30.95    5.11
   7  -3   9   31.00    5.42
   7   3   9   24.35    5.27
   7   3  10   48.34    6.03
   7  -3  10   38.45    5.81
   7   3  10   40.91    6.53
   7   3  11   95.07    9.54
   7   3  11  116.56    9.42
   7  -3  11   98.32    9.38
   7   3  12 1318.62   32.19
   7  -3  12 1209.27   33.15
   7   3  12 1250.21   35.51
   7   3  13    8.28    2.45
   7   3  13    8.04    3.17
   7  -3  13    3.12    1.88
   7   3  14 1230.34   31.64
   7   3  14 1177.42   35.41
   7   3  15   29.23    5.03
   7  -3  15   22.41    4.72
   7   3  15   27.48    5.82
   7   3  16    7.34    2.64
   7   3  16    9.37    3.78
   7  -3  16   11.54    3.48
   7   3  17   19.85    5.32
   7  -3  17   38.17    6.09
   7  -3  18  540.86   24.37
   7   3  18  500.15   24.58
   7   3  19   24.09    5.49
   7  -3  19   28.51    5.79
   7   3  20  265.44   18.36
   7   3  21    4.03    4.77
   7   3  22    2.14    3.31
   7   3  23   11.44    4.56
   7   3  24  173.12   15.90
   7   3  25   15.44    5.66
   7   3  26   23.83    5.61
   7  -4 -27   20.53    6.05
   7  -4 -26   -2.52    2.69
   7  -4 -25    2.71    2.42
   7  -4 -24    4.74    3.69
   7  -4 -23    4.61    2.40
   7  -4 -22   42.47    8.00
   7  -4 -21   12.13    4.89
   7  -4 -20    3.36    2.70
   7  -4 -19  207.67   16.22
   7  -4 -19  208.02   16.18
   7  -4 -18   78.81    9.83
   7  -4 -18   86.76   10.73
   7   4 -18   68.00    9.15
   7   4 -17   14.28    4.05
   7  -4 -17    7.88    3.96
   7   4 -16   21.08    5.44
   7  -4 -16   16.93    4.88
   7  -4 -16   11.29    3.66
   7  -4 -15   63.57    8.62
   7  -4 -15   46.18    7.74
   7   4 -15   57.07    7.96
   7  -4 -14  143.23   12.88
   7  -4 -14  120.49   11.96
   7   4 -14  127.44   11.70
   7  -4 -13  107.41   10.78
   7   4 -13  128.13   11.32
   7  -4 -12   26.07    5.16
   7  -4 -12   23.33    5.41
   7   4 -12   31.52    5.96
   7  -4 -11  226.62   15.87
   7  -4 -11  215.45   15.00
   7   4 -11  209.40   14.52
   7   4 -10   29.13    5.27
   7  -4 -10   37.21    6.03
   7  -4 -10   45.35    6.69
   7  -4  -9    3.37    2.36
   7   4  -9    6.33    2.64
   7  -4  -9    3.95    1.66
   7   4  -8   73.31    8.34
   7   4  -8   80.76    6.78
   7  -4  -8   76.13    8.93
   7  -4  -8   75.57    8.71
   7   4  -7  533.10   22.29
   7   4  -7  545.58   18.08
   7  -4  -7  571.02   23.29
   7  -4  -7  558.24   23.36
   7   4  -6   55.32    7.09
   7   4  -6   53.43    5.63
   7  -4  -6   69.46    8.19
   7  -4  -6   47.00    6.70
   7   4  -5    9.67    3.19
   7  -4  -5    2.43    1.97
   7   4  -5    7.07    2.38
   7  -4  -5    6.20    2.12
   7   4  -5   10.74    2.41
   7   4  -4    6.61    2.46
   7   4  -4    4.67    2.15
   7  -4  -4    7.72    3.40
   7  -4  -4    5.72    2.48
   7   4  -4    6.41    1.84
   7   4  -3   75.10    8.20
   7   4  -3   87.65    6.36
   7  -4  -3   90.98    9.34
   7  -4  -3   84.79    8.79
   7   4  -2    8.86    2.86
   7  -4  -2    6.46    2.44
   7   4  -2   10.29    2.76
   7  -4  -2   11.14    3.71
   7   4  -1    5.84    1.37
   7  -4  -1    4.00    1.97
   7   4  -1    4.81    2.73
   7   4   0    1.51    1.16
   7  -4   0   -0.46    1.06
   7   4   0   -0.46    1.14
   7  -4   0   -1.01    1.00
   7   4   1    6.95    2.60
   7  -4   1   14.71    3.55
   7   4   1    6.89    2.92
   7  -4   1    8.91    2.66
   7   4   2    6.71    2.54
   7  -4   2    8.19    2.78
   7  -4   2   16.19    3.11
   7   4   2   16.51    3.90
   7   4   3   86.10    8.74
   7  -4   3   83.81    8.83
   7   4   3   78.93    8.13
   7  -4   3   87.17    8.77
   7   4   4    7.48    2.95
   7   4   4    9.62    2.54
   7  -4   4    5.87    2.65
   7  -4   4    5.68    1.85
   7   4   5   10.00    3.11
   7   4   5    6.70    2.48
   7  -4   5    8.66    3.21
   7  -4   5   10.75    3.56
   7   4   6   61.81    7.43
   7  -4   6   55.11    7.15
   7  -4   6   64.97    7.70
   7   4   7  522.40   21.20
   7  -4   7  547.24   22.83
   7  -4   7  505.89   21.75
   7   4   8   71.80    7.82
   7  -4   8   66.13    7.87
   7   4   8   79.14    8.60
   7   4   9    5.53    2.66
   7  -4   9    2.80    2.64
   7   4   9    7.38    2.78
   7   4  10   35.74    5.41
   7  -4  10   37.34    6.08
   7   4  10   37.33    6.00
   7   4  11  230.80   14.43
   7  -4  11  217.11   14.34
   7   4  11  235.65   15.54
   7   4  12   26.34    4.90
   7  -4  12   27.80    5.61
   7   4  12   20.10    4.99
   7   4  13  114.37   10.34
   7  -4  13   97.27    9.89
   7   4  13  109.49   11.38
   7   4  14  142.84   11.46
   7  -4  14  115.56   10.71
   7   4  14  129.52   11.92
   7   4  15   55.71    7.05
   7   4  15   53.88    8.17
   7  -4  15   49.70    7.19
   7   4  16   15.70    3.73
   7   4  16   21.18    5.35
   7  -4  16   21.47    5.12
   7   4  17   13.51    4.10
   7  -4  17   17.99    4.92
   7  -4  18   89.37   10.12
   7   4  18   68.07    9.37
   7   4  19  237.83   17.23
   7   4  20    6.04    2.86
   7   4  21   24.76    6.03
   7   4  22   33.97    7.61
   7   4  23    3.98    4.05
   7   4  24    5.76    3.46
   7   4  25    4.09    2.18
   7   4  26   -2.22    3.96
   7   4  27   13.43    5.98
   7  -5 -26   -3.77    3.31
   7  -5 -25    7.54    4.63
   7  -5 -23   -0.03    2.29
   7  -5 -22   68.57    9.83
   7  -5 -21   16.40    5.01
   7  -5 -20    7.66    3.91
   7  -5 -20    7.05    3.81
   7  -5 -19   38.75    7.32
   7  -5 -19   60.20    9.12
   7  -5 -18  260.58   18.07
   7  -5 -18  272.63   19.02
   7  -5 -17   72.57    9.77
   7  -5 -17   74.68   10.59
   7   5 -17   70.06    9.43
   7   5 -16    6.76    3.77
   7  -5 -16   -1.55    1.71
   7  -5 -16    2.15    3.19
   7   5 -15   12.75    3.87
   7  -5 -15   16.40    4.46
   7  -5 -15   14.96    4.70
   7   5 -14   10.53    3.11
   7  -5 -14   11.12    4.16
   7  -5 -14    7.27    3.73
   7   5 -13    1.02    1.88
   7  -5 -13    0.66    2.31
   7  -5 -13   -0.87    2.25
   7   5 -12  264.80   16.62
   7  -5 -12  224.41   16.32
   7  -5 -12  220.32   16.38
   7   5 -11   32.35    6.16
   7  -5 -11   30.84    6.54
   7  -5 -11   44.94    7.19
  -7   5 -10    6.47    2.69
   7   5 -10   10.22    4.45
   7  -5 -10    5.17    1.41
   7  -5 -10   11.32    4.14
   7  -5  -9   17.96    4.34
   7  -5  -9   16.56    4.26
   7   5  -9   18.38    4.63
  -7   5  -9   13.78    3.53
   7   5  -8  286.40   17.13
  -7   5  -8  312.90   16.30
   7  -5  -8  261.52   16.46
   7  -5  -8  254.06   16.40
   7   5  -7   58.17    7.84
   7  -5  -7   64.90    8.27
   7   5  -7   65.02    6.95
   7  -5  -7   52.73    7.95
   7  -5  -6   17.86    4.86
   7   5  -6   14.59    4.07
   7   5  -6   11.59    2.75
   7  -5  -6   17.04    5.10
   7   5  -5   48.25    6.59
   7  -5  -5   41.39    6.65
   7  -5  -5   37.40    6.63
   7   5  -5   33.53    5.41
   7   5  -4   59.52    7.85
   7  -5  -4   49.01    7.11
   7   5  -4   61.52    6.94
   7  -5  -4   64.84    8.20
   7   5  -3   69.54    8.41
   7  -5  -3   77.72    8.65
   7   5  -3   53.74    6.50
   7  -5  -3   59.34    7.74
   7   5  -2  314.66   17.54
   7   5  -2  300.82   15.64
   7  -5  -2  280.34   16.49
   7  -5  -2  290.61   17.12
   7  -5  -1   11.84    4.38
   7   5  -1   12.55    3.39
   7   5  -1   15.21    3.96
   7  -5  -1   16.10    3.50
   7  -5   0   -0.16    1.22
   7   5   0    1.65    1.91
   7   5   0    0.35    0.84
   7  -5   0   -1.11    1.97
   7  -5   1   11.39    3.34
   7   5   1   14.53    3.86
   7  -5   1   10.74    2.90
   7   5   1   11.83    3.83
   7  -5   2  285.76   16.84
   7   5   2  289.18   16.62
   7  -5   2  296.93   17.11
   7   5   2  307.64   16.57
   7  -5   3   68.26    8.26
   7   5   3   63.22    7.71
   7  -5   3   50.78    6.77
   7   5   3   72.62    8.45
   7  -5   4   51.55    7.03
   7  -5   4   52.97    7.46
   7   5   4   62.06    7.58
   7   5   4   50.47    7.02
   7  -5   5   45.11    6.89
   7   5   5   35.24    6.19
   7  -5   5   35.84    6.22
   7   5   5   37.58    5.82
   7   5   6   16.85    3.93
   7  -5   6   17.35    4.47
   7  -5   6   13.29    3.57
   7   5   6   25.23    4.67
   7  -5   7   87.28    9.40
   7   5   7   76.19    8.78
   7  -5   7   61.99    7.76
   7   5   7   78.04    9.17
   7  -5   8  268.40   16.96
   7   5   8  290.29   16.86
   7   5   8  266.13   16.38
   7  -5   8  285.72   16.86
   7   5   9   17.74    4.49
   7   5   9   15.60    3.63
   7  -5   9   15.11    3.99
   7  -5   9   11.89    2.95
   7   5  10    6.87    2.88
   7  -5  10    7.53    3.12
   7   5  10   15.21    3.91
   7  -5  10    8.70    3.96
   7  -5  11   48.60    7.61
   7   5  11   46.65    6.46
   7   5  11   38.16    6.41
   7  -5  12  202.37   15.35
   7   5  12  274.23   16.92
   7   5  13    1.22    2.31
   7  -5  13    3.77    2.80
   7   5  13    1.94    1.91
   7   5  14   15.18    4.29
   7  -5  14    8.44    3.45
   7   5  14   13.99    4.32
   7  -5  15    8.82    4.46
   7   5  15    6.29    3.47
   7   5  16    2.64    2.67
   7  -5  16    4.30    3.60
   7   5  16    1.62    2.40
   7   5  17   81.26   10.07
   7   5  17   80.38    9.99
   7   5  18  229.60   17.29
   7   5  19   30.72    6.63
   7   5  20    4.16    3.08
   7   5  21    9.59    3.90
   7   5  22   86.95   11.70
   7   5  23    6.80    4.58
   7   5  24  118.05   13.87
   7   5  25    7.84    4.43
   7   5  26   -0.55    3.01
   7  -6 -24   -2.09    4.27
   7  -6 -23    3.82    4.23
   7  -6 -22   -1.36    2.63
   7  -6 -21   17.01    5.51
   7  -6 -21   11.53    3.57
   7  -6 -20    3.96    3.93
   7  -6 -20    1.50    2.42
   7  -6 -19    5.53    3.22
   7  -6 -19    1.33    1.75
   7  -6 -18    3.62    3.94
   7  -6 -18   -1.02    2.73
   7  -6 -17    3.28    3.10
   7  -6 -17    5.42    1.95
   7  -6 -16    2.41    3.25
   7   6 -16   -0.82    2.29
   7  -6 -16    2.02    2.13
   7   6 -15    9.84    4.43
   7  -6 -15    5.51    2.00
   7  -6 -15   12.31    4.43
   7   6 -14    4.58    2.60
   7  -6 -14   13.56    4.33
   7  -6 -14   17.52    4.25
   7   6 -13   32.40    6.14
   7  -6 -13   51.46    8.83
   7  -6 -13   42.72    7.36
   7   6 -12   11.01    3.90
   7  -6 -12   13.46    5.46
   7  -6 -12   11.80    3.84
   7   6 -11   27.85    5.64
   7  -6 -11   24.08    5.84
   7  -6 -11   22.98    4.92
   7   6 -10   10.08    3.97
   7  -6 -10   18.07    4.79
   7  -6 -10   18.50    4.76
   7   6  -9    3.09    2.85
  -7   6  -9    3.97    2.49
   7  -6  -9    6.75    2.72
   7  -6  -9    8.87    3.91
   7   6  -8   -0.60    2.77
  -7   6  -8    2.21    1.82
   7  -6  -8   -2.47    2.90
   7  -6  -8   -0.12    1.39
   7   6  -7   11.49    3.68
  -7   6  -7   14.88    3.81
   7  -6  -7    4.73    2.23
   7  -6  -7    8.76    3.71
   7  -6  -6    3.13    3.04
  -7   6  -6    2.52    2.40
   7   6  -6   -0.22    1.56
   7   6  -6    0.28    2.08
   7  -6  -6    3.40    2.90
   7  -6  -5   45.12    7.47
   7   6  -5   37.04    6.67
  -7   6  -5   48.10    6.97
   7   6  -5   44.17    6.00
   7  -6  -5   36.06    6.82
   7  -6  -4   15.48    4.48
   7   6  -4   21.63    5.19
  -7   6  -4   21.45    5.21
   7  -6  -4   21.76    5.45
   7   6  -4   17.33    3.95
   7  -6  -3    3.36    1.90
   7   6  -3    3.70    2.70
   7  -6  -3    3.08    2.41
   7   6  -3    7.19    3.39
   7  -6  -2   17.16    5.21
   7   6  -2   21.40    4.93
   7  -6  -2   17.67    4.77
   7   6  -2   14.43    3.48
   7  -6  -1   11.29    3.42
   7   6  -1   15.24    4.20
   7  -6  -1   13.85    3.78
   7   6  -1   12.77    4.19
   7   6   0    2.27    1.22
   7  -6   0    4.39    3.08
   7   6   0    1.49    2.35
   7  -6   0    5.32    3.30
   7   6   1   18.87    4.31
   7  -6   1   20.74    5.00
   7   6   1   18.37    4.86
   7  -6   1   13.23    3.70
   7   6   2   23.61    5.26
   7  -6   2   19.50    4.21
   7   6   2   24.15    5.51
   7  -6   2   20.31    4.59
   7   6   3    4.52    2.85
   7  -6   3    2.75    1.87
   7   6   3    5.55    3.29
   7  -6   3    5.71    3.44
   7   6   4   11.89    3.56
   7  -6   4    9.70    3.35
   7   6   4   23.12    5.45
   7  -6   4   24.83    6.14
   7   6   5   51.73    7.43
   7  -6   5   47.81    7.54
   7  -6   5   41.83    6.76
   7   6   5   39.62    6.33
   7   6   6    2.71    2.86
   7  -6   6    6.90    2.87
   7   6   6    5.55    2.51
   7  -6   6    6.72    3.81
   7   6   7   10.11    3.43
   7  -6   7   11.57    3.93
   7   6   7   10.04    2.69
   7  -6   7    3.22    3.23
   7   6   8    2.15    2.37
   7  -6   8    3.83    1.76
   7   6   8   -1.45    2.17
   7  -6   8   -2.42    2.84
   7   6   9    4.54    2.57
   7  -6   9    2.77    1.88
   7   6   9    8.59    3.28
   7  -6   9    3.30    3.49
   7   6  10   18.72    5.09
   7  -6  10   12.36    4.24
   7   6  10   22.26    5.45
   7  -6  10   14.81    4.42
   7  -6  11   20.51    5.06
   7   6  11   27.22    5.44
   7  -6  11   23.34    5.97
   7   6  11   15.66    5.40
   7  -6  12   14.39    4.48
   7   6  12   18.81    5.04
   7   6  12   15.49    4.76
   7  -6  12   13.30    4.38
   7  -6  13   36.14    6.82
   7   6  13   29.77    5.91
   7  -6  13   43.97    7.67
   7   6  13   32.81    6.77
   7  -6  14   22.31    5.51
   7   6  14   10.58    4.13
   7   6  14   17.47    4.65
   7  -6  14    7.10    3.51
   7  -6  15   10.99    3.87
   7   6  15    9.17    3.40
   7   6  15    4.23    2.88
   7   6  16   -3.43    3.16
   7   6  16   -1.33    1.98
   7   6  17   -0.08    2.74
   7   6  17    1.22    2.33
   7   6  18    0.85    2.16
   7   6  19   -0.14    3.38
   7   6  20   -2.90    1.75
   7   6  21   11.86    5.20
  -7   6  21   22.55    5.70
   7   6  22    0.03    2.61
  -7   6  22    2.43    2.88
   7   6  23   -0.19    3.71
  -7   6  23    7.59    3.85
  -7   6  24    1.78    3.89
   7   6  24   -0.89    2.85
   7  -7 -22   25.06    5.80
   7  -7 -22   16.50    6.34
   7  -7 -21    2.71    2.94
   7  -7 -21    2.79    3.35
   7  -7 -20   25.00    6.70
   7  -7 -20   42.97    8.06
   7  -7 -19   -7.49    4.56
   7  -7 -19    2.53    2.44
   7  -7 -18  146.31   14.38
   7  -7 -18  132.51   14.70
   7  -7 -17   18.25    4.98
   7  -7 -17   19.95    5.12
   7  -7 -16    3.35    3.57
   7  -7 -16   -0.96    2.81
   7   7 -15    6.92    4.10
   7  -7 -15   -1.72    3.22
   7  -7 -15    5.41    3.60
   7   7 -14   38.90    7.43
   7  -7 -14   23.98    5.92
   7  -7 -14   35.04    7.12
   7   7 -13   15.35    5.01
   7  -7 -13   14.63    4.93
   7  -7 -13    3.56    2.90
   7   7 -12  176.22   15.09
   7  -7 -12  195.07   15.91
   7  -7 -12  185.78   15.91
   7   7 -11    6.75    4.23
   7  -7 -11    3.79    3.38
   7   7 -10    1.97    3.50
   7  -7 -10    0.73    2.59
   7  -7 -10    0.43    2.21
   7   7  -9    6.37    4.25
   7  -7  -9    2.68    1.62
   7  -7  -9    4.02    1.75
   7   7  -8  294.61   18.98
  -7   7  -8  252.25   17.44
   7  -7  -8  308.08   19.26
   7  -7  -8  283.56   19.32
  -7   7  -7    9.04    3.91
   7   7  -7   13.91    4.16
   7  -7  -7   11.51    3.71
   7  -7  -7   13.41    4.46
   7   7  -6   38.62    7.09
  -7   7  -6   49.15    7.67
   7  -7  -6   46.60    7.78
   7  -7  -6   31.16    6.54
   7  -7  -5   15.34    4.42
   7   7  -5   15.15    4.77
  -7   7  -5   23.12    5.49
   7   7  -5   12.52    4.00
   7  -7  -5   18.99    5.57
   7   7  -4  116.98   11.80
   7  -7  -4  126.52   12.04
  -7   7  -4  102.72   10.96
   7  -7  -4  102.38   11.44
   7   7  -4  105.76   10.63
   7  -7  -3    1.28    2.35
   7   7  -3    1.51    1.63
   7   7  -3   -0.93    2.35
  -7   7  -3    2.52    3.16
   7  -7  -3   -0.80    2.16
   7   7  -2  143.98   13.22
  -7   7  -2  157.24   13.70
   7  -7  -2  121.34   12.13
   7  -7  -2  150.00   13.62
   7   7  -2  145.08   12.69
   7  -7  -1   16.48    5.34
   7   7  -1   21.86    5.23
   7   7  -1   13.89    3.84
  -7   7  -1   23.69    5.37
   7  -7  -1   23.09    4.98
   7  -7   0    1.85    2.58
   7   7   0    3.91    1.81
   7   7   0    1.47    2.02
  -7   7   0    2.23    3.62
   7  -7   0    5.45    3.59
   7  -7   1   19.73    5.04
   7   7   1   26.12    6.08
   7   7   1   18.52    4.68
  -7   7   1   25.12    5.58
   7  -7   1   14.20    4.02
   7   7   2  137.69   12.49
   7   7   2  149.20   13.28
  -7   7   2  126.49   12.10
   7  -7   2  127.53   12.30
   7  -7   2  146.91   13.43
   7  -7   3    3.37    1.45
   7   7   3    2.90    3.00
   7   7   3    2.27    2.95
  -7   7   3    0.02    2.26
   7  -7   3    1.81    2.92
   7   7   4  114.04   11.71
  -7   7   4   94.29   10.63
   7   7   4  108.63   11.49
   7  -7   4   94.22   10.76
   7  -7   4   95.17   10.75
   7  -7   5   20.13    4.46
   7   7   5   23.58    5.75
   7   7   5   17.68    4.91
   7  -7   5   14.61    5.05
   7   7   6   38.02    6.97
   7  -7   6   39.40    7.06
   7   7   6   45.53    7.37
   7  -7   6   43.65    8.19
   7  -7   7    6.17    3.04
   7   7   7   13.92    4.12
   7   7   7    7.19    3.82
   7  -7   7   11.27    4.91
   7   7   8  278.13   18.12
   7   7   8  308.77   19.28
   7  -7   8  314.22   19.85
   7  -7   8  260.82   17.72
   7  -7   9    0.94    2.28
   7   7   9    6.92    4.13
   7   7   9    8.20    4.51
   7  -7   9    4.26    1.96
   7  -7  10   -1.39    1.57
   7   7  10    0.06    2.36
   7   7  10    2.27    3.53
   7  -7  10   -0.92    2.35
   7  -7  11   21.17    5.50
   7   7  11   11.81    3.88
   7   7  11   18.08    5.98
   7   7  12  196.57   15.98
   7  -7  12  150.09   14.00
   7   7  12  188.19   15.82
  -7   7  13   14.87    4.77
   7  -7  13   14.83    5.37
   7   7  13    6.45    2.99
   7   7  13   16.87    4.79
   7  -7  14   30.72    6.95
   7   7  14   34.40    7.50
  -7   7  14   48.52    7.81
   7   7  14   42.31    7.79
   7   7  15    7.30    3.72
  -7   7  15   12.76    4.62
   7   7  16    6.15    3.99
  -7   7  16    3.85    4.99
   7   7  16    4.49    2.75
   7   7  17   23.44    5.64
  -7   7  17    7.73    4.26
   7   7  17   24.97    5.84
   7   7  18  134.94   14.18
  -7   7  18  132.75   14.23
   7   7  18   95.86   11.89
  -7   7  19    1.58    3.89
   7   7  19    5.34    2.95
  -7   7  20   18.68    6.80
   7   7  20   46.14    8.85
  -7   7  21    4.16    3.60
   7   7  21   16.41    5.91
   7   7  22   30.94    7.63
  -7   7  22   42.21    8.47
   7  -8 -20   -2.38    2.92
   7  -8 -20    2.30    3.07
   7  -8 -19   -0.43    2.61
   7  -8 -19    3.69    3.61
   7  -8 -18   -4.09    3.89
   7  -8 -18   -0.53    2.50
   7  -8 -17    9.90    4.45
   7  -8 -17    7.12    3.25
   7  -8 -16   -0.22    2.17
   7  -8 -16    0.61    3.71
   7  -8 -15    8.10    3.50
   7   8 -15    8.66    4.56
   7  -8 -15   15.29    4.84
   7   8 -14   14.91    5.27
   7  -8 -14    5.71    3.13
   7  -8 -14   15.77    4.79
   7  -8 -13   -0.88    2.27
   7   8 -13    7.75    3.47
   7  -8 -13    6.56    4.07
   7   8 -12    6.91    3.20
   7  -8 -12   -0.12    3.04
   7  -8 -12   -2.59    2.61
   7  -8 -11    7.99    4.45
   7   8 -11    2.04    2.65
   7   8 -10    3.62    2.60
   7  -8 -10   -0.99    3.45
   7  -8 -10   -1.49    2.94
   7   8  -9   10.55    3.90
   7  -8  -9   12.64    4.80
   7  -8  -9   15.37    5.40
   7   8  -8   13.59    5.13
  -7   8  -8    8.61    4.92
   7  -8  -8    4.61    3.01
   7  -8  -8    5.78    2.94
   7   8  -7    7.69    3.80
  -7   8  -7    8.11    3.38
   7  -8  -7    2.31    3.50
   7  -8  -7   -0.83    3.14
   7   8  -6   21.34    5.86
  -7   8  -6    9.56    4.14
   7  -8  -6    7.65    3.52
   7  -8  -6   21.35    6.27
   7   8  -5    7.11    2.92
  -7   8  -5   11.79    4.34
   7  -8  -5    7.22    3.64
   7  -8  -5    4.78    3.83
   7   8  -4    9.17    4.62
   7   8  -4    0.63    3.15
  -7   8  -4    2.54    3.05
   7  -8  -4    4.44    2.51
   7  -8  -4    0.63    1.97
   7   8  -3    2.23    2.71
   7   8  -3   -0.59    2.79
  -7   8  -3    3.75    2.82
   7  -8  -3    1.90    3.38
   7  -8  -3    2.75    2.81
   7  -8  -2    9.96    4.51
   7  -8  -2    6.79    2.09
   7   8  -2    3.08    3.21
   7   8  -2    2.15    2.38
  -7   8  -2    1.49    2.57
   7   8  -1   -0.92    1.47
   7   8  -1    0.99    1.94
   7  -8  -1   -0.39    3.01
  -7   8  -1    3.57    2.47
   7  -8  -1    2.23    2.29
   7   8   0   -0.91    2.13
   7   8   0    0.42    2.26
  -7   8   0    2.61    1.64
   7  -8   0    4.34    3.68
   7  -8   0    1.56    1.96
   7   8   1    0.13    1.56
   7   8   1    0.02    2.87
  -7   8   1    5.31    3.25
   7  -8   1    5.38    3.75
   7  -8   1    4.48    3.02
   7  -8   2    3.51    1.56
   7   8   2    4.28    1.54
   7  -8   2    2.22    2.83
   7   8   2    6.37    2.84
  -7   8   2    4.40    3.22
   7  -8   3    3.18    3.36
   7   8   3    2.15    3.12
  -7   8   3   -0.22    1.86
   7   8   3    4.06    3.27
   7  -8   3    3.19    4.17
  -7   8   4    1.40    1.90
   7  -8   4    1.68    2.01
   7   8   4    1.86    2.78
   7   8   4    3.01    1.35
   7  -8   4    5.08    2.70
   7  -8   5    5.63    3.90
   7   8   5    7.23    4.15
   7   8   5    5.73    3.05
  -7   8   5   10.07    4.45
   7  -8   6    9.61    3.81
   7   8   6   13.11    4.46
   7   8   6   12.08    4.28
  -7   8   6    1.99    1.55
   7  -8   7    1.97    1.80
   7   8   7    8.41    4.57
   7   8   7    2.95    3.47
  -7   8   7   10.10    4.02
   7  -8   8    7.30    3.03
   7   8   8    4.97    3.92
   7   8   8    5.71    3.89
  -7   8   8    0.91    1.80
   7  -8   9   16.30    4.93
   7   8   9    5.57    3.07
   7   8   9   13.77    4.84
  -7   8   9   14.15    4.67
   7  -8  10    1.64    1.91
   7   8  10   -1.33    2.24
   7   8  10    2.40    4.14
  -7   8  10   -3.28    3.60
   7  -8  11    4.89    2.15
   7   8  11    2.54    2.52
   7   8  11    5.52    2.67
  -7   8  11   12.32    4.35
   7  -8  12   -2.59    3.81
   7   8  12    0.41    2.02
  -7   8  12    0.71    1.77
   7   8  13    2.98    1.68
   7   8  13    3.33    3.78
  -7   8  13    5.96    2.66
   7   8  14   14.93    5.33
   7   8  14    8.45    4.65
  -7   8  14   22.81    6.07
   7   8  15   14.97    5.99
  -7   8  15   14.03    4.68
   7   8  15    1.03    1.59
   7   8  16    2.13    3.62
  -7   8  16   -0.36    2.55
   7   8  16    1.57    2.65
  -7   8  17   11.76    4.68
   7   8  17    7.08    4.47
   7   8  17    2.57    2.23
  -7   8  18   -1.92    3.30
   7   8  18    4.34    3.86
   7   8  18    1.76    3.05
  -7   8  19   -1.50    3.06
   7   8  19   -0.28    2.24
  -7   8  20    3.13    3.31
   7   8  20    1.17    2.34
   7  -9 -16   -0.67    2.23
   7  -9 -16   12.74    4.55
   7  -9 -15    9.45    5.37
   7  -9 -15   15.06    4.68
   7   9 -14   81.66   11.70
   7  -9 -14   81.77   11.81
   7  -9 -14   82.37   11.48
   7   9 -13    6.26    3.80
   7  -9 -13    3.15    3.12
   7  -9 -13    2.37    3.21
   7   9 -12  103.21   12.85
   7  -9 -12  118.67   13.71
   7  -9 -12  128.08   14.04
   7  -9 -11    0.85    2.98
   7   9 -11    3.36    3.34
   7  -9 -11    4.03    2.51
   7  -9 -10    2.77    2.68
   7  -9 -10    5.07    2.95
   7   9 -10   -0.45    2.27
   7   9  -9   10.13    3.80
   7  -9  -9   11.82    4.52
   7  -9  -9    6.89    3.52
   7   9  -8  200.33   17.13
   7  -9  -8  208.75   17.22
   7  -9  -8  221.99   17.86
   7   9  -7   -1.46    1.93
  -7   9  -7    3.66    2.09
   7  -9  -7    1.36    1.86
   7  -9  -7    3.23    2.56
   7  -9  -6   47.58    8.90
   7   9  -6   48.81    8.65
  -7   9  -6   57.73    9.11
   7  -9  -6   51.27    9.05
  -7   9  -5   12.08    4.61
   7   9  -5    4.10    2.46
   7  -9  -5    8.21    2.95
   7  -9  -5    7.47    4.07
   7   9  -4   67.44    9.29
  -7   9  -4   64.39    9.62
   7  -9  -4   70.60   10.19
   7  -9  -4   62.73    9.50
   7   9  -3    1.85    3.37
  -7   9  -3    1.73    1.99
   7  -9  -3    1.40    2.98
   7  -9  -3    4.89    4.52
   7   9  -2   78.02   10.56
   7   9  -2  109.93   12.29
  -7   9  -2  114.00   12.94
   7  -9  -2  112.25   12.42
   7  -9  -2  122.56   13.26
   7  -9  -1    4.00    4.11
   7   9  -1    5.41    3.09
   7   9  -1    2.56    2.34
  -7   9  -1    3.85    1.76
   7   9   0    7.41    4.45
   7   9   0    0.50    2.69
  -7   9   0    9.94    3.84
   7  -9   0    0.13    1.67
   7   9   1   -1.29    2.02
   7   9   1    5.41    2.22
  -7   9   1    2.61    2.88
   7  -9   1    5.02    2.94
   7   9   2  123.54   12.83
   7   9   2  112.61   12.96
  -7   9   2  145.67   14.55
   7  -9   2  118.94   13.52
   7   9   3    5.10    4.50
   7   9   3   -0.06    2.32
  -7   9   3    1.13    2.97
   7  -9   3    0.37    2.42
   7   9   4   74.43   10.26
   7   9   4   74.10   10.54
  -7   9   4   51.96    8.79
   7  -9   4   68.07    9.46
   7   9   5    7.17    2.10
   7   9   5    8.77    3.94
  -7   9   5   12.18    5.24
   7  -9   5    0.96    2.44
   7   9   6   51.78    8.62
   7   9   6   52.49    9.10
  -7   9   6   48.29    8.81
   7  -9   6   48.68    8.10
   7   9   7    3.52    3.05
   7   9   7    1.61    1.73
  -7   9   7    2.68    3.19
   7  -9   7    5.74    3.46
   7   9   8  217.77   17.15
   7   9   8  224.13   17.63
  -7   9   8  163.30   15.78
   7  -9   8  190.64   16.80
   7   9   9   15.22    6.14
   7   9   9    3.52    3.57
  -7   9   9   13.15    5.14
   7  -9   9    8.85    4.34
   7   9  10    8.59    4.71
   7   9  10   11.11    5.41
  -7   9  10    7.91    4.60
   7  -9  10    5.70    4.31
   7   9  11    1.62    2.40
   7   9  11    3.33    4.07
  -7   9  11   11.39    3.84
   7  -9  11    9.15    5.44
   7   9  12  120.23   13.67
   7   9  12  114.35   13.01
  -7   9  12  127.40   14.03
   7   9  13    6.31    3.80
   7   9  13    1.20    3.34
  -7   9  13   -1.42    2.68
   7   9  14   79.42   10.77
  -7   9  14   84.89   11.84
   7   9  14   86.50   11.76
   7   9  15    7.85    4.34
   7   9  15   11.11    5.05
  -7   9  15   13.97    4.48
   7   9  16    4.24    4.29
  -7   9  16   -2.11    4.03
   7   9  16    0.43    1.25
   7  10 -12    6.07    2.90
   7 -10 -12    0.72    3.53
   7 -10 -12    7.29    2.99
   7  10 -11   13.74    5.02
   7 -10 -11   14.01    5.10
   7 -10 -11   18.59    5.64
   7  10 -10   11.56    4.78
   7 -10 -10   -3.63    5.17
   7 -10 -10    2.92    3.31
   7  10  -9    2.47    2.77
   7 -10  -9    1.19    3.25
   7 -10  -9    1.53    2.16
   7  10  -8    4.60    2.44
   7 -10  -8   -0.13    3.59
   7  10  -7   28.11    6.38
   7 -10  -7   48.19    8.52
   7  10  -6   -4.04    3.25
  -7  10  -6   -0.19    1.99
   7 -10  -6   -3.98    2.89
   7  10  -5   29.90    7.26
  -7  10  -5   32.36    7.75
   7 -10  -5   30.13    7.33
   7  10  -4    0.55    2.90
  -7  10  -4    4.05    4.28
   7 -10  -4    4.41    3.81
   7  10  -3   -2.32    3.36
  -7  10  -3   -0.04    3.02
   7 -10  -3   -3.29    3.68
   7  10  -2   -0.10    2.59
  -7  10  -2   -3.81    4.11
   7 -10  -2   -0.60    2.26
   7  10  -1   -1.32    2.20
  -7  10  -1    8.19    4.90
   7 -10  -1    4.45    3.98
   7  10   0    2.75    2.80
   7  10   0   -0.52    1.54
  -7  10   0   -0.23    2.59
   7 -10   0    4.82    3.85
   7  10   1    4.07    3.10
   7  10   1   -0.42    3.37
  -7  10   1    3.37    2.76
   7 -10   1    2.03    2.42
   7 -10   2    1.24    2.96
   7  10   2   -1.78    3.18
   7  10   2   -0.77    2.05
  -7  10   2   -4.68    4.15
   7  10   3   -1.20    2.83
   7  10   3    1.64    2.44
  -7  10   3   -1.59    3.39
   7 -10   3    1.49    3.12
   7  10   4    5.02    2.76
   7  10   4    5.04    3.44
  -7  10   4    3.98    3.38
   7 -10   4    2.87    3.49
   7  10   5   38.67    8.14
   7  10   5   27.70    6.48
  -7  10   5   26.44    6.75
   7 -10   5   41.67    8.65
   7  10   6    0.14    2.49
   7  10   6   -1.71    2.75
  -7  10   6    1.91    2.92
   7 -10   6    2.77    3.37
   7  10   7   29.25    6.72
   7  10   7   20.08    5.51
  -7  10   7   17.34    5.13
   7 -10   7   31.41    8.17
   7  10   8    5.79    5.14
   7  10   8    2.52    1.42
  -7  10   8    2.07    2.96
   7 -10   8    8.40    4.08
   7  10   9    6.05    4.43
   7  10   9    0.04    2.59
  -7  10   9   -2.45    2.87
   7 -10   9   -0.69    2.63
   7  10  10    6.68    4.38
   7  10  10    6.15    3.62
  -7  10  10   -2.29    2.75
   7  10  11   17.76    5.76
   7  10  11   12.95    5.11
  -7  10  11    6.90    3.71
   7  10  12    1.40    2.00
   7  10  12    3.62    3.89
  -7  10  12   -3.29    2.25
   7  11  -1   -4.17    4.03
  -7  11  -1   -1.70    3.82
   7 -11  -1   -6.76    4.41
   7  11   0    3.05    3.05
  -7  11   0    2.88    2.93
   7 -11   0   -2.27    3.30
   7  11   1   -0.77    2.95
   7  11   1    4.52    4.59
  -7  11   1    0.83    1.85
   7 -11   1    0.44    2.39
   8   0 -27   27.54    7.39
   8   0 -26   78.66   11.00
   8   0 -25   22.79    6.58
   8   0 -24   31.66    7.08
   8   0 -23    1.32    1.89
   8   0 -22   32.88    6.85
   8   0 -21   74.22    9.47
   8   0 -20    3.80    2.98
   8   0 -19   75.10    9.44
   8   0 -18  216.83   15.63
   8   0 -17  240.12   16.29
   8   0 -16   29.52    5.73
   8   0 -15  276.09   16.68
   8   0 -14  124.98   11.46
   8   0 -13   90.28    9.28
   8   0 -13   86.63    7.80
   8   0 -12  624.86   23.96
   8   0 -12  620.75   20.40
   8   0 -11  532.11   21.72
   8   0 -11  571.05   19.49
   8   0 -10   81.63    7.56
   8   0 -10   85.22    8.67
   8   0  -9 1196.12   28.37
   8   0  -9 1226.41   31.84
   8   0  -8  806.32   22.93
   8   0  -8  882.91   26.70
   8   0  -8  811.30   25.75
   8   0  -7   15.17    3.12
   8   0  -7   17.97    4.07
   8   0  -7   13.70    3.34
   8   0  -6  461.32   17.14
   8   0  -6  443.01   18.52
   8   0  -6  446.81   18.64
   8   0  -5   46.20    5.49
   8   0  -5   58.82    6.83
   8   0  -4  854.20   25.56
   8   0  -4  851.54   25.02
   8   0  -3 1584.26   34.44
   8   0  -3 1543.55   32.10
   8   0  -3 1533.91   33.34
   8   0  -2  748.54   23.41
   8   0  -2  747.11   22.42
   8   0  -2  806.68   23.70
   8   0  -1  109.88    8.54
   8   0  -1  101.92    8.57
   8   0  -1   99.09    8.19
   8   0   0 1209.20   28.75
   8   0   0 1167.29   29.47
   8   0   0 1119.37   27.53
   8   0   1  108.67    8.78
   8   0   1  119.03    8.73
   8   0   2  775.38   23.65
   8   0   2  879.84   23.58
   8   0   3 1687.27   34.73
   8   0   3 1642.51   31.98
   8   0   4  827.37   22.41
   8   0   4  823.36   24.60
   8   0   5   53.51    6.54
   8   0   5   52.00    5.42
   8   0   6  450.65   18.86
   8   0   6  442.60   16.10
   8   0   7    9.88    3.10
   8   0   7    8.72    1.97
   8   0   8  825.46   26.00
   8   0   8  916.39   22.62
   8   0   9 1228.74   26.31
   8   0   9 1243.30   32.36
   8   0  10   91.24    9.08
   8   0  10   86.50    6.80
   8   0  11  571.68   22.63
   8   0  11  525.63   16.75
   8   0  12  661.40   18.37
   8   0  12  648.92   24.66
   8   0  13   88.39    6.71
   8   0  13  106.19   10.04
   8   0  14  142.73   11.75
   8   0  15  254.48   16.10
   8   0  16   23.64    4.73
   8   0  17  281.12   17.53
   8   0  18  211.64   15.51
   8   0  19   56.83    7.86
   8   0  20   15.44    4.20
   8   0  21   79.99   10.17
   8   0  22   24.91    5.78
   8   0  23   -0.02    1.92
   8  -1 -28   13.65    5.15
   8  -1 -27    5.19    3.40
   8  -1 -26   12.03    4.79
   8  -1 -25   -0.80    1.66
   8  -1 -24   11.95    3.75
   8   1 -23   14.08    6.04
   8  -1 -23    0.92    2.47
   8  -1 -22    8.88    3.44
   8   1 -22   10.69    3.84
   8   1 -21    1.11    2.53
   8  -1 -21    7.37    3.03
   8   1 -20   12.51    3.91
   8  -1 -20   -0.81    1.91
   8   1 -19   16.76    4.91
   8  -1 -19   20.21    4.48
   8   1 -18   39.24    6.24
   8  -1 -18   28.91    5.73
   8   1 -17   64.49    8.07
   8  -1 -17   62.42    8.62
   8  -1 -16   31.24    6.29
   8   1 -16   24.91    4.93
   8  -1 -15   15.56    4.69
   8   1 -15    9.36    3.88
   8  -1 -15   23.39    5.24
   8  -1 -14    3.45    1.69
   8   1 -14    3.06    2.11
   8  -1 -14   -0.14    2.33
   8  -1 -13    2.00    1.30
   8   1 -13    3.86    1.33
   8  -1 -13    5.89    2.61
   8   1 -13    4.42    1.72
   8   1 -12   11.97    3.31
   8  -1 -12    5.71    2.59
   8   1 -12    1.77    1.77
   8  -1 -12    4.34    1.69
   8   1 -12   10.18    3.52
   8  -1 -11   34.83    5.66
   8   1 -11   50.97    5.45
   8   1 -11   57.24    6.78
   8   1 -11   49.31    6.56
   8  -1 -11   46.75    5.96
   8  -1 -10   33.55    5.22
   8   1 -10   34.76    5.50
   8   1 -10   35.93    4.56
   8  -1 -10   30.29    5.53
   8   1 -10   28.84    5.04
   8  -1  -9   25.65    4.54
   8   1  -9   18.92    3.49
   8  -1  -9   12.63    2.96
   8   1  -9   20.12    4.08
   8   1  -9   25.10    4.59
   8  -1  -8   51.86    6.23
   8   1  -8   38.14    4.79
   8  -1  -8   40.21    6.14
   8   1  -8   43.54    5.68
   8   1  -8   29.27    4.88
   8  -1  -7   67.27    7.02
   8   1  -7   59.05    5.73
   8  -1  -7   53.27    6.77
   8   1  -7   67.04    7.17
   8   1  -7   64.55    7.33
   8  -1  -6   11.69    3.31
   8  -1  -6   15.25    3.75
   8   1  -6   14.29    3.30
   8   1  -6   17.52    3.18
   8   1  -6   14.64    3.55
   8  -1  -5   10.05    3.00
   8  -1  -5   10.86    2.78
   8   1  -5    7.97    2.32
   8   1  -5   15.38    2.94
   8   1  -5   12.17    3.19
   8   1  -4   15.87    3.52
   8  -1  -4   20.66    4.06
   8  -1  -4   17.89    3.91
   8   1  -4   18.54    3.57
   8   1  -4   20.50    3.41
   8   1  -3   54.26    5.83
   8  -1  -3   50.07    5.78
   8  -1  -3   49.23    6.42
   8   1  -3   52.07    6.03
   8   1  -3   61.41    6.60
   8  -1  -2  102.60    8.57
   8   1  -2  108.68    8.32
   8  -1  -2   87.38    8.20
   8   1  -2  101.92    8.42
   8  -1  -1  109.15    8.80
   8   1  -1  103.48    8.22
   8  -1  -1   83.07    8.02
   8   1  -1  108.73    8.77
   8   1  -1  101.41    8.42
   8   1   0    1.69    1.61
   8   1   0    2.31    1.10
   8  -1   0    6.13    2.38
   8  -1   0    2.68    1.36
   8  -1   1   91.61    8.18
   8  -1   1  114.11    9.46
   8   1   1   96.80    8.05
   8   1   1  114.69    8.88
   8  -1   2   85.21    7.82
   8   1   2   97.30    8.40
   8   1   2   82.27    7.33
   8   1   3   51.57    5.92
   8  -1   3   51.23    6.18
   8   1   3   55.73    6.36
   8   1   4   21.03    3.65
   8   1   4   13.20    3.49
   8  -1   4   18.30    3.88
   8   1   5   11.32    2.90
   8   1   5    7.84    2.78
   8  -1   5   15.57    3.94
   8   1   6   10.35    2.72
   8   1   6   14.64    3.57
   8  -1   6   12.05    3.07
   8   1   7   44.37    5.94
   8  -1   7   57.18    6.96
   8   1   7   54.69    5.93
   8   1   8   46.36    6.42
   8  -1   8   37.26    5.72
   8   1   8   38.04    4.92
   8  -1   9   20.73    4.24
   8   1   9   13.24    2.73
   8   1   9   14.40    3.49
   8   1  10   33.67    5.32
   8  -1  10   32.53    5.06
   8   1  10   28.85    4.41
   8   1  11   48.76    6.73
   8  -1  11   43.71    6.14
   8   1  11   40.02    5.19
   8   1  12    2.83    0.82
   8  -1  12    2.67    1.99
   8   1  12    4.33    2.33
   8   1  13    5.29    2.24
   8   1  13    5.14    2.29
   8  -1  13    4.02    2.52
   8   1  14    5.23    1.99
   8  -1  14    2.75    1.59
   8   1  14    0.44    2.84
   8  -1  15   11.47    3.85
   8   1  15   14.27    3.27
   8   1  16   35.51    6.22
   8  -1  16   24.88    5.76
   8   1  17   68.23    8.72
   8  -1  17   53.89    8.01
   8   1  18   41.20    6.98
   8  -1  18   26.86    5.64
   8  -1  19   18.08    5.09
   8   1  19   19.27    5.28
   8  -1  20    9.13    3.62
   8   1  20   12.72    3.66
   8  -1  21    5.10    3.71
   8   1  21    4.67    2.16
   8  -1  22    9.78    3.95
   8   1  22    9.78    3.45
   8   1  23    4.54    2.55
   8   1  24   22.77    6.19
   8  -2 -28   30.64    7.10
   8  -2 -27   35.98    7.44
   8  -2 -26   13.71    4.86
   8  -2 -25   22.96    6.26
   8  -2 -24   72.30   10.13
   8  -2 -23    8.91    3.94
   8  -2 -22   44.24    8.17
   8  -2 -21  101.97   11.33
   8  -2 -20    9.62    4.69
   8  -2 -19   18.23    5.41
   8  -2 -18  110.03   11.68
   8   2 -17   78.07    9.10
   8  -2 -17   72.36    9.36
   8   2 -17   48.51    7.53
   8   2 -16   70.20    7.90
   8  -2 -16   67.20    8.76
   8  -2 -16   72.35    8.55
   8   2 -16   89.48    9.70
   8   2 -15  179.59   12.81
   8  -2 -15  178.74   13.09
   8   2 -15  191.01   14.00
   8   2 -14   74.97    8.08
   8  -2 -14   89.18   10.28
   8  -2 -14   70.02    8.22
   8   2 -14   68.34    8.29
   8   2 -13   20.00    4.51
   8  -2 -13   32.47    5.95
   8  -2 -13   29.34    5.20
   8   2 -13   25.27    4.71
   8   2 -12  172.45   11.86
   8  -2 -12  180.73   13.77
   8  -2 -12  169.65   12.28
   8   2 -12  157.70   12.29
   8   2 -11  285.58   14.69
   8  -2 -11  288.46   16.98
   8   2 -11  291.41   16.35
   8  -2 -11  274.84   15.67
   8   2 -10   40.19    6.41
   8   2 -10   39.22    4.81
   8   2 -10   32.97    4.84
   8  -2 -10   44.74    6.00
   8  -2 -10   38.93    6.03
   8   2  -9  126.12    8.35
   8   2  -9  119.77    9.18
   8  -2  -9  116.33   10.46
   8   2  -9  115.53    9.97
   8  -2  -9  136.32   10.66
   8  -2  -8  187.79   12.44
   8   2  -8  181.22   11.05
   8   2  -8  188.24   12.66
   8   2  -8  181.57   10.28
   8  -2  -8  190.25   13.14
   8  -2  -7  132.25   10.31
   8   2  -7  137.52    9.08
   8  -2  -7  147.75   11.46
   8   2  -7  156.08   10.47
   8   2  -7  137.59   10.65
   8   2  -6   14.69    3.54
   8   2  -6   12.81    3.06
   8  -2  -6   10.86    3.31
   8  -2  -6   17.09    3.63
   8   2  -6   11.28    3.11
   8  -2  -5  238.48   14.53
   8  -2  -5  245.21   14.12
   8   2  -5  229.39   12.32
   8   2  -5  241.32   12.11
   8   2  -5  240.65   14.05
   8  -2  -4  294.33   15.40
   8  -2  -4  281.06   15.78
   8   2  -4  281.79   13.85
   8   2  -4  295.12   13.55
   8   2  -4  275.95   14.89
   8  -2  -3  277.01   14.80
   8  -2  -3  273.92   15.62
   8   2  -3  288.10   13.59
   8   2  -3  275.76   13.34
   8   2  -3  262.95   14.57
   8  -2  -2  483.05   19.44
   8  -2  -2  507.04   21.02
   8   2  -2  503.71   18.14
   8   2  -2  523.70   18.72
   8   2  -2  528.84   20.22
   8   2  -1  514.67   18.90
   8  -2  -1  481.95   19.51
   8  -2  -1  470.21   19.94
   8   2  -1  471.71   18.80
   8   2   0  177.18   11.17
   8  -2   0  184.32   12.17
   8  -2   0  188.81   12.63
   8   2   0  203.43   12.52
   8   2   1  451.86   18.22
   8  -2   1  478.21   19.43
   8  -2   1  448.52   19.46
   8   2   1  460.02   18.62
   8   2   2  515.48   19.54
   8  -2   2  486.59   19.94
   8  -2   2  520.44   21.04
   8   2   3  267.80   14.17
   8   2   3  262.70   14.09
   8  -2   3  292.73   15.38
   8  -2   3  277.84   15.29
   8   2   4  292.45   14.61
   8   2   4  269.53   14.52
   8  -2   4  265.74   14.82
   8   2   5  257.87   13.71
   8   2   5  208.14   13.40
   8  -2   5  245.03   14.42
   8   2   6    9.76    2.99
   8  -2   6   12.95    2.91
   8   2   6   14.38    3.65
   8   2   7  132.40    9.70
   8   2   7  128.26   10.41
   8  -2   7  157.45   11.65
   8   2   8  203.61   12.02
   8   2   8  182.97   12.81
   8  -2   8  199.60   13.11
   8   2   9  120.24    9.19
   8   2   9  106.23   10.05
   8  -2   9  119.66   10.36
   8   2  10   35.35    4.94
   8   2  10   44.44    6.40
   8  -2  10   39.95    6.10
   8   2  11  278.48   14.25
   8   2  11  299.10   16.98
   8  -2  11  254.19   15.59
   8   2  12  170.38   11.30
   8   2  12  192.94   13.90
   8  -2  12  191.33   13.39
   8   2  13   23.88    4.04
   8   2  13   28.53    6.20
   8  -2  13   23.22    4.98
   8   2  14   97.31    8.46
   8   2  14   82.22    9.48
   8  -2  14   86.87    9.54
   8   2  15  170.89   14.03
   8  -2  15  196.31   14.21
   8   2  15  191.19   11.74
   8   2  16   81.04    9.61
   8  -2  16   77.36    9.10
   8   2  17   68.02    9.09
   8  -2  17   67.78    9.08
   8   2  18   91.28   10.62
   8  -2  18  105.69   11.26
   8   2  19   23.84    5.62
   8  -2  19   13.72    3.96
   8   2  20   12.26    4.45
   8  -2  20   12.02    3.82
   8   2  21  107.85   12.18
   8  -2  21   83.45   10.66
   8   2  22   34.24    7.13
   8   2  23   20.82    5.82
   8   2  24   62.58   10.09
   8   2  25   22.10    5.99
   8  -3 -27    4.44    3.25
   8  -3 -26    0.41    1.92
   8  -3 -25    4.52    3.59
   8  -3 -24    6.22    3.14
   8  -3 -23   -0.24    2.28
   8  -3 -22    4.36    3.33
   8  -3 -21   -0.54    3.31
   8  -3 -20    3.87    2.79
   8  -3 -19   15.54    5.58
   8  -3 -18   28.28    6.45
   8   3 -18   11.54    4.04
   8  -3 -17  151.55   13.65
   8   3 -17  140.32   12.64
   8  -3 -17  169.74   14.07
   8  -3 -16  121.51   12.13
   8  -3 -16  119.18   11.91
   8   3 -16  116.51   11.63
   8  -3 -15   65.12    8.82
   8  -3 -15   58.33    8.10
   8   3 -15   64.96    8.46
   8  -3 -14   49.89    7.73
   8  -3 -14   53.54    7.75
   8   3 -14   66.94    8.34
   8  -3 -13   28.20    5.22
   8  -3 -13   33.47    6.03
   8   3 -13   40.86    6.52
   8   3 -12    1.90    1.69
   8  -3 -12    1.85    2.12
   8   3 -12   -1.47    1.92
   8  -3 -12    6.32    3.97
   8  -3 -11   44.49    7.33
   8   3 -11   36.91    5.12
   8  -3 -11   39.66    6.53
   8   3 -11   39.71    6.80
   8   3 -10   59.67    6.25
   8  -3 -10   64.20    8.29
   8  -3 -10   40.93    6.58
   8   3 -10   49.33    6.87
   8   3  -9   47.62    5.42
   8   3  -9   56.79    7.22
   8  -3  -9   66.79    7.95
   8   3  -9   54.78    5.51
   8  -3  -9   62.43    7.97
   8   3  -8   70.10    6.36
   8  -3  -8   57.48    7.64
   8   3  -8   56.89    5.85
   8   3  -8   61.78    7.58
   8  -3  -8   57.31    7.40
   8  -3  -7   90.87    9.39
   8   3  -7   92.39    7.37
   8   3  -7   91.62    7.34
   8   3  -7   72.76    8.32
   8  -3  -7   84.81    8.94
   8  -3  -6   23.93    4.97
   8  -3  -6   33.18    5.67
   8   3  -6   34.89    4.63
   8   3  -6   30.74    4.26
   8   3  -6   31.68    5.60
   8   3  -5   12.21    3.62
   8  -3  -5   10.42    3.34
   8   3  -5   12.99    3.27
   8  -3  -5   18.67    4.31
   8   3  -5   14.00    2.83
   8   3  -4   -0.02    1.56
   8  -3  -4   -0.59    1.86
   8   3  -4    0.39    0.92
   8  -3  -4    2.91    1.39
   8   3  -4    1.08    0.97
   8   3  -3   41.15    5.83
   8  -3  -3   37.96    5.87
   8   3  -3   46.87    5.87
   8  -3  -3   39.90    5.88
   8   3  -3   41.96    5.19
   8   3  -2   49.61    6.45
   8  -3  -2   41.04    5.92
   8   3  -2   41.91    5.59
   8  -3  -2   54.49    6.98
   8   3  -2   48.25    5.50
   8   3  -1   23.07    4.66
   8   3  -1   17.34    3.66
   8  -3  -1   11.74    3.15
   8   3   0    5.33    2.30
   8  -3   0    8.95    2.73
   8  -3   0    5.81    1.48
   8   3   0    8.49    2.78
   8   3   1   17.58    3.81
   8  -3   1   23.41    4.42
   8  -3   1   21.95    4.34
   8   3   1   21.11    4.09
   8   3   2   49.45    6.29
   8  -3   2   40.77    5.96
   8   3   2   39.58    5.45
   8  -3   2   52.84    6.80
   8   3   3   29.87    5.05
   8  -3   3   46.91    6.49
   8   3   3   47.43    6.36
   8  -3   3   44.65    6.34
   8   3   4   -0.07    1.33
   8   3   4    1.24    1.24
   8  -3   4    0.49    0.95
   8  -3   4   -0.62    1.28
   8   3   5   15.87    3.75
   8   3   5    7.10    1.96
   8  -3   5   10.37    2.93
   8   3   6   42.78    6.13
   8  -3   6   38.00    5.89
   8   3   6   35.91    5.95
   8   3   7   92.29    8.71
   8  -3   7   82.59    8.53
   8   3   7   86.93    9.15
   8   3   8   67.17    7.50
   8  -3   8   70.72    7.96
   8   3   8   62.75    7.70
   8  -3   9   58.23    7.23
   8   3   9   57.98    7.51
   8   3   9   68.33    7.49
   8   3  10   58.30    7.08
   8  -3  10   55.75    7.62
   8   3  10   57.26    7.72
   8   3  11   37.75    5.67
   8  -3  11   51.01    7.28
   8   3  11   45.55    7.05
   8   3  12    2.35    2.64
   8   3  12    1.42    2.06
   8  -3  12    6.12    1.46
   8   3  13   37.72    5.89
   8  -3  13   57.41    7.65
   8   3  13   44.84    7.03
   8   3  14   53.23    6.87
   8  -3  14   53.08    7.77
   8   3  14   43.46    6.83
   8   3  15   64.78    7.47
   8   3  15   64.98    8.70
   8  -3  15   62.87    8.26
   8   3  16  137.29   12.69
   8  -3  16  111.76   10.80
   8   3  17  141.69   13.23
   8  -3  17  143.03   12.62
   8   3  18   15.32    4.66
   8  -3  18   21.80    5.46
   8  -3  19   10.23    4.15
   8   3  19   13.27    4.69
   8   3  20    4.91    3.96
   8   3  21   -2.98    4.19
   8   3  22    3.35    3.84
   8   3  23    0.71    2.60
   8   3  24    3.98    2.72
   8   3  25    3.12    2.49
   8   3  26    5.57    4.45
   8  -4 -26    3.66    4.39
   8  -4 -25   28.17    6.99
   8  -4 -24   58.24    9.07
   8  -4 -23    0.78    1.65
   8  -4 -22   36.65    7.08
   8  -4 -21   51.67    8.50
   8  -4 -20    2.31    2.30
   8  -4 -19   15.89    5.37
   8  -4 -19   -0.78    1.29
   8  -4 -18   39.43    7.67
   8  -4 -18   25.24    6.10
   8   4 -18   31.88    5.80
   8  -4 -17    6.50    2.96
   8   4 -17    5.35    2.71
   8  -4 -16  117.41   12.17
   8   4 -16  128.95   12.17
   8  -4 -16  104.82   11.54
   8  -4 -15  174.85   14.36
   8   4 -15  187.41   14.70
   8  -4 -14   54.74    8.29
   8  -4 -14   59.01    8.49
   8   4 -14   70.82    8.83
   8  -4 -13   54.08    8.22
   8  -4 -13   42.49    6.96
   8   4 -13   46.51    6.95
   8   4 -12   29.82    5.65
   8  -4 -12   30.50    6.13
   8  -4 -12   36.81    6.89
   8  -4 -11  128.55   11.98
   8  -4 -11  116.16   11.32
   8   4 -11  117.49   10.89
   8  -4 -10   33.66    6.67
   8  -4 -10   38.66    6.39
   8   4 -10   37.16    6.50
   8   4  -9   29.97    5.42
   8  -4  -9   29.69    5.87
   8  -4  -9   33.39    5.95
   8   4  -8   15.76    3.91
   8  -4  -8    7.06    3.10
   8   4  -8    9.25    2.24
   8  -4  -8   12.48    3.66
   8   4  -7  122.72   11.01
   8   4  -7  116.24    9.02
   8  -4  -7  126.32   11.76
   8  -4  -7   91.94    9.88
   8   4  -6   21.97    4.75
   8  -4  -6   22.21    5.09
   8   4  -6   19.07    3.68
   8  -4  -6   24.80    5.26
   8   4  -5  395.04   19.27
   8   4  -5  397.34   17.39
   8  -4  -5  384.28   19.74
   8   4  -5  408.82   14.83
   8  -4  -5  384.28   19.56
   8  -4  -4  212.08   14.57
   8   4  -4  213.65   14.24
   8   4  -4  199.94   12.23
   8  -4  -4  201.65   14.50
   8   4  -4  207.22   10.79
   8  -4  -3   66.14    8.07
   8   4  -3   63.03    8.06
   8   4  -3   57.15    6.65
   8  -4  -3   56.80    7.51
   8   4  -3   60.70    5.82
   8  -4  -2  376.57   19.06
   8   4  -2  394.12   19.21
   8   4  -2  339.80   16.45
   8   4  -1  554.29   22.98
   8  -4  -1  585.10   23.88
   8   4  -1  594.97   22.08
   8  -4  -1  586.66   23.82
   8   4   0   82.79    8.98
   8  -4   0   68.29    8.31
   8   4   0   82.94    8.31
   8  -4   0   61.53    7.87
   8   4   1  608.74   23.86
   8  -4   1  622.06   24.92
   8   4   1  576.09   21.95
   8  -4   1  634.44   24.94
   8   4   2  384.82   18.84
   8  -4   2  389.62   19.50
   8   4   2  344.45   17.50
   8  -4   2  363.66   18.78
   8   4   3   61.36    7.81
   8  -4   3   53.50    7.30
   8   4   3   56.10    7.07
   8  -4   3   59.21    7.52
   8   4   4  189.93   13.33
   8  -4   4  209.70   14.62
   8   4   4  219.59   14.37
   8  -4   4  207.46   14.17
   8   4   5  386.30   18.92
   8  -4   5  423.43   20.40
   8   4   5  390.75   19.24
   8  -4   5  380.29   19.16
   8   4   6   22.87    5.29
   8   4   6   20.25    4.76
   8  -4   6   22.00    4.38
   8   4   7  127.80   11.18
   8  -4   7  135.24   11.50
   8   4   7  121.68   10.94
   8  -4   7  126.29   11.31
   8   4   8   12.17    4.33
   8   4   8   17.25    4.33
   8  -4   8   13.02    4.59
   8   4   9   35.46    6.51
   8  -4   9   27.55    4.95
   8   4   9   31.73    6.26
   8   4  10   39.73    6.32
   8  -4  10   39.62    6.05
   8   4  10   37.72    6.13
   8   4  11  136.95   11.66
   8  -4  11  131.58   11.67
   8   4  11  126.18   11.81
   8   4  12   48.99    7.33
   8  -4  12   44.32    6.55
   8   4  12   42.19    7.24
   8   4  13   50.14    7.39
   8  -4  13   57.13    7.85
   8   4  13   44.96    7.62
   8   4  14   84.31    9.35
   8  -4  14   68.26    9.14
   8   4  14   56.26    8.33
   8   4  15  194.78   14.21
   8  -4  15  187.74   14.89
   8   4  15  159.15   14.25
   8   4  16  143.56   12.18
   8  -4  16  104.81   11.48
   8   4  16  118.77   11.97
   8   4  17   13.52    4.44
   8  -4  17    6.03    3.48
   8   4  18   34.68    7.17
   8  -4  18   28.44    6.19
   8   4  19   12.09    3.61
   8   4  20   -1.11    2.48
   8   4  21   46.47    8.07
   8   4  22   40.61    7.78
   8   4  23    2.57    2.30
   8   4  24   51.59    9.47
   8   4  25   36.89    7.67
   8   4  26   -0.50    1.75
   8  -5 -25    2.89    1.92
   8  -5 -24    5.10    4.15
   8  -5 -23   -0.25    2.67
   8  -5 -22    0.85    2.26
   8  -5 -21    6.93    4.06
   8  -5 -20   -0.76    2.02
   8  -5 -20   -2.47    2.13
   8  -5 -19   14.09    4.92
   8  -5 -19    4.12    1.56
   8  -5 -18   10.26    5.16
   8  -5 -18   10.10    3.95
   8   5 -17   15.13    5.09
   8  -5 -17   17.00    5.00
   8  -5 -17   10.59    4.14
   8  -5 -16   50.15    8.03
   8  -5 -16   53.24    8.88
   8   5 -16   64.75    9.18
   8  -5 -15   30.33    6.66
   8  -5 -15   41.81    7.83
   8   5 -15   46.71    7.71
   8   5 -14   27.78    5.96
   8  -5 -14   32.30    6.94
   8  -5 -14   43.14    7.57
   8   5 -13   13.26    4.64
   8  -5 -13   15.35    5.47
   8  -5 -13   18.52    5.07
   8   5 -12   20.17    5.04
   8  -5 -12   25.32    5.41
   8  -5 -12   20.66    5.19
   8   5 -11   12.61    3.68
   8  -5 -11   23.45    5.44
   8  -5 -11   18.97    5.18
  -8   5 -10   -4.25    2.02
   8  -5 -10    1.00    1.74
   8   5 -10    2.89    2.97
   8  -5 -10   -0.31    1.69
   8  -5  -9   12.72    4.20
   8   5  -9    5.37    2.42
   8  -5  -9   11.60    4.44
   8  -5  -8   19.31    4.81
   8   5  -8   21.42    5.28
   8  -5  -8   22.17    5.43
   8   5  -7   75.37    8.97
   8   5  -7   58.56    6.86
   8  -5  -7   82.01    9.67
   8  -5  -7   90.50   10.09
   8  -5  -6   24.38    4.47
   8   5  -6   21.01    4.55
   8  -5  -6   15.89    3.71
   8   5  -6   26.08    4.32
   8   5  -5   13.26    3.31
   8  -5  -5   14.70    4.27
   8   5  -5   10.91    3.40
   8  -5  -5   15.40    4.32
   8   5  -4   60.55    8.19
   8   5  -4   70.69    7.82
   8  -5  -4   69.72    8.55
   8  -5  -4   71.61    8.80
   8   5  -3   60.45    7.79
   8   5  -3   71.78    7.70
   8  -5  -3   51.54    7.50
   8  -5  -3   52.63    7.43
   8   5  -2   35.43    6.23
   8  -5  -2   29.19    5.65
   8   5  -2   37.02    5.81
   8  -5  -2   24.84    5.30
   8   5  -1   13.96    3.87
   8  -5  -1   20.26    4.31
   8   5  -1   22.67    4.39
   8  -5  -1   16.98    4.53
   8   5   0   29.63    5.20
   8  -5   0   31.21    5.52
   8   5   0   30.14    5.13
   8  -5   0   31.15    5.97
   8   5   1   13.29    3.91
   8  -5   1   21.23    4.89
   8   5   1   28.08    5.22
   8  -5   1   15.67    5.03
   8   5   2   27.92    5.20
   8  -5   2   32.57    5.71
   8   5   2   37.09    5.99
   8  -5   2   33.78    6.36
   8  -5   3   54.16    7.59
   8   5   3   50.78    7.28
   8   5   3   67.87    8.32
   8  -5   3   60.04    8.22
   8  -5   4   63.00    8.14
   8   5   4   64.19    7.59
   8   5   4   59.96    7.49
   8  -5   4   66.19    8.55
   8   5   5   22.84    4.42
   8  -5   5   16.67    4.64
   8   5   5   24.52    5.10
   8  -5   5   22.95    5.19
   8  -5   6   15.36    4.22
   8   5   6   21.13    4.88
   8  -5   6   16.20    4.67
   8  -5   7   62.65    8.63
   8   5   7   90.09    9.41
   8  -5   7   78.81    9.23
   8   5   7   81.67    9.28
   8   5   8   25.52    5.62
   8  -5   8   22.01    5.10
   8   5   8   13.71    4.12
   8  -5   8   23.60    5.09
   8   5   9   10.08    3.77
   8  -5   9   12.25    3.70
   8   5   9    6.22    2.80
   8  -5   9   10.82    3.77
   8   5  10   -0.16    2.01
   8  -5  10   -0.85    2.27
   8   5  10   -0.71    1.52
   8  -5  10   -2.32    2.96
   8   5  11   15.97    4.40
   8  -5  11   21.97    5.40
   8   5  11   17.48    4.53
   8   5  12   32.37    6.27
   8  -5  12   18.83    5.03
   8   5  12   17.37    5.43
   8   5  13   11.44    3.43
   8  -5  13   14.41    4.75
   8   5  13   11.30    4.32
   8   5  14   25.73    5.13
   8  -5  14   33.97    6.44
   8   5  14   35.13    6.90
   8   5  15   49.76    7.65
   8  -5  15   52.87    8.47
   8   5  15   47.55    7.70
   8   5  16   36.28    6.66
   8  -5  16   44.74    7.59
   8   5  16   48.53    7.65
   8   5  17   13.14    5.17
   8  -5  17   13.50    4.48
   8   5  18    3.34    1.91
   8   5  19   10.18    4.66
   8   5  20    2.68    3.18
   8   5  21    2.55    2.60
   8   5  22   -0.43    1.91
   8   5  23    0.29    2.68
   8   5  24   -0.94    2.30
   8   5  25    3.12    3.82
   8  -6 -23    4.37    2.81
   8  -6 -22   10.55    5.00
   8  -6 -21   34.91    7.02
   8  -6 -21   -0.43    1.05
   8  -6 -20    5.82    2.32
   8  -6 -20    3.55    2.63
   8  -6 -19   24.37    6.18
   8  -6 -19   23.40    6.95
   8  -6 -18   45.24    8.48
   8  -6 -18   51.05    8.50
   8  -6 -17   31.30    6.75
   8  -6 -17   27.74    6.26
   8   6 -17   44.62    8.82
   8   6 -16   24.90    6.43
   8  -6 -16   21.80    6.36
   8  -6 -16   16.95    5.26
   8  -6 -15  121.15   12.88
   8  -6 -15   95.59   11.81
   8   6 -15  143.37   13.59
   8  -6 -14   59.88    9.13
   8  -6 -14   55.11    8.67
   8   6 -14   78.24   10.06
   8  -6 -13    3.13    3.01
   8   6 -13    1.22    2.08
   8  -6 -13   -0.70    2.50
   8   6 -12   79.07   10.26
   8  -6 -12   88.70   10.49
   8  -6 -12   75.40   10.07
   8   6 -11  134.94   12.94
   8  -6 -11  162.17   14.54
   8  -6 -11  142.10   13.45
   8   6 -10   20.91    4.86
   8  -6 -10   24.41    5.54
   8  -6 -10   25.10    5.90
   8   6  -9   80.01    9.94
  -8   6  -9   77.75    9.33
   8  -6  -9   99.00   10.86
   8  -6  -9   91.02   10.81
   8   6  -8   43.35    6.85
  -8   6  -8   42.06    7.03
   8  -6  -8   57.87    8.27
   8  -6  -8   41.52    7.28
   8  -6  -7   18.45    4.93
   8   6  -7   30.09    6.23
   8  -6  -7   19.74    5.55
  -8   6  -7   25.05    5.09
   8   6  -6  169.66   13.89
   8   6  -6  203.09   14.04
  -8   6  -6  188.03   14.11
   8  -6  -6  181.72   14.42
   8  -6  -6  180.91   15.06
   8   6  -5  216.29   14.59
   8  -6  -5  231.21   16.47
   8  -6  -5  216.93   16.18
   8  -6  -4   28.68    6.10
   8   6  -4   15.06    3.91
   8  -6  -4   19.81    5.37
   8   6  -4   20.84    4.64
   8   6  -3   61.04    8.29
   8   6  -3   60.19    7.77
   8  -6  -3   64.85    8.63
   8  -6  -3   53.70    8.25
   8   6  -2   65.52    8.73
   8   6  -2   73.35    8.61
   8  -6  -2   73.48    9.21
   8  -6  -2   53.48    7.92
   8   6  -1   82.97    9.70
   8  -6  -1   93.48   10.07
   8   6  -1   98.64    9.84
   8  -6  -1   88.47   10.59
   8   6   0  112.77   11.13
   8  -6   0  111.90   11.65
   8   6   0   87.02    9.51
   8  -6   0   90.01    9.82
   8   6   1   82.39   10.22
   8  -6   1   99.56   10.85
   8  -6   1   94.65   10.36
   8   6   2  100.78   10.67
   8  -6   2   78.96    9.59
   8   6   2   84.91    9.67
   8  -6   2   73.95    9.05
   8   6   3   60.39    8.31
   8  -6   3   61.81    8.46
   8   6   3   65.06    8.40
   8  -6   3   72.72    9.22
   8  -6   4   17.89    4.29
   8   6   4   16.23    4.94
   8   6   4   21.06    5.08
   8  -6   4   19.46    4.23
   8   6   5  257.55   16.98
   8  -6   5  228.14   16.65
   8   6   5  223.35   15.73
   8  -6   5  231.89   16.44
   8  -6   6  200.59   15.24
   8   6   6  209.57   15.41
   8  -6   6  178.42   15.09
   8   6   6  195.91   14.79
   8  -6   7   32.04    6.33
   8   6   7   32.14    6.31
   8   6   7   28.82    6.04
   8  -6   7   24.53    5.50
   8  -6   8   76.06    9.53
   8   6   8   48.51    7.61
   8  -6   8   63.15    9.21
   8  -6   9   87.82   10.59
   8   6   9  107.22   11.08
   8  -6   9   86.38   10.24
   8   6   9   95.80   10.69
   8   6  10   29.74    6.32
   8  -6  10   25.42    5.40
   8   6  10   22.34    5.54
   8  -6  10   23.97    5.95
   8  -6  11  152.91   13.79
   8   6  11  149.53   13.20
   8  -6  11  145.18   13.77
   8   6  11  153.41   13.62
   8  -6  12   77.63    9.99
   8   6  12   87.23    9.99
   8  -6  12   68.51   10.11
   8   6  12   95.50   10.87
   8   6  13    2.01    2.36
   8  -6  13    1.20    2.81
   8   6  13   -0.95    3.08
   8  -6  13    4.52    3.11
   8  -6  14   58.09    9.30
   8   6  14   58.30    8.23
   8   6  14   48.02    7.85
   8  -6  14   60.02    8.07
   8  -6  15  103.68   12.05
   8   6  15  120.10   12.20
   8   6  15   99.89   11.47
   8   6  16   27.51    6.01
   8  -6  16   14.51    4.81
   8   6  16   31.41    6.66
   8   6  17   32.69    6.78
   8   6  17   37.14    7.29
   8   6  18   47.14    8.22
   8   6  19   11.35    4.32
   8   6  20    9.72    5.24
   8   6  21   31.16    7.29
   8   6  22   15.63    5.49
   8   6  23    3.44    2.65
  -8   6  23    3.27    3.89
   8  -7 -21    7.63    4.08
   8  -7 -21    0.97    3.06
   8  -7 -20    9.50    3.78
   8  -7 -20    4.28    2.80
   8  -7 -19    4.89    2.03
   8  -7 -19    0.12    3.63
   8  -7 -18    8.48    3.79
   8  -7 -18    5.30    2.06
   8  -7 -17    9.14    4.77
   8  -7 -17    0.26    3.89
   8   7 -16   -0.85    2.93
   8  -7 -16   -0.71    2.72
   8  -7 -16    7.12    3.58
   8   7 -15    1.21    2.64
   8  -7 -15   -1.08    1.67
   8   7 -14    0.40    3.21
   8  -7 -14    4.50    2.02
   8  -7 -14   -0.69    1.55
   8   7 -13    5.65    3.94
   8  -7 -13    7.78    4.23
   8  -7 -13    9.89    3.40
   8   7 -12   21.17    5.47
   8  -7 -12   45.18    7.93
   8  -7 -12   34.69    7.16
   8   7 -11   47.42    8.42
   8  -7 -11   44.10    7.77
   8  -7 -11   53.89    8.65
   8   7 -10   37.03    7.41
   8  -7 -10   37.83    7.64
   8  -7 -10   30.95    6.78
   8   7  -9    0.38    1.80
   8  -7  -9    1.41    2.24
   8  -7  -9    1.58    1.32
   8   7  -8   66.62    9.24
  -8   7  -8   52.14    8.02
   8  -7  -8   58.15    9.12
   8  -7  -8   43.38    7.91
   8   7  -7   56.63    8.63
   8  -7  -7   47.13    8.03
  -8   7  -7   34.47    6.55
   8  -7  -7   55.08    8.11
   8   7  -6   17.85    4.42
  -8   7  -6   15.95    4.89
   8  -7  -6   27.39    5.86
   8  -7  -6   13.56    3.51
   8   7  -5   73.33    9.72
   8  -7  -5   79.61   10.34
  -8   7  -5   86.19   10.42
   8  -7  -5   77.12   10.09
   8   7  -4   38.18    6.50
  -8   7  -4   41.03    7.00
   8   7  -4   30.47    5.66
   8  -7  -4   35.08    6.53
   8  -7  -4   34.26    7.03
   8   7  -3   62.53    9.32
  -8   7  -3   37.45    7.07
   8  -7  -3   42.71    7.34
   8   7  -3   42.79    6.79
   8  -7  -3   45.64    8.24
   8  -7  -2   32.53    6.70
   8   7  -2   42.24    7.27
  -8   7  -2   35.60    6.77
   8  -7  -2   36.11    6.99
   8   7  -2   35.15    6.54
   8   7  -1   82.40   10.11
  -8   7  -1   72.08    9.41
   8  -7  -1   62.03    8.93
   8  -7  -1   52.22    8.78
   8   7   0  110.60   11.43
   8  -7   0  125.24   12.09
   8   7   0   91.39   10.27
   8  -7   0  111.36   11.61
   8   7   1   81.43    9.96
   8  -7   1   59.73    8.73
   8   7   1   73.55    9.09
   8  -7   1   75.45   10.60
   8   7   2   31.61    6.33
   8  -7   2   38.20    7.64
   8   7   2   25.97    5.93
   8  -7   2   42.19    7.51
   8   7   3   52.30    7.95
   8  -7   3   53.91    8.06
   8   7   3   37.77    7.08
   8  -7   3   48.52    8.03
   8  -7   4   34.47    6.96
   8   7   4   30.61    6.36
   8  -7   4   32.92    6.12
   8   7   4   27.96    5.59
   8   7   5   72.82    9.27
   8  -7   5   70.26    9.61
   8   7   5   86.06    9.94
   8  -7   5   67.19    9.46
   8  -7   6   23.44    6.13
   8   7   6   17.99    4.86
   8  -7   6   13.11    4.86
   8   7   6   19.23    4.82
   8   7   7   49.08    8.14
   8  -7   7   37.66    7.17
   8   7   7   42.62    7.73
   8  -7   7   47.38    7.90
   8  -7   8   34.54    7.28
   8   7   8   57.46    9.11
   8  -7   8   43.23    7.75
   8   7   8   58.54    8.65
   8  -7   9    2.11    2.07
   8   7   9   -0.55    2.31
   8  -7   9   -0.23    2.47
   8   7   9    2.83    3.22
   8  -7  10   28.23    6.23
   8   7  10   25.12    5.84
   8  -7  10   34.69    7.46
   8   7  10   22.32    5.41
   8   7  11   60.29    8.97
   8  -7  11   40.45    7.64
   8   7  11   61.38    9.11
   8  -7  11   57.06    8.41
   8   7  12   42.12    8.05
   8   7  12   59.10    9.06
   8  -7  13   11.32    4.70
   8   7  13    5.29    4.66
   8   7  13   10.78    4.08
   8  -7  14    4.59    2.84
   8   7  14    4.31    3.03
   8   7  14   -0.40    1.88
   8   7  15   -2.89    2.80
   8   7  15   -0.74    2.78
   8   7  16    5.20    5.09
   8   7  16    3.46    3.03
   8   7  17    0.27    2.71
   8   7  17    0.86    2.57
   8   7  18    5.96    3.39
  -8   7  18   10.97    4.56
   8   7  19    4.33    3.73
  -8   7  19    2.95    4.04
  -8   7  20    3.44    3.35
   8   7  20    7.01    3.84
   8   7  21    0.53    2.93
  -8   7  21    8.24    3.71
   8  -8 -19   11.53    5.07
   8  -8 -19    5.48    3.12
   8  -8 -18   20.10    5.14
   8  -8 -18   40.68    8.49
   8  -8 -17   78.53   10.23
   8  -8 -17   51.19    8.94
   8  -8 -16    1.42    3.83
   8  -8 -16    6.19    4.03
   8   8 -15   20.13    6.40
   8  -8 -15   25.38    5.93
   8  -8 -15   23.90    6.68
   8  -8 -14   13.28    5.65
   8   8 -14   12.70    5.09
   8  -8 -14   19.36    5.30
   8   8 -13    5.93    3.37
   8  -8 -13    7.77    3.46
   8  -8 -13    2.93    3.01
   8   8 -12   51.71    8.34
   8  -8 -12   55.54    9.38
   8  -8 -12   61.73    9.89
   8   8 -11   95.13   11.50
   8  -8 -11  105.99   12.16
   8  -8 -11  116.43   13.12
   8   8 -10    7.71    4.04
   8  -8 -10   10.39    5.29
   8  -8 -10    4.58    2.87
   8   8  -9   57.90    8.97
   8  -8  -9   60.39   10.03
   8  -8  -9   46.41    7.94
   8   8  -8   80.45   10.11
  -8   8  -8   76.05   11.15
   8  -8  -8   54.14    8.83
   8  -8  -8   84.16   11.13
   8   8  -7   24.18    5.71
  -8   8  -7   18.93    5.53
   8  -8  -7   22.73    5.62
   8  -8  -7   26.11    6.66
   8   8  -6   16.46    4.93
  -8   8  -6   25.02    6.11
   8  -8  -6   23.24    6.06
   8  -8  -6   21.09    5.78
   8   8  -5  107.03   11.68
  -8   8  -5   82.40   10.81
   8  -8  -5  101.40   11.67
   8  -8  -5   69.46    9.99
   8   8  -4   13.04    4.48
  -8   8  -4   20.60    5.88
   8  -8  -4   18.45    5.52
   8  -8  -4   15.41    5.63
   8   8  -3   11.78    4.25
  -8   8  -3    5.32    3.13
   8  -8  -3    8.92    3.56
   8   8  -3    4.89    3.53
   8  -8  -3    8.53    3.95
   8   8  -2   53.14    8.06
  -8   8  -2   48.39    8.26
   8  -8  -2   44.54    8.30
   8   8  -2   45.83    7.53
   8  -8  -2   38.81    7.44
   8  -8  -1   31.89    6.89
   8   8  -1   46.76    8.26
  -8   8  -1   40.19    7.61
   8  -8  -1   36.52    7.50
   8   8  -1   46.30    8.04
   8  -8   0    4.51    4.05
   8   8   0    6.53    4.09
  -8   8   0    6.77    4.07
   8  -8   0    0.86    2.33
   8   8   0   11.09    4.66
   8  -8   1   35.15    7.09
   8   8   1   44.77    8.33
  -8   8   1   46.34    8.50
   8  -8   1   29.68    6.33
   8   8   1   32.66    6.32
   8  -8   2   39.14    7.10
   8   8   2   49.44    7.99
  -8   8   2   50.28    8.72
   8  -8   2   48.22    8.04
   8   8   2   43.43    7.62
   8  -8   3    3.08    1.96
   8   8   3   14.14    4.82
  -8   8   3    7.23    4.25
   8  -8   3    9.33    4.76
   8   8   3    9.95    4.57
  -8   8   4   19.34    5.61
   8  -8   4   11.46    4.12
   8   8   4   11.74    4.59
   8  -8   4   26.44    6.66
   8   8   4   25.22    5.54
   8   8   5   75.45   10.20
  -8   8   5   68.26    9.49
   8  -8   5   96.41   12.19
   8  -8   5   73.95   10.22
   8   8   5  101.19   11.46
   8  -8   6   15.34    4.71
   8   8   6   27.39    6.27
  -8   8   6   28.31    6.37
   8   8   6    8.62    2.72
   8  -8   7   19.65    5.69
   8   8   7   23.73    6.83
  -8   8   7   20.80    5.51
   8   8   7   22.95    5.85
   8   8   8   90.10   11.43
  -8   8   8   84.09   10.51
   8  -8   8   69.23   10.26
   8   8   8   59.48    9.11
   8   8   9   60.88    9.49
  -8   8   9   79.58   10.44
   8  -8   9   61.66    9.60
   8   8   9   57.61    9.17
   8  -8  10    5.49    3.11
   8   8  10    8.38    4.28
   8   8  10    1.36    2.24
  -8   8  10    3.33    3.37
   8   8  11  102.95   12.35
  -8   8  11   92.80   11.42
   8  -8  11   79.16   10.52
   8   8  11   91.09   11.36
   8  -8  12   48.89    8.63
   8   8  12   58.26    9.33
  -8   8  12   57.01    9.13
   8   8  12   39.68    7.22
   8  -8  13    5.38    3.30
   8   8  13    1.92    4.18
  -8   8  13    7.40    4.37
   8   8  13    8.88    4.25
   8   8  14   25.61    6.80
  -8   8  14   15.29    5.58
   8   8  14   19.63    5.43
   8   8  15   28.02    7.21
  -8   8  15   26.81    7.24
   8   8  15   26.89    6.40
   8   8  16    0.70    3.47
  -8   8  16    2.37    4.42
   8   8  16   -0.01    2.67
   8   8  17   59.05   10.09
   8   8  17   55.27    9.75
  -8   8  17   34.89    7.31
  -8   8  18   30.72    7.53
   8   8  18   23.34    6.20
   8   8  19   10.86    4.19
  -8   8  19   11.79    4.74
   8  -9 -15   17.31    5.92
   8  -9 -15   11.32    5.60
   8   9 -14   11.18    4.54
   8  -9 -14    5.88    3.34
   8  -9 -14    3.81    3.17
   8   9 -13   23.58    6.51
   8  -9 -13   14.10    4.75
   8  -9 -13   13.84    4.50
   8   9 -12   11.86    4.63
   8  -9 -12    8.24    4.40
   8  -9 -12   10.99    4.33
   8   9 -11    7.59    4.52
   8  -9 -11    5.07    3.88
   8  -9 -11    8.06    4.50
   8  -9 -10   13.51    4.49
   8   9 -10    5.77    2.41
   8  -9 -10    6.88    4.14
   8  -9  -9   -0.68    3.44
   8   9  -9   -0.47    2.44
   8  -9  -9    0.33    2.17
   8   9  -8    8.18    5.23
   8  -9  -8    9.79    3.15
   8  -9  -8   13.24    4.45
   8   9  -7    3.91    4.36
  -8   9  -7   -1.23    2.26
   8  -9  -7    1.59    3.78
   8  -9  -7   -3.07    3.77
   8   9  -6    0.20    2.69
  -8   9  -6    0.48    1.64
   8  -9  -6   -0.50    3.45
   8  -9  -6   -0.62    2.53
   8   9  -5   19.93    6.40
  -8   9  -5   15.95    5.62
   8  -9  -5   23.99    6.82
   8  -9  -5   17.50    5.91
   8   9  -4    4.63    2.82
  -8   9  -4    1.65    2.36
   8  -9  -4   -3.30    1.97
   8  -9  -4    1.08    2.11
   8   9  -3   13.56    4.28
  -8   9  -3    2.95    2.94
   8  -9  -3    7.64    4.17
   8  -9  -3    6.06    3.32
   8   9  -2   11.84    4.49
  -8   9  -2   15.87    4.76
   8  -9  -2   19.27    6.24
   8   9  -2    9.15    3.98
   8  -9  -2   13.44    5.10
   8   9  -1    6.86    3.73
  -8   9  -1    5.88    3.48
   8  -9  -1    1.34    2.25
   8   9  -1    7.30    3.81
   8  -9  -1    6.22    3.58
   8   9   0    1.78    3.29
  -8   9   0   -0.36    2.65
   8   9   0    2.29    2.63
   8  -9   0    0.40    1.67
   8   9   1    8.18    4.39
  -8   9   1   16.27    5.16
   8   9   1    2.13    2.70
   8  -9   1    4.50    3.72
   8   9   2    2.89    1.96
  -8   9   2   15.04    5.14
   8  -9   2   13.57    4.38
   8   9   2   15.33    4.94
   8   9   3    2.98    2.72
   8   9   3   -0.30    2.78
  -8   9   3    5.47    2.43
   8  -9   3    2.69    2.72
   8   9   4    1.02    2.89
   8   9   4    3.44    4.15
  -8   9   4    9.66    4.27
   8  -9   4    5.05    3.27
   8   9   5   14.23    4.74
   8   9   5   16.40    5.57
  -8   9   5   28.38    6.98
   8  -9   5   23.17    6.82
   8   9   6   -2.33    3.17
  -8   9   6    0.13    1.71
   8   9   6    5.25    4.39
   8  -9   6    3.58    3.85
   8  -9   7    1.77    2.07
   8   9   7    4.98    3.35
   8   9   7    1.12    2.94
  -8   9   7    3.25    2.19
   8  -9   8   11.90    4.66
   8   9   8   25.75    5.82
   8   9   8    5.34    2.75
  -8   9   8   18.48    5.66
   8  -9   9   -3.43    2.94
   8   9   9    1.05    2.75
  -8   9   9   -0.85    2.54
   8   9   9    3.25    3.54
   8  -9  10   11.19    3.38
   8   9  10   13.48    4.92
  -8   9  10    4.11    2.55
   8   9  10    9.01    4.02
   8  -9  11   -1.77    3.76
   8   9  11    9.47    5.41
  -8   9  11    9.83    5.86
   8   9  11    9.96    3.33
   8   9  12    7.35    2.80
  -8   9  12   11.93    4.35
   8   9  12   10.49    3.64
   8   9  13   16.09    5.43
  -8   9  13   16.31    5.42
   8   9  13   13.51    4.43
   8   9  14    3.18    2.74
  -8   9  14   -2.31    2.55
   8   9  14    6.38    3.49
   8   9  15    6.03    3.73
  -8   9  15    3.36    2.78
   8   9  15    9.82    3.37
   8  10 -10   -0.13    2.61
   8 -10 -10   -1.56    3.22
   8 -10 -10   -1.58    2.04
   8  10  -9   28.63    7.16
   8 -10  -9   28.82    8.22
   8 -10  -9   24.06    6.03
   8  10  -8   16.50    6.51
   8 -10  -8   24.00    7.38
   8 -10  -8   14.08    5.50
   8  10  -7   17.33    4.18
   8 -10  -7    9.84    4.37
   8  10  -6    1.93    3.15
  -8  10  -6    2.64    2.63
   8 -10  -6    0.95    2.41
   8  10  -5   40.57    8.22
  -8  10  -5   35.42    7.30
   8 -10  -5   37.94    7.71
   8  10  -4    5.51    3.31
  -8  10  -4    7.87    4.32
   8 -10  -4   12.09    3.88
   8  10  -3    3.14    3.44
  -8  10  -3    4.68    3.79
   8 -10  -3    4.56    3.73
   8  10  -2   24.45    6.67
  -8  10  -2   19.84    6.15
   8  10  -1   27.34    6.76
  -8  10  -1   18.19    5.80
   8 -10  -1   14.63    4.98
   8  10   0    2.05    2.10
  -8  10   0    1.17    2.12
   8  10   0    5.29    2.75
   8 -10   0    1.25    3.15
   8  10   1   21.03    4.70
  -8  10   1   21.12    5.86
   8 -10   1   12.42    5.54
   8  10   1   21.74    6.30
   8  10   2    9.50    3.30
   8 -10   2    2.28    2.76
   8  10   2   11.30    4.93
   8  10   3    4.43    3.83
  -8  10   3   -1.57    2.75
   8 -10   3   -0.67    2.16
   8  10   3   -2.13    3.11
   8  10   4    9.34    5.05
   8  10   4   17.83    5.91
  -8  10   4   12.15    4.20
   8 -10   4    8.56    3.79
   8  10   5   33.45    6.92
   8  10   5   41.04    7.90
  -8  10   5   52.27    9.62
   8 -10   5   25.98    6.70
   8  10   6    2.27    1.81
   8  10   6    6.02    4.44
  -8  10   6   -1.64    1.84
   8 -10   6    0.40    2.12
   8  10   7    3.25    2.68
   8  10   7    1.23    4.47
  -8  10   7   13.91    5.78
   8 -10   7   17.36    5.80
   8  10   8   29.37    6.25
  -8  10   8   29.13    7.10
   8 -10   8   13.34    6.20
   8  10   8   23.10    6.22
   8  10   9   34.50    8.38
  -8  10   9   38.98    7.70
   8 -10   9   29.98    7.10
   8  10   9   38.27    8.27
   8  10  10   -2.77    3.16
  -8  10  10    3.00    3.41
   8  10  10   -0.03    2.66
   8 -10  10    6.25    5.09
   9   0 -26    4.05    3.87
   9   0 -25    0.61    2.47
   9   0 -24   -1.02    1.89
   9   0 -23   -0.34    2.90
   9   0 -22   -4.41    3.36
   9   0 -21    1.32    2.78
   9   0 -20   -0.82    1.62
   9   0 -19    1.44    2.34
   9   0 -18    5.54    3.42
   9   0 -17   -0.77    2.61
   9   0 -16    1.27    2.71
   9   0 -15   -0.94    1.89
   9   0 -14   -1.09    1.84
   9   0 -13    2.41    2.48
   9   0 -13    1.22    1.84
   9   0 -12    0.37    1.21
   9   0 -12   -0.24    1.11
   9   0 -11    0.51    1.56
   9   0 -11    0.71    1.27
   9   0 -10    0.36    1.36
   9   0 -10   -0.07    1.61
   9   0  -9   -0.32    1.15
   9   0  -9   -0.19    1.48
   9   0  -8    0.16    1.05
   9   0  -8   -0.34    1.64
   9   0  -7    1.39    2.38
   9   0  -7    0.64    1.41
   9   0  -7   -0.18    1.49
   9   0  -6   -1.45    1.84
   9   0  -6   -0.95    1.04
   9   0  -6   -1.05    1.77
   9   0  -5   -0.33    1.12
   9   0  -5    1.72    1.29
   9   0  -5    0.98    1.96
   9   0  -4   -0.69    1.21
   9   0  -4   -0.40    1.80
   9   0  -4    0.05    1.46
   9   0  -3   -0.21    0.95
   9   0  -3    0.23    1.72
   9   0  -3    0.52    1.19
   9   0  -2    0.95    1.24
   9   0  -2   -0.91    2.12
   9   0  -2    0.45    1.33
   9   0  -1    0.84    1.83
   9   0  -1    1.48    1.40
   9   0  -1    1.18    1.73
   9   0   0    0.27    1.50
   9   0   0    0.24    0.94
   9   0   0    0.07    1.40
   9   0   1    0.01    0.77
   9   0   1   -0.62    2.01
   9   0   2   -0.66    1.04
   9   0   2   -0.52    1.45
   9   0   3    0.72    1.20
   9   0   3   -0.09    1.16
   9   0   4   -0.54    1.41
   9   0   4   -0.29    0.75
   9   0   5   -0.22    1.66
   9   0   5    0.95    0.96
   9   0   6    0.64    1.35
   9   0   6    0.55    1.70
   9   0   7   -0.51    1.45
   9   0   7   -0.45    0.88
   9   0   8   -0.32    2.68
   9   0   8   -0.75    1.34
   9   0   9    1.25    3.07
   9   0   9    1.88    1.18
   9   0  10   -0.68    1.52
   9   0  10    0.61    1.71
   9   0  11    0.23    1.53
   9   0  11    1.10    1.78
   9   0  12    0.92    1.90
   9   0  12    0.14    0.76
   9   0  13    1.67    1.67
   9   0  13    0.31    1.10
   9   0  14   -0.63    2.04
   9   0  15   -0.09    1.69
   9   0  16   -1.40    2.34
   9   0  17   -0.38    1.52
   9   0  18   -0.30    1.61
   9   0  19   -1.00    1.87
   9   0  20   -0.56    1.65
   9   0  21    1.02    2.10
   9   0  22   -1.27    2.93
   9   0  23    1.60    2.50
   9  -1 -28    8.43    2.93
   9  -1 -27   62.63    9.83
   9  -1 -26   48.25    8.78
   9  -1 -25   22.38    6.17
   9  -1 -24   -1.48    1.70
   9  -1 -23   19.47    5.95
   9   1 -22   55.70    9.72
   9  -1 -22   40.44    7.49
   9   1 -21  115.93   12.29
   9  -1 -21  121.42   12.85
   9   1 -20   17.30    4.68
   9  -1 -20   27.91    6.26
   9   1 -19   37.77    7.18
   9  -1 -19   48.72    8.07
   9  -1 -18    1.73    1.97
   9   1 -18    0.54    1.68
   9   1 -17  542.91   24.53
   9  -1 -17  503.85   25.20
   9  -1 -16   63.40    8.88
   9   1 -16   83.65    9.56
   9   1 -15  313.92   18.08
   9  -1 -15  300.17   18.14
   9  -1 -14    5.84    2.86
   9   1 -14    2.76    1.97
   9  -1 -14    6.40    3.17
   9  -1 -13    0.79    1.68
   9   1 -13   -0.32    1.85
   9  -1 -13    0.51    2.11
   9   1 -13    1.37    2.31
   9  -1 -12   93.71   10.18
   9   1 -12  100.23    9.55
   9   1 -12   76.91    9.06
   9  -1 -12   93.99    8.87
   9  -1 -11  883.27   27.46
   9   1 -11  858.71   24.48
   9   1 -11  918.18   29.35
   9  -1 -11  862.37   29.77
   9   1 -11  950.04   30.16
   9  -1 -10   37.33    5.90
   9   1 -10   38.96    5.29
   9   1 -10   37.52    5.76
   9  -1 -10   41.18    6.20
   9   1 -10   35.89    5.73
   9  -1  -9  551.35   21.35
   9   1  -9  586.61   19.94
   9  -1  -9  549.73   23.09
   9   1  -9  568.73   22.04
   9   1  -9  537.31   22.23
   9  -1  -8  192.94   12.62
   9   1  -8  176.74   11.05
   9  -1  -8  192.05   13.43
   9   1  -8  180.42   12.46
   9   1  -8  163.12   12.00
   9  -1  -7  231.94   13.66
   9   1  -7  210.86   12.05
   9  -1  -7  217.67   14.36
   9   1  -7  214.44   13.22
   9   1  -7  188.47   12.65
   9  -1  -6  186.70   12.10
   9   1  -6  205.43   11.95
   9  -1  -6  181.54   12.97
   9   1  -6  188.64   12.28
   9   1  -6  203.47   13.03
   9  -1  -5  500.85   20.04
   9   1  -5  476.99   18.61
   9  -1  -5  479.36   20.73
   9   1  -5  487.52   19.96
   9   1  -5  512.16   20.62
   9   1  -4  308.74   14.84
   9  -1  -4  305.73   15.55
   9  -1  -4  325.51   17.30
   9   1  -4  317.87   16.01
   9   1  -4  289.43   15.58
   9   1  -3  452.44   18.11
   9  -1  -3  468.51   19.19
   9  -1  -3  435.10   19.73
   9   1  -3  493.41   19.77
   9   1  -3  495.33   19.99
   9  -1  -2  253.96   14.19
   9   1  -2  252.58   13.57
   9  -1  -2  228.27   14.09
   9   1  -2  268.54   14.48
   9   1  -2  246.50   14.07
   9  -1  -1  761.38   24.34
   9   1  -1  691.20   22.57
   9  -1  -1  736.63   25.41
   9   1  -1  753.70   24.48
   9   1  -1  719.26   23.98
   9  -1   0 1077.31   30.08
   9   1   0 1027.27   27.94
   9  -1   0 1081.55   30.95
   9  -1   1  723.65   24.36
   9  -1   1  766.47   25.79
   9   1   1  763.82   24.38
   9   1   1  748.56   24.08
   9  -1   2  237.68   14.04
   9   1   2  235.50   13.67
   9   1   2  236.63   13.34
   9  -1   3  475.88   19.85
   9   1   3  453.48   19.21
   9   1   3  473.43   18.92
   9  -1   4  278.03   15.56
   9   1   4  304.12   15.80
   9   1   4  293.17   14.92
   9  -1   5  490.72   20.54
   9   1   5  465.81   18.64
   9   1   5  511.67   20.81
   9  -1   6  198.81   13.39
   9   1   6  187.91   11.59
   9   1   6  199.66   13.16
   9  -1   7  204.53   13.57
   9   1   7  216.68   12.49
   9   1   7  212.06   13.92
   9  -1   8  184.96   13.11
   9   1   8  190.94   11.68
   9   1   8  200.34   13.83
   9  -1   9  533.35   22.25
   9   1   9  576.62   20.26
   9   1   9  571.73   23.51
   9  -1  10   31.80    5.68
   9   1  10   37.04    5.06
   9   1  10   40.48    6.37
   9   1  11  977.70   31.45
   9  -1  11  918.50   30.25
   9   1  12  119.86   10.97
   9  -1  12  107.28   10.39
   9   1  12  104.16    8.50
   9   1  13    2.92    1.35
   9  -1  13    1.46    2.23
   9   1  13    2.68    2.06
   9  -1  14    3.29    2.36
   9   1  14    1.38    1.40
   9   1  14    1.81    1.52
   9  -1  15  284.39   17.64
   9   1  15  280.38   17.89
   9  -1  16   74.77    9.18
   9   1  16   67.20    9.02
   9  -1  17  497.73   24.35
   9   1  17  517.03   24.91
   9  -1  18    5.72    3.15
   9   1  18    1.88    3.13
   9  -1  19   38.59    7.21
   9   1  19   51.42    7.77
   9  -1  20   21.54    5.36
   9   1  20   19.11    4.75
   9  -1  21  103.45   11.80
   9   1  21  107.69   11.91
   9   1  22   62.35    9.96
   9  -1  22   42.95    8.07
   9   1  23   34.03    7.95
   9   1  24    0.80    3.61
   9   1  25   17.81    5.74
   9  -2 -27   -2.12    2.46
   9  -2 -26    8.47    3.78
   9  -2 -25    2.65    1.85
   9  -2 -24    4.26    4.58
   9  -2 -23    3.01    3.37
   9  -2 -22    4.15    1.85
   9  -2 -21    5.62    4.02
   9  -2 -20   -0.95    1.74
   9  -2 -19    4.35    3.51
   9  -2 -18   10.88    3.56
   9   2 -17    3.96    3.60
   9  -2 -17    1.79    3.08
   9   2 -16   18.32    4.98
   9   2 -16   15.02    3.52
   9  -2 -15    4.18    2.79
   9   2 -15    0.54    1.27
   9  -2 -15    1.07    1.82
   9   2 -15   -0.69    1.67
   9  -2 -14    7.65    3.02
   9   2 -14    6.86    3.29
   9  -2 -14    6.90    2.71
   9   2 -14    5.08    2.15
   9  -2 -13    6.22    3.02
   9   2 -13    3.64    1.83
   9  -2 -13    4.35    3.37
   9   2 -13    3.96    2.16
   9  -2 -12   21.46    4.83
   9   2 -12   30.82    5.43
   9  -2 -12   23.49    5.17
   9   2 -12   20.24    4.01
   9  -2 -11   15.27    3.90
   9   2 -11   14.00    3.32
   9  -2 -11   11.48    3.53
   9   2 -11   14.82    3.40
   9  -2 -10    2.39    0.97
   9   2 -10    0.40    1.14
   9   2 -10    2.15    1.44
   9  -2 -10    0.63    1.36
   9   2 -10    1.31    1.88
   9   2  -9    0.60    1.52
   9  -2  -9    0.07    1.62
   9   2  -9    0.95    0.90
   9   2  -9    3.31    2.03
   9  -2  -8   42.76    6.29
   9   2  -8   47.16    5.63
   9  -2  -8   51.19    7.43
   9   2  -8   41.84    5.58
   9   2  -8   50.09    7.06
   9   2  -7   29.41    5.04
   9  -2  -7   22.28    4.31
   9   2  -7   23.72    4.13
   9  -2  -7   31.45    5.84
   9   2  -7   24.39    4.23
   9   2  -6    4.19    1.95
   9   2  -6   10.70    3.62
   9  -2  -6   11.40    3.46
   9  -2  -6    7.38    2.93
   9   2  -6    7.37    2.75
   9   2  -5    4.60    2.02
   9   2  -5    3.79    1.87
   9  -2  -5    4.37    2.52
   9  -2  -5    4.41    2.59
   9   2  -5    7.93    2.92
   9   2  -4    8.19    2.89
   9   2  -4    7.71    2.47
   9  -2  -4    8.71    2.79
   9  -2  -4    3.60    1.38
   9   2  -4    4.21    2.20
   9   2  -3    6.70    2.20
   9   2  -3   10.44    3.00
   9  -2  -3    5.48    2.52
   9  -2  -3   14.26    3.93
   9   2  -3   15.74    3.39
   9   2  -2    7.84    2.58
   9   2  -2   17.34    3.77
   9  -2  -2    8.51    2.20
   9   2  -2   14.16    3.96
   9  -2  -1   67.65    7.63
   9  -2  -1   62.88    7.74
   9   2  -1   62.84    6.85
   9   2  -1   73.26    7.48
   9   2  -1   50.74    6.52
   9  -2   0   26.05    4.88
   9  -2   0   32.27    5.67
   9   2   0   24.23    4.74
   9   2   0   25.51    4.90
   9   2   1   78.45    8.01
   9  -2   1   58.61    7.22
   9  -2   1   67.63    7.63
   9   2   1   61.79    7.14
   9   2   2   15.84    3.56
   9   2   2   12.50    3.08
   9  -2   2   13.44    3.58
   9  -2   2   17.82    4.44
   9   2   3   15.62    3.55
   9   2   3   10.57    2.95
   9  -2   3    8.01    2.84
   9  -2   3   10.80    3.80
   9   2   4    7.31    2.67
   9   2   4    3.97    2.19
   9  -2   4    6.74    2.99
   9   2   5    4.96    2.62
   9   2   5    4.65    2.34
   9  -2   5    4.60    1.88
   9   2   6    9.53    3.06
   9   2   6   11.68    3.28
   9  -2   6    4.72    2.07
   9  -2   7   32.56    5.94
   9   2   7   25.97    4.93
   9   2   7   27.65    4.49
   9   2   8   51.33    6.95
   9  -2   8   56.24    7.10
   9   2   8   41.66    5.74
   9   2   9    3.70    2.07
   9   2   9    0.37    1.27
   9  -2   9    4.33    2.77
   9   2  10    2.98    1.91
   9   2  10    5.55    2.90
   9  -2  10    2.40    2.90
   9   2  11   15.18    3.25
   9   2  11   10.14    3.83
   9  -2  11   15.70    4.41
   9   2  12   24.71    5.35
   9  -2  12   29.45    5.61
   9   2  12   24.23    4.70
   9   2  13    5.00    2.60
   9   2  13    3.28    1.65
   9  -2  13   -0.33    2.39
   9   2  14    7.36    2.91
   9   2  14   18.41    4.63
   9  -2  14   12.63    4.84
   9   2  15    3.92    2.73
   9  -2  15   -0.26    2.69
   9   2  16   16.50    4.88
   9  -2  16    6.29    2.70
   9   2  17    1.40    2.24
   9  -2  17    5.27    2.41
   9   2  18   11.30    4.22
   9  -2  18   17.63    4.05
   9   2  19   -1.68    1.72
   9  -2  19   -0.50    1.71
   9   2  20   -0.91    2.34
   9  -2  20   -2.38    2.56
   9   2  21    3.15    3.43
   9  -2  21    4.94    3.73
   9   2  22    4.81    2.80
   9   2  23   -0.79    2.34
   9   2  24    6.87    4.78
   9   2  25    2.52    3.34
   9   2  26    1.05    2.81
   9  -3 -26    8.12    4.38
   9  -3 -25   86.57   11.33
   9  -3 -24   32.99    8.22
   9  -3 -23   10.79    3.88
   9  -3 -22   82.57   10.79
   9  -3 -21  114.63   12.84
   9  -3 -20    0.70    1.89
   9  -3 -19   24.20    5.96
   9   3 -19   26.92    5.73
   9  -3 -18  102.03   11.49
   9   3 -18  115.42   12.21
   9  -3 -17   56.07    8.43
   9  -3 -17   63.22    9.53
   9   3 -17   58.18    8.61
   9  -3 -16  505.16   25.25
   9  -3 -16  452.77   23.24
   9   3 -16  493.20   23.91
   9  -3 -15   80.25   10.14
   9  -3 -15   54.36    7.81
   9   3 -15   75.90    9.38
   9  -3 -14  103.48   11.03
   9  -3 -14   97.03   10.49
   9   3 -14   99.56   10.41
   9  -3 -13   77.22    9.54
   9  -3 -13  103.62   10.27
   9   3 -13  103.55   10.58
   9  -3 -12  455.36   22.63
   9  -3 -12  473.02   22.53
   9   3 -12  464.57   22.09
   9  -3 -11  578.96   25.59
   9  -3 -11  606.68   25.44
   9   3 -11  598.97   24.93
   9  -3 -10  706.17   27.60
   9   3 -10  655.98   22.75
   9   3 -10  734.81   27.34
   9  -3 -10  701.74   26.86
   9   3  -9    3.14    2.13
   9  -3  -9    0.72    2.31
   9   3  -9    1.00    1.41
   9  -3  -9    6.39    2.89
   9   3  -9    3.35    1.72
   9  -3  -8  114.25   11.06
   9   3  -8  135.37    9.85
   9   3  -8  140.99    9.70
   9   3  -8  135.19   11.59
   9  -3  -8  135.35   11.67
   9  -3  -7 1396.43   37.01
   9  -3  -7 1388.22   37.81
   9   3  -7 1258.00   30.38
   9   3  -7 1273.40   29.65
   9   3  -7 1336.73   35.96
   9  -3  -6   67.54    8.12
   9  -3  -6   69.47    8.71
   9   3  -6   64.87    6.81
   9   3  -6   68.23    6.91
   9   3  -6   82.67    8.73
   9  -3  -5 1786.12   41.65
   9  -3  -5 1855.39   43.97
   9   3  -5 1852.42   36.90
   9   3  -5 1735.11   35.49
   9   3  -5 1784.27   40.89
   9  -3  -4  694.60   25.84
   9  -3  -4  688.92   26.54
   9   3  -4  722.53   22.77
   9   3  -4  773.89   24.41
   9   3  -4  692.21   25.41
   9   3  -3    1.40    1.89
   9  -3  -3    0.31    1.29
   9   3  -3    0.50    1.04
   9  -3  -3    1.29    1.92
   9   3  -3   -0.30    0.92
   9   3  -2   35.58    6.01
   9   3  -2   41.09    5.70
   9  -3  -2   29.56    5.28
   9  -3  -2   28.13    6.03
   9   3  -2   34.69    5.13
   9   3  -1 2469.77   48.12
   9   3  -1 2641.96   46.28
   9  -3  -1 2599.37   49.78
   9  -3  -1 2635.71   51.16
   9   3   0   10.85    4.25
   9  -3   0    7.37    3.13
   9   3   0    6.22    2.92
   9  -3   0    2.43    2.83
   9   3   1 2578.74   47.61
   9   3   1 2636.27   47.19
   9  -3   1 2611.89   49.75
   9  -3   1 2473.60   49.24
   9   3   2   34.21    5.55
   9   3   2   35.82    5.44
   9  -3   2   31.86    5.61
   9  -3   2   33.82    6.72
   9   3   3    2.22    2.45
   9  -3   3   -0.41    2.31
   9   3   3    0.03    1.67
   9  -3   3    0.13    1.61
   9   3   4  748.34   25.89
   9   3   4  693.63   25.24
   9  -3   4  729.56   26.37
   9  -3   4  719.49   26.88
   9   3   5 1845.98   40.33
   9   3   5 1813.32   40.98
   9  -3   5 1748.99   41.14
   9  -3   5 1758.48   41.85
   9   3   6   74.19    8.10
   9   3   6   83.96    9.08
   9  -3   6   79.43    8.52
   9   3   7 1334.38   34.58
   9   3   7 1373.06   36.59
   9  -3   7 1391.62   36.70
   9   3   8  138.65   11.04
   9   3   8  115.65   10.59
   9  -3   8  144.69   11.90
   9   3   9    5.50    3.11
   9  -3   9    4.83    2.37
   9   3   9    7.52    2.69
   9   3  10  721.28   25.71
   9  -3  10  752.72   28.01
   9   3  11  608.84   23.62
   9   3  11  556.18   24.65
   9  -3  11  586.73   25.04
   9   3  12  444.92   20.48
   9   3  12  465.52   22.79
   9  -3  12  423.56   21.50
   9   3  13  102.98    9.99
   9   3  13  107.58   11.15
   9  -3  13   97.56   10.54
   9   3  14  103.92   10.12
   9   3  14  113.69   11.38
   9  -3  14  100.61   10.78
   9   3  15   65.15    7.92
   9   3  15   58.26    8.93
   9  -3  15   75.25    9.32
   9   3  16  457.20   23.80
   9  -3  16  520.29   24.92
   9   3  17   47.97    8.00
   9  -3  17   64.39    9.17
   9   3  18   96.15   11.22
   9  -3  18   91.64   10.69
   9  -3  19   24.12    6.02
   9   3  19   32.80    7.12
   9  -3  20    4.23    1.95
   9   3  20    0.07    2.90
   9   3  21  134.21   14.25
   9   3  22  117.41   13.04
   9   3  23    9.93    3.69
   9   3  24   31.53    6.94
   9   3  25  129.25   14.91
   9   3  26   -1.62    4.37
   9  -4 -26    5.95    3.74
   9  -4 -25    4.58    2.88
   9  -4 -24    5.25    3.51
   9  -4 -23   14.55    4.65
   9  -4 -22    2.93    3.21
   9  -4 -21    2.30    2.46
   9  -4 -20    2.37    3.13
   9  -4 -19    4.70    3.23
   9  -4 -18    3.81    1.97
   9  -4 -18    4.99    1.91
   9   4 -18    0.48    2.09
   9  -4 -17  188.90   16.09
   9  -4 -17  180.09   15.62
   9   4 -17  195.80   15.60
   9  -4 -16    4.42    3.93
   9  -4 -16    7.00    3.41
   9   4 -16    1.74    2.21
   9   4 -15   24.86    5.85
   9  -4 -15   11.00    3.98
   9  -4 -15   14.99    4.91
   9   4 -14   30.89    6.45
   9  -4 -14   26.02    5.68
   9  -4 -14   19.38    5.44
   9  -4 -13   -0.06    1.20
   9   4 -13    5.25    3.40
   9  -4 -13    5.78    3.58
   9  -4 -12   53.03    8.23
   9  -4 -12   59.23    8.65
   9   4 -12   67.32    8.96
   9  -4 -11  254.31   17.40
   9  -4 -11  267.30   17.48
   9   4 -11  241.55   16.07
   9   4 -10    4.33    3.70
   9  -4 -10    1.75    1.29
   9  -4 -10   -0.20    2.79
   9  -4  -9  162.87   13.51
   9  -4  -9  181.28   14.12
   9   4  -9  169.89   13.34
   9  -4  -8  115.70   11.69
   9   4  -8  111.75    9.38
   9  -4  -8  112.02   11.24
   9   4  -8  126.32   11.65
   9   4  -7   -0.34    1.56
   9  -4  -7    1.95    2.55
   9   4  -7    2.65    1.43
   9  -4  -7   -0.27    2.10
   9   4  -6  228.06   15.17
   9   4  -6  201.77   13.05
   9  -4  -6  211.56   15.26
   9  -4  -6  194.03   14.48
   9  -4  -5   97.82   10.18
   9   4  -5  102.49   10.16
   9   4  -5   97.84    8.72
   9  -4  -5   80.48    9.46
   9   4  -4   81.49    9.03
   9  -4  -4   72.28    8.77
   9   4  -4   72.78    7.80
   9  -4  -4   59.20    8.44
   9   4  -4   77.74    7.38
   9   4  -3   26.18    5.36
   9  -4  -3   22.04    4.37
   9   4  -3   23.16    4.58
   9  -4  -3   21.55    4.68
   9   4  -3   28.72    4.66
   9   4  -2  169.79   12.92
   9  -4  -2  150.24   12.62
   9   4  -2  156.77   11.69
   9  -4  -2  137.97   12.07
   9   4  -2  135.35   10.01
   9   4  -1    1.98    2.06
   9  -4  -1    1.73    1.32
   9  -4  -1    5.80    3.78
   9   4  -1    2.22    1.61
   9   4   0  453.41   21.26
   9  -4   0  469.28   22.13
   9   4   0  457.07   20.01
   9  -4   0  439.85   21.91
   9   4   1    1.67    2.75
   9  -4   1    2.02    1.28
   9  -4   1    3.61    3.54
   9   4   1    4.58    2.79
   9   4   2  144.97   12.03
   9  -4   2  138.51   12.04
   9   4   2  164.89   12.21
   9  -4   2  137.21   12.14
   9   4   3   26.03    4.84
   9  -4   3   26.60    5.53
   9   4   3   30.62    5.46
   9  -4   3   27.13    6.09
   9   4   4   73.92    9.08
   9  -4   4   60.22    7.88
   9   4   4   68.78    8.23
   9  -4   4   70.08    9.06
   9   4   5   88.21    9.37
   9  -4   5   76.26    9.02
   9   4   5   93.83    9.90
   9  -4   5   83.94    9.67
   9   4   6  214.09   14.61
   9  -4   6  199.60   14.44
   9   4   6  231.13   15.37
   9  -4   6  206.36   15.04
   9   4   7    0.41    1.06
   9   4   7    0.34    2.08
   9  -4   7    2.51    3.27
   9  -4   7    2.26    2.71
   9   4   8  122.91   11.12
   9  -4   8  113.18   10.89
   9   4   8  130.69   11.57
   9   4   9  177.98   13.62
   9  -4   9  172.39   13.72
   9   4   9  167.23   13.42
   9   4  10    2.42    1.92
   9   4  10    2.39    1.76
   9  -4  10    5.18    2.78
   9   4  11  238.32   15.76
   9  -4  11  210.22   15.29
   9   4  11  233.14   16.18
   9   4  12   70.08    8.33
   9  -4  12   70.25    8.87
   9   4  12   61.88    8.22
   9   4  13    6.15    3.10
   9   4  13    2.70    2.90
   9  -4  13    2.56    2.41
   9   4  14   24.86    5.37
   9   4  14   26.66    5.80
   9  -4  14   12.57    4.27
   9   4  15   13.93    4.35
   9   4  15   11.49    3.63
   9  -4  15    9.84    3.27
   9   4  16    4.48    3.08
   9  -4  16   -0.04    2.14
   9  -4  17  189.88   15.51
   9   4  17  202.92   16.49
   9  -4  18    0.43    1.76
   9   4  18    4.28    3.58
   9  -4  19    1.16    1.77
   9   4  19    1.61    3.45
   9   4  20    1.95    2.14
   9   4  21    5.52    3.49
   9   4  22    2.12    3.15
   9   4  23   13.08    4.86
   9   4  24   -2.24    2.03
   9   4  25    0.70    2.48
   9   4  26    5.05    3.24
   9  -5 -24    3.72    3.19
   9  -5 -23    5.38    3.79
   9  -5 -22   13.94    4.40
   9  -5 -21   50.65    8.49
   9  -5 -20   10.66    4.45
   9  -5 -19   14.54    4.16
   9  -5 -19   18.46    5.55
   9   5 -18    2.40    3.50
   9  -5 -18    2.21    3.40
   9  -5 -18   -1.59    2.77
   9   5 -17   15.13    5.78
   9  -5 -17   24.04    6.38
   9  -5 -17   13.14    4.01
   9   5 -16   16.71    5.32
   9  -5 -16   10.42    3.36
   9  -5 -15  199.25   16.22
   9  -5 -15  207.36   17.06
   9   5 -15  204.66   16.03
   9  -5 -14   18.35    4.61
   9  -5 -14   18.57    4.82
   9   5 -13    7.37    3.44
   9  -5 -13    8.74    2.56
   9  -5 -13    8.91    3.82
   9  -5 -12   36.27    6.80
   9  -5 -12   28.01    5.63
   9  -5 -11  256.07   17.41
   9  -5 -11  262.40   17.99
   9   5 -11  258.46   17.49
   9  -5 -10    8.50    3.82
   9   5 -10   13.55    3.79
   9  -5 -10   10.00    3.62
   9  -5  -9   12.27    4.31
   9   5  -9    8.59    3.60
   9  -5  -9   12.62    4.49
   9  -5  -8    1.51    2.42
   9   5  -8    1.36    2.80
   9  -5  -8    2.87    1.98
   9   5  -7   60.37    8.13
   9  -5  -7   56.57    8.42
   9  -5  -7   69.23    8.92
   9  -5  -6   10.80    4.17
   9   5  -6   27.13    5.72
   9  -5  -6   25.26    5.92
   9   5  -6   17.38    4.47
   9   5  -5  457.97   22.50
   9   5  -5  460.28   20.10
   9  -5  -5  440.37   22.13
   9  -5  -5  422.08   22.06
   9   5  -4   38.69    6.59
   9   5  -4   40.11    6.53
   9  -5  -4   26.93    6.13
   9  -5  -4   32.22    6.52
   9   5  -3    6.32    3.17
   9  -5  -3    9.80    4.09
   9  -5  -3    6.43    3.10
   9   5  -3    7.70    2.57
   9   5  -2    4.24    2.23
   9   5  -2   10.59    3.91
   9  -5  -2    4.85    3.04
   9  -5  -2   12.77    4.57
   9   5  -1  422.25   21.57
   9   5  -1  424.40   20.23
   9  -5  -1  396.61   21.38
   9  -5   0   46.61    7.56
   9   5   0   30.08    5.32
   9   5   0   29.21    6.10
   9  -5   0   25.09    5.41
   9  -5   1  413.23   21.42
   9   5   1  405.47   21.12
   9   5   1  464.05   21.43
   9  -5   1  407.94   21.79
   9   5   2   16.33    4.88
   9   5   2   11.24    3.98
   9  -5   2   13.77    4.64
   9  -5   2    5.99    3.05
   9   5   3    7.58    3.04
   9   5   3    8.87    3.66
   9  -5   3   11.59    3.94
   9  -5   3    8.45    3.36
   9   5   4   48.15    6.99
   9  -5   4   40.40    6.85
   9   5   4   40.50    6.69
   9  -5   4   47.90    7.60
   9   5   5  379.30   20.43
   9  -5   5  406.50   21.79
   9   5   5  379.17   20.19
   9  -5   5  443.55   22.69
   9   5   6   26.84    5.50
   9   5   6   10.09    3.66
   9  -5   6   16.35    4.80
   9  -5   6   17.59    4.38
   9   5   7   49.71    7.66
   9   5   7   64.28    8.26
   9  -5   7   55.69    8.11
   9  -5   7   59.24    8.75
   9   5   8    0.87    2.90
   9   5   8    0.36    2.68
   9  -5   8    1.33    2.51
   9  -5   8   -1.12    2.52
   9   5   9   18.33    4.81
   9   5   9   10.96    3.89
   9  -5   9   12.64    3.85
   9  -5   9    6.58    3.10
   9   5  10    4.13    3.21
   9   5  10   13.35    5.00
   9  -5  10    7.41    2.21
   9  -5  10   16.81    4.85
   9   5  11  279.39   17.58
   9  -5  11  260.09   17.87
   9   5  11  253.65   17.46
   9  -5  11  257.13   17.61
   9   5  12   37.45    6.79
   9   5  12   36.85    6.87
   9   5  13    9.00    3.71
   9   5  13   17.05    4.63
   9  -5  13    7.63    3.37
   9   5  14   22.84    5.13
   9   5  14   28.09    5.95
   9  -5  14   14.61    4.97
   9   5  15  214.44   16.09
   9  -5  15  194.57   15.98
   9   5  15  194.67   16.05
   9   5  16   21.97    4.85
   9   5  16   25.64    6.37
   9  -5  16   15.46    4.86
   9   5  17    9.63    3.77
   9  -5  17   12.28    4.53
   9   5  18    1.15    2.27
   9   5  19   24.63    6.23
   9   5  20    7.22    2.74
   9   5  21   53.21    8.91
   9   5  22   33.25    7.17
   9   5  23   12.72    5.02
   9   5  24   -2.81    3.98
   9  -6 -23    2.57    3.08
   9  -6 -22    1.45    1.73
   9  -6 -21    3.91    3.54
   9  -6 -20    8.41    4.33
   9  -6 -20    4.40    4.67
   9  -6 -19   14.69    4.07
   9  -6 -19   19.08    5.61
   9  -6 -18   15.31    5.14
   9  -6 -18   10.83    3.64
   9   6 -17   10.20    5.02
   9  -6 -17    8.69    4.90
   9  -6 -17    7.44    3.70
   9   6 -16   19.74    5.40
   9  -6 -16   19.75    6.18
   9  -6 -16   20.75    4.92
   9  -6 -15   44.24    8.20
   9  -6 -15   46.40    8.48
   9   6 -15   57.80    9.01
   9   6 -14    6.40    2.96
   9  -6 -14    4.91    3.43
   9  -6 -14    2.63    1.97
   9   6 -13   20.32    5.30
   9  -6 -13   14.73    4.62
   9  -6 -13   16.87    5.13
   9   6 -12    5.30    3.27
   9  -6 -12    1.42    2.48
   9  -6 -12    6.90    2.69
   9   6 -11    0.02    2.28
   9  -6 -11    0.78    2.66
   9  -6 -11    1.77    2.16
   9   6 -10   28.56    6.48
   9  -6 -10   27.72    6.86
   9  -6 -10   28.40    6.68
   9  -6  -9    6.45    3.96
   9   6  -9    8.29    2.85
   9  -6  -9   16.92    4.69
   9   6  -8   51.48    7.92
  -9   6  -8   58.39    8.04
   9  -6  -8   65.48    9.04
   9  -6  -8   61.56    8.76
   9   6  -7   78.14    9.65
   9  -6  -7   51.94    8.39
   9  -6  -7   72.71    9.25
   9  -6  -6    2.32    2.55
   9   6  -6    1.66    2.85
   9  -6  -6    6.05    3.87
   9   6  -5   11.74    4.27
   9  -6  -5    8.07    3.71
   9   6  -5   13.28    4.55
   9  -6  -5    5.20    2.57
   9  -6  -4   23.53    5.98
   9   6  -4    8.43    3.63
   9   6  -4   17.69    4.93
   9  -6  -4   16.92    3.98
   9  -6  -3   12.45    4.19
   9   6  -3    3.80    1.80
   9   6  -3    7.77    3.29
   9  -6  -3    8.77    4.79
   9  -6  -2    8.60    3.43
   9   6  -2    2.98    3.65
   9   6  -2    6.26    2.52
   9  -6  -2    6.03    3.78
   9   6  -1   49.53    7.60
   9   6  -1   54.92    7.66
   9  -6  -1   61.85    9.00
   9  -6  -1   60.44    8.75
   9   6   0   72.08    9.57
   9   6   0   74.55    8.94
   9  -6   0   73.61    9.13
   9  -6   0   72.54    9.44
   9   6   1   54.80    7.96
   9   6   1   54.38    7.41
   9  -6   1   75.02    9.34
   9  -6   1   79.03    9.81
   9  -6   2   -0.60    1.91
   9   6   2    6.69    2.63
   9   6   2    8.67    3.02
   9  -6   2    3.01    2.77
   9   6   3   10.03    4.23
   9  -6   3    9.68    2.99
   9   6   3    7.20    3.10
   9  -6   3    8.36    4.03
   9   6   4   14.42    4.68
   9  -6   4   10.64    3.65
   9   6   4   10.06    3.35
   9  -6   4   10.26    3.31
   9   6   5    9.11    4.12
   9  -6   5    5.12    2.41
   9   6   5    8.55    3.70
   9  -6   5    7.47    3.00
   9   6   6    3.50    2.14
   9  -6   6   -2.06    1.65
   9   6   6    5.62    3.73
   9  -6   6   -0.27    1.95
   9  -6   7   51.00    7.78
   9   6   7   39.94    7.77
   9  -6   7   55.23    8.26
   9  -6   8   43.97    7.89
   9   6   8   54.99    7.99
   9  -6   8   50.80    8.41
   9   6   9    5.26    2.36
   9  -6   9    3.86    2.12
   9   6   9    7.06    3.40
   9  -6   9    7.98    3.06
   9   6  10   24.45    5.49
   9  -6  10   20.75    5.43
   9   6  10   15.86    4.39
   9  -6  10   23.63    6.17
   9   6  11    0.50    1.54
   9  -6  11    2.32    2.66
   9   6  11    1.01    2.80
   9  -6  11    1.06    2.90
   9   6  12    9.98    4.20
   9  -6  12   11.83    5.28
   9   6  12    7.49    3.95
   9  -6  12    8.06    3.85
   9   6  13   26.01    6.05
   9  -6  13   21.08    5.86
   9   6  13   18.51    4.46
   9  -6  13   18.07    5.68
   9   6  14    8.53    3.41
   9  -6  14   13.11    4.93
   9   6  14    3.60    2.79
   9  -6  14    8.45    5.12
   9   6  15   51.06    8.62
   9  -6  15   37.46    7.95
   9   6  15   41.55    7.69
   9  -6  15   49.28    8.75
   9   6  16   23.43    4.50
   9  -6  16   20.90    5.02
   9   6  16   27.50    6.81
   9   6  17   10.99    4.40
   9   6  18    6.57    4.13
   9   6  19   12.17    4.72
   9   6  20    1.61    3.05
   9   6  21    8.71    3.55
   9   6  22    5.98    3.46
   9   6  23    0.48    2.37
   9  -7 -21   33.39    7.53
   9  -7 -21   39.97    9.51
   9  -7 -20   15.06    4.95
   9  -7 -20    9.70    4.72
   9  -7 -19   -1.72    2.88
   9  -7 -19   -2.30    2.96
   9  -7 -18    0.33    3.04
   9  -7 -18    6.49    3.61
   9  -7 -17   49.17    9.39
   9  -7 -17   30.05    7.39
   9   7 -16    3.58    2.53
   9  -7 -16    2.76    2.60
   9  -7 -16   -2.13    1.75
   9  -7 -15  181.78   17.05
   9  -7 -15  183.66   16.59
   9   7 -15  166.09   15.52
   9   7 -14    1.59    3.19
   9  -7 -14   -2.59    2.83
   9  -7 -14    3.32    3.17
   9  -7 -13    9.24    4.12
   9   7 -13    5.89    2.96
   9  -7 -13    9.07    4.57
   9   7 -12    2.96    3.15
   9  -7 -12    8.46    3.79
   9  -7 -12    9.65    4.05
   9   7 -11  182.43   15.85
   9  -7 -11  188.17   16.23
   9  -7 -11  174.00   16.09
   9   7 -10   18.35    5.66
   9  -7 -10   14.55    5.92
   9  -7 -10   20.82    5.64
   9   7  -9   41.85    7.86
   9  -7  -9   39.44    6.69
   9  -7  -9   46.63    8.21
   9   7  -8   14.65    4.92
  -9   7  -8   22.44    5.68
   9  -7  -8   16.00    5.18
   9  -7  -8    6.25    4.02
   9   7  -7    4.11    2.44
  -9   7  -7    5.00    2.52
   9  -7  -7    8.08    3.51
   9  -7  -7    8.92    3.86
   9   7  -6   64.02    8.99
  -9   7  -6   67.89    9.45
   9  -7  -6   51.11    8.05
   9  -7  -6   51.65    8.45
   9   7  -5  234.48   17.24
  -9   7  -5  231.25   16.92
   9  -7  -5  246.36   17.46
   9  -7  -5  212.65   16.95
   9  -7  -4    3.26    3.42
   9   7  -4   -1.49    1.65
  -9   7  -4    0.48    1.48
   9  -7  -4   -2.16    2.08
   9  -7  -3   14.62    4.62
   9   7  -3   13.12    4.32
   9   7  -3   24.42    5.89
  -9   7  -3   28.29    6.62
   9  -7  -3   24.27    6.08
   9  -7  -2   -0.30    2.67
   9   7  -2   -0.49    2.53
   9   7  -2    0.77    2.42
   9  -7  -2    4.30    3.06
   9   7  -1  133.45   12.85
   9  -7  -1  122.31   13.01
   9   7  -1  146.29   13.18
   9  -7  -1  118.87   12.20
   9   7   0  212.14   16.44
   9  -7   0  227.99   17.18
   9  -7   0  246.59   18.35
   9  -7   1  149.79   14.22
   9   7   1  129.53   13.17
   9   7   1  115.91   11.90
   9  -7   1  121.37   12.73
   9  -7   2    6.10    4.21
   9   7   2    1.55    2.39
   9   7   2    1.59    1.27
   9  -7   2    0.73    2.37
   9  -7   3   29.99    6.56
   9   7   3   40.43    7.19
   9   7   3   29.25    5.67
   9  -7   3   25.82    6.51
   9  -7   4    3.95    2.68
   9   7   4    1.01    2.68
   9   7   4    1.37    2.07
   9  -7   4   -0.60    2.94
   9   7   5  198.22   15.53
   9  -7   5  222.71   17.26
   9  -7   5  194.97   16.03
   9   7   6   54.24    8.34
   9  -7   6   55.35    8.85
   9   7   6   64.10    8.60
   9  -7   6   51.45    8.47
   9  -7   7    7.82    3.63
   9   7   7    5.78    3.39
   9   7   7    9.68    3.46
   9  -7   7    9.38    4.76
   9  -7   8   10.60    4.98
   9   7   8   19.54    5.58
   9   7   8    4.80    4.20
   9  -7   8   13.57    5.39
   9  -7   9   44.37    8.06
   9   7   9   51.19    7.93
   9  -7   9   59.27    9.33
   9   7   9   47.07    7.27
   9  -7  10   23.02    6.15
   9   7  10   10.07    3.19
   9   7  10   11.54    3.86
   9  -7  10   24.55    6.68
   9   7  11  173.06   15.28
   9   7  11  183.84   15.70
   9  -7  11  161.34   15.66
   9  -7  11  210.88   17.10
   9  -7  12    2.83    3.72
   9   7  12    3.63    4.45
   9   7  12    2.20    1.68
   9  -7  12    3.16    2.73
   9  -7  13   17.09    5.97
   9   7  13   13.99    5.26
   9   7  13   18.08    5.88
   9  -7  14    1.68    3.39
   9   7  14    1.12    3.78
   9   7  14    8.33    4.13
   9   7  15  171.96   15.77
   9   7  15  185.88   16.45
   9  -7  15  134.35   14.41
   9   7  16   10.99    4.58
   9   7  16    0.96    2.71
   9   7  17   40.97    7.92
   9   7  17   29.17    7.21
   9   7  18    2.37    2.24
   9   7  19    2.86    3.57
   9   7  20   19.27    6.15
  -9   7  20   12.14    4.74
   9   7  21   21.44    5.52
  -9   7  21   42.97    8.58
   9  -8 -18   10.25    4.61
   9  -8 -18   10.42    4.85
   9  -8 -17    1.30    2.52
   9  -8 -17   -1.08    1.54
   9   8 -16   -8.62    3.83
   9  -8 -16   -3.66    3.13
   9  -8 -16    1.79    2.24
   9   8 -15    1.01    2.56
   9  -8 -15    1.03    2.91
   9  -8 -15    5.58    3.51
   9   8 -14    2.46    2.68
   9  -8 -14    4.25    3.76
   9  -8 -14    7.81    3.39
   9   8 -13    5.06    4.49
   9  -8 -13   -1.23    2.24
   9  -8 -13   -0.47    2.95
   9   8 -12    0.16    2.26
   9  -8 -12   -0.95    3.13
   9  -8 -12    2.48    3.42
   9   8 -11    3.74    3.07
   9  -8 -11   12.03    4.44
   9  -8 -11    5.54    2.62
   9   8 -10    4.71    3.60
   9  -8 -10   10.13    4.76
   9  -8 -10    5.33    2.87
   9   8  -9   -0.55    1.89
   9  -8  -9    2.20    3.62
   9  -8  -9    7.33    4.46
   9   8  -8    6.38    5.09
   9  -8  -8    7.62    3.77
   9  -8  -8    3.05    1.71
   9   8  -7   12.38    5.26
  -9   8  -7   11.12    4.23
   9  -8  -7    6.51    3.53
   9  -8  -7    4.79    2.94
   9   8  -6   45.87    8.00
  -9   8  -6   31.55    6.40
   9  -8  -6   30.16    6.96
   9  -8  -6   24.65    6.29
   9   8  -5    9.53    4.62
  -9   8  -5    1.83    1.81
   9  -8  -5    2.56    3.50
   9  -8  -5    5.31    2.96
   9   8  -4    4.30    3.58
  -9   8  -4    8.15    4.01
   9  -8  -4    3.87    3.54
   9  -8  -4    4.56    4.17
   9  -8  -3   14.51    5.19
   9   8  -3    9.67    3.13
   9   8  -3   22.38    6.36
  -9   8  -3   12.49    4.85
   9  -8  -3    6.98    2.07
   9  -8  -2   17.92    5.43
   9   8  -2   23.30    5.74
   9   8  -2   24.95    5.09
  -9   8  -2   17.29    5.05
   9  -8  -2   20.72    5.46
   9  -8  -1    4.24    2.75
   9   8  -1    0.65    2.64
   9   8  -1   -1.96    2.25
  -9   8  -1    3.01    4.05
   9  -8  -1   -1.84    2.04
   9  -8   0   21.27    5.89
   9   8   0   21.86    6.40
  -9   8   0    8.40    4.15
   9   8   0   12.71    4.03
   9  -8   0   11.01    4.41
   9  -8   1    2.94    3.67
   9   8   1    0.18    3.08
   9   8   1   -0.81    2.12
  -9   8   1    2.57    1.68
   9  -8   1    6.54    3.52
   9  -8   2   19.17    5.36
   9   8   2   29.57    5.92
   9   8   2   24.90    6.25
  -9   8   2   21.48    5.16
   9  -8   2   18.67    4.53
   9  -8   3   13.98    4.86
   9   8   3   11.07    4.32
  -9   8   3   11.65    4.11
   9   8   3   11.01    4.62
   9  -8   3   16.14    5.47
   9  -8   4    4.61    3.82
   9   8   4    4.25    1.73
  -9   8   4    3.52    3.37
   9   8   4    5.35    3.26
   9  -8   4    1.43    2.89
   9  -8   5    4.50    3.86
   9   8   5   -1.71    3.34
  -9   8   5    6.00    3.02
   9   8   5   -2.37    2.15
   9  -8   5    4.24    3.05
   9  -8   6   24.27    6.46
   9   8   6   24.25    5.47
  -9   8   6   31.38    6.47
   9   8   6   25.80    6.06
   9  -8   6   27.04    7.02
   9  -8   7    4.09    2.71
   9   8   7   15.65    4.92
   9   8   7   16.39    5.04
  -9   8   7   11.37    3.46
   9  -8   8    4.60    2.43
   9   8   8   11.05    4.47
  -9   8   8   17.36    5.34
   9   8   8    7.33    3.61
   9  -8   9   -0.74    2.32
   9   8   9    4.80    4.15
  -9   8   9    6.50    3.97
   9   8   9    1.35    1.70
   9  -8  10    8.37    4.83
   9   8  10    8.52    3.24
  -9   8  10   12.88    4.72
   9   8  10    6.53    3.13
   9  -8  11    6.60    3.86
   9   8  11    0.98    2.35
  -9   8  11   11.27    4.46
   9   8  11    9.46    3.43
   9  -8  12    6.33    4.83
   9   8  12    4.36    3.80
  -9   8  12    5.58    2.91
   9   8  12    5.99    3.53
   9   8  13   -0.36    1.66
   9  -8  13   -0.82    2.85
   9   8  13   -0.29    2.59
  -9   8  13    3.09    2.28
   9   8  14   13.51    5.36
   9   8  14   15.55    4.76
  -9   8  14   -0.22    2.12
   9   8  15   -1.10    2.56
   9   8  15   -1.57    3.56
  -9   8  15    4.46    2.54
   9   8  16    2.54    4.99
   9   8  16   -2.73    3.66
  -9   8  16    9.83    5.11
   9   8  17   -0.32    2.10
   9   8  17   -1.20    3.23
  -9   8  17    5.25    3.64
   9   8  18    5.91    2.00
  -9   8  18    7.91    4.45
   9   9 -14   -2.58    2.51
   9  -9 -14   -3.26    3.34
   9  -9 -14    2.88    3.71
   9   9 -13    7.93    4.55
   9  -9 -13    1.75    1.74
   9  -9 -13    2.92    3.11
   9   9 -12   -0.85    2.77
   9  -9 -12    3.90    4.05
   9  -9 -12    3.96    3.37
   9   9 -11   51.28    8.80
   9  -9 -11   69.38   10.78
   9  -9 -11   58.94    9.71
   9   9 -10   41.11    8.35
   9  -9 -10   58.98    9.77
   9  -9 -10   71.40   10.25
   9   9  -9   58.44    9.67
   9  -9  -9   50.18    9.96
   9  -9  -9   43.86    7.90
   9  -9  -8    1.10    3.28
   9   9  -8   -2.95    3.48
   9  -9  -8   -3.68    4.13
   9   9  -7   33.94    7.64
   9  -9  -7   29.07    7.26
   9  -9  -7   43.92    8.19
   9   9  -6   42.31    8.42
  -9   9  -6   61.00    9.37
   9  -9  -6   43.74    8.60
   9  -9  -6   39.76    7.94
   9   9  -5  154.46   15.14
  -9   9  -5  148.19   15.02
   9  -9  -5  167.60   15.94
   9  -9  -5  165.13   16.27
   9   9  -4    4.62    1.88
  -9   9  -4   10.90    5.28
   9  -9  -4    7.86    4.63
   9  -9  -4   12.97    4.08
   9   9  -3    1.73    1.62
  -9   9  -3    0.49    1.80
   9  -9  -3   -1.18    2.46
   9  -9  -3   -2.54    1.71
   9   9  -2   -1.33    2.54
  -9   9  -2    1.87    2.84
   9  -9  -2    3.42    2.96
   9  -9  -2    3.40    3.85
   9   9  -1   81.01   11.29
  -9   9  -1   68.90   10.24
   9  -9  -1   58.51    9.29
   9   9  -1   65.94    9.93
   9  -9  -1   79.41   10.77
   9   9   0   80.77   11.05
  -9   9   0   67.09   10.30
   9  -9   0   51.56    8.98
   9   9   0   66.69    9.82
   9  -9   0   84.92   11.69
   9   9   1   73.91   10.48
  -9   9   1   58.13    9.66
   9  -9   1   58.77    9.42
   9   9   2    6.08    4.07
  -9   9   2   -0.45    2.59
   9   9   2   -1.07    1.79
   9  -9   2    1.37    2.96
   9  -9   3   -1.09    2.30
   9   9   3   -3.03    2.44
  -9   9   3   -1.24    2.38
   9   9   3    0.40    2.44
   9  -9   4    5.57    2.72
   9   9   4    4.94    2.96
  -9   9   4    3.43    3.64
   9   9   4    8.63    4.10
   9   9   5  171.99   15.69
  -9   9   5  156.30   15.28
   9  -9   5  164.94   16.06
   9   9   5  163.82   15.88
   9  -9   6   38.05    7.52
   9   9   6   37.82    7.75
  -9   9   6   32.14    7.13
   9   9   6   30.94    7.70
   9  -9   7   41.49    8.12
   9   9   7   29.91    6.37
  -9   9   7   38.11    7.31
   9   9   7   36.41    7.43
   9  -9   8    7.49    5.47
   9   9   8    1.01    2.68
  -9   9   8    1.81    1.93
   9   9   8    1.49    2.56
   9  -9   9   30.63    7.50
   9   9   9   49.79    8.84
  -9   9   9   34.06    7.30
   9   9   9   35.77    7.20
   9   9  10   48.90    8.70
  -9   9  10   61.32    9.91
   9   9  10   79.17   10.59
   9  -9  10   50.30    9.61
   9   9  11   52.84    9.11
  -9   9  11   58.23    9.72
   9   9  11   34.44    9.18
   9  -9  11   49.70    9.24
   9  -9  12   -1.21    3.07
   9   9  12    3.25    2.31
  -9   9  12    3.62    4.15
   9   9  12    3.32    3.21
   9   9  13    8.39    2.82
  -9   9  13    8.22    4.70
   9   9  13   10.61    4.14
  -9   9  14    7.66    5.54
   9   9  14    4.49    4.01
   9  10  -8   30.51    6.71
   9 -10  -8   51.57    9.55
   9 -10  -8   61.43    9.97
   9  10  -7   10.23    3.83
   9 -10  -7   12.52    2.81
   9 -10  -7    9.42    3.04
   9  10  -6   65.37   10.32
   9 -10  -6   77.80   11.23
   9  10  -5   19.63    5.89
  -9  10  -5   27.68    7.55
   9 -10  -5   12.44    5.50
   9  10  -4    4.64    2.60
  -9  10  -4    5.28    4.00
   9 -10  -4    1.59    3.01
   9  10  -3    0.93    2.43
  -9  10  -3   -2.87    3.16
   9 -10  -3    1.69    2.76
   9  10  -2   49.70    8.68
  -9  10  -2   50.16    9.62
   9 -10  -2   42.26    8.33
   9  10  -1    9.85    4.43
  -9  10  -1    7.13    3.05
   9 -10  -1   10.65    4.02
   9  10   0   91.55   12.08
  -9  10   0  120.53   13.82
   9 -10   0  103.73   13.04
   9  10   1    8.47    3.90
  -9  10   1   15.00    4.58
   9  10   1    1.61    2.90
   9 -10   1   14.10    5.36
   9  10   2   50.50    8.74
  -9  10   2   51.09    8.99
   9  10   2   27.85    6.19
   9 -10   2   29.12    6.57
  -9  10   3    0.13    3.21
   9  10   3    2.30    1.39
   9 -10   3    4.00    2.45
   9  10   4    1.48    2.52
  -9  10   4    6.90    4.17
   9  10   4    6.73    2.71
   9 -10   4    3.66    3.88
   9  10   5   16.15    5.76
  -9  10   5   24.59    6.28
   9  10   5   14.91    5.51
   9 -10   5    9.98    4.85
   9  10   6  118.18   13.47
  -9  10   6   83.98   11.68
   9 -10   6   80.52   11.94
   9  10   7    9.90    4.06
  -9  10   7    3.94    4.19
   9  10   7    6.40    4.08
   9 -10   7   18.89    7.11
   9  10   8   55.31    9.25
  -9  10   8   43.38    8.50
   9  10   8   47.42    8.52
   9 -10   8   54.70   10.41
  10   0 -25   10.41    4.37
  10   0 -24   54.26    9.04
  10   0 -23  118.29   12.99
  10   0 -22   38.79    7.25
  10   0 -21  170.57   15.27
  10   0 -20   55.68    9.27
  10   0 -19   65.46    9.03
  10   0 -18  193.58   15.39
  10   0 -17  265.22   18.45
  10   0 -16   71.46   10.05
  10   0 -15  275.37   18.16
  10   0 -14  132.47   12.30
  10   0 -13  194.86   14.42
  10   0 -12  277.41   15.75
  10   0 -12  269.47   16.95
  10   0 -11  275.76   15.57
  10   0 -11  299.85   17.86
  10   0 -10   82.19    8.37
  10   0 -10   89.14    9.64
  10   0  -9  217.72   13.63
  10   0  -9  239.67   15.45
  10   0  -8  224.09   13.64
  10   0  -8  231.30   14.96
  10   0  -7  122.38   10.09
  10   0  -7  123.91   10.93
  10   0  -7  120.68   10.64
  10   0  -6   49.38    6.23
  10   0  -6   49.91    7.57
  10   0  -6   49.22    7.07
  10   0  -5  235.13   13.97
  10   0  -5  243.95   15.44
  10   0  -5  234.92   14.62
  10   0  -4  290.51   15.45
  10   0  -4  291.91   16.13
  10   0  -3  220.12   13.64
  10   0  -3  238.93   14.86
  10   0  -3  265.08   15.07
  10   0  -2  202.66   13.21
  10   0  -2  223.14   14.32
  10   0  -2  203.22   13.12
  10   0  -1  114.07    9.95
  10   0  -1  110.80   10.04
  10   0  -1  110.85    9.86
  10   0   0    0.23    1.35
  10   0   0    0.28    1.02
  10   0   0   -0.11    1.28
  10   0   1  119.36   10.41
  10   0   1  133.96   11.14
  10   0   1  136.96   10.69
  10   0   2  201.87   13.32
  10   0   2  207.42   13.01
  10   0   3  235.16   14.51
  10   0   3  233.87   13.79
  10   0   4  250.20   15.05
  10   0   4  335.89   16.53
  10   0   5  211.85   14.20
  10   0   5  218.47   13.27
  10   0   6   49.25    7.10
  10   0   6   47.88    5.90
  10   0   7  141.45   11.80
  10   0   7  140.47   10.41
  10   0   8  254.46   15.68
  10   0   8  217.51   13.12
  10   0   9  214.88   14.61
  10   0   9  200.15   12.45
  10   0  10   89.26    9.56
  10   0  10   74.84    7.69
  10   0  11  260.41   16.49
  10   0  11  263.15   14.22
  10   0  12  266.12   17.02
  10   0  12  271.59   14.16
  10   0  13  181.99   14.18
  10   0  14  130.60   11.78
  10   0  15  252.61   17.42
  10   0  16   90.88   10.40
  10   0  17  279.19   18.55
  10   0  18  162.49   14.52
  10   0  19   88.81   11.15
  10   0  20   57.52    9.09
  10   0  21  162.06   14.98
  10   0  22   44.26    8.16
  10   0  23   78.72   11.02
  10   0  24   58.80    9.79
  10  -1 -27    4.28    4.06
  10  -1 -26    3.49    2.07
  10  -1 -25    0.01    2.36
  10  -1 -24    0.05    3.19
  10  -1 -23    3.52    3.85
  10  -1 -22    5.53    3.17
  10   1 -21    8.91    4.86
  10  -1 -21    9.71    3.82
  10   1 -20    5.79    3.98
  10  -1 -20   10.90    4.48
  10   1 -19    4.04    2.69
  10  -1 -19    2.05    2.59
  10  -1 -18   12.02    4.06
  10   1 -18   10.83    5.26
  10   1 -17    4.22    3.23
  10  -1 -17   10.96    4.84
  10   1 -16    0.73    2.93
  10  -1 -16    5.72    3.35
  10   1 -15   11.15    3.47
  10  -1 -15   17.07    4.72
  10  -1 -14    5.77    4.15
  10  -1 -14   -0.59    1.83
  10   1 -14    1.59    1.90
  10   1 -13   39.18    6.67
  10  -1 -13   37.02    6.07
  10   1 -13   37.96    6.54
  10  -1 -13   34.21    5.68
  10  -1 -12   45.31    6.60
  10  -1 -12   29.56    5.98
  10   1 -12   27.95    4.91
  10   1 -12   34.83    5.93
  10  -1 -11    1.58    1.06
  10   1 -11   -0.15    1.90
  10   1 -11    2.59    1.61
  10  -1 -11    2.69    2.54
  10   1 -11   -0.02    2.53
  10  -1 -10    1.58    1.51
  10   1 -10    3.27    1.15
  10  -1 -10    3.19    2.21
  10   1 -10    4.77    1.67
  10   1 -10    6.72    3.18
  10   1  -9   12.03    3.32
  10  -1  -9   11.88    3.84
  10  -1  -9   11.29    3.57
  10   1  -9    5.67    2.93
  10   1  -9    9.93    3.17
  10  -1  -8    1.35    1.74
  10   1  -8    1.22    1.46
  10  -1  -8    5.34    1.79
  10   1  -8    0.48    2.10
  10   1  -8    4.58    1.75
  10  -1  -7   33.21    5.47
  10   1  -7   41.17    5.70
  10  -1  -7   39.93    6.55
  10   1  -7   45.60    6.91
  10   1  -7   40.18    6.12
  10  -1  -6   22.07    4.83
  10  -1  -6   26.18    5.32
  10   1  -6   22.30    4.38
  10   1  -6   25.52    5.04
  10   1  -6   24.53    5.11
  10  -1  -5    0.63    1.28
  10  -1  -5    1.01    2.53
  10   1  -5    1.04    1.56
  10   1  -5   -0.31    1.49
  10   1  -5    1.87    2.46
  10  -1  -4    2.00    1.21
  10  -1  -4    5.71    1.93
  10   1  -4    7.78    3.39
  10   1  -4    7.20    2.75
  10   1  -4    4.83    2.01
  10  -1  -3    5.05    2.03
  10  -1  -3    6.84    2.89
  10   1  -3    0.87    1.35
  10   1  -3    3.69    2.60
  10   1  -3    2.30    1.66
  10   1  -2    5.19    2.30
  10  -1  -2    2.62    2.20
  10  -1  -2    7.21    2.70
  10   1  -2   12.37    4.09
  10   1  -2    7.01    2.07
  10  -1  -1   42.52    6.18
  10   1  -1   26.81    4.89
  10  -1  -1   25.86    4.83
  10   1  -1   28.45    4.94
  10   1  -1   31.56    5.58
  10   1   0   27.77    4.71
  10  -1   0   22.40    5.05
  10   1   0   31.27    5.45
  10  -1   0   22.54    4.57
  10   1   0   20.02    3.88
  10   1   1   23.54    4.42
  10  -1   1   28.26    4.87
  10  -1   1   30.74    5.67
  10   1   1   39.73    5.86
  10   1   2    9.65    2.92
  10   1   2    9.24    3.00
  10  -1   2    5.05    2.23
  10  -1   2    5.80    2.28
  10   1   3    3.60    1.48
  10   1   3    7.43    2.64
  10  -1   3   11.15    3.51
  10   1   4    4.81    2.31
  10   1   4    2.92    1.93
  10  -1   4    2.17    1.23
  10   1   5   -0.17    0.89
  10   1   5    2.47    1.95
  10  -1   5    2.13    2.07
  10   1   6   18.60    4.01
  10   1   6   24.90    5.17
  10  -1   6   23.32    5.45
  10   1   7   28.19    4.94
  10   1   7   26.14    5.00
  10  -1   7   31.45    5.29
  10   1   8    2.44    1.78
  10   1   8    3.12    2.73
  10  -1   8    2.42    1.26
  10   1   9   11.46    3.03
  10   1   9   14.71    4.32
  10  -1   9   10.03    3.51
  10   1  10    9.42    3.05
  10   1  10    7.55    3.36
  10  -1  10    6.45    2.46
  10   1  11    0.43    1.30
  10   1  11    1.33    1.34
  10  -1  11   -0.80    2.08
  10  -1  12   19.61    5.62
  10   1  12   34.33    5.94
  10   1  12   31.84    5.23
  10  -1  13   35.96    6.54
  10   1  13   33.53    5.43
  10   1  13   39.52    6.63
  10  -1  14    4.24    3.49
  10   1  14    2.29    1.84
  10  -1  15   16.43    4.73
  10   1  15   15.60    4.14
  10  -1  16   15.74    4.72
  10   1  16    9.08    3.79
  10  -1  17    9.70    3.64
  10   1  17    8.54    3.31
  10  -1  18    0.08    1.51
  10   1  18   12.83    4.66
  10   1  19   13.24    4.63
  10  -1  19    7.67    3.02
  10   1  20   10.40    4.83
  10  -1  20    4.82    1.97
  10   1  21    1.46    2.66
  10  -1  21    9.01    4.87
  10   1  22    8.97    4.80
  10  -1  22    3.10    1.73
  10   1  23    0.63    3.06
  10  -1  23   -1.39    2.41
  10   1  24    2.53    4.03
  10   1  25   -0.73    2.48
  10  -2 -26   14.85    5.21
  10  -2 -25   31.27    7.52
  10  -2 -24   41.36    8.06
  10  -2 -23   16.33    5.32
  10  -2 -22   40.53    7.60
  10  -2 -21   49.28    9.08
  10  -2 -20   24.97    5.87
  10  -2 -19   49.88    8.34
  10  -2 -18  127.80   13.29
  10  -2 -17  131.68   13.03
  10   2 -17  108.81   11.56
  10  -2 -16   42.12    7.53
  10   2 -16   39.03    7.01
  10   2 -15  159.95   13.34
  10  -2 -15  152.68   13.65
  10  -2 -15  138.10   12.78
  10   2 -15  164.55   13.75
  10   2 -14   91.06   10.35
  10  -2 -14  103.99   11.07
  10  -2 -14  104.85   11.05
  10   2 -14   92.32   10.36
  10   2 -13   70.56    8.31
  10  -2 -13   78.31    9.92
  10   2 -13   73.04    9.17
  10  -2 -13   68.00    8.84
  10   2 -12  201.76   13.96
  10  -2 -12  199.03   15.04
  10   2 -12  227.44   15.41
  10  -2 -12  202.49   14.71
  10   2 -11  360.53   18.93
  10  -2 -11  331.76   19.25
  10  -2 -11  378.56   19.77
  10  -2 -10   98.02    9.99
  10   2 -10  112.23    9.39
  10   2 -10   96.36    9.22
  10  -2 -10   97.28   10.38
  10   2 -10  114.67   10.99
  10  -2  -9  191.51   13.86
  10   2  -9  185.22   11.99
  10  -2  -9  154.14   13.19
  10   2  -9  171.41   12.39
  10   2  -9  189.68   13.87
  10  -2  -8  199.28   13.99
  10   2  -8  197.85   12.29
  10  -2  -8  169.93   13.48
  10   2  -8  205.88   13.39
  10   2  -8  187.41   13.90
  10  -2  -7   71.27    8.43
  10   2  -7   91.58    8.32
  10  -2  -7   75.91    9.04
  10   2  -7   79.29    8.52
  10   2  -7   85.26    9.10
  10  -2  -6   55.94    7.66
  10   2  -6   77.39    7.62
  10  -2  -6   81.66    9.50
  10   2  -6   85.79    8.82
  10   2  -6   84.84    9.01
  10  -2  -5  284.24   17.12
  10   2  -5  270.52   14.71
  10   2  -5  258.14   15.18
  10   2  -5  276.34   16.34
  10  -2  -4  130.03   10.95
  10  -2  -4  139.43   11.64
  10   2  -4  143.80   10.82
  10   2  -4  137.03   11.16
  10   2  -4  170.32   12.60
  10  -2  -3  248.24   15.20
  10  -2  -3  220.54   15.31
  10   2  -3  256.83   14.73
  10   2  -3  231.31   13.64
  10   2  -3  229.07   14.70
  10  -2  -2  385.57   19.15
  10  -2  -2  396.94   20.35
  10   2  -2  380.96   18.19
  10   2  -2  396.56   18.22
  10   2  -2  366.21   18.74
  10  -2  -1  266.97   15.84
  10  -2  -1  273.40   16.83
  10   2  -1  307.78   16.25
  10   2  -1  291.70   15.72
  10   2  -1  311.92   16.75
  10  -2   0   62.59    7.42
  10  -2   0   55.97    7.71
  10   2   0   72.39    8.28
  10   2   0   46.53    6.82
  10  -2   1  317.13   17.48
  10  -2   1  269.73   16.65
  10   2   1  305.32   16.48
  10   2   1  324.39   16.77
  10  -2   2  388.59   19.46
  10  -2   2  384.70   19.74
  10   2   2  392.28   18.74
  10   2   2  399.82   19.07
  10  -2   3  240.75   15.07
  10  -2   3  246.40   15.74
  10   2   3  262.12   15.06
  10   2   3  210.77   14.09
  10   2   4  141.08   11.38
  10  -2   4  150.69   12.15
  10   2   4  168.94   12.08
  10   2   5  250.30   15.73
  10  -2   5  266.95   16.20
  10   2   5  226.83   14.27
  10   2   6   70.76    8.30
  10  -2   6   65.41    8.14
  10   2   6   68.76    8.04
  10   2   7   93.77    9.58
  10  -2   7  100.58    9.99
  10   2   7   82.34    8.52
  10   2   8  210.49   14.70
  10  -2   8  189.44   13.88
  10   2   8  194.58   13.00
  10   2   9  164.82   13.23
  10  -2   9  176.00   13.72
  10   2   9  180.38   12.60
  10   2  10  107.12   10.51
  10  -2  10   98.88   10.23
  10   2  10   85.66    8.79
  10   2  11  385.40   20.69
  10  -2  11  381.97   20.50
  10   2  11  401.27   18.99
  10   2  12  199.13   15.13
  10  -2  12  199.28   14.85
  10   2  12  203.53   13.45
  10   2  13   75.95    9.09
  10  -2  13   83.79    9.58
  10   2  13   82.66    8.70
  10   2  14  104.35   11.11
  10  -2  14  102.81   10.89
  10   2  14  123.36   10.71
  10   2  15  159.09   13.87
  10  -2  15  169.34   14.58
  10   2  16   57.22    8.41
  10  -2  16   41.15    7.44
  10   2  17  131.26   13.14
  10  -2  17  132.04   13.12
  10   2  18  117.79   12.36
  10  -2  18   97.69   11.58
  10   2  19   40.66    7.97
  10  -2  19   50.71    7.47
  10   2  20   24.58    6.64
  10  -2  20   12.03    4.48
  10   2  21   64.90    9.91
  10  -2  21   53.05    9.30
  10   2  22   37.65    7.97
  10  -2  22   32.13    7.81
  10   2  23   11.07    3.44
  10   2  24   32.22    7.57
  10   2  25   18.56    5.85
  10   2  26   10.89    6.36
  10  -3 -26    6.26    4.22
  10  -3 -25   -2.29    1.89
  10  -3 -24    7.46    3.99
  10  -3 -23    3.22    3.18
  10  -3 -22    1.13    2.81
  10  -3 -21   -0.62    1.65
  10  -3 -20   -0.03    1.80
  10  -3 -19   -1.49    2.78
  10   3 -19   -2.33    3.20
  10   3 -18   -0.63    1.66
  10  -3 -18    0.31    2.86
  10  -3 -17    1.24    2.61
  10   3 -17   -0.09    3.03
  10  -3 -16   11.18    3.90
  10   3 -16    6.93    3.66
  10  -3 -16    5.19    3.35
  10  -3 -15   -2.11    2.96
  10  -3 -15   -0.93    1.79
  10   3 -15    4.51    3.21
  10  -3 -14    1.89    2.18
  10  -3 -14   -0.93    1.72
  10   3 -14    2.92    1.85
  10  -3 -13   18.32    4.85
  10  -3 -13   12.33    4.79
  10   3 -13   23.20    5.07
  10   3 -12    9.82    3.90
  10  -3 -12    6.84    2.51
  10  -3 -12   10.08    3.80
  10   3 -11    5.00    2.29
  10  -3 -11    0.08    1.68
  10  -3 -11   -0.54    1.72
  10   3 -10   28.77    5.82
  10  -3 -10   18.03    3.88
  10  -3 -10   24.42    5.40
  10   3  -9    8.28    2.67
  10  -3  -9    5.97    2.34
  10  -3  -9    5.64    1.73
  10   3  -9   11.10    3.33
  10   3  -8   -0.10    0.89
  10   3  -8   -1.14    1.35
  10  -3  -8   -1.18    2.05
  10  -3  -8    1.11    1.51
  10   3  -8   -2.65    2.69
  10  -3  -7   31.11    5.78
  10  -3  -7   35.87    6.78
  10   3  -7   30.86    5.39
  10   3  -7   40.35    5.42
  10   3  -7   43.44    6.78
  10   3  -6   14.67    4.71
  10   3  -6   14.63    3.34
  10  -3  -6   19.08    4.55
  10  -3  -6   21.99    4.81
  10   3  -6   11.09    3.42
  10   3  -5    5.63    3.51
  10   3  -5    2.62    1.05
  10  -3  -5    5.35    2.47
  10  -3  -5    1.36    1.40
  10   3  -5    3.68    2.54
  10   3  -4   16.63    4.37
  10   3  -4   21.36    4.53
  10  -3  -4   17.66    4.26
  10  -3  -4   21.58    5.42
  10   3  -4   20.23    4.15
  10   3  -3    1.24    1.18
  10  -3  -3    4.44    2.21
  10   3  -3    3.09    1.73
  10  -3  -3    2.27    1.37
  10   3  -3   -0.47    1.16
  10   3  -2    9.18    2.96
  10  -3  -2   12.64    3.74
  10   3  -2   12.45    4.12
  10  -3  -2    5.20    3.52
  10   3  -2    3.17    1.89
  10   3  -1   16.93    4.16
  10  -3  -1   16.73    3.67
  10   3  -1   15.91    4.18
  10  -3  -1   21.05    5.05
  10   3  -1   19.71    4.23
  10   3   0   12.41    4.34
  10  -3   0    4.14    1.88
  10   3   0    6.09    2.47
  10  -3   0    8.15    2.50
  10   3   1   17.54    4.70
  10  -3   1   16.03    3.87
  10   3   1   15.52    3.82
  10  -3   1   22.55    5.21
  10   3   2    8.42    2.75
  10  -3   2   12.20    3.47
  10   3   2    5.78    3.13
  10  -3   2    5.05    3.42
  10   3   3    2.15    2.41
  10  -3   3    4.18    3.33
  10   3   3    0.37    1.76
  10  -3   3    0.23    2.37
  10   3   4   24.25    4.87
  10  -3   4   27.19    5.25
  10   3   4   11.87    3.66
  10  -3   4   20.70    4.33
  10   3   5   -0.99    1.77
  10  -3   5    1.74    2.02
  10   3   5   -1.78    2.64
  10  -3   5    1.66    2.71
  10   3   6   18.16    4.50
  10  -3   6    7.29    2.70
  10   3   6   21.75    4.96
  10  -3   6   17.32    4.38
  10   3   7   33.23    5.89
  10  -3   7   31.47    5.80
  10   3   7   29.61    5.70
  10   3   8    0.69    2.04
  10  -3   8    2.22    2.12
  10   3   8    5.26    2.36
  10   3   9   10.39    3.76
  10  -3   9   10.08    2.78
  10   3   9    9.39    3.94
  10   3  10   31.46    5.72
  10  -3  10   22.17    5.03
  10   3  10   28.02    5.45
  10   3  11    5.26    3.39
  10  -3  11    0.69    1.46
  10   3  11    2.20    1.66
  10   3  12    7.19    3.86
  10  -3  12   14.53    4.09
  10   3  12    7.80    4.42
  10   3  13   15.45    3.76
  10  -3  13   15.24    4.16
  10   3  13   11.03    3.41
  10   3  14   -1.93    2.61
  10  -3  14    0.63    2.59
  10   3  14    2.15    1.92
  10  -3  15   -0.14    2.83
  10   3  15   -2.12    2.08
  10  -3  16    8.80    3.33
  10   3  16    7.91    3.41
  10  -3  17    1.91    3.01
  10   3  17   -1.22    1.68
  10  -3  18    4.62    2.97
  10   3  18   -0.94    2.96
  10   3  19    0.30    2.40
  10  -3  19   -0.54    2.93
  10   3  20    4.63    1.94
  10  -3  20   -1.31    2.97
  10   3  21   -0.35    1.84
  10   3  22    1.65    2.33
  10   3  23    7.42    2.16
  10   3  24    4.56    2.56
  10   3  25   -3.21    3.84
  10   3  26    2.78    3.30
  10  -4 -25   32.31    7.87
  10  -4 -24   38.37    7.48
  10  -4 -23    8.38    3.58
  10  -4 -22   36.03    7.67
  10  -4 -21   31.19    7.05
  10  -4 -20   16.46    4.91
  10  -4 -19   37.30    7.86
  10   4 -19   26.25    6.47
  10  -4 -18   81.57   10.81
  10   4 -18   96.33   11.48
  10  -4 -17   80.89   10.71
  10  -4 -17   50.33    8.69
  10   4 -17   67.97    9.43
  10  -4 -16   45.45    7.85
  10  -4 -16   34.94    7.01
  10   4 -16   27.26    6.74
  10  -4 -15  106.41   12.04
  10  -4 -15   84.28   10.48
  10   4 -15   88.36   10.61
  10  -4 -14   75.58   10.06
  10  -4 -14   92.44   11.01
  10   4 -14   82.84    9.66
  10  -4 -13   67.59    9.32
  10  -4 -13   58.16    8.85
  10   4 -13   69.55    9.36
  10  -4 -12  107.92   11.60
  10  -4 -12  103.30   11.01
  10   4 -12  135.51   12.99
  10  -4 -11  245.57   17.29
  10  -4 -11  224.21   16.30
  10   4 -11  243.82   16.85
  10  -4 -10   84.26   10.15
  10  -4 -10   82.13    9.60
  10   4 -10   68.61    9.20
  10  -4  -9   75.84    9.58
  10  -4  -9   71.20    9.08
  10   4  -9   88.52    9.74
  10  -4  -8  109.99   11.44
  10   4  -8  118.49   11.39
  10  -4  -7   28.65    6.63
  10   4  -7   36.03    5.32
  10   4  -7   33.48    6.20
  10  -4  -7   49.84    7.71
  10  -4  -6   38.51    6.98
  10  -4  -6   43.67    7.37
  10   4  -6   36.14    5.49
  10   4  -6   50.87    7.41
  10  -4  -5  184.93   14.67
  10  -4  -5  179.04   14.52
  10   4  -5  167.14   12.31
  10   4  -5  185.65   14.20
  10   4  -4   57.15    7.74
  10  -4  -4   59.70    7.79
  10   4  -4   63.34    7.48
  10  -4  -4   74.84    9.55
  10   4  -3   70.64    8.88
  10  -4  -3   79.17    9.12
  10   4  -3   77.41    8.39
  10  -4  -3   71.32    8.83
  10   4  -3   48.45    6.87
  10   4  -2  266.93   16.55
  10  -4  -2  262.05   17.10
  10   4  -2  234.08   14.97
  10  -4  -2  224.38   15.90
  10   4  -2  230.87   13.80
  10   4  -1  239.65   15.82
  10  -4  -1  259.91   17.11
  10   4  -1  222.36   15.11
  10  -4  -1  205.16   15.56
  10   4   0  166.67   13.00
  10  -4   0  133.12   12.13
  10   4   0  139.30   11.80
  10  -4   0  146.19   13.13
  10   4   1  257.75   16.47
  10  -4   1  249.06   16.46
  10   4   1  255.02   16.09
  10  -4   1  258.15   17.17
  10   4   2  236.44   15.64
  10  -4   2  253.28   16.84
  10   4   2  251.16   15.83
  10  -4   2  239.74   16.38
  10   4   3   72.72    8.94
  10  -4   3   59.96    8.19
  10   4   3   64.10    8.13
  10  -4   3   70.58    8.53
  10   4   4   65.01    7.73
  10  -4   4   74.55    9.12
  10   4   4   72.79    8.88
  10  -4   4   66.91    8.25
  10   4   5  173.67   13.67
  10  -4   5  150.70   12.79
  10   4   5  179.26   14.05
  10  -4   5  183.32   14.31
  10   4   6   34.52    6.15
  10  -4   6   36.03    6.69
  10   4   6   41.50    6.83
  10  -4   6   37.89    6.32
  10   4   7   29.47    6.15
  10  -4   7   30.15    6.38
  10  -4   7   22.64    5.06
  10   4   7   24.93    5.49
  10   4   8  127.60   11.67
  10  -4   8  114.53   11.56
  10   4   8  129.75   11.90
  10  -4   8  115.26   11.68
  10   4   9   96.60   10.11
  10  -4   9   86.09   10.04
  10   4   9   89.63    9.88
  10   4  10   81.94    9.34
  10  -4  10   79.15    9.96
  10   4  10   68.28    8.88
  10   4  11  231.80   16.02
  10  -4  11  253.87   17.27
  10   4  11  260.47   17.54
  10   4  12  104.83   11.22
  10  -4  12  105.29   11.15
  10   4  12   96.68   10.95
  10  -4  13   61.34    8.86
  10   4  13   76.37    9.70
  10   4  14   91.98   10.34
  10  -4  14   95.60   11.13
  10   4  14  104.89   11.61
  10   4  15  119.94   11.99
  10  -4  15  108.56   11.77
  10   4  15  100.97   11.17
  10  -4  16   52.64    8.66
  10   4  16   52.57    8.40
  10   4  17   55.05    8.77
  10  -4  17   78.26   10.26
  10   4  18   76.62   10.42
  10  -4  18   83.49   10.69
  10  -4  19   31.73    7.51
  10   4  19   43.47    8.15
  10   4  20   10.98    4.82
  10   4  21   18.35    4.92
  10   4  22    9.59    4.18
  10   4  23    2.49    2.42
  10   4  24   38.97    8.29
  10   4  25   30.09    7.73
  10  -5 -23    1.59    2.08
  10  -5 -22    8.74    4.21
  10  -5 -21    9.45    4.26
  10  -5 -20    3.20    1.77
  10  -5 -19    7.48    4.49
  10  -5 -18    1.12    2.38
  10  -5 -18    0.53    2.65
  10   5 -18    6.17    3.79
  10   5 -17   -1.60    3.29
  10  -5 -17   -2.87    3.14
  10  -5 -17   -1.14    2.07
  10   5 -16    8.96    3.10
  10  -5 -16   12.27    4.98
  10  -5 -16   13.34    4.22
  10   5 -15   23.49    6.39
  10  -5 -15   12.81    4.47
  10  -5 -15   25.87    6.33
  10   5 -14    6.28    4.16
  10  -5 -14    0.31    2.87
  10  -5 -14    2.04    2.99
  10   5 -13    0.37    1.86
  10  -5 -13    2.07    3.60
  10  -5 -13   -1.17    1.64
  10  -5 -12    1.72    1.83
  10   5 -12    4.57    3.15
  10  -5 -12    0.98    1.71
  10  -5 -11    8.91    3.55
  10   5 -11    9.65    3.59
  10  -5 -11    4.17    1.77
  10  -5 -10   20.36    5.16
  10   5 -10   19.60    5.01
  10  -5 -10   19.36    5.00
  10  -5  -9    2.22    1.69
  10   5  -9    8.15    3.54
  10  -5  -9    3.95    3.48
  10   5  -8   26.79    5.96
  10  -5  -8   42.53    6.74
  10  -5  -8   38.30    6.79
  10   5  -7   12.06    3.48
  10  -5  -7    8.70    3.91
  10  -5  -7   19.48    5.48
  10   5  -6    2.61    2.61
  10  -5  -6    6.34    4.27
  10   5  -6    4.24    1.95
  10  -5  -6    5.47    3.65
  10   5  -5   14.72    4.21
  10  -5  -5   14.01    4.19
  10   5  -5    9.46    3.28
  10  -5  -5    6.29    3.49
  10   5  -4   31.61    5.63
  10  -5  -4   24.41    5.51
  10   5  -4   33.06    6.11
  10  -5  -4   27.66    6.19
  10   5  -3   17.44    5.48
  10  -5  -3   13.35    4.23
  10  -5  -3   12.46    4.32
  10   5  -3   17.62    4.47
  10  -5  -2   39.41    7.25
  10   5  -2   44.24    7.18
  10   5  -2   37.07    6.00
  10  -5  -2   37.72    7.19
  10  -5  -1  109.88   11.32
  10   5  -1  147.81   12.90
  10   5  -1  132.93   11.71
  10  -5  -1  134.72   12.73
  10  -5   0  109.04   11.39
  10   5   0  131.94   12.13
  10   5   0  121.39   11.22
  10  -5   0  100.23   11.23
  10   5   1  108.36   10.93
  10  -5   1  121.03   12.17
  10   5   1  120.96   10.95
  10  -5   1  126.66   12.68
  10   5   2   53.60    7.91
  10  -5   2   38.43    6.89
  10   5   2   47.66    7.11
  10  -5   2   64.55    9.16
  10   5   3   15.29    4.16
  10   5   3    8.78    3.48
  10  -5   3   17.31    5.08
  10  -5   3   15.94    5.02
  10  -5   4   41.96    7.70
  10   5   4   31.87    6.76
  10   5   4   39.89    6.49
  10  -5   4   36.68    6.10
  10   5   5   10.56    4.00
  10   5   5   12.84    4.03
  10  -5   5    9.31    2.93
  10  -5   5   12.50    4.64
  10   5   6    6.56    2.71
  10   5   6    2.03    1.70
  10  -5   6    1.93    2.14
  10   5   7   15.12    3.76
  10   5   7   24.22    5.89
  10  -5   7   19.22    4.92
  10  -5   7   30.70    5.70
  10   5   8   39.91    7.40
  10   5   8   34.77    6.37
  10  -5   8   25.27    5.55
  10  -5   8   28.82    6.16
  10   5   9    7.55    2.54
  10   5   9    5.94    2.79
  10  -5   9    4.59    2.75
  10   5  10   19.34    5.26
  10   5  10   32.93    6.80
  10  -5  10   17.21    4.51
  10  -5  10   26.13    5.94
  10   5  11    9.39    3.42
  10   5  11    7.13    3.46
  10  -5  11    9.80    4.10
  10  -5  11    9.32    4.23
  10   5  12    1.59    2.01
  10   5  12    3.59    3.57
  10  -5  12    0.18    2.49
  10  -5  12    1.68    4.46
  10   5  13    2.25    3.92
  10   5  13   -2.62    2.77
  10  -5  13    3.99    3.68
  10   5  14    3.66    2.82
  10   5  14    1.86    2.74
  10  -5  14    3.57    3.47
  10   5  15   17.43    5.35
  10   5  15   19.85    5.83
  10  -5  15   21.15    5.39
  10   5  16   20.30    5.72
  10  -5  16   12.29    4.12
  10   5  17    1.22    2.55
  10  -5  17    3.04    3.08
  10  -5  18    0.68    3.25
  10   5  18    8.83    4.89
  10   5  19    0.46    3.06
  10   5  20    3.16    2.55
  10   5  21    9.86    4.66
  10   5  22    8.75    4.87
  10   5  23    1.99    2.02
  10  -6 -22   25.53    6.45
  10  -6 -21   74.71   10.67
  10  -6 -20   37.65    7.69
  10  -6 -19   16.64    6.02
  10  -6 -19   13.34    5.17
  10  -6 -18   49.63    8.46
  10  -6 -18   27.12    6.38
  10   6 -17   45.14    8.07
  10  -6 -17   54.77    8.51
  10  -6 -17   41.19    7.83
  10  -6 -16   46.13    8.66
  10  -6 -16   53.46    9.00
  10   6 -16   62.31   10.13
  10  -6 -15  133.28   14.50
  10  -6 -15  148.92   14.86
  10   6 -15  111.55   12.57
  10  -6 -14   80.78   11.70
  10  -6 -14   64.49    9.58
  10   6 -14   73.06   10.16
  10  -6 -13   34.72    7.14
  10  -6 -13   54.31    8.92
  10   6 -13   65.61    9.58
  10  -6 -12   56.16    9.05
  10  -6 -12   57.88    9.21
  10   6 -12   63.85    9.61
  10  -6 -11   73.06    9.98
  10  -6 -11   46.66    7.87
  10   6 -11   61.05    9.48
  10  -6 -10   41.45    7.66
  10  -6 -10   42.63    7.73
  10   6 -10   51.37    8.43
  10   6  -9   70.36    9.28
  10  -6  -9   86.38   10.42
  10  -6  -9   68.45   10.01
  10  -6  -8   88.42   10.85
  10  -6  -8   73.98    9.88
  10  -6  -7   17.86    5.55
  10   6  -7   20.09    5.53
  10  -6  -7   12.79    4.70
  10   6  -6   39.64    6.70
  10  -6  -6   35.22    6.72
  10  -6  -6   44.16    7.85
  10   6  -5  107.52   11.46
  10   6  -5  109.51   11.01
  10  -6  -5   91.02   11.27
  10  -6  -5  106.88   11.76
  10   6  -4   67.53    8.77
  10   6  -4   68.20    8.39
  10  -6  -4   69.85    9.37
  10  -6  -4   76.95    9.68
  10  -6  -3    8.67    4.57
  10   6  -3    5.47    3.82
  10  -6  -3    1.44    2.33
  10   6  -3    5.02    2.73
  10   6  -2   44.14    7.65
  10   6  -2   44.66    7.53
  10  -6  -2   36.76    7.61
  10  -6  -2   46.62    8.27
  10   6  -1  116.43   11.96
  10   6  -1   97.37   10.41
  10  -6  -1  114.06   12.30
  10  -6  -1   86.06   10.45
  10   6   0  138.82   12.84
  10   6   0  110.15   11.84
  10  -6   0  123.41   12.41
  10  -6   0  124.25   12.71
  10   6   1   90.32   10.51
  10   6   1  108.93   11.34
  10  -6   1  118.94   12.05
  10  -6   1   86.32    9.96
  10  -6   2   52.62    8.41
  10   6   2   56.40    8.52
  10   6   2   46.66    7.55
  10  -6   2   37.60    6.97
  10   6   3    6.64    3.41
  10   6   3    7.74    3.25
  10  -6   3    2.63    2.54
  10  -6   3    3.19    2.70
  10  -6   4   61.03    9.02
  10   6   4   63.37    8.78
  10   6   4   51.74    8.10
  10  -6   5  105.60   11.53
  10   6   5   78.44   10.26
  10   6   5  107.60   11.74
  10  -6   5  104.65   11.61
  10   6   6   30.40    5.99
  10  -6   6   23.02    5.33
  10   6   6   32.35    6.68
  10  -6   6   34.60    6.93
  10   6   7   17.62    4.38
  10  -6   7   18.07    4.70
  10   6   7   19.03    5.35
  10  -6   7   13.99    4.91
  10  -6   8   77.72    9.96
  10   6   8   58.86    8.75
  10   6   8   85.80   10.16
  10  -6   8   75.28   10.32
  10  -6   9   75.49   10.25
  10   6   9   73.20    9.90
  10   6   9   65.15    9.13
  10  -6   9   70.06    9.87
  10   6  10   43.39    7.68
  10  -6  10   32.64    7.24
  10   6  10   51.57    8.41
  10  -6  10   41.35    7.94
  10  -6  11   51.73    8.58
  10   6  11   49.39    7.61
  10   6  11   68.61    9.71
  10  -6  11   53.80    9.34
  10   6  12   38.72    6.97
  10  -6  12   51.98    8.32
  10  -6  12   35.55    6.81
  10  -6  13   46.78    8.95
  10   6  13   46.76    8.02
  10   6  13   59.80    8.68
  10  -6  13   46.29    8.60
  10   6  14   78.14   10.52
  10  -6  14   75.39   10.54
  10   6  14   98.61   11.33
  10  -6  14   65.83    9.45
  10   6  15  127.73   13.11
  10  -6  15  124.70   13.75
  10   6  15  140.44   14.16
  10  -6  15  139.68   15.22
  10   6  16   48.64    8.13
  10  -6  16   39.04    8.43
  10   6  16   63.07    9.80
  10  -6  16   49.34    9.30
  10   6  17   45.02    8.05
  10   6  18   47.77    8.33
  10   6  19   17.58    4.87
  10   6  20   37.11    7.89
  10   6  21   64.62    9.73
  10   6  22   20.55    6.80
  10  -7 -19    2.18    2.03
  10  -7 -19    7.34    3.78
  10  -7 -18   12.06    4.21
  10  -7 -18    5.79    4.12
  10  -7 -17    3.08    2.29
  10  -7 -17    3.63    2.56
  10   7 -16   17.53    4.90
  10  -7 -16   20.72    5.45
  10  -7 -16    9.15    3.84
  10   7 -15    3.14    2.67
  10  -7 -15   10.16    4.08
  10  -7 -15    8.18    3.27
  10   7 -14   13.07    4.39
  10  -7 -14    9.82    4.01
  10  -7 -14   16.71    4.86
  10   7 -13   12.23    4.65
  10  -7 -13    7.97    3.92
  10  -7 -13    8.89    5.59
  10   7 -12    3.90    2.41
  10  -7 -12    7.75    4.36
  10  -7 -12    0.64    2.25
  10   7 -11   26.87    5.89
  10  -7 -11   30.17    6.45
  10  -7 -11   28.44    6.34
  10   7 -10   35.50    7.44
  10  -7 -10   26.02    6.20
  10  -7 -10   32.66    6.98
  10   7  -9   19.55    6.05
  10  -7  -9   24.59    5.59
  10  -7  -9   39.51    7.69
  10  -7  -8   24.51    6.28
  10   7  -8   27.25    7.04
  10  -7  -8   15.71    3.98
  10  -7  -7    1.36    3.96
  10   7  -7   -1.03    2.06
 -10   7  -7    4.36    1.78
  10  -7  -7   -0.26    2.03
  10  -7  -6    8.85    4.06
  10   7  -6    9.29    3.80
 -10   7  -6    1.16    1.45
  10  -7  -6    7.37    3.57
  10  -7  -5    4.03    3.95
  10   7  -5    6.77    3.38
 -10   7  -5   10.38    3.53
  10  -7  -5    8.20    3.72
  10   7  -4   -2.86    2.06
  10  -7  -4    5.15    3.44
  10   7  -4    0.55    2.08
  10  -7  -4    3.33    3.92
  10  -7  -3    8.25    3.08
  10   7  -3   14.86    4.38
  10   7  -3    9.05    4.39
  10  -7  -3    8.56    2.81
  10  -7  -2   19.53    6.20
  10   7  -2   10.22    3.31
  10   7  -2   24.71    5.91
  10  -7  -2   15.62    6.06
  10   7  -1   48.73    8.15
  10   7  -1   50.70    8.09
  10  -7  -1   49.81    8.07
  10  -7  -1   56.09    9.11
  10  -7   0   16.30    4.07
  10   7   0   21.60    5.31
  10   7   0   18.12    5.19
  10  -7   0   31.88    6.55
  10   7   1   65.13    9.28
  10  -7   1   38.37    7.20
  10   7   1   64.72    9.32
  10  -7   1   45.58    7.81
  10  -7   2   14.01    5.33
  10   7   2   15.11    4.91
  10   7   2   15.65    5.26
  10  -7   2   11.76    3.91
  10  -7   3   11.39    4.06
  10   7   3    8.85    4.43
  10   7   3   10.56    4.12
  10  -7   3    8.97    4.41
  10  -7   4    5.68    3.53
  10   7   4    2.93    2.61
  10   7   4    8.71    3.27
  10  -7   4    2.33    2.39
  10  -7   5    7.30    3.51
  10   7   5    6.27    3.55
  10   7   5    1.47    2.75
  10  -7   5    5.76    4.40
  10  -7   6   12.15    3.79
  10   7   6    5.62    4.41
  10   7   6    5.96    2.80
  10  -7   6    8.57    4.10
  10  -7   7    2.95    3.67
  10   7   7    6.50    3.88
  10   7   7    0.80    1.53
  10  -7   7   -1.14    3.08
  10  -7   8   15.73    4.45
  10   7   8   20.30    5.17
  10   7   8   18.43    5.11
  10  -7   8   27.18    6.00
  10  -7   9   22.74    5.81
  10   7   9   23.75    6.21
  10   7   9   21.22    5.79
  10  -7   9   34.44    6.82
  10  -7  10   33.75    6.97
  10   7  10   25.87    5.76
  10   7  10   18.52    6.03
  10  -7  10   24.88    7.54
  10  -7  11   30.17    6.71
  10   7  11   26.72    6.12
  10   7  11   29.41    6.42
  10  -7  11   14.91    3.53
  10   7  12    6.05    3.46
  10  -7  12    8.47    3.85
  10   7  12    3.37    3.31
  10  -7  12   11.15    4.82
  10   7  13    9.23    3.73
  10  -7  13   11.96    4.46
  10   7  13    1.96    2.18
  10  -7  13    9.08    4.55
  10   7  14   13.65    5.35
  10  -7  14   14.48    5.24
  10   7  14   26.29    6.12
  10   7  15    5.50    2.24
  10  -7  15    3.16    3.69
  10   7  15    7.48    3.62
  10   7  16   14.53    5.65
  10   7  16    9.90    3.89
  10   7  17    0.85    3.18
  10   7  18    8.30    3.76
  10   7  19    3.00    2.97
  10  -8 -17    3.51    3.33
  10  -8 -17    6.86    4.47
  10   8 -16   -0.90    4.21
  10  -8 -16    3.68    2.81
  10  -8 -16    3.18    1.97
  10   8 -15   35.24    7.64
  10  -8 -15   61.25   10.40
  10  -8 -15   50.94    8.98
  10   8 -14   49.36    8.19
  10  -8 -14   56.48    9.81
  10  -8 -14   42.14    8.58
  10   8 -13   14.82    5.30
  10  -8 -13   11.15    5.32
  10  -8 -13   18.18    5.30
  10  -8 -12   19.59    6.56
  10  -8 -12    9.85    4.55
  10   8 -11   20.61    6.12
  10  -8 -11   23.13    6.28
  10  -8 -11   25.48    6.53
  10   8 -10    7.28    3.07
  10  -8 -10    5.11    2.77
  10  -8 -10    7.13    4.08
  10   8  -9   45.13    8.42
  10  -8  -9   33.04    6.90
  10  -8  -9   49.31    8.83
  10   8  -8   64.35   10.01
  10  -8  -8   51.96    9.21
  10  -8  -8   43.23    8.66
  10   8  -7   16.80    5.57
 -10   8  -7   -2.00    2.39
  10  -8  -7   14.71    5.39
  10  -8  -7   12.57    4.63
  10   8  -6   60.13    9.24
 -10   8  -6   60.41    9.85
  10  -8  -6   70.37   10.52
  10  -8  -6   52.56    8.87
  10   8  -5   76.61   10.70
 -10   8  -5  115.34   12.68
  10  -8  -5  127.24   13.89
  10  -8  -5  107.92   12.67
  10   8  -4   70.99   10.09
 -10   8  -4   54.55    9.09
  10  -8  -4   60.03    9.72
  10  -8  -4   64.73    9.88
  10  -8  -3   20.49    5.43
  10   8  -3   15.90    4.65
  10  -8  -3   14.59    5.29
 -10   8  -3   16.55    5.24
  10  -8  -2   13.39    3.97
  10   8  -2   24.73    6.30
  10   8  -2   16.44    5.51
 -10   8  -2   16.62    5.54
  10  -8  -2   13.66    4.06
  10  -8  -1   33.87    6.93
  10   8  -1   24.01    6.83
  10   8  -1   30.05    6.78
 -10   8  -1    7.94    1.80
  10  -8  -1   22.11    6.13
  10  -8   0   25.59    6.75
  10   8   0   34.45    6.58
  10   8   0   29.68    6.59
 -10   8   0   34.15    6.65
  10  -8   0   36.34    8.07
  10  -8   1   17.45    5.11
  10   8   1   29.92    6.57
 -10   8   1   24.38    6.53
  10   8   1   21.71    6.05
  10  -8   1   15.06    4.76
  10  -8   2   17.32    6.46
  10   8   2    5.65    3.29
  10   8   2   11.47    4.41
 -10   8   2   15.73    4.36
  10  -8   2   11.35    4.94
  10  -8   3   13.94    4.85
  10   8   3   15.88    4.42
  10  -8   3   10.34    2.46
  10   8   4   63.46    9.64
  10   8   4   77.10   10.02
  10  -8   4   62.42   10.05
  10  -8   4   69.00   10.01
  10   8   5   89.87   11.13
  10   8   5  103.85   11.95
  10  -8   5   89.97   12.03
  10  -8   5   94.60   11.22
  10   8   6   55.65    8.70
  10   8   6   71.79   10.14
  10  -8   6   57.34    9.58
  10  -8   6   63.92    9.66
  10  -8   7   17.00    6.09
  10   8   7    7.56    3.90
  10   8   7   14.79    4.77
  10  -8   7    9.84    4.49
  10   8   8   64.97   10.06
  10  -8   8   48.18    8.80
  10   8   8   72.96   10.19
  10  -8   9   41.26    7.59
  10   8   9   47.17    8.28
  10   8   9   41.40    8.01
  10  -8  10    8.95    4.42
  10   8  10    0.85    3.46
  10  -8  11   43.16    8.28
  10   8  11   34.43    7.74
  10   8  11   26.68    6.91
  10  -8  12   17.21    4.83
  10   8  12   20.46    5.54
  10   8  12   19.60    6.16
  10  -8  13   20.16    5.96
  10   8  13   15.40    5.96
  10   8  13   13.02    4.85
  10   8  14   36.33    8.06
  10   8  14   38.82    8.11
  10   8  15   56.21    9.68
 -10   8  15   60.38    9.61
  10   8  15   51.33    9.05
  10   8  16    5.72    4.50
  10   8  16    7.89    4.88
 -10   8  16    4.04    2.09
  10   8  17    2.87    3.92
 -10   8  17    4.11    4.94
  10   9 -13    8.33    4.71
  10  -9 -13   -1.20    4.27
  10  -9 -13    1.94    3.00
  10   9 -12    1.27    3.51
  10  -9 -12   -0.18    3.87
  10  -9 -12   -0.44    2.82
  10   9 -11   12.80    5.11
  10  -9 -11    7.11    2.63
  10  -9 -11    7.44    2.77
  10   9 -10    8.78    4.68
  10  -9 -10   21.41    6.68
  10  -9 -10   17.74    6.12
  10   9  -9    4.37    4.40
  10  -9  -9    5.26    3.24
  10  -9  -9   -2.20    3.19
  10   9  -8    9.74    3.45
  10  -9  -8    9.52    4.53
  10  -9  -8    4.21    3.80
  10  -9  -7    0.13    2.54
  10  -9  -7   -3.71    3.39
  10   9  -6    4.18    2.64
  10  -9  -6    2.76    4.14
  10  -9  -6    4.11    1.91
  10   9  -5   -1.44    1.70
 -10   9  -5    0.28    2.49
  10  -9  -5    2.73    2.78
  10  -9  -5   -1.51    1.69
  10   9  -4   12.94    5.59
 -10   9  -4    8.94    4.13
  10  -9  -4   12.93    5.37
  10  -9  -4    3.45    3.38
  10   9  -3    6.82    3.67
 -10   9  -3   15.82    5.57
  10  -9  -3    6.22    4.63
  10  -9  -3   11.98    4.21
  10   9  -2   -0.79    2.37
 -10   9  -2   -0.53    2.63
  10  -9  -2    6.40    4.83
  10  -9  -2    4.12    2.97
  10   9  -1    5.94    3.90
  10   9  -1   -3.67    2.41
 -10   9  -1   10.70    5.35
  10  -9  -1   11.28    4.26
  10  -9  -1    9.47    3.28
  10  -9   0    9.62    4.09
  10   9   0   12.34    3.99
  10   9   0   16.88    4.74
 -10   9   0   16.13    5.74
  10  -9   0   16.65    5.64
  10  -9   1    2.90    2.16
  10   9   1   10.86    4.14
  10   9   1    6.78    3.38
 -10   9   1   14.52    4.73
  10  -9   1   13.61    5.50
  10  -9   2    1.75    2.54
  10   9   2    0.08    2.94
  10   9   2    1.17    2.49
 -10   9   2   -0.95    2.49
  10  -9   3   12.26    4.86
  10   9   3   21.59    5.42
  10   9   3   11.84    4.11
  10  -9   4    7.84    4.11
 -10   9   4   12.69    5.33
  10   9   4    9.19    4.09
  10   9   4    7.28    5.67
  10   9   5    4.73    2.06
  10   9   5    8.24    4.57
 -10   9   5    3.44    1.84
  10  -9   6    2.23    2.73
  10   9   6    0.03    3.57
  10   9   6    0.37    2.21
 -10   9   6    7.59    4.65
  10  -9   7    0.28    2.59
  10   9   7    8.43    3.76
  10   9   7    3.62    3.05
 -10   9   7    2.68    3.13
  10  -9   8    6.55    3.76
  10   9   8    8.84    4.56
  10   9   8    8.60    4.66
 -10   9   8    3.46    3.70
  10  -9   9    1.63    2.36
  10   9   9   -0.67    1.98
  10   9   9    0.37    2.18
 -10   9   9    2.38    2.09
  10  -9  10    7.06    3.04
  10   9  10   13.84    4.52
  10   9  10    5.78    4.94
 -10   9  10    8.12    3.45
  10  -9  11   13.83    6.30
  10   9  11    5.47    2.20
  10   9  11    8.64    4.25
 -10   9  11    5.26    2.14
  10  -9  12   -1.56    2.63
  10   9  12    7.79    3.94
  10   9  12    3.24    2.65
 -10   9  12    8.94    4.83
  10   9  13    0.71    3.21
  10   9  13    7.13    3.30
 -10   9  13   -0.89    3.43
  10  10  -6   28.27    6.49
  10 -10  -6   20.16    7.03
  10  10  -5   12.99    5.01
  10 -10  -5   23.40    7.37
  10  10  -4   18.93    5.69
 -10  10  -4   16.64    5.71
  10 -10  -4   23.60    6.42
  10  10  -3    5.22    2.70
 -10  10  -3    7.33    3.61
  10  10  -2   35.97    7.69
 -10  10  -2   17.11    5.94
  10 -10  -2   35.00    7.77
  10  10  -1    9.62    4.03
 -10  10  -1   11.89    5.60
  10 -10  -1    1.62    2.00
  10  10   0    5.62    2.77
 -10  10   0    3.75    2.58
  10 -10   0   10.93    4.36
  10  10   1    9.21    5.01
 -10  10   1   12.48    5.23
  10 -10   1    4.20    3.04
  10  10   2   23.43    5.60
  10  10   2   34.22    8.03
 -10  10   2   27.57    5.90
  10 -10   2   15.82    4.59
  10  10   3    3.01    2.35
  10  10   3   10.93    5.10
 -10  10   3    1.83    3.00
  10 -10   3    5.13    4.32
  10  10   4   13.23    5.00
  10  10   4   14.40    4.56
 -10  10   4   14.27    4.97
  10 -10   4   21.65    6.13
  10  10   5   12.53    5.49
  10  10   5   17.74    5.36
 -10  10   5   15.42    5.20
  10 -10   5   14.72    5.58
  10  10   6   30.52    7.61
  10  10   6   28.93    6.44
 -10  10   6   41.74    8.48
  10 -10   6   13.44    4.75
  11   0 -24    3.45    5.30
  11   0 -23   -3.34    3.79
  11   0 -22    0.97    2.70
  11   0 -21   -0.28    1.87
  11   0 -20   -0.29    1.66
  11   0 -19    3.71    3.54
  11   0 -18    1.31    3.35
  11   0 -17    3.12    3.84
  11   0 -16    2.57    2.77
  11   0 -15    0.61    1.35
  11   0 -14    0.62    1.60
  11   0 -13   -1.09    1.98
  11   0 -12    0.53    2.48
  11   0 -12   -0.88    1.78
  11   0 -11    1.08    1.95
  11   0 -11   -0.44    1.31
  11   0 -10    1.86    2.47
  11   0 -10    1.08    1.19
  11   0  -9    0.28    1.88
  11   0  -9   -0.11    2.62
  11   0  -8   -0.72    1.40
  11   0  -8   -0.91    1.78
  11   0  -7    0.41    1.07
  11   0  -7   -0.97    1.68
  11   0  -6    0.19    1.17
  11   0  -6    0.58    1.18
  11   0  -6   -1.15    1.10
  11   0  -5    0.61    1.86
  11   0  -5    0.37    1.61
  11   0  -5    1.07    1.97
  11   0  -4    1.18    1.19
  11   0  -4    0.29    1.70
  11   0  -4    1.33    1.53
  11   0  -3   -0.79    1.20
  11   0  -3    1.65    1.96
  11   0  -3   -1.61    1.95
  11   0  -2   -1.23    1.54
  11   0  -2    1.34    2.34
  11   0  -2   -0.31    1.77
  11   0  -1   -0.20    1.82
  11   0  -1   -0.38    1.35
  11   0  -1    1.50    2.16
  11   0   0   -0.31    1.65
  11   0   0    0.29    1.03
  11   0   0   -0.28    2.98
  11   0   1    1.68    2.33
  11   0   1   -1.40    1.55
  11   0   1    0.36    1.47
  11   0   2   -1.26    2.42
  11   0   2    0.78    1.02
  11   0   3   -0.27    1.89
  11   0   3    0.22    2.01
  11   0   4    2.05    1.22
  11   0   4   -1.01    1.36
  11   0   5    0.76    1.44
  11   0   5    1.76    1.85
  11   0   6   -0.33    1.76
  11   0   6    0.53    1.18
  11   0   7   -0.80    1.68
  11   0   7   -1.61    2.16
  11   0   8   -0.20    1.61
  11   0   8    0.03    1.34
  11   0   9    0.92    1.61
  11   0   9    0.46    1.80
  11   0  10    1.12    1.62
  11   0  10    0.61    2.09
  11   0  11    0.20    2.01
  11   0  11   -1.23    1.76
  11   0  12    0.32    2.68
  11   0  12    0.95    2.08
  11   0  13    1.01    2.14
  11   0  14    0.85    2.64
  11   0  15    2.07    2.80
  11   0  16   -0.97    3.13
  11   0  17    0.59    2.81
  11   0  18    0.49    2.33
  11   0  19   -1.02    2.80
  11   0  20   -1.80    3.31
  11   0  21    1.92    3.52
  11   0  22    1.31    2.29
  11   0  23    0.44    2.10
  11   0  24   -0.62    2.65
  11  -1 -26    8.87    4.29
  11  -1 -25   28.50    7.65
  11  -1 -24   76.52   11.09
  11  -1 -23   17.27    4.88
  11  -1 -22   -2.53    3.14
  11  -1 -21   21.54    6.19
  11   1 -20   -1.07    1.45
  11  -1 -20   28.94    5.94
  11   1 -19   85.32   10.70
  11  -1 -19   69.56    9.64
  11   1 -18  249.37   17.81
  11  -1 -18  245.72   18.40
  11   1 -17   27.12    6.65
  11  -1 -17   20.78    5.92
  11   1 -16    4.51    2.27
  11  -1 -16    3.00    2.19
  11   1 -15   73.14    9.25
  11  -1 -15   75.31    9.64
  11   1 -14  210.12   15.75
  11  -1 -14  220.57   16.30
  11   1 -13  428.06   22.28
  11  -1 -13  451.84   23.02
  11  -1 -13  436.86   21.35
  11  -1 -12  506.36   22.83
  11   1 -12  496.27   23.62
  11  -1 -12  497.43   24.08
  11   1 -12  515.44   24.23
  11  -1 -11   19.44    5.40
  11   1 -11   38.00    6.27
  11  -1 -11   30.94    5.93
  11   1 -11   25.20    5.24
  11  -1 -10  231.06   15.25
  11   1 -10  226.01   14.06
  11  -1 -10  223.33   15.82
  11   1 -10  208.54   15.40
  11   1 -10  270.39   17.25
  11  -1  -9  188.56   13.62
  11   1  -9  216.45   13.82
  11  -1  -9  234.19   16.23
  11   1  -9  204.73   14.53
  11   1  -9  241.06   16.00
  11   1  -8  235.40   15.69
  11  -1  -8  201.07   14.33
  11   1  -8  236.59   14.64
  11  -1  -8  223.94   15.77
  11   1  -8  248.71   16.09
  11  -1  -7  220.94   14.87
  11   1  -7  226.82   14.16
  11  -1  -7  265.74   16.98
  11   1  -7  245.66   15.97
  11   1  -7  236.37   15.68
  11  -1  -6  170.77   12.89
  11   1  -6  155.55   12.05
  11  -1  -6  169.17   13.57
  11   1  -6  168.95   13.00
  11   1  -6  163.28   12.70
  11  -1  -5   44.74    6.60
  11   1  -5   43.45    6.05
  11  -1  -5   48.82    7.15
  11   1  -5   49.00    7.48
  11   1  -5   44.48    6.73
  11  -1  -4   32.81    5.86
  11   1  -4   36.68    5.96
  11  -1  -4   40.73    6.80
  11   1  -4   40.47    5.94
  11   1  -4   37.35    6.44
  11  -1  -3  278.39   16.40
  11   1  -3  279.66   16.03
  11  -1  -3  279.62   17.39
  11   1  -3  291.31   16.77
  11   1  -3  281.60   16.83
  11  -1  -2  828.13   28.33
  11   1  -2  800.79   26.93
  11  -1  -2  795.76   29.25
  11   1  -2  809.34   28.51
  11   1  -2  830.70   27.92
  11  -1  -1   48.34    6.66
  11   1  -1   40.85    6.05
  11  -1  -1   41.62    6.94
  11   1  -1   41.95    6.74
  11   1  -1   46.62    6.65
  11   1   0    2.60    1.47
  11  -1   0    4.12    2.01
  11  -1   0    1.85    2.35
  11   1   0    1.31    1.36
  11   1   0    4.02    2.12
  11  -1   1   49.78    6.71
  11   1   1   41.78    6.52
  11  -1   1   53.04    7.63
  11   1   1   53.31    7.24
  11  -1   2  809.02   28.35
  11   1   2  771.52   27.28
  11  -1   2  804.33   29.17
  11   1   2  885.85   28.12
  11  -1   3  279.51   16.53
  11   1   3  294.35   16.98
  11   1   3  252.54   15.04
  11  -1   4   34.09    5.61
  11   1   4   38.04    6.13
  11   1   4   36.26    5.81
  11  -1   5   38.02    6.60
  11   1   5   42.83    6.51
  11   1   5   34.80    5.59
  11  -1   6  152.91   12.77
  11   1   6  180.91   13.41
  11   1   6  171.35   12.25
  11  -1   7  284.02   17.42
  11   1   7  267.31   16.57
  11   1   7  255.68   15.11
  11  -1   8  238.85   15.97
  11   1   8  232.90   15.59
  11   1   8  236.08   14.57
  11  -1   9  225.53   15.84
  11   1   9  219.44   15.67
  11   1   9  244.41   14.77
  11  -1  10  241.24   16.37
  11   1  10  239.97   16.29
  11   1  10  235.29   14.42
  11   1  11   24.20    5.81
  11  -1  11   33.39    6.35
  11   1  11   22.17    4.47
  11  -1  12  507.15   24.06
  11   1  12  499.53   23.78
  11   1  12  491.85   21.00
  11  -1  13  446.82   22.93
  11   1  13  420.94   19.14
  11   1  13  450.73   23.23
  11  -1  14  228.79   16.76
  11   1  14  200.88   15.58
  11  -1  15   84.71   10.32
  11   1  15   63.62    9.21
  11   1  16    9.06    3.57
  11  -1  16    0.97    2.06
  11   1  17   28.10    6.17
  11  -1  17   26.42    6.21
  11  -1  18  227.70   17.09
  11   1  18  257.45   18.57
  11  -1  19   55.15    9.75
  11   1  19   78.82   10.28
  11   1  20   17.27    6.18
  11  -1  20   20.39    5.89
  11   1  21   27.17    6.53
  11  -1  21   15.71    6.11
  11   1  22   -1.28    3.04
  11  -1  22   -1.64    2.47
  11   1  23   11.71    4.59
  11  -1  23   18.00    5.79
  11   1  24   91.81   12.81
  11   1  25   13.38    5.95
  11  -2 -25    2.62    2.23
  11  -2 -24    4.28    3.16
  11  -2 -23   27.76    6.79
  11  -2 -22   -0.01    1.92
  11  -2 -21    0.50    2.39
  11  -2 -20   12.56    4.67
  11  -2 -19   -1.49    2.61
  11  -2 -18    4.76    2.86
  11  -2 -17   -3.29    2.99
  11  -2 -16    0.50    2.50
  11   2 -16    5.14    3.21
  11  -2 -15    4.05    2.63
  11   2 -15    0.29    2.03
  11  -2 -14   10.51    3.81
  11   2 -14   24.30    5.83
  11  -2 -14   21.76    4.97
  11   2 -14   12.79    4.34
  11  -2 -13   31.35    5.95
  11   2 -13   19.19    5.08
  11  -2 -13   20.79    5.80
  11   2 -13   13.95    4.38
  11  -2 -12    8.10    3.13
  11   2 -12    5.54    2.87
  11  -2 -12   -0.87    1.47
  11   2 -12    1.59    1.90
  11  -2 -11    4.09    2.53
  11   2 -11    5.68    2.92
  11  -2 -11    1.30    1.31
  11   2 -11    9.19    3.48
  11  -2 -10    5.01    2.53
  11  -2 -10   11.50    4.86
  11   2 -10    5.88    2.98
  11   2 -10    4.37    2.87
  11  -2  -9    2.23    2.39
  11  -2  -9    6.08    2.92
  11   2  -9    1.91    2.08
  11   2  -9    3.57    1.99
  11   2  -9    2.86    1.36
  11  -2  -8   68.72    8.47
  11   2  -8   75.08    8.41
  11  -2  -8   73.13    9.22
  11   2  -8   58.89    7.96
  11   2  -8   77.30    9.44
  11  -2  -7   25.82    5.47
  11  -2  -7   22.47    5.98
  11   2  -7   24.74    4.70
  11   2  -7   23.54    4.40
  11   2  -7   24.91    5.35
  11   2  -6    4.47    2.36
  11  -2  -6    4.57    2.05
  11  -2  -6    4.36    2.75
  11   2  -6    8.71    3.80
  11   2  -6   10.08    3.18
  11  -2  -5   30.09    5.70
  11   2  -5   35.44    5.72
  11  -2  -5   41.03    7.21
  11   2  -5   27.88    5.25
  11   2  -5   37.19    6.21
  11   2  -4    2.46    2.08
  11   2  -4    7.75    2.80
  11  -2  -4    6.84    2.64
  11  -2  -4    1.77    2.78
  11   2  -4    2.55    1.72
  11  -2  -3  394.58   20.28
  11  -2  -3  385.82   20.82
  11   2  -3  380.65   18.43
  11   2  -3  381.13   19.02
  11   2  -2   24.30    5.54
  11   2  -2    9.95    2.48
  11  -2  -2   11.65    3.99
  11  -2  -2   13.54    3.45
  11   2  -2   17.66    3.95
  11  -2  -1  270.93   16.89
  11  -2  -1  263.26   17.04
  11   2  -1  268.30   16.03
  11   2  -1  290.44   16.40
  11   2  -1  267.72   16.13
  11   2   0   -0.42    1.72
  11   2   0   -0.17    1.59
  11  -2   0    0.51    1.20
  11  -2   0   -1.29    2.34
  11   2   0    1.44    1.34
  11  -2   1  247.64   15.85
  11  -2   1  269.34   17.13
  11   2   1  284.37   16.30
  11   2   1  282.96   16.59
  11   2   2   12.08    3.36
  11  -2   2   19.76    4.65
  11  -2   2   15.63    4.48
  11   2   2   26.88    5.38
  11  -2   3  380.51   19.93
  11  -2   3  399.67   20.82
  11   2   3  359.83   19.05
  11   2   3  380.91   19.12
  11   2   4    3.97    1.95
  11   2   4    8.76    3.38
  11  -2   4    5.59    2.32
  11  -2   4    6.77    1.74
  11   2   5   25.56    4.84
  11   2   5   35.79    5.72
  11  -2   5   32.21    5.91
  11   2   6    3.14    2.82
  11   2   6    3.80    2.32
  11  -2   6    0.92    2.41
  11   2   7   22.95    4.93
  11   2   7   22.00    5.31
  11  -2   7   24.59    5.45
  11   2   8   66.50    8.90
  11  -2   8   70.10    8.84
  11   2   8   72.37    8.30
  11   2   9    1.93    2.38
  11   2   9    4.94    2.03
  11  -2   9    4.95    3.14
  11   2  10    8.97    2.04
  11   2  10    7.55    3.83
  11  -2  10    3.49    1.37
  11   2  11    1.78    1.42
  11   2  11    5.85    3.64
  11  -2  11    3.93    2.50
  11   2  12    0.48    1.95
  11  -2  12    3.31    1.72
  11   2  13   21.09    5.07
  11   2  13   25.62    5.32
  11  -2  13   29.98    6.09
  11   2  14    9.80    4.00
  11  -2  14   17.60    4.60
  11   2  15   -0.01    1.74
  11  -2  15    0.88    3.14
  11   2  16    5.82    3.06
  11  -2  16    7.01    3.66
  11   2  17    0.05    2.70
  11  -2  17   -1.88    3.23
  11   2  18    3.37    3.44
  11  -2  18    6.68    4.33
  11   2  19    0.71    2.42
  11  -2  19    3.67    3.87
  11   2  20    9.09    3.64
  11  -2  20   10.90    5.24
  11   2  21    5.46    2.72
  11  -2  21    1.69    2.48
  11   2  22   -0.78    3.53
  11  -2  22    1.61    2.99
  11   2  23   33.70    7.87
  11   2  24   -1.30    1.86
  11   2  25    7.49    4.17
  11  -3 -25   62.49   10.11
  11  -3 -24   48.01    9.05
  11  -3 -23   56.57    9.67
  11  -3 -22   25.76    6.78
  11  -3 -21   13.32    4.87
  11  -3 -20   39.40    8.09
  11  -3 -19   29.62    6.39
  11   3 -19   30.18    6.51
  11  -3 -18   96.08   12.11
  11   3 -18  133.17   13.67
  11  -3 -17   66.06    9.46
  11   3 -17   47.15    7.84
  11  -3 -16   -2.50    3.02
  11   3 -16   -0.08    2.48
  11  -3 -15   31.65    7.02
  11  -3 -15   23.53    6.10
  11   3 -15   17.88    4.90
  11  -3 -14   98.27   11.24
  11  -3 -14   92.44   11.11
  11   3 -14  112.00   11.41
  11  -3 -13   91.84   10.50
  11  -3 -13  100.66   10.99
  11   3 -13  100.30   11.14
  11  -3 -12  103.71   11.94
  11   3 -12  106.70   11.05
  11  -3 -12  102.38   11.08
  11  -3 -11  180.75   15.25
  11   3 -11  152.28   13.34
  11  -3 -11  157.23   13.63
  11   3 -10   30.32    6.12
  11  -3 -10   33.30    7.13
  11  -3 -10   35.66    6.59
  11  -3  -9  720.31   29.12
  11  -3  -9  695.28   29.20
  11   3  -9  696.29   27.84
  11  -3  -8  280.39   17.69
  11   3  -8  263.16   15.39
  11  -3  -8  249.11   17.26
  11   3  -8  249.40   15.48
  11   3  -8  229.84   16.03
  11  -3  -7   61.97    8.72
  11  -3  -7   71.06    9.53
  11   3  -7   82.63    8.91
  11   3  -7   75.24    7.99
  11   3  -7   93.29   10.58
  11  -3  -6   45.92    7.43
  11  -3  -6   57.72    8.64
  11   3  -6   52.92    7.27
  11   3  -6   61.57    7.60
  11   3  -6   59.49    8.19
  11  -3  -5  483.05   23.29
  11  -3  -5  462.29   23.63
  11   3  -5  487.16   21.65
  11   3  -5  462.79   20.50
  11   3  -5  446.87   22.03
  11  -3  -4  252.54   16.66
  11  -3  -4  254.95   17.48
  11   3  -4  275.83   16.18
  11   3  -4  237.01   14.79
  11   3  -4  272.66   17.18
  11  -3  -3 1690.74   43.29
  11  -3  -3 1682.16   44.07
  11   3  -3 1710.69   39.95
  11   3  -3 1789.07   43.00
  11  -3  -2  358.45   20.00
  11  -3  -2  354.26   20.39
  11   3  -2  343.31   17.93
  11   3  -2  317.42   17.67
  11   3  -2  301.72   17.65
  11  -3  -1 1419.99   39.39
  11   3  -1 1392.92   36.70
  11   3  -1 1428.51   37.38
  11   3  -1 1487.66   39.25
  11  -3   0   69.46    8.58
  11  -3   0   81.45   10.10
  11   3   0   79.33    8.79
  11   3   0   82.39    8.76
  11   3   1 1415.58   37.93
  11  -3   1 1487.90   39.91
  11  -3   1 1465.92   41.13
  11   3   1 1380.47   37.68
  11   3   2  366.17   19.20
  11  -3   2  327.56   18.76
  11  -3   2  325.63   19.28
  11   3   2  361.90   19.10
  11   3   3 1669.60   41.75
  11  -3   3 1718.23   43.20
  11  -3   3 1695.97   44.48
  11   3   3 1707.93   42.60
  11   3   4  261.13   16.52
  11  -3   4  265.82   17.01
  11  -3   4  261.56   17.60
  11   3   4  314.11   17.89
  11   3   5  483.36   22.64
  11  -3   5  448.02   22.53
  11  -3   5  470.07   23.28
  11   3   5  435.49   21.14
  11   3   6   61.42    8.16
  11  -3   6   49.69    7.85
  11  -3   6   52.50    8.07
  11   3   6   68.91    8.47
  11   3   7   92.17   10.45
  11  -3   7   69.55    8.77
  11   3   7   84.40    9.71
  11   3   8  236.79   16.36
  11  -3   8  258.35   17.34
  11   3   8  263.99   16.59
  11   3   9  707.34   28.46
  11  -3   9  709.72   28.83
  11   3   9  752.23   27.98
  11   3  10   31.40    5.82
  11  -3  10   27.93    5.91
  11  -3  11  164.32   14.29
  11   3  11  180.95   14.02
  11   3  12  119.94   11.96
  11  -3  12  106.29   11.19
  11   3  12  107.19   11.09
  11   3  13  103.41   11.06
  11  -3  13   98.20   11.20
  11   3  13   98.61   10.21
  11   3  14  118.32   12.36
  11  -3  14   97.37   11.20
  11   3  14  109.93   11.09
  11   3  15   27.64    5.91
  11  -3  15   23.71    5.96
  11   3  16   -0.52    1.42
  11  -3  16   -0.81    2.78
  11   3  17   54.13    8.97
  11  -3  17   54.81    9.13
  11   3  18  103.91   12.18
  11  -3  18  121.33   12.97
  11   3  19   29.78    6.37
  11  -3  19   20.40    5.69
  11   3  20   25.94    6.59
  11  -3  20   31.94    7.74
  11   3  21   12.30    3.55
  11  -3  21   14.33    4.56
  11   3  22   17.88    5.73
  11   3  23   66.12   10.32
  11   3  24   54.50    9.47
  11   3  25   46.61    8.95
  11  -4 -24    7.23    3.27
  11  -4 -23   11.64    4.08
  11  -4 -22   21.40    6.25
  11  -4 -21   12.53    4.41
  11  -4 -20    3.98    4.14
  11  -4 -19    0.90    2.04
  11   4 -19    0.72    3.01
  11  -4 -18    1.81    3.52
  11   4 -18    4.99    3.05
  11  -4 -17    1.88    3.77
  11  -4 -17    5.13    3.81
  11   4 -17    4.19    4.10
  11  -4 -16    5.26    3.66
  11  -4 -16    1.21    3.20
  11   4 -16    3.89    2.71
  11  -4 -15   14.19    4.27
  11   4 -15   12.00    3.75
  11  -4 -15    9.85    3.52
  11   4 -14    0.20    1.51
  11  -4 -14    2.83    3.05
  11  -4 -14    1.51    2.36
  11   4 -13    2.65    1.68
  11  -4 -13    0.40    2.65
  11  -4 -13    1.75    3.23
  11   4 -12   31.92    6.63
  11  -4 -12   35.07    6.90
  11  -4 -12   35.88    6.67
  11   4 -11   12.02    4.06
  11  -4 -11    9.80    3.92
  11  -4 -11    5.65    3.42
  11  -4 -10   44.33    7.76
  11  -4 -10   40.83    7.22
  11   4 -10   43.65    7.39
  11   4  -9    8.57    3.28
  11  -4  -9    3.70    2.83
  11  -4  -9    7.98    3.52
  11  -4  -8   97.04   10.56
  11   4  -8  109.93   11.62
  11  -4  -8  111.83   11.52
  11   4  -7   21.36    5.23
  11   4  -7   13.04    3.79
  11  -4  -7    9.65    4.11
  11  -4  -7   13.08    4.67
  11   4  -6    4.90    2.37
  11   4  -6    0.33    1.75
  11  -4  -6    6.19    4.44
  11   4  -5    4.69    3.52
  11  -4  -5    7.11    3.09
  11   4  -5    7.55    2.72
  11  -4  -5    8.26    4.82
  11  -4  -4  751.60   30.35
  11   4  -4  747.01   27.18
  11   4  -4  800.52   30.31
  11  -4  -3   75.97    9.51
  11  -4  -3   54.11    8.24
  11   4  -3   62.59    8.27
  11   4  -2  190.28   14.02
  11  -4  -2  185.59   14.82
  11  -4  -2  185.91   14.96
  11   4  -2  163.81   12.71
  11   4  -2  158.27   13.10
  11   4  -1  235.04   16.16
  11   4  -1  264.63   16.46
  11  -4  -1  283.28   18.41
  11  -4  -1  259.89   17.61
  11   4  -1  216.47   14.59
  11   4   0    0.03    2.14
  11  -4   0    2.96    2.77
  11   4   0    3.62    2.46
  11  -4   0    4.13    2.70
  11   4   1  243.00   16.47
  11   4   1  242.05   16.00
  11  -4   1  231.19   16.50
  11  -4   1  233.45   16.84
  11   4   2  168.40   13.80
  11   4   2  158.22   13.08
  11  -4   2  193.57   14.74
  11  -4   2  149.04   13.82
  11   4   3   93.70   10.19
  11   4   3   84.06    9.46
  11  -4   3   69.74    9.33
  11  -4   3   78.08   10.04
  11   4   4  708.62   28.06
  11   4   4  635.03   27.35
  11  -4   4  679.76   29.17
  11   4   5    2.39    2.75
  11  -4   5    5.59    2.00
  11   4   5    5.00    3.28
  11  -4   5    1.13    2.92
  11   4   6    9.11    4.01
  11  -4   6    9.14    3.47
  11   4   6    9.89    4.01
  11  -4   6    5.46    2.02
  11   4   7   19.77    4.56
  11  -4   7   14.77    4.29
  11   4   7   19.71    5.32
  11  -4   7   17.92    4.61
  11   4   8   95.63   10.13
  11   4   8   85.67   10.30
  11  -4   8   99.06   10.81
  11  -4   8  123.90   12.51
  11   4   9   10.95    3.71
  11  -4   9    8.41    4.24
  11   4   9    8.35    3.98
  11  -4   9    4.22    3.13
  11   4  10   59.59    8.39
  11   4  10   47.13    7.37
  11  -4  10   42.39    7.69
  11   4  11    5.31    1.72
  11  -4  11    4.03    2.14
  11   4  12   38.48    6.97
  11  -4  12   32.34    6.30
  11   4  12   30.68    6.31
  11   4  13   -1.16    2.49
  11  -4  13   -1.80    2.66
  11   4  13   -1.21    2.20
  11   4  14    0.28    1.79
  11  -4  14    1.22    1.83
  11   4  14    5.65    3.62
  11  -4  15   12.55    4.40
  11   4  15    8.42    4.07
  11  -4  16   -0.11    2.42
  11   4  16    3.85    3.78
  11  -4  17    1.84    1.88
  11   4  17   -0.29    2.64
  11  -4  18   -1.46    2.32
  11   4  18    1.67    1.98
  11  -4  19    7.80    4.26
  11   4  19   11.19    4.40
  11   4  20    1.21    2.48
  11   4  21   17.10    4.85
  11   4  22   26.32    6.54
  11   4  23   12.25    6.57
  11   4  24   17.65    5.72
  11  -5 -22   42.63    8.51
  11  -5 -21    4.79    1.85
  11  -5 -20   38.46    7.42
  11  -5 -19   24.32    6.09
  11   5 -19   -8.57    3.59
  11  -5 -18   44.49    8.45
  11  -5 -18   56.08    9.88
  11   5 -18   47.17    8.45
  11  -5 -17   16.21    4.66
  11  -5 -17   11.36    4.52
  11   5 -17   17.25    6.15
  11   5 -16    5.18    3.19
  11  -5 -16    4.03    1.76
  11  -5 -16    5.98    4.10
  11   5 -15   20.86    6.12
  11  -5 -15   25.78    6.31
  11  -5 -15   21.97    5.69
  11  -5 -14   83.59   11.28
  11  -5 -14   87.77   11.68
  11   5 -14   56.80    9.04
  11  -5 -13   70.56    9.99
  11  -5 -13   51.83    8.50
  11   5 -13   59.06    9.30
  11  -5 -12   27.82    5.97
  11   5 -12   18.49    4.48
  11  -5 -12   24.85    6.27
  11   5 -11   -1.49    2.02
  11  -5 -11    0.02    2.30
  11  -5 -11    4.04    3.29
  11   5 -10    0.64    2.42
  11  -5 -10    1.72    2.49
  11  -5 -10    3.64    2.07
  11  -5  -9   79.13   10.32
  11  -5  -9   67.56    9.66
  11   5  -9   62.35    8.82
  11  -5  -8  333.49   21.12
  11  -5  -8  281.45   19.07
  11   5  -8  307.74   19.25
  11  -5  -7   46.02    8.22
  11  -5  -7   49.66    8.39
  11   5  -7   52.75    8.40
  11   5  -6   25.21    5.47
  11  -5  -6   33.05    5.93
  11  -5  -6   25.07    5.79
  11   5  -5    4.11    2.80
  11  -5  -5    6.53    3.62
  11   5  -5    8.56    3.34
  11  -5  -5    3.39    3.55
  11   5  -4  306.32   19.00
  11   5  -4  314.98   18.29
  11  -5  -4  312.45   20.30
  11  -5  -4  312.16   19.71
  11   5  -3   48.07    7.98
  11  -5  -3   65.12    8.72
  11   5  -3   47.99    7.45
  11  -5  -3   51.05    8.28
  11   5  -2  107.92   11.46
  11  -5  -2  100.01   11.30
  11   5  -2  116.12   11.19
  11  -5  -2  117.55   12.50
  11   5  -1  149.42   13.52
  11  -5  -1  195.93   15.38
  11   5  -1  183.72   14.31
  11  -5  -1  174.65   14.99
  11   5   0    5.29    3.87
  11  -5   0   -2.16    2.60
  11  -5   0    5.15    3.58
  11   5   0    2.15    1.62
  11   5   1  192.76   15.05
  11  -5   1  185.39   15.32
  11   5   1  174.41   14.10
  11  -5   1  184.81   15.60
  11   5   2  134.69   12.58
  11  -5   2  108.24   11.22
  11   5   2  113.53   11.39
  11  -5   2  133.99   13.52
  11   5   3   57.97    8.41
  11  -5   3   48.89    7.96
  11   5   3   60.72    8.25
  11  -5   3   73.89   10.28
  11   5   4  298.54   19.01
  11  -5   4  313.14   20.06
  11   5   4  318.23   19.39
  11  -5   4  291.74   19.49
  11   5   5    6.03    3.50
  11  -5   5   10.29    3.88
  11  -5   5    3.88    2.70
  11   5   5   15.04    4.95
  11   5   6   35.64    6.72
  11  -5   6   32.12    6.39
  11  -5   6   40.77    7.49
  11   5   6   28.87    5.78
  11   5   7   48.00    7.88
  11   5   7   43.20    7.71
  11  -5   7   39.24    7.09
  11  -5   7   37.56    7.49
  11   5   8  282.32   18.47
  11  -5   8  325.27   20.64
  11   5   8  294.04   19.36
  11  -5   8  332.52   21.36
  11   5   9  101.38   11.54
  11  -5   9   85.10   10.76
  11   5   9   86.46   10.38
  11  -5   9   77.34   10.64
  11  -5  10    4.39    3.39
  11  -5  10   -2.06    3.94
  11   5  10   -1.22    1.46
  11   5  11    2.13    2.47
  11  -5  11    3.48    2.25
  11  -5  11    7.03    5.13
  11   5  11    1.28    2.46
  11   5  12    9.87    4.50
  11  -5  12   27.18    6.45
  11  -5  12   15.78    4.60
  11   5  12   15.82    4.95
  11   5  13   68.66    9.61
  11  -5  13   61.72    9.66
  11   5  13   57.59    9.05
  11  -5  13   54.79    8.86
  11   5  14   97.06   11.44
  11  -5  14   77.03   11.10
  11   5  14   97.38   11.31
  11   5  15   24.66    6.83
  11  -5  15   25.65    5.98
  11   5  15   14.60    4.70
  11  -5  16    2.14    2.83
  11   5  16    0.48    1.68
  11  -5  17   18.39    5.40
  11   5  17   21.33    5.57
  11   5  18   51.46    8.87
  11  -5  18   43.71    9.26
  11   5  19   22.50    6.49
  11   5  20   41.32    8.52
  11   5  21    3.34    3.24
  11   5  22   30.83    7.12
  11  -6 -21    4.37    3.45
  11  -6 -20    7.25    3.95
  11  -6 -19    6.75    2.21
  11  -6 -19   21.59    8.08
  11   6 -18    4.84    4.17
  11  -6 -18    2.99    2.38
  11  -6 -18    0.84    3.52
  11   6 -17    1.22    2.16
  11  -6 -17   -0.78    1.98
  11  -6 -17    1.12    2.30
  11   6 -16    2.67    2.50
  11  -6 -16    8.26    4.02
  11  -6 -16    3.41    3.30
  11   6 -15    3.35    3.85
  11  -6 -15    8.51    4.20
  11  -6 -15    7.54    4.86
  11   6 -14   19.30    5.95
  11  -6 -14   17.64    5.15
  11  -6 -14   20.20    6.01
  11   6 -13   19.30    4.73
  11  -6 -13   12.79    4.75
  11  -6 -13   17.25    5.38
  11   6 -12   -0.33    2.79
  11  -6 -12    5.21    4.20
  11  -6 -12    2.38    2.95
  11  -6 -11    2.35    3.30
  11   6 -11    2.71    3.02
  11  -6 -11    4.19    2.06
  11  -6 -10   59.36    8.84
  11  -6 -10   58.81    9.45
  11   6 -10   41.56    7.83
  11  -6  -9    2.85    3.62
  11   6  -9    9.10    3.45
  11  -6  -9   11.04    5.10
  11  -6  -8   24.07    5.50
  11   6  -8   34.70    6.50
  11  -6  -8   36.45    7.14
  11  -6  -7    5.95    2.82
  11   6  -7    0.32    1.36
  11  -6  -7    5.29    4.00
  11  -6  -6   28.22    6.15
  11   6  -6   39.50    6.96
  11  -6  -6   42.14    7.62
  11   6  -5   12.74    4.01
  11  -6  -5    8.57    4.21
  11  -6  -5    8.87    2.92
  11   6  -4    0.92    1.61
  11  -6  -4    8.15    3.13
  11   6  -4    5.79    2.83
  11  -6  -4    3.49    2.14
  11   6  -3    3.53    2.88
  11  -6  -3    3.65    3.29
  11  -6  -3    0.52    2.78
  11   6  -3    1.32    1.90
  11   6  -2  100.54   11.53
  11   6  -2   95.57   10.58
  11  -6  -2   79.44   10.86
  11  -6  -2   75.76   10.02
  11   6  -1    4.57    2.87
  11  -6  -1    5.82    3.18
  11  -6  -1   11.00    4.92
  11   6  -1    9.89    3.08
  11   6   0   -0.28    2.00
  11  -6   0    2.71    2.38
  11  -6   0    0.71    2.06
  11   6   0    3.74    2.61
  11   6   1    2.36    2.50
  11  -6   1   10.62    3.43
  11  -6   1    3.12    1.88
  11   6   1    5.92    3.18
  11  -6   2   88.52   10.75
  11   6   2   80.37    9.93
  11   6   2   79.67    9.93
  11  -6   2   69.55    9.97
  11   6   3    5.03    3.96
  11   6   3    1.84    1.92
  11  -6   3    1.19    3.19
  11  -6   3   -1.12    1.87
  11   6   4    5.92    2.85
  11   6   4    7.03    3.71
  11  -6   4   10.93    3.26
  11  -6   4    4.96    2.49
  11   6   5   10.63    3.97
  11   6   5    5.20    3.88
  11  -6   5    5.48    2.36
  11  -6   5    4.40    2.26
  11  -6   6   58.36    8.81
  11   6   6   43.41    6.95
  11   6   6   38.96    7.35
  11  -6   6   37.17    7.53
  11   6   7    2.52    1.76
  11   6   7    3.99    2.30
  11  -6   7    5.63    3.42
  11  -6   7    3.44    2.99
  11   6   8   25.37    6.29
  11   6   8   41.22    7.79
  11  -6   8   22.46    5.74
  11  -6   8   25.08    6.17
  11   6   9   10.14    3.69
  11   6   9    6.26    1.94
  11  -6   9    1.56    2.50
  11  -6   9   10.20    2.60
  11   6  10   39.49    6.85
  11  -6  10   42.28    8.11
  11   6  10   41.77    7.68
  11  -6  10   42.79    7.41
  11   6  11    1.58    1.58
  11   6  11    4.37    3.38
  11  -6  11    1.47    1.61
  11  -6  11    2.26    2.85
  11   6  12    7.30    3.33
  11   6  12    2.22    3.59
  11  -6  12    0.51    2.11
  11  -6  12    1.29    2.29
  11   6  13   19.31    5.20
  11   6  13   13.40    3.48
  11  -6  13   18.00    5.67
  11  -6  13   25.84    7.48
  11   6  14   17.91    5.31
  11   6  14   15.45    4.91
  11  -6  14   18.33    6.12
  11  -6  14   23.88    6.49
  11   6  15    9.48    3.13
  11   6  15    4.92    3.27
  11  -6  15   11.65    5.11
  11   6  16    0.71    2.31
  11  -6  16    2.15    2.64
  11  -6  16    5.73    4.51
  11  -6  17   -3.49    2.46
  11  -6  17    5.05    4.31
  11   6  17    1.31    3.24
  11  -6  18    4.79    4.09
  11   6  18    2.98    2.50
  11   6  19    2.91    3.52
  11   6  20   29.29    7.02
  11   6  21    5.66    4.29
  11  -7 -18   31.88    7.18
  11  -7 -18   16.07    5.66
  11   7 -17    7.57    4.71
  11  -7 -17    4.36    3.63
  11  -7 -17    2.00    2.55
  11   7 -16    4.19    4.92
  11  -7 -16    6.45    5.03
  11  -7 -16    6.65    4.43
  11   7 -15   22.55    6.47
  11  -7 -15   18.90    6.98
  11  -7 -15   12.56    4.88
  11  -7 -14   65.03   10.35
  11  -7 -14   94.60   12.63
  11   7 -14   80.35   11.80
  11  -7 -13   61.98    9.83
  11  -7 -13   81.09   11.28
  11   7 -13   77.06   11.06
  11   7 -12   26.01    6.62
  11  -7 -12   30.13    6.77
  11  -7 -12   29.90    6.86
  11   7 -11    2.47    3.01
  11  -7 -11   12.34    4.83
  11  -7 -11    8.81    4.13
  11  -7 -10    1.85    2.09
  11  -7 -10    0.63    2.86
  11   7  -9   33.70    6.58
  11  -7  -9   28.14    6.49
  11  -7  -9   36.12    7.68
  11   7  -8  127.14   13.62
  11  -7  -8  102.60   12.12
  11  -7  -8  104.50   12.61
  11   7  -7  138.85   13.90
 -11   7  -7  140.30   14.55
  11  -7  -7  119.61   13.29
  11  -7  -7  109.28   12.90
  11   7  -6   46.62    8.25
  11  -7  -6   41.07    7.19
  11  -7  -6   39.98    8.27
  11  -7  -5    3.50    3.07
  11   7  -5    7.38    3.91
  11  -7  -5    4.71    2.33
  11   7  -4   54.65    8.71
  11  -7  -4   35.27    7.25
  11  -7  -4   39.80    7.76
  11   7  -3  140.28   13.75
  11   7  -3   99.36   11.34
  11  -7  -3  107.04   12.46
  11  -7  -3  109.77   12.24
  11  -7  -2   35.09    7.36
  11   7  -2   40.07    7.26
  11  -7  -2   40.26    7.94
  11   7  -2   31.80    6.66
  11   7  -1    2.61    2.77
  11  -7  -1    6.54    4.04
  11   7  -1    1.23    2.36
  11  -7  -1    2.97    3.92
  11   7   0    0.90    2.10
  11  -7   0    0.48    1.58
  11  -7   0   -5.04    3.84
  11   7   1    2.17    2.16
  11  -7   1   -0.53    2.77
  11   7   1    2.70    4.04
  11  -7   1    1.56    1.99
  11   7   2   29.21    6.67
  11  -7   2   27.42    5.83
  11   7   2   29.21    6.38
  11   7   3  113.46   12.44
  11   7   3  116.33   12.10
  11  -7   3  105.04   13.40
  11  -7   3  114.49   12.80
  11   7   4   67.16    9.39
  11   7   4   53.57    8.85
  11  -7   4   55.77    9.22
  11  -7   4   52.95    8.57
  11   7   5   11.19    5.25
  11   7   5    3.77    3.70
  11  -7   5    5.19    3.98
  11  -7   5    1.19    3.72
  11   7   6   35.53    7.17
  11  -7   6   33.80    7.25
  11   7   6   47.69    8.02
  11  -7   6   37.59    7.90
  11   7   7  138.64   13.36
  11   7   7  111.96   12.55
  11  -7   7  101.81   13.21
  11  -7   7  121.78   13.62
  11   7   8  160.57   14.78
  11   7   8  140.31   13.88
  11  -7   8  125.84   13.72
  11  -7   8  123.95   13.59
  11   7   9   39.89    8.09
  11  -7   9   31.84    7.21
  11   7   9   42.49    8.07
  11  -7   9   36.09    7.72
  11   7  10    5.93    4.36
  11   7  10    5.42    3.07
  11  -7  10    4.16    3.45
  11  -7  10    8.18    3.87
  11   7  11    8.37    5.15
  11   7  11    2.95    3.18
  11  -7  11    4.08    4.66
  11  -7  11   11.33    3.66
  11   7  12   23.26    5.48
  11   7  12   34.23    7.16
  11  -7  12   31.88    7.09
  11  -7  12   34.27    7.38
  11   7  13   56.41    9.56
  11  -7  13   55.90    9.39
  11   7  13   62.02    9.34
  11  -7  13   58.79    9.41
  11   7  14   94.35   12.50
  11  -7  14   59.38    9.64
  11   7  14   69.91   10.35
  11   7  15   12.48    4.06
  11   7  15   18.99    5.97
  11  -7  15   21.97    6.90
  11   7  16    4.31    4.35
  11   7  17    6.33    4.06
  11   7  18   31.53    7.25
  11   8 -15    8.18    3.85
  11  -8 -15    2.04    2.48
  11  -8 -15    3.61    3.94
  11   8 -14   -2.89    3.15
  11  -8 -14   -6.61    5.98
  11  -8 -14    0.19    2.63
  11   8 -13   -1.07    3.00
  11  -8 -13    5.99    2.27
  11  -8 -13    1.71    3.01
  11   8 -12    4.19    2.84
  11  -8 -12    2.62    3.83
  11  -8 -12    0.70    3.07
  11   8 -11    1.54    4.11
  11  -8 -11    3.52    4.48
  11  -8 -11    1.61    4.20
  11   8 -10    0.35    4.15
  11  -8 -10    0.51    2.03
  11  -8 -10    1.83    3.76
  11   8  -9    5.42    3.31
  11  -8  -9    1.79    2.60
  11  -8  -9    7.53    3.46
  11  -8  -8    6.05    2.71
  11  -8  -8    3.10    3.20
  11  -8  -7   -2.29    1.95
  11  -8  -7   -1.82    2.16
  11  -8  -6    1.41    2.79
  11   8  -6    5.51    3.17
 -11   8  -6    7.77    4.31
  11  -8  -6    6.72    3.24
  11  -8  -5    1.48    1.67
  11   8  -5    4.86    3.70
 -11   8  -5    2.89    3.97
  11  -8  -5    5.31    3.81
  11  -8  -4    2.52    4.16
  11   8  -4    3.81    2.54
 -11   8  -4    2.22    2.38
  11  -8  -4    0.38    1.94
  11  -8  -3    2.25    2.42
  11   8  -3    2.14    2.88
 -11   8  -3   -0.15    1.84
  11  -8  -3    2.31    2.90
  11  -8  -2    1.52    2.98
  11   8  -2   -4.48    2.50
  11   8  -2    0.66    2.38
 -11   8  -2    4.17    2.55
  11  -8  -2   -4.80    4.47
  11  -8  -1   24.98    6.42
  11   8  -1   22.74    5.35
  11   8  -1   34.50    7.23
 -11   8  -1   27.17    6.70
  11  -8  -1   33.95    7.82
  11  -8   0    7.54    3.82
  11   8   0    3.67    1.76
  11   8   0   -0.21    2.60
  11  -8   0    4.94    3.37
  11  -8   1   27.16    6.43
  11   8   1   33.51    6.97
  11   8   1   35.95    7.23
  11  -8   1   36.19    7.53
  11  -8   2    3.83    3.21
  11   8   2    4.96    4.26
  11   8   2    5.06    3.00
  11  -8   2    2.74    3.05
  11  -8   3    1.72    3.55
  11   8   3    5.28    2.76
  11   8   3    2.69    2.11
  11  -8   3    2.40    4.08
  11  -8   4    1.26    1.93
  11   8   4   -2.26    2.59
  11   8   4    1.84    1.59
  11  -8   4    5.62    5.03
  11  -8   5   10.26    3.87
  11   8   5    6.50    3.26
  11   8   5    0.46    2.22
  11  -8   5   -0.78    4.08
  11  -8   6   10.47    5.07
  11   8   6    8.63    3.98
  11   8   6   -1.08    2.12
  11  -8   6    8.72    5.66
  11  -8   7   -2.01    2.57
  11   8   7    1.17    3.73
  11   8   7   -0.25    2.30
  11  -8   7    6.66    5.92
  11  -8   8    7.07    3.80
  11   8   8    6.08    2.94
  11   8   8    6.27    3.37
  11  -8   8    3.55    3.05
  11  -8   9    9.13    5.13
  11   8   9    2.57    3.21
  11   8   9   10.76    4.04
  11  -8  10    3.21    2.89
  11   8  10   -3.56    2.09
  11   8  10    2.84    3.07
  11  -8  11    0.78    3.77
  11   8  11    1.85    3.34
  11   8  11    1.05    1.55
  11   8  12   -2.45    2.57
  11   8  12    0.34    1.54
  11   8  13    0.96    3.60
  11   8  13    1.35    2.02
  11  -8  14    0.72    3.03
  11   8  14    4.67    5.11
  11   8  14   -0.11    2.65
  11   8  15    5.91    3.68
  11   8  15   12.21    5.08
  11  -9 -11    7.37    4.27
  11  -9 -11    8.74    3.04
  11   9 -10    4.58    3.37
  11  -9 -10   -2.30    3.36
  11  -9 -10   -1.56    2.31
  11   9  -9   24.12    6.69
  11  -9  -9   30.98    7.26
  11  -9  -9   39.63    7.91
  11   9  -8   12.34    4.10
  11  -9  -8   29.20    7.02
  11  -9  -8   19.91    5.67
  11   9  -7   58.59   10.29
  11  -9  -7   62.20   10.31
  11  -9  -7   62.49   10.37
  11   9  -6   15.79    5.76
  11  -9  -6   14.06    5.76
  11  -9  -6   20.21    5.96
  11   9  -5   19.25    6.00
 -11   9  -5    6.39    4.87
  11  -9  -5   25.64    7.01
  11  -9  -5   20.62    6.08
  11   9  -4    9.44    4.10
 -11   9  -4    5.60    2.53
  11  -9  -4    8.93    3.06
  11  -9  -4    0.07    2.35
  11   9  -3  162.32   15.79
 -11   9  -3  147.31   15.54
  11  -9  -3  150.72   15.90
  11  -9  -3  130.02   14.80
  11   9  -2   28.44    6.89
 -11   9  -2   18.16    6.13
  11  -9  -2   13.36    5.64
  11  -9  -1   -0.17    3.29
  11   9  -1   -0.36    1.96
 -11   9  -1    1.89    2.36
  11  -9  -1    2.11    4.14
  11  -9   0    0.35    2.07
  11   9   0    9.48    2.45
  11   9   0    9.42    5.43
 -11   9   0    7.49    4.08
  11  -9   0    7.00    4.05
  11  -9   1    5.94    4.23
  11   9   1    2.05    1.78
  11   9   1    0.44    2.12
 -11   9   1    5.14    3.47
  11  -9   1    1.84    4.14
  11  -9   2   30.49    7.97
  11   9   2   31.84    7.74
  11   9   2   27.46    6.95
 -11   9   2   27.02    7.07
  11  -9   2   15.11    4.47
  11   9   3  154.33   15.58
 -11   9   3  154.00   15.85
  11   9   3  154.88   15.87
  11  -9   3  190.73   17.19
  11  -9   4   10.14    4.40
  11   9   4   14.79    6.45
  11   9   4    0.08    2.13
 -11   9   4   -1.25    2.52
  11  -9   5   25.16    6.62
  11   9   5   18.96    5.68
  11   9   5   10.74    4.83
 -11   9   5   14.09    4.55
  11  -9   6   24.73    6.34
  11   9   6    8.05    2.92
  11   9   6   11.47    4.44
 -11   9   6   17.77    5.66
  11   9   7   73.11   10.86
 -11   9   7   65.95    9.80
  11   9   7   61.18    9.94
  11  -9   7   67.89   10.86
  11  -9   8    7.88    4.90
  11   9   8   25.31    6.59
  11   9   8   22.28    6.16
 -11   9   8   28.99    6.11
  11  -9   9   13.08    4.98
  11   9   9   19.26    5.94
 -11   9   9   15.83    5.48
  11  -9  10    7.35    4.58
  11   9  10    4.33    4.09
  11   9  10   -2.75    2.65
 -11   9  10    3.14    3.29
  11  -9  11   -0.19    3.30
  11   9  11    2.03    2.56
  11   9  11    1.54    2.21
 -11   9  11    7.87    3.50
  12   0 -23   20.70    7.71
  12   0 -22    8.14    1.92
  12   0 -21    4.45    2.54
  12   0 -20   46.95    8.50
  12   0 -19   87.91   11.01
  12   0 -18   54.49   10.23
  12   0 -17  223.29   17.75
  12   0 -16  111.46   12.18
  12   0 -15   10.91    4.45
  12   0 -14  304.76   19.54
  12   0 -13  478.51   24.47
  12   0 -12  211.82   16.37
  12   0 -11  176.73   13.92
  12   0 -11  232.92   16.73
  12   0 -10  320.18   18.55
  12   0 -10  308.88   19.19
  12   0  -9   48.59    7.35
  12   0  -9   36.62    7.29
  12   0  -8  161.58   13.14
  12   0  -8  204.76   15.43
  12   0  -7   23.36    4.73
  12   0  -7   23.26    4.87
  12   0  -6  158.26   12.66
  12   0  -6  152.14   12.78
  12   0  -5  254.93   16.04
  12   0  -5  238.48   16.70
  12   0  -5  268.58   16.78
  12   0  -4  133.64   11.55
  12   0  -4  142.27   12.59
  12   0  -4  152.58   12.35
  12   0  -3   40.85    6.74
  12   0  -3   45.11    7.03
  12   0  -3   30.84    5.73
  12   0  -2  514.76   22.96
  12   0  -2  496.95   23.73
  12   0  -2  521.58   23.02
  12   0  -1 1036.47   32.64
  12   0  -1 1023.03   33.66
  12   0  -1  973.33   31.88
  12   0   0  517.97   22.98
  12   0   0  489.23   23.52
  12   0   0  437.47   21.21
  12   0   1  999.02   33.40
  12   0   1 1022.96   32.25
  12   0   2  532.06   23.84
  12   0   2  528.95   24.44
  12   0   2  520.12   22.87
  12   0   3   42.91    6.95
  12   0   3   47.10    6.87
  12   0   4  123.67   11.61
  12   0   4  118.07   10.85
  12   0   5  220.08   15.43
  12   0   5  253.20   15.76
  12   0   6  138.41   12.56
  12   0   6  145.68   11.84
  12   0   7   25.98    5.92
  12   0   7   14.68    3.73
  12   0   8  200.17   15.42
  12   0   8  205.36   14.08
  12   0   9   39.98    6.93
  12   0   9   52.09    6.82
  12   0  10  336.94   19.82
  12   0  10  332.72   17.95
  12   0  11  218.94   16.23
  12   0  12  222.09   16.57
  12   0  13  490.47   24.82
  12   0  14  278.73   18.99
  12   0  15    7.03    3.71
  12   0  16  133.53   13.33
  12   0  17  226.88   17.57
  12   0  18   71.21   10.29
  12   0  19   79.37   10.89
  12   0  20   25.86    6.55
  12   0  21    2.09    2.68
  12   0  22    6.74    4.13
  12   0  23    5.08    4.00
  12   0  24   29.54    8.65
  12  -1 -25    2.62    3.57
  12  -1 -24    2.55    1.81
  12  -1 -23    1.18    4.06
  12  -1 -22   12.19    4.94
  12  -1 -21   10.96    4.71
  12  -1 -20    3.65    3.35
  12  -1 -19    4.12    2.89
  12   1 -18   -1.90    3.45
  12  -1 -18   -0.04    1.62
  12  -1 -17   39.19    7.80
  12   1 -17   10.61    4.56
  12   1 -16    6.00    3.24
  12  -1 -16   10.25    3.59
  12   1 -15    6.85    3.97
  12  -1 -15    5.91    3.39
  12   1 -14    4.57    1.85
  12  -1 -14    6.90    2.78
  12  -1 -13    9.61    5.28
  12   1 -13    6.57    3.81
  12  -1 -13    7.94    3.91
  12  -1 -12    9.52    3.30
  12   1 -12    2.90    3.39
  12  -1 -12    3.38    1.99
  12   1 -12    9.65    3.15
  12  -1 -11   48.49    7.60
  12  -1 -11   49.16    7.94
  12   1 -11   56.56    8.23
  12   1 -11   52.24    7.80
  12   1 -10   33.61    5.91
  12  -1 -10   32.53    6.24
  12   1 -10   37.44    6.66
  12  -1 -10   37.61    6.49
  12   1 -10   33.35    6.68
  12  -1  -9   36.31    6.61
  12   1  -9   37.90    6.10
  12  -1  -9   45.15    7.48
  12   1  -9   37.73    6.80
  12   1  -9   34.08    6.88
  12  -1  -8   25.10    4.94
  12   1  -8   21.40    4.31
  12  -1  -8   13.63    4.24
  12   1  -8   25.06    5.40
  12   1  -8   25.22    5.75
  12  -1  -7    1.31    1.74
  12   1  -7    1.54    2.49
  12  -1  -7    5.88    3.31
  12   1  -7    5.44    3.15
  12   1  -7   -0.41    1.20
  12  -1  -6   11.11    4.06
  12   1  -6   24.76    5.01
  12  -1  -6    9.47    3.61
  12   1  -6   13.59    4.07
  12   1  -6   10.19    3.68
  12  -1  -5   39.22    7.13
  12   1  -5   37.63    6.20
  12  -1  -5   30.01    6.56
  12   1  -5   35.80    6.06
  12   1  -5   27.07    5.71
  12  -1  -4   57.01    7.86
  12   1  -4   72.12    8.54
  12  -1  -4   90.01   10.43
  12   1  -4   71.50    8.97
  12   1  -4   65.54    8.13
  12  -1  -3  214.28   14.97
  12   1  -3  206.33   14.35
  12  -1  -3  201.34   15.42
  12   1  -3  204.91   14.88
  12   1  -3  197.96   14.28
  12  -1  -2  104.73   10.67
  12   1  -2  116.79   10.87
  12  -1  -2  100.92   10.75
  12   1  -2   97.43   10.28
  12   1  -2  113.00   10.73
  12  -1  -1   45.22    6.95
  12   1  -1   35.44    5.96
  12  -1  -1   56.99    7.83
  12   1  -1   46.77    6.98
  12   1  -1   42.98    6.95
  12   1   0   23.72    4.87
  12  -1   0   16.15    4.33
  12  -1   0   16.49    4.41
  12   1   0   15.02    4.44
  12   1   0   11.77    3.99
  12  -1   1   50.77    7.18
  12   1   1   34.62    6.00
  12  -1   1   48.74    7.52
  12   1   1   38.91    6.75
  12   1   1   32.64    6.34
  12  -1   2  119.13   11.51
  12   1   2   87.99    9.51
  12  -1   2  102.22   10.81
  12   1   2  118.77   10.87
  12  -1   3  221.29   15.39
  12   1   3  200.23   14.66
  12  -1   3  219.84   15.84
  12   1   3  182.90   13.67
  12  -1   4   82.49    9.76
  12   1   4   73.88    8.85
  12   1   4   77.10    9.22
  12  -1   5   42.53    6.81
  12   1   5   36.73    6.61
  12   1   5   33.81    6.00
  12   1   6   12.85    3.44
  12  -1   6    8.57    3.08
  12   1   6    8.51    2.86
  12   1   7    2.67    2.25
  12  -1   7    2.69    2.76
  12   1   7    2.25    2.20
  12   1   8   22.40    5.11
  12  -1   8   20.69    5.21
  12   1   8   34.00    6.09
  12   1   9   24.34    5.21
  12  -1   9   42.04    7.03
  12   1   9   33.56    6.36
  12   1  10   34.92    6.26
  12   1  10   36.72    6.00
  12  -1  10   33.74    6.43
  12  -1  11   52.65    7.78
  12   1  11   42.41    7.49
  12   1  11   50.12    7.12
  12   1  12    5.64    2.69
  12  -1  12    8.99    3.69
  12   1  12    4.17    2.24
  12   1  13    3.43    2.48
  12  -1  13    5.69    3.21
  12   1  14    5.38    2.45
  12  -1  14   17.21    5.13
  12   1  15    6.94    3.39
  12  -1  15    3.84    1.84
  12   1  16    8.80    4.06
  12  -1  16    6.35    3.29
  12   1  17   28.63    6.42
  12  -1  17   21.62    6.89
  12   1  18   -0.86    1.96
  12  -1  18    1.40    2.03
  12   1  19    6.09    3.53
  12  -1  19    1.81    3.28
  12   1  20    2.46    2.19
  12  -1  20    1.03    2.78
  12   1  21    8.16    4.66
  12  -1  21    7.23    3.28
  12   1  22   13.71    4.59
  12  -1  22   22.75    6.76
  12   1  23    5.80    3.70
  12  -1  23    6.94    3.70
  12   1  24    5.90    4.59
  12   1  25    5.61    4.62
  12  -2 -24   38.26    8.15
  12  -2 -23    2.99    3.41
  12  -2 -22    8.21    3.40
  12  -2 -21   15.63    6.11
  12  -2 -20    5.46    1.63
  12  -2 -19   33.28    7.53
  12  -2 -17   47.75    8.04
  12  -2 -16   11.74    4.57
  12   2 -16   14.58    4.11
  12  -2 -15   32.44    6.57
  12   2 -15   25.25    6.44
  12  -2 -14   85.90   10.66
  12   2 -14   88.92   10.65
  12  -2 -14   65.63    9.04
  12   2 -13  136.51   13.48
  12  -2 -13  130.05   13.20
  12   2 -13  140.40   13.19
  12  -2 -13  146.66   13.57
  12   2 -12  122.16   12.09
  12  -2 -12   95.87   11.05
  12   2 -12   98.60   11.02
  12  -2 -12   98.46   11.18
  12  -2 -11   63.89    8.72
  12   2 -11   52.58    8.10
  12  -2 -11   55.18    8.63
  12   2 -11   60.67    8.81
  12  -2 -10   76.11    9.58
  12  -2 -10   66.95    9.23
  12   2 -10   71.22    8.80
  12   2 -10   67.94    8.83
  12  -2  -9  116.40   11.41
  12   2  -9  112.08   10.64
  12  -2  -9  128.03   12.45
  12   2  -9  115.78   11.23
  12   2  -9  104.72   11.14
  12  -2  -8  209.39   15.87
  12   2  -8  186.75   13.53
  12  -2  -8  204.19   15.76
  12   2  -8  219.23   15.42
  12   2  -8  207.52   15.62
  12  -2  -7   98.48   10.59
  12   2  -7   88.84    9.11
  12  -2  -7   86.47   10.56
  12   2  -7   85.76    9.76
  12   2  -7   77.01    9.47
  12  -2  -6   53.77    7.84
  12   2  -6   49.24    7.07
  12  -2  -6   51.13    8.49
  12   2  -6   62.84    8.32
  12   2  -6   53.48    8.05
  12  -2  -5  146.01   13.06
  12   2  -5  148.84   11.96
  12  -2  -5  123.67   12.38
  12   2  -5  125.56   11.88
  12   2  -5  134.40   12.33
  12  -2  -4  256.19   16.87
  12   2  -4  271.65   16.25
  12  -2  -4  248.79   17.52
  12   2  -4  283.72   17.61
  12   2  -4  262.96   17.02
  12  -2  -3   34.97    6.24
  12   2  -3   39.06    6.47
  12   2  -3   36.45    6.22
  12  -2  -3   32.22    6.37
  12   2  -3   38.65    6.64
  12  -2  -2  343.10   19.42
  12   2  -2  344.92   18.79
  12  -2  -2  310.23   19.66
  12   2  -2  316.61   18.51
  12   2  -2  341.32   19.07
  12  -2  -1  526.13   24.23
  12  -2  -1  497.86   24.41
  12   2  -1  527.20   22.90
  12   2  -1  523.44   23.93
  12   2  -1  520.15   23.60
  12  -2   0  247.31   16.51
  12  -2   0  222.14   16.32
  12   2   0  233.16   15.34
  12   2   0  229.10   15.94
  12   2   0  223.72   15.19
  12  -2   1  514.28   23.75
  12  -2   1  503.05   24.41
  12   2   1  517.14   23.29
  12   2   1  547.17   23.69
  12  -2   2  331.53   19.06
  12  -2   2  330.68   19.85
  12   2   2  314.32   18.36
  12   2   2  323.62   18.28
  12   2   3   32.57    6.09
  12  -2   3   31.85    6.07
  12  -2   3   38.20    7.04
  12   2   3   37.54    6.06
  12  -2   4  250.22   16.70
  12  -2   4  247.95   17.12
  12   2   4  246.98   16.39
  12   2   4  250.75   16.34
  12  -2   5  124.86   12.07
  12  -2   5  119.72   11.65
  12   2   5  137.44   12.23
  12   2   5  138.41   12.35
  12  -2   6   61.03    8.43
  12   2   6   58.64    8.20
  12   2   6   68.08    8.55
  12  -2   7   60.65    8.36
  12   2   7   78.69    9.43
  12   2   7   74.84    9.78
  12  -2   8  232.47   16.47
  12   2   8  214.70   15.15
  12   2   8  221.22   15.93
  12  -2   9  139.65   12.92
  12   2   9  112.58   11.03
  12   2   9  115.01   12.07
  12  -2  10   63.48    8.95
  12   2  10   59.69    7.85
  12   2  10   68.73    8.67
  12  -2  11   62.17    9.25
  12   2  11   60.26    8.25
  12   2  11   70.44    9.47
  12  -2  12  122.26   12.52
  12   2  12  122.89   11.66
  12   2  12  118.79   12.03
  12  -2  13  159.10   14.46
  12   2  13  126.87   11.84
  12   2  13  142.51   13.26
  12  -2  14   92.79   10.96
  12   2  14   88.35   10.83
  12   2  15   31.09    6.45
  12  -2  15   23.31    6.44
  12   2  16   28.31    6.52
  12  -2  16   23.39    6.34
  12  -2  17   48.73    8.94
  12   2  17   50.31    8.33
  12  -2  18   78.77   10.70
  12   2  18   75.37   10.61
  12   2  19   26.48    6.16
  12  -2  19   21.43    6.24
  12   2  20   21.70    6.65
  12  -2  20   27.44    6.72
  12   2  21   11.00    3.82
  12  -2  21   11.20    4.37
  12   2  22   20.31    5.84
  12  -2  22   13.45    5.09
  12   2  23    7.09    3.50
  12   2  24   39.85    7.46
  12  -3 -24    1.90    4.41
  12  -3 -23   15.52    5.17
  12  -3 -22   15.71    6.47
  12  -3 -21   15.05    5.38
  12  -3 -20   11.47    4.83
  12  -3 -19    3.58    3.71
  12   3 -19    0.19    2.35
  12  -3 -18   21.01    6.46
  12   3 -18   20.86    6.21
  12  -3 -17    7.49    3.05
  12   3 -17   13.87    5.45
  12  -3 -16    3.35    1.61
  12   3 -16    0.02    1.99
  12  -3 -15   -1.49    3.01
  12  -3 -15    4.06    3.05
  12   3 -15    2.03    2.14
  12  -3 -14    3.87    3.00
  12  -3 -14    8.91    4.31
  12   3 -14    6.35    3.33
  12  -3 -13    0.53    2.85
  12  -3 -13    2.52    4.06
  12   3 -13    2.41    2.24
  12   3 -12   78.75    9.79
  12  -3 -12   89.25   10.65
  12  -3 -11   46.07    8.17
  12   3 -11   42.65    7.36
  12  -3 -11   42.31    7.74
  12  -3 -10   51.77    8.96
  12   3 -10   45.05    7.61
  12  -3 -10   50.65    8.06
  12   3  -9   22.70    5.34
  12  -3  -9   18.32    5.19
  12  -3  -9   28.50    6.39
  12   3  -8   27.26    6.23
  12  -3  -8   22.52    5.29
  12  -3  -8   31.40    6.81
  12   3  -7   11.64    3.90
  12  -3  -7    9.84    3.12
  12  -3  -7    5.28    3.09
  12   3  -7    6.51    4.21
  12   3  -7    8.08    2.95
  12   3  -6   10.42    2.77
  12   3  -6    2.87    1.74
  12  -3  -6    8.44    3.38
  12  -3  -6    3.52    2.09
  12   3  -6    4.18    2.91
  12   3  -5   33.21    5.64
  12  -3  -5   33.50    6.11
  12  -3  -5   31.05    6.22
  12   3  -5   33.11    5.93
  12   3  -5   37.47    7.14
  12  -3  -4  176.60   14.81
  12  -3  -4  177.86   14.63
  12   3  -4  152.66   12.73
  12   3  -4  161.92   12.68
  12   3  -4  174.12   14.01
  12  -3  -3  334.98   19.84
  12  -3  -3  300.41   19.51
  12   3  -3  347.72   19.42
  12   3  -3  339.20   18.46
  12   3  -3  311.25   18.37
  12  -3  -2  167.04   13.83
  12  -3  -2  167.15   14.57
  12   3  -2  161.31   13.40
  12   3  -2  152.79   12.43
  12   3  -2  195.21   14.85
  12   3  -1   35.81    6.59
  12  -3  -1   36.66    6.58
  12   3  -1   37.20    6.55
  12  -3  -1   31.97    6.47
  12   3  -1   47.02    7.46
  12   3   0   19.48    4.09
  12   3   0   26.55    5.68
  12  -3   0   25.06    5.59
  12  -3   0   14.79    4.76
  12   3   0   22.42    5.61
  12  -3   1   35.16    6.73
  12   3   1   30.45    5.70
  12  -3   1   34.89    6.73
  12   3   1   47.55    7.63
  12  -3   2  158.51   13.75
  12  -3   2  156.97   13.87
  12   3   2  163.95   13.42
  12   3   2  152.82   13.10
  12  -3   3  338.60   19.85
  12  -3   3  315.25   19.74
  12   3   3  350.52   19.58
  12   3   3  335.40   19.23
  12   3   4  175.27   14.54
  12  -3   4  176.54   14.30
  12  -3   4  184.32   15.28
  12   3   4  180.12   14.03
  12   3   5   35.99    6.89
  12  -3   5   31.77    6.32
  12  -3   5   28.90    5.32
  12   3   5   38.38    6.49
  12   3   6    9.97    4.04
  12   3   6    7.16    3.10
  12  -3   6    3.63    2.43
  12  -3   6   13.39    4.45
  12   3   7    6.11    3.20
  12   3   7    5.40    2.18
  12  -3   7    6.74    3.49
  12  -3   7    4.14    2.18
  12   3   8   36.73    6.38
  12   3   8   15.84    4.04
  12  -3   8   27.44    5.57
  12   3   9   26.38    5.81
  12   3   9   19.60    5.01
  12  -3   9   24.59    5.85
  12   3  10   49.86    7.99
  12  -3  10   51.21    7.95
  12   3  10   52.39    8.07
  12   3  11   49.20    7.53
  12  -3  11   46.52    7.79
  12   3  11   43.10    7.43
  12   3  12   70.18    9.61
  12  -3  12   82.82   10.48
  12   3  12   91.26   10.04
  12   3  13   -0.68    2.02
  12   3  13   -0.19    1.76
  12  -3  13   -0.55    1.78
  12   3  14    6.06    3.46
  12  -3  14    8.96    4.24
  12   3  15   -1.97    2.24
  12  -3  15    1.79    2.86
  12   3  16    6.88    3.45
  12  -3  16    0.13    2.62
  12   3  17    7.84    4.06
  12  -3  17    1.36    1.63
  12   3  18   12.25    4.13
  12  -3  18   22.81    5.71
  12   3  19    4.33    2.93
  12  -3  19    0.01    3.41
  12   3  20   11.74    5.30
  12  -3  20    6.92    4.34
  12   3  21    5.87    3.34
  12  -3  21    5.55    2.98
  12   3  22   13.51    5.34
  12   3  23   15.68    4.96
  12   3  24    7.94    5.19
  12  -4 -23   48.90    9.35
  12  -4 -22   51.74    9.39
  12  -4 -21   28.65    7.05
  12  -4 -20   18.85    5.53
  12  -4 -19   15.95    5.58
  12   4 -19    5.81    2.07
  12  -4 -18   18.14    6.03
  12   4 -18   24.42    6.41
  12  -4 -17   10.22    5.05
  12   4 -17   14.01    4.42
  12  -4 -16   18.45    5.07
  12   4 -16   13.35    5.48
  12  -4 -16   16.12    5.00
  12  -4 -15   12.80    4.65
  12  -4 -15   12.36    5.77
  12   4 -15   12.39    4.84
  12  -4 -14   32.19    6.99
  12  -4 -14   38.05    7.68
  12   4 -14   47.79    8.32
  12  -4 -13   28.21    6.88
  12  -4 -13   48.68    8.42
  12   4 -13   51.60    8.11
  12   4 -12    6.64    3.78
  12  -4 -12    2.07    1.84
  12  -4 -12    0.93    1.66
  12   4 -11    9.92    3.27
  12  -4 -11    9.21    2.96
  12  -4 -11    2.62    2.94
  12   4 -10   24.70    5.34
  12  -4 -10   28.54    5.86
  12  -4 -10   33.89    7.27
  12  -4  -9   77.34    9.81
  12   4  -9   79.70   10.08
  12  -4  -9   67.18    9.94
  12  -4  -8  207.82   16.39
  12   4  -8  215.95   16.47
  12  -4  -8  237.82   17.54
  12  -4  -7  172.81   15.46
  12   4  -7  184.34   15.18
  12  -4  -6   61.92    8.82
  12  -4  -6   71.11    9.70
  12   4  -6   72.63    8.77
  12   4  -6   60.82    8.91
  12  -4  -5  150.41   13.79
  12  -4  -5  171.57   15.26
  12   4  -5  145.66   12.06
  12   4  -5  174.98   14.54
  12  -4  -4  381.01   21.97
  12  -4  -4  430.48   23.39
  12   4  -4  375.89   20.24
  12   4  -4  416.02   22.32
  12  -4  -3  243.59   17.69
  12  -4  -3  252.78   18.57
  12   4  -3  230.55   15.55
  12   4  -3  247.45   16.97
  12  -4  -2  360.27   21.50
  12  -4  -2  318.79   20.41
  12   4  -2  334.29   19.21
  12   4  -2  330.23   19.94
  12   4  -1  157.91   13.55
  12  -4  -1  153.56   13.66
  12  -4  -1  140.79   13.47
  12   4  -1  151.18   12.74
  12   4  -1  133.75   12.61
  12   4   0   27.40    5.85
  12  -4   0   24.12    5.38
  12   4   0   26.87    5.79
  12  -4   0   31.27    6.56
  12   4   1  150.62   13.09
  12  -4   1  114.94   12.16
  12  -4   1  142.84   13.55
  12   4   1  119.40   11.61
  12   4   2  324.72   19.32
  12  -4   2  329.39   19.98
  12  -4   2  343.07   21.00
  12   4   2  362.98   20.73
  12   4   3  233.16   16.43
  12  -4   3  245.71   17.90
  12  -4   3  255.62   18.15
  12   4   3  249.33   17.36
  12   4   4  395.70   21.57
  12  -4   4  404.68   22.24
  12  -4   4  428.23   23.41
  12   4   4  370.60   21.27
  12   4   5  171.80   14.13
  12   4   5  145.69   13.31
  12  -4   5  159.80   14.17
  12  -4   5  176.42   15.12
  12   4   6   60.87    8.32
  12   4   6   68.93    9.25
  12  -4   6   72.91    9.86
  12  -4   6   75.01    9.90
  12   4   7  206.24   15.79
  12   4   7  206.15   15.65
  12  -4   7  209.51   16.38
  12  -4   7  221.82   17.63
  12   4   8  221.80   16.33
  12   4   8  221.75   16.50
  12  -4   8  239.43   17.35
  12  -4   8  215.93   17.11
  12   4   9   64.72    9.41
  12   4   9   67.82    9.49
  12  -4   9   82.01   10.30
  12  -4   9   83.02   10.72
  12   4  10   32.68    6.72
  12  -4  10   27.64    6.13
  12   4  10   26.21    5.50
  12  -4  10   26.73    6.82
  12   4  11   14.20    4.81
  12  -4  11   10.14    3.73
  12   4  11    6.02    1.96
  12   4  12    3.93    3.47
  12  -4  12   -0.76    3.25
  12   4  12   -1.12    1.46
  12   4  13   43.87    8.16
  12  -4  13   33.02    6.49
  12   4  13   54.17    8.37
  12   4  14   26.58    5.57
  12   4  14   50.31    8.13
  12  -4  14   40.95    7.89
  12  -4  15   14.36    5.19
  12   4  15   16.62    4.32
  12  -4  16   13.81    5.17
  12   4  16    9.33    3.77
  12  -4  17   14.50    5.40
  12   4  17   20.75    5.24
  12  -4  18   15.39    5.04
  12   4  18   18.02    5.60
  12  -4  19   13.63    4.36
  12   4  19    4.60    2.56
  12  -4  20   18.16    5.93
  12   4  20   18.33    5.58
  12   4  21   13.96    4.31
  12   4  22   57.42   10.23
  12   4  23   45.17    8.91
  12  -5 -21    5.96    2.33
  12  -5 -20    3.19    3.77
  12  -5 -19    8.62    3.60
  12   5 -19   24.82    7.52
  12  -5 -18    3.62    4.00
  12   5 -18    0.85    3.63
  12  -5 -17   15.51    5.28
  12  -5 -17    2.20    2.08
  12   5 -17   10.51    4.21
  12  -5 -16    5.88    3.69
  12  -5 -16    2.85    3.67
  12   5 -16    5.42    3.42
  12   5 -15    1.09    1.65
  12  -5 -15    1.84    3.66
  12  -5 -15   -0.87    1.95
  12  -5 -14    2.06    2.45
  12   5 -14    1.20    1.96
  12  -5 -14    0.81    2.56
  12  -5 -13   18.64    5.27
  12   5 -13   11.68    4.82
  12  -5 -13   15.50    5.04
  12   5 -12    9.83    3.20
  12  -5 -12   14.56    4.59
  12  -5 -12   11.42    4.26
  12   5 -11    4.91    4.22
  12  -5 -11    7.90    3.59
  12  -5 -11    9.67    5.32
  12   5 -10   26.22    6.06
  12  -5 -10   27.60    6.34
  12   5  -9   19.10    4.68
  12  -5  -9   14.65    5.01
  12  -5  -9   13.29    4.75
  12   5  -8    4.97    3.18
  12  -5  -8    5.01    3.06
  12  -5  -8    1.15    2.00
  12   5  -7    4.31    2.29
  12  -5  -7   11.03    4.48
  12  -5  -7   14.74    4.71
  12   5  -6    1.47    2.47
  12  -5  -6    5.30    4.28
  12  -5  -6    0.63    2.03
  12   5  -5   -1.97    2.94
  12  -5  -5    0.43    1.50
  12   5  -5    1.98    1.23
  12  -5  -5    0.38    2.65
  12   5  -4    2.34    1.88
  12  -5  -4    1.19    4.17
  12   5  -4    0.85    1.81
  12  -5  -4    1.36    2.16
  12   5  -3   30.74    6.74
  12  -5  -3   28.04    6.26
  12   5  -3   20.22    5.36
  12  -5  -3   18.46    4.41
  12   5  -2   75.61    9.23
  12  -5  -2   49.51    8.18
  12   5  -2   68.83    8.72
  12  -5  -2   79.08   10.48
  12   5  -1   47.86    8.26
  12  -5  -1   44.31    7.90
  12   5  -1   48.84    7.48
  12  -5  -1   32.18    6.63
  12   5   0   17.10    4.06
  12  -5   0   18.98    5.44
  12   5   0   16.12    4.44
  12  -5   0   13.72    4.96
  12   5   1   36.04    7.00
  12  -5   1   26.68    5.77
  12   5   1   24.15    5.24
  12  -5   1   45.03    8.73
  12   5   2   60.67    8.83
  12  -5   2   64.08    9.50
  12  -5   2   53.75    8.75
  12   5   3   32.46    6.55
  12  -5   3   25.49    6.61
  12   5   3   14.38    4.50
  12  -5   3   23.22    6.07
  12   5   4    0.98    1.58
  12  -5   4   -0.83    1.49
  12   5   4    3.78    1.32
  12  -5   4    2.17    2.65
  12   5   5    1.97    2.38
  12  -5   5    1.41    2.83
  12   5   5    1.03    1.29
  12  -5   5   -0.94    2.13
  12   5   6   -0.55    2.13
  12  -5   6   -2.04    2.68
  12   5   6   -0.96    1.40
  12  -5   6    5.39    4.31
  12   5   7   11.08    3.80
  12  -5   7    7.03    3.41
  12   5   7    9.05    3.86
  12  -5   7   11.36    5.24
  12   5   8    4.02    3.83
  12  -5   8    4.30    3.46
  12   5   8    3.71    1.90
  12  -5   8    0.62    1.79
  12   5   9   20.08    5.46
  12  -5   9   18.36    5.21
  12   5   9   10.85    4.02
  12  -5   9   12.19    5.11
  12   5  10   29.63    6.64
  12  -5  10   35.50    6.88
  12   5  10   24.60    5.67
  12  -5  10   25.26    6.52
  12   5  11   16.34    4.52
  12  -5  11   11.17    4.37
  12   5  11   18.71    5.79
  12  -5  11   12.28    5.62
  12   5  12    5.50    3.09
  12  -5  12   17.74    4.89
  12   5  12    8.77    3.73
  12  -5  12    9.50    4.48
  12   5  13   13.82    3.80
  12  -5  13   10.90    4.30
  12   5  13   21.43    6.06
  12  -5  13   22.84    5.72
  12   5  14   -0.24    2.03
  12  -5  14    4.30    2.87
  12   5  14    3.02    2.80
  12  -5  14    2.59    4.33
  12  -5  15    2.55    2.86
  12   5  15   -0.01    1.80
  12  -5  16    2.37    3.09
  12   5  16    2.11    2.56
  12  -5  17    5.29    2.69
  12   5  17    7.71    4.24
  12  -5  18    3.34    2.76
  12   5  18    8.11    4.70
  12   5  19    6.07    2.11
  12   5  20    4.03    3.11
  12   5  21    3.07    3.71
  12  -6 -19   26.89    6.83
  12  -6 -18   -0.51    2.86
  12  -6 -18    2.86    2.97
  12   6 -18    0.16    2.16
  12   6 -17   33.61    7.36
  12  -6 -17   48.91    9.59
  12  -6 -17   29.57    8.05
  12   6 -16   14.12    4.49
  12  -6 -16   28.81    7.44
  12  -6 -16   19.05    6.86
  12   6 -15    7.02    2.68
  12  -6 -15    9.67    4.54
  12  -6 -15   17.95    6.33
  12  -6 -14   70.23   10.15
  12  -6 -14   58.98    9.40
  12   6 -14   87.20   11.39
  12  -6 -13  105.72   12.64
  12  -6 -13   84.18   11.89
  12   6 -13  100.03   12.08
  12  -6 -12    6.92    3.12
  12   6 -12    6.22    3.32
  12  -6 -12   12.70    4.87
  12  -6 -11   30.80    6.62
  12   6 -11   42.94    7.56
  12  -6 -11   31.39    6.48
  12  -6 -10   58.54    9.56
  12  -6 -10   58.97    9.57
  12   6 -10   57.71    8.56
  12  -6  -9   18.35    5.39
  12   6  -9   20.00    6.39
  12  -6  -9   19.09    6.40
  12  -6  -8  169.80   15.53
  12  -6  -8  138.64   13.89
  12   6  -8  127.93   13.21
  12  -6  -7  151.67   14.79
  12  -6  -7  160.63   14.89
  12   6  -7  182.15   15.66
  12   6  -6   28.72    7.06
  12  -6  -6   28.80    6.24
  12  -6  -6   24.51    5.71
  12   6  -5   38.42    7.35
  12  -6  -5   40.16    7.39
  12  -6  -5   42.25    7.93
  12   6  -4  102.02   11.78
  12   6  -4  126.94   13.15
  12  -6  -4   94.96   11.83
  12  -6  -4  103.85   12.17
  12   6  -3  159.33   14.33
  12   6  -3  149.29   14.14
  12  -6  -3  156.20   14.74
  12  -6  -3  173.85   15.70
  12   6  -2  171.33   15.06
  12   6  -2  160.86   14.24
  12  -6  -2  150.95   15.30
  12  -6  -2  146.25   14.40
  12   6  -1   36.64    7.14
  12   6  -1   42.43    7.33
  12  -6  -1   32.28    6.39
  12  -6  -1   41.24    8.07
  12   6   0    1.43    1.73
  12  -6   0   -4.29    2.36
  12  -6   0   -2.78    2.43
  12   6   0    1.30    2.27
  12   6   1   31.16    7.22
  12   6   1   38.99    7.07
  12  -6   1   21.16    6.06
  12  -6   1   35.29    6.93
  12  -6   2  129.33   13.52
  12   6   2  136.28   13.56
  12   6   2  150.99   13.94
  12  -6   2  138.65   14.56
  12   6   3  144.97   13.80
  12  -6   3  144.88   14.11
  12   6   3  136.94   13.52
  12  -6   3  141.91   14.54
  12   6   4   97.02   11.36
  12  -6   4  118.32   12.32
  12   6   4  115.50   12.10
  12  -6   4  107.34   12.40
  12   6   5   64.02    9.58
  12  -6   5   44.59    8.06
  12  -6   5   44.16    7.72
  12   6   5   40.07    7.20
  12   6   6   37.02    7.46
  12  -6   6   33.22    7.11
  12   6   6   47.86    8.38
  12  -6   6   34.68    7.60
  12   6   7  164.37   14.96
  12  -6   7  162.17   15.38
  12   6   7  186.59   15.59
  12  -6   7  157.86   15.27
  12   6   8  129.92   13.22
  12  -6   8  129.30   13.52
  12   6   8  108.14   11.71
  12  -6   8  123.70   13.90
  12   6   9   23.58    5.75
  12  -6   9   27.38    6.81
  12  -6   9   28.14    6.37
  12   6   9   20.59    5.05
  12   6  10   60.53    9.34
  12  -6  10   58.23    9.78
  12   6  10   60.32    9.30
  12  -6  10   51.29    9.31
  12   6  11   50.94    8.87
  12  -6  11   28.55    6.58
  12  -6  11   28.72    6.56
  12   6  11   35.22    7.07
  12   6  12    7.05    4.28
  12  -6  12    4.83    3.65
  12  -6  12   10.50    3.88
  12   6  12    4.75    3.50
  12   6  13   84.22   11.30
  12  -6  13   81.52   11.90
  12   6  13   82.54   10.91
  12  -6  13   87.38   11.34
  12  -6  14   60.60   10.29
  12   6  14   46.94    8.80
  12   6  14   67.27    9.95
  12  -6  14   50.60    8.97
  12   6  15    1.89    2.49
  12  -6  15   12.79    4.46
  12  -6  15   10.68    5.16
  12   6  15    5.00    2.44
  12   6  16   42.90    8.20
  12  -6  16   33.62    7.54
  12  -6  16   35.17    8.37
  12  -6  17   41.26    8.49
  12   6  17   38.96    8.22
  12  -6  17   38.62    8.60
  12   6  18    4.84    2.98
  12  -6  18    0.62    2.61
  12   6  19   22.14    6.35
  12  -6  19   29.30    7.68
  12   7 -17    6.86    4.45
  12  -7 -17    4.55    3.18
  12  -7 -17   -0.19    3.51
  12   7 -16    7.65    3.98
  12  -7 -16   -1.04    4.07
  12  -7 -16    3.19    2.09
  12   7 -15   31.34    7.46
  12  -7 -15   50.43    9.23
  12  -7 -15   41.83    8.70
  12   7 -14    5.41    3.99
  12  -7 -14    6.91    5.17
  12  -7 -14    4.01    3.41
  12   7 -13   15.26    4.86
  12  -7 -13   19.38    5.77
  12  -7 -13   25.30    6.08
  12   7 -12   15.41    6.01
  12  -7 -12   15.92    4.74
  12  -7 -12   10.35    3.21
  12   7 -11    0.28    2.75
  12  -7 -11    0.90    2.42
  12  -7 -11   -1.09    2.43
  12  -7 -10   30.23    7.05
  12   7 -10   20.78    5.59
  12  -7 -10   32.60    7.24
  12  -7  -9   60.85    8.99
  12  -7  -9   62.41   10.13
  12   7  -9   66.72   10.06
  12  -7  -8   11.55    4.67
  12   7  -8    2.61    2.63
  12  -7  -8    9.42    4.17
  12  -7  -7   13.47    4.78
  12   7  -7   22.50    5.91
  12  -7  -7   25.04    6.23
  12  -7  -6    4.86    3.52
  12   7  -6    0.12    2.01
  12  -7  -6    6.38    3.75
  12  -7  -5    2.11    1.69
  12   7  -5    7.86    4.10
  12  -7  -5    3.75    3.71
  12   7  -4   41.14    7.79
  12  -7  -4   40.16    7.75
  12  -7  -4   38.89    7.79
  12  -7  -3   16.02    5.63
  12   7  -3   16.76    4.58
  12  -7  -3    7.35    4.74
  12  -7  -2   24.37    5.83
  12   7  -2   30.19    6.77
  12  -7  -2   18.84    5.28
  12   7  -2   19.66    6.04
  12   7  -1   44.96    7.33
  12  -7  -1   35.67    7.51
  12   7  -1   39.56    7.80
  12  -7  -1   43.06    8.66
  12   7   0   17.95    5.44
  12  -7   0   16.77    5.82
  12  -7   0   19.78    6.55
  12   7   0   20.41    5.63
  12   7   1   46.63    8.65
  12   7   1   47.30    7.93
  12  -7   1   25.27    5.47
  12  -7   1   40.05    8.24
  12   7   2   22.77    6.14
  12  -7   2   18.42    5.57
  12  -7   2   18.27    4.95
  12   7   2   20.46    5.33
  12   7   3   13.40    4.28
  12  -7   3   12.98    4.58
  12  -7   3   12.15    5.42
  12   7   3   11.24    3.77
  12   7   4   30.29    6.83
  12   7   4   48.96    8.02
  12  -7   4   39.10    9.00
  12  -7   4   49.33    9.33
  12   7   5    6.74    3.75
  12   7   5    7.72    4.02
  12  -7   5    3.69    4.73
  12  -7   5   -0.46    2.76
  12   7   6    2.11    2.71
  12   7   6    4.21    3.07
  12  -7   6    3.41    2.62
  12  -7   6    4.16    3.94
  12   7   7   30.61    7.31
  12   7   7   20.13    6.57
  12  -7   7   18.54    4.91
  12  -7   7   28.97    7.99
  12   7   8    9.80    3.68
  12   7   8   13.05    4.90
  12  -7   8   10.60    4.22
  12  -7   8   -0.90    3.96
  12  -7   9   77.74   11.04
  12   7   9   39.30    7.58
  12   7   9   64.73    9.90
  12  -7   9   45.31    8.48
  12   7  10   14.68    4.95
  12   7  10   21.56    5.70
  12  -7  10   13.78    5.00
  12  -7  10   21.21    5.05
  12   7  11   -1.06    3.08
  12   7  11    0.14    1.76
  12  -7  11   -3.69    4.32
  12  -7  11    4.02    3.40
  12   7  12   14.66    4.97
  12   7  12   15.53    6.01
  12  -7  12    8.85    4.69
  12  -7  12   14.10    4.56
  12   7  13   11.35    3.36
  12   7  13   17.53    6.22
  12  -7  13   21.75    5.94
  12  -7  13   17.97    6.52
  12   7  14    8.06    4.22
  12   7  14    4.88    4.58
  12  -7  14    1.60    2.37
  12  -7  14    8.02    5.52
  12   7  15   39.07    8.57
  12  -7  15   37.90    9.43
  12   7  15   39.98    7.40
  12  -7  16    0.63    3.23
  12   7  16    4.51    3.87
  12   7  17   10.94    4.55
  12   8 -13   39.24    7.98
  12  -8 -13   33.82    7.34
  12  -8 -13   23.76    7.13
  12   8 -12   26.32    6.75
  12  -8 -12   42.38    8.59
  12   8 -11    2.17    2.48
  12  -8 -11    6.64    3.62
  12  -8 -11    5.11    3.61
  12   8 -10    9.68    4.43
  12  -8 -10   19.92    6.31
  12  -8 -10   14.06    5.11
  12   8  -9   24.23    6.18
  12  -8  -9   20.42    4.88
  12  -8  -9   21.29    5.27
  12   8  -8   15.42    5.52
  12  -8  -8   21.17    7.17
  12  -8  -8   17.07    4.91
  12   8  -7   46.42    8.56
  12  -8  -7   59.82   10.27
  12  -8  -7   50.78    9.32
  12  -8  -6   18.52    5.10
  12   8  -6   15.38    5.20
  12  -8  -6   23.81    6.74
  12  -8  -5   -1.21    2.42
  12   8  -5    2.85    2.68
 -12   8  -5    6.43    2.91
  12  -8  -5    0.48    3.53
  12  -8  -4    9.72    3.51
  12   8  -4   15.93    5.28
 -12   8  -4    7.17    3.80
  12  -8  -4   14.04    4.38
  12   8  -3   64.85   10.43
 -12   8  -3   50.38    8.71
  12  -8  -3   48.13    8.63
  12  -8  -3   54.11    9.62
  12  -8  -2   25.37    6.27
  12   8  -2   21.35    5.09
 -12   8  -2   19.78    5.78
  12  -8  -2   17.17    3.87
  12  -8  -1    1.47    3.29
  12   8  -1    3.39    3.55
  12  -8  -1    1.75    3.37
  12   8  -1    6.10    4.17
  12  -8   0    3.72    3.06
  12   8   0    1.05    2.56
  12  -8   0    5.38    4.45
  12   8   0    3.42    2.21
  12  -8   1    5.54    2.61
  12   8   1    4.95    2.83
  12  -8   1    1.42    2.46
  12   8   1    5.00    2.99
  12   8   2   23.15    6.04
  12  -8   2   30.07    6.99
  12   8   2   19.74    5.50
  12  -8   2   12.88    5.35
  12   8   3   43.18    8.03
  12   8   3   56.12    9.50
  12  -8   3   39.29    8.61
  12  -8   3   56.61    9.72
  12   8   4    6.38    2.98
  12  -8   4   10.99    5.22
  12   8   4   13.74    4.81
  12  -8   4   13.79    6.15
  12   8   5    9.54    3.02
  12  -8   5    3.30    2.26
  12   8   5    5.90    2.91
  12  -8   5    7.30    4.64
  12   8   6   21.95    6.18
  12  -8   6   20.34    5.67
  12   8   6   16.04    5.98
  12  -8   6   23.90    6.85
  12  -8   7   38.18    8.42
  12   8   7   44.06    8.18
  12   8   7   45.44    8.11
  12  -8   7   36.26    8.14
  12   8   8   12.99    4.37
  12  -8   8   30.04    7.01
  12   8   8   24.77    6.53
  12  -8   8   18.02    6.59
  12   8   9   23.39    6.42
  12  -8   9   33.85    7.77
  12   8   9   18.55    6.18
  12   8  10   18.80    5.75
  12  -8  10    8.52    4.90
  12   8  10   15.27    5.50
  12   8  11   13.41    4.85
  12  -8  11   12.80    5.35
  12   8  11    6.55    4.87
  12   8  12   31.08    7.40
  12  -8  12   43.75    8.51
  12   8  12   44.53    8.97
  12   8  13   44.13    9.01
  12  -8  13   33.45    7.54
  12   8  13   42.88    8.99
  12   9  -8   -2.69    2.80
  12  -9  -8    4.09    3.71
  12  -9  -8    2.87    3.12
  12   9  -7    4.45    2.70
  12  -9  -7    8.73    3.53
  12  -9  -7   -1.56    2.15
  12   9  -6   11.88    4.99
  12  -9  -6    6.23    4.17
  12  -9  -6    0.04    2.32
  12   9  -5    8.30    3.12
  12  -9  -5    7.55    4.74
  12  -9  -5    6.47    3.70
  12   9  -4    4.05    3.45
 -12   9  -4    3.19    4.72
  12  -9  -4    4.89    4.24
  12  -9  -4   -1.04    2.71
  12  -9  -3   22.98    6.18
  12   9  -3   34.96    7.98
 -12   9  -3   36.19    8.90
  12  -9  -3   24.71    7.19
  12  -9  -2    5.09    4.18
  12   9  -2   -0.37    2.45
 -12   9  -2    2.26    2.43
  12  -9  -2   -1.00    2.60
  12  -9  -1   12.29    5.51
  12   9  -1    8.96    4.91
 -12   9  -1    4.09    1.86
  12  -9  -1    2.89    2.29
  12  -9   0   -2.91    3.78
  12   9   0    0.96    2.95
 -12   9   0    4.65    3.58
  12  -9   0    5.99    4.70
  12   9   1    8.77    4.52
  12  -9   1    5.75    2.24
  12   9   1   14.04    5.76
 -12   9   1    9.63    5.29
  12  -9   1   10.34    4.86
  12  -9   2    0.20    1.90
  12   9   2   -4.14    4.32
  12   9   2    2.94    2.61
 -12   9   2   -1.69    1.92
  12  -9   2    0.95    4.36
  12  -9   3   14.73    4.42
  12   9   3   30.26    7.61
  12   9   3   25.74    6.29
 -12   9   3   19.26    4.37
  12  -9   4    2.22    1.81
  12   9   4    2.97    3.68
  12   9   4    5.97    4.63
 -12   9   4   -3.72    3.22
  12  -9   5    0.46    2.12
  12   9   5   13.68    4.78
  12   9   5   10.24    5.42
 -12   9   5    6.55    3.99
  12  -9   6    0.24    2.31
  12   9   6   -0.52    3.35
  12   9   6   -1.19    2.94
 -12   9   6    3.64    3.24
  12  -9   7    1.10    2.41
  12   9   7    3.66    3.00
  12   9   7    7.59    3.51
 -12   9   7   -0.20    2.58
  12  -9   8    8.76    4.95
  12   9   8    1.90    2.65
  12   9   8    5.48    5.02
 -12   9   8    6.30    3.67
  13   0 -22    0.04    4.02
  13   0 -21   -1.87    3.41
  13   0 -20    0.62    3.51
  13   0 -19    0.96    3.41
  13   0 -18    2.59    3.76
  13   0 -17   -4.99    3.69
  13   0 -16    1.04    2.03
  13   0 -15    1.02    2.91
  13   0 -14    1.15    2.42
  13   0 -13    0.36    2.44
  13   0 -12    0.86    2.28
  13   0 -11   -0.77    1.32
  13   0 -11   -0.06    2.23
  13   0 -10    0.67    1.72
  13   0 -10    0.04    2.64
  13   0  -9    0.59    2.18
  13   0  -9    0.11    1.62
  13   0  -8   -0.31    1.34
  13   0  -8    0.96    2.88
  13   0  -7   -1.36    2.44
  13   0  -7    2.01    2.39
  13   0  -6    0.60    2.85
  13   0  -6    1.57    2.38
  13   0  -5   -1.17    1.52
  13   0  -5   -0.41    1.39
  13   0  -4   -1.93    2.48
  13   0  -4   -1.63    2.32
  13   0  -3   -0.95    2.01
  13   0  -3   -0.25    2.11
  13   0  -3    2.34    2.94
  13   0  -2    0.33    1.50
  13   0  -2    1.60    2.95
  13   0  -2   -1.49    2.55
  13   0  -1    0.39    1.31
  13   0  -1    1.32    3.50
  13   0  -1    0.47    2.20
  13   0   0   -0.02    1.70
  13   0   0    1.52    3.87
  13   0   0   -0.47    1.70
  13   0   1   -0.45    2.80
  13   0   1   -0.69    2.29
  13   0   1    0.15    1.58
  13   0   2    0.04    2.48
  13   0   2    0.48    1.96
  13   0   2   -1.38    2.59
  13   0   3   -0.75    1.65
  13   0   3   -1.26    2.15
  13   0   3    1.92    1.54
  13   0   4    2.31    2.69
  13   0   4   -0.47    1.80
  13   0   5    0.70    1.78
  13   0   5   -0.17    1.61
  13   0   6    3.24    2.74
  13   0   6   -0.65    1.99
  13   0   7   -0.01    1.48
  13   0   7    3.08    2.12
  13   0   8    0.92    1.26
  13   0   8   -0.66    2.34
  13   0   9    0.82    3.04
  13   0   9   -0.01    2.29
  13   0  10   -2.58    2.89
  13   0  11    0.70    2.06
  13   0  12    0.16    3.20
  13   0  13   -0.03    2.05
  13   0  14    0.52    1.95
  13   0  15    1.75    2.54
  13   0  16    0.70    2.78
  13   0  17    1.16    1.72
  13   0  18   -2.58    3.48
  13   0  19   -1.07    1.85
  13   0  20    2.84    3.63
  13   0  21   -0.64    3.13
  13   0  22   -2.85    3.80
  13   0  23    2.85    3.81
  13   0  24   -4.46    4.88
  13  -1 -24    2.67    4.53
  13  -1 -23    2.31    3.35
  13  -1 -22    4.90    2.73
  13  -1 -21   72.73   10.13
  13  -1 -20   79.10   11.09
  13  -1 -19    8.49    4.40
  13  -1 -18    5.55    4.07
  13   1 -17   27.57    7.13
  13  -1 -17   28.95    6.35
  13   1 -16  108.12   12.38
  13  -1 -16  127.73   13.83
  13   1 -15   48.37    8.16
  13  -1 -15   62.00    9.40
  13   1 -14   98.04   10.87
  13  -1 -14  118.08   12.52
  13   1 -13    7.85    3.51
  13  -1 -13   13.95    3.97
  13  -1 -12   52.74    8.55
  13   1 -12   63.71    8.90
  13  -1 -12   59.04    8.87
  13  -1 -11   11.05    3.98
  13  -1 -11    9.89    4.05
  13   1 -11    9.06    3.69
  13   1 -11    8.09    3.23
  13  -1 -10  149.19   13.41
  13   1 -10  132.84   12.66
  13  -1 -10  121.32   12.77
  13   1 -10  128.89   12.87
  13   1 -10  130.08   12.42
  13  -1  -9  118.66   12.08
  13   1  -9  149.65   12.79
  13  -1  -9  133.81   13.34
  13   1  -9  125.50   12.59
  13   1  -9  140.36   12.97
  13  -1  -8   11.96    3.83
  13   1  -8   21.32    4.81
  13  -1  -8   15.25    4.47
  13   1  -8   16.10    4.60
  13   1  -8   19.49    5.34
  13  -1  -7   46.59    7.74
  13   1  -7   39.89    6.96
  13   1  -7   38.06    7.07
  13  -1  -7   31.96    6.74
  13   1  -7   42.86    7.00
  13  -1  -6   62.11    8.69
  13   1  -6   45.21    7.05
  13  -1  -6   76.02    9.94
  13   1  -6   57.58    8.06
  13   1  -6   69.68    9.14
  13  -1  -5  326.94   19.09
  13   1  -5  315.84   18.77
  13  -1  -5  347.78   20.98
  13   1  -5  363.40   21.14
  13   1  -5  357.85   20.20
  13  -1  -4   64.30    8.80
  13   1  -4   44.00    7.04
  13  -1  -4   52.66    8.33
  13   1  -4   55.23    8.04
  13   1  -4   45.21    7.52
  13  -1  -3   91.76   10.28
  13   1  -3   91.77    9.86
  13  -1  -3   87.24   10.64
  13   1  -3   96.16   10.62
  13   1  -3   92.32   10.16
  13  -1  -2  137.19   12.49
  13   1  -2  138.27   12.49
  13  -1  -2  152.17   13.67
  13   1  -2  155.20   13.58
  13   1  -2  143.35   12.62
  13  -1  -1   80.13    9.85
  13   1  -1   78.35    9.30
  13  -1  -1   98.51   10.65
  13   1  -1   87.00   10.02
  13   1  -1   85.73    9.44
  13  -1   0 1269.83   38.05
  13   1   0 1213.79   36.58
  13  -1   0 1189.75   38.33
  13   1   0 1261.76   38.90
  13   1   0 1173.63   35.87
  13  -1   1   97.29   10.40
  13   1   1   85.16    9.64
  13  -1   1   81.77   10.38
  13   1   1   92.59   10.32
  13   1   1   92.77   10.21
  13  -1   2  156.33   13.58
  13   1   2  153.58   13.12
  13  -1   2  145.54   13.53
  13   1   2  153.11   13.50
  13   1   2  142.48   12.13
  13  -1   3   91.98   10.69
  13   1   3   88.20    9.90
  13  -1   3   69.93    9.84
  13   1   3   85.65    9.53
  13  -1   4   43.62    7.17
  13   1   4   49.25    7.65
  13  -1   4   58.79    8.65
  13   1   4   43.23    6.70
  13  -1   5  330.40   19.68
  13   1   5  350.98   19.91
  13   1   5  339.12   18.83
  13  -1   6   54.06    7.97
  13   1   6   54.38    8.10
  13   1   6   53.56    7.77
  13  -1   7   39.55    7.12
  13   1   7   41.61    6.99
  13   1   7   25.58    5.50
  13   1   8   16.46    4.14
  13  -1   8   20.42    4.84
  13   1   8   14.42    4.18
  13  -1   9  155.38   13.87
  13   1   9  142.86   13.07
  13   1   9  145.20   12.42
  13  -1  10  131.16   12.95
  13   1  10  145.32   13.59
  13   1  10  137.00   12.16
  13   1  11    6.87    3.19
  13  -1  11    9.26    3.94
  13   1  11    6.28    3.60
  13  -1  12   70.76    9.15
  13   1  12   80.49   10.24
  13   1  12   76.42    9.54
  13   1  13   12.51    4.20
  13  -1  13   15.71    4.36
  13  -1  14   98.49   11.77
  13   1  14   94.30   11.43
  13  -1  15   53.18    9.13
  13   1  15   45.43    8.05
  13  -1  16  129.48   13.41
  13   1  16  108.81   12.70
  13   1  17   16.38    5.30
  13  -1  17   20.36    5.51
  13   1  18    0.90    2.46
  13  -1  18   -0.81    2.91
  13   1  19    7.50    4.07
  13  -1  19    8.85    2.99
  13  -1  20   96.88   12.10
  13   1  20   71.94   10.59
  13  -1  21   65.20   10.62
  13   1  21   68.38   10.31
  13   1  22    9.27    4.42
  13  -1  22   19.15    6.47
  13   1  23    8.09    5.86
  13  -1  23    2.69    3.62
  13   1  24    6.03    4.68
  13  -1  24   -1.43    4.09
  13  -2 -23    7.81    4.29
  13  -2 -22    4.57    2.32
  13  -2 -21    9.35    4.72
  13  -2 -20    6.30    3.98
  13  -2 -19    1.42    1.92
  13  -2 -18   16.00    4.57
  13  -2 -17   59.61    8.96
  13  -2 -16   10.01    3.52
  13  -2 -15    7.67    4.25
  13   2 -15    4.13    3.11
  13  -2 -14    7.36    3.24
  13   2 -14    1.10    2.09
  13  -2 -13    5.05    3.97
  13  -2 -13   12.50    4.61
  13   2 -13    5.41    3.61
  13  -2 -12   53.34    8.17
  13   2 -12   51.91    8.56
  13  -2 -12   34.01    6.30
  13   2 -12   53.64    8.20
  13  -2 -11  171.95   14.96
  13   2 -11  158.10   13.98
  13  -2 -11  209.45   16.91
  13   2 -11  191.96   15.39
  13  -2 -10    9.01    4.13
  13  -2 -10    8.82    3.18
  13   2 -10    7.14    3.35
  13   2 -10    9.82    3.75
  13  -2  -9   10.43    3.90
  13  -2  -9   12.36    4.39
  13   2  -9   17.76    5.09
  13   2  -9    6.18    3.53
  13  -2  -8   52.40    8.51
  13   2  -8   49.12    7.34
  13  -2  -8   50.45    8.73
  13   2  -8   54.67    8.23
  13   2  -8   59.66    8.34
  13  -2  -7   43.74    7.12
  13   2  -7   35.00    6.36
  13  -2  -7   36.63    6.69
  13   2  -7   37.86    6.80
  13   2  -7   34.03    6.14
  13  -2  -6    6.14    2.33
  13  -2  -6    2.39    1.57
  13   2  -6    4.22    2.58
  13   2  -6    9.94    4.14
  13   2  -6    3.58    2.28
  13  -2  -5    0.55    2.08
  13  -2  -5    0.12    1.82
  13   2  -5    5.39    3.48
  13   2  -5    2.12    2.73
  13   2  -5    5.04    3.07
  13  -2  -4   18.50    4.51
  13  -2  -4   12.69    4.52
  13   2  -4    8.43    3.64
  13   2  -4   20.53    5.22
  13   2  -4   10.35    3.75
  13  -2  -3   77.47    9.60
  13   2  -3  106.99   10.68
  13  -2  -3   95.09   11.02
  13   2  -3   83.50    9.91
  13   2  -3   85.87   10.04
  13  -2  -2   32.59    6.33
  13   2  -2   40.56    6.81
  13   2  -2   50.36    7.81
  13  -2  -2   38.12    7.07
  13   2  -2   38.63    6.84
  13  -2  -1   42.62    7.38
  13   2  -1   59.67    8.12
  13  -2  -1   66.09    9.27
  13   2  -1   49.76    8.19
  13   2  -1   55.56    7.98
  13  -2   0  503.01   24.47
  13   2   0  568.77   25.01
  13  -2   0  556.97   26.62
  13   2   0  510.13   24.54
  13   2   0  549.26   24.89
  13   2   1   34.69    6.71
  13  -2   1   42.46    7.43
  13   2   1   42.00    6.39
  13  -2   1   40.36    7.78
  13   2   1   56.13    8.21
  13   2   2   31.52    6.01
  13  -2   2   43.52    7.18
  13  -2   2   32.11    6.39
  13   2   2   43.02    6.99
  13  -2   3   77.18    9.77
  13  -2   3   89.41   10.48
  13   2   3   92.92   10.20
  13   2   3   82.57    9.73
  13   2   4   21.34    5.40
  13   2   4   18.53    4.76
  13  -2   4   19.82    5.52
  13  -2   4   15.99    5.51
  13   2   5    0.64    2.71
  13   2   5   -1.80    2.03
  13  -2   5    0.67    1.31
  13  -2   5   -0.10    2.08
  13   2   6    7.45    2.15
  13   2   6    4.28    1.96
  13  -2   6   -0.29    1.52
  13  -2   6    5.30    3.51
  13   2   7   29.31    5.29
  13   2   7   35.15    6.01
  13  -2   7   40.04    6.89
  13  -2   8   66.97    9.43
  13   2   8   64.47    8.50
  13   2   8   60.70    8.06
  13   2   9   10.23    2.92
  13   2   9    8.98    4.17
  13  -2   9   13.09    3.50
  13   2  10    7.99    3.34
  13   2  10   17.39    5.82
  13  -2  10   10.18    4.19
  13  -2  11  180.43   15.62
  13   2  11  189.05   15.79
  13   2  11  173.52   14.50
  13   2  12   42.53    7.22
  13  -2  12   47.14    7.70
  13   2  12   62.67    9.43
  13   2  13   11.28    4.48
  13  -2  13    9.45    4.54
  13   2  14    4.22    1.62
  13  -2  14    9.21    4.25
  13   2  15    6.17    4.09
  13  -2  15   11.05    4.68
  13   2  16   10.64    4.71
  13  -2  16    6.99    3.38
  13  -2  17   56.56    9.22
  13   2  17   59.71    9.37
  13   2  18    2.05    1.67
  13  -2  18    5.52    3.59
  13   2  19   -4.03    2.83
  13  -2  19    0.33    2.80
  13   2  20    5.90    3.16
  13  -2  20    1.05    3.06
  13   2  21   18.14    5.28
  13  -2  21   15.43    5.76
  13   2  22   12.74    5.00
  13  -2  22    8.64    4.94
  13   2  23   18.60    4.78
  13  -3 -22   59.36    9.95
  13  -3 -21   12.63    5.15
  13  -3 -20   23.67    6.26
  13  -3 -19   23.09    6.34
  13  -3 -18   14.69    5.97
  13   3 -18    2.19    2.57
  13  -3 -17   13.00    4.02
  13   3 -17   19.28    5.59
  13  -3 -16  206.72   17.75
  13   3 -16  240.50   18.35
  13  -3 -15   43.61    7.98
  13   3 -15   24.64    5.41
  13  -3 -14  117.17   13.02
  13   3 -14  110.97   12.39
  13  -3 -14  103.71   12.39
  13  -3 -13   40.95    7.65
  13  -3 -13   36.12    7.47
  13   3 -13   57.76    9.65
  13  -3 -12  141.71   14.01
  13   3 -12  175.46   15.01
  13  -3 -12  149.27   14.34
  13  -3 -11    7.29    3.94
  13  -3 -11   10.15    3.78
  13   3 -11   18.10    5.17
  13  -3 -10  344.15   21.31
  13  -3 -10  349.35   21.62
  13   3 -10  331.54   20.84
  13  -3  -9   36.44    7.24
  13  -3  -9   33.18    6.32
  13   3  -9   41.66    7.95
  13  -3  -8   63.50    9.27
  13  -3  -8   57.90    8.33
  13   3  -8   49.76    8.28
  13   3  -7   29.01    6.00
  13  -3  -7   37.78    7.38
  13  -3  -7   25.37    6.07
  13   3  -7   30.88    5.50
  13  -3  -6   75.57    9.58
  13   3  -6   94.47   10.10
  13  -3  -6   73.00   10.39
  13   3  -6   74.38    9.82
  13   3  -6   75.82    9.53
  13   3  -5    7.33    2.80
  13   3  -5    8.17    2.85
  13  -3  -5    4.36    2.42
  13   3  -5    2.85    2.02
  13  -3  -4  266.47   18.23
  13  -3  -4  244.84   17.87
  13   3  -4  258.40   16.83
  13   3  -4  227.52   16.50
  13   3  -4  265.45   18.04
  13   3  -3   37.92    6.61
  13  -3  -3   55.28    8.38
  13  -3  -3   42.16    7.66
  13   3  -3   38.80    7.10
  13   3  -3   38.93    6.48
  13   3  -2    3.01    2.54
  13   3  -2    3.74    2.54
  13  -3  -2    3.47    2.30
  13  -3  -2    2.18    1.57
  13   3  -2    2.13    2.21
  13   3  -1   16.63    5.00
  13   3  -1   22.58    5.04
  13  -3  -1   14.55    4.31
  13  -3  -1   16.89    4.43
  13   3  -1   17.13    4.22
  13  -3   0  109.71   11.44
  13  -3   0   90.31   11.43
  13   3   0   89.68   10.28
  13   3   0  119.09   11.67
  13   3   0  120.81   12.15
  13   3   1   19.90    5.40
  13   3   1   13.69    3.42
  13  -3   1   20.00    5.01
  13  -3   1   19.86    5.91
  13   3   2    1.14    1.89
  13   3   2    1.98    1.87
  13  -3   2    4.34    2.88
  13  -3   2    8.06    2.05
  13  -3   3   41.82    7.07
  13  -3   3   45.36    7.22
  13   3   3   44.76    7.51
  13   3   3   43.85    6.92
  13  -3   4  256.58   17.77
  13  -3   4  232.29   17.67
  13   3   4  249.61   17.07
  13   3   4  262.83   17.69
  13   3   5    4.64    3.17
  13   3   5   11.16    3.53
  13  -3   5    8.54    4.26
  13  -3   5   16.56    4.42
  13  -3   6   74.97   10.12
  13  -3   6   47.61    7.51
  13   3   6   52.21    8.06
  13   3   6   63.16    8.60
  13  -3   7   41.16    7.47
  13   3   7   31.68    6.21
  13  -3   7   29.54    7.07
  13   3   7   45.41    7.85
  13  -3   8   47.54    7.95
  13  -3   8   51.02    8.53
  13   3   8   59.73    8.61
  13   3   8   47.96    7.72
  13   3   9   40.98    6.90
  13  -3   9   47.16    7.69
  13   3   9   35.16    6.70
  13   3  10  338.53   21.42
  13  -3  10  304.27   19.95
  13   3  10  301.60   19.30
  13   3  11   16.97    4.04
  13   3  11    5.71    2.97
  13  -3  11   20.12    5.32
  13  -3  12  170.60   14.90
  13   3  12  182.54   15.09
  13   3  13   46.08    8.44
  13  -3  13   39.32    7.46
  13   3  13   59.83    8.35
  13   3  14  146.31   14.23
  13  -3  14  123.26   13.51
  13   3  15   29.88    6.82
  13  -3  15   35.86    6.71
  13  -3  16  236.18   18.58
  13   3  16  249.87   18.63
  13   3  17   16.48    4.80
  13  -3  17   23.37    5.61
  13   3  18   18.32    6.63
  13  -3  18   17.89    6.21
  13   3  19   10.42    3.64
  13  -3  19    9.58    5.45
  13   3  20   20.72    6.00
  13  -3  20   29.75    7.41
  13   3  21   15.61    4.85
  13  -3  21   18.84    7.00
  13   3  22   49.16    8.81
  13  -4 -21   21.68    5.73
  13  -4 -20    7.88    4.54
  13   4 -20   14.82    7.41
  13  -4 -19   25.48    6.99
  13   4 -19   19.24    6.21
  13  -4 -18    2.20    3.55
  13   4 -18   -3.16    3.98
  13  -4 -17   23.19    6.46
  13   4 -17   14.26    5.01
  13  -4 -16    4.37    3.02
  13   4 -16   10.94    4.85
  13  -4 -15   25.32    6.24
  13  -4 -15   13.19    5.34
  13   4 -15   14.62    4.89
  13  -4 -14    9.57    4.47
  13  -4 -14    4.97    2.80
  13   4 -14    7.88    4.17
  13  -4 -13   -2.90    2.84
  13  -4 -13    2.30    1.81
  13   4 -13    1.78    1.83
  13  -4 -12   13.82    4.64
  13  -4 -12    8.33    3.94
  13   4 -12   12.79    4.53
  13   4 -11   -0.17    1.37
  13  -4 -11   -0.80    1.57
  13  -4 -11    0.28    2.52
  13   4 -10    5.53    4.50
  13  -4 -10    3.85    2.33
  13  -4 -10   10.46    4.24
  13  -4  -9  143.07   13.95
  13   4  -9  174.95   15.41
  13  -4  -9  154.81   14.72
  13   4  -8    0.64    2.38
  13  -4  -8    1.79    2.26
  13  -4  -8    1.06    1.79
  13   4  -7    7.95    3.79
  13  -4  -7    1.84    2.72
  13  -4  -7    2.66    1.53
  13  -4  -6   80.95   10.39
  13  -4  -6  107.56   12.65
  13   4  -6   91.59   10.02
  13   4  -6   80.76   10.29
  13   4  -5    3.19    2.06
  13   4  -5    7.57    3.47
  13  -4  -5    6.38    3.73
  13  -4  -5   -0.94    1.94
  13   4  -4   27.51    6.56
  13   4  -4   16.98    4.76
  13  -4  -4   28.78    6.56
  13  -4  -4   34.15    7.68
  13   4  -3   11.92    4.01
  13   4  -3    8.11    2.98
  13  -4  -3   11.62    3.96
  13  -4  -3    8.24    3.17
  13  -4  -2  137.29   13.57
  13  -4  -2  161.77   14.42
  13   4  -2  145.24   12.90
  13   4  -2  136.43   13.26
  13  -4  -1   80.51   10.15
  13  -4  -1   96.26   11.70
  13   4  -1   88.55   10.15
  13   4  -1  110.37   11.55
  13   4   0    5.63    4.26
  13  -4   0    1.14    1.39
  13   4   0   -3.00    2.15
  13  -4   0   -0.16    2.05
  13   4   0    1.22    2.50
  13  -4   1  112.48   12.32
  13  -4   1   85.68   11.06
  13   4   1   83.47   10.30
  13   4   1  102.52   11.49
  13   4   2  144.44   13.56
  13  -4   2  155.24   14.08
  13  -4   2  184.77   15.71
  13   4   2  133.27   13.05
  13   4   3    7.88    3.99
  13  -4   3    0.41    1.62
  13   4   3    2.43    1.83
  13  -4   3    5.72    3.79
  13   4   4   20.04    5.25
  13  -4   4   35.25    7.22
  13   4   4   20.46    5.09
  13  -4   4   23.80    5.20
  13   4   5    8.79    4.27
  13  -4   5    7.35    3.99
  13   4   5    6.20    3.23
  13  -4   5    5.68    2.36
  13   4   6  111.81   11.76
  13  -4   6   87.80   10.77
  13  -4   6  123.36   13.54
  13   4   6   82.32   10.31
  13   4   7   10.40    3.06
  13  -4   7    9.16    4.19
  13   4   7    3.11    2.66
  13   4   8    5.04    2.78
  13  -4   8    6.11    4.05
  13   4   8    2.66    2.20
  13  -4   8    2.54    3.98
  13   4   9  182.43   15.41
  13  -4   9  180.65   15.74
  13  -4   9  174.42   15.58
  13   4   9  171.51   14.85
  13   4  10    8.14    4.38
  13  -4  10    7.11    3.24
  13   4  10    7.32    3.52
  13  -4  10    4.60    3.01
  13   4  11   -0.90    2.06
  13  -4  11    1.58    2.66
  13   4  11    0.57    2.62
  13  -4  11    0.66    2.65
  13   4  12    9.57    3.53
  13  -4  12    6.73    3.58
  13   4  12    8.57    4.92
  13   4  13   -0.10    1.94
  13  -4  13    2.76    3.13
  13   4  13    2.84    1.94
  13  -4  14    5.10    3.49
  13   4  14    2.80    1.75
  13  -4  15   20.75    5.26
  13   4  15   19.87    5.45
  13  -4  16    1.78    3.48
  13   4  16    5.72    3.60
  13  -4  17   24.75    7.20
  13   4  17   22.53    5.71
  13  -4  18    1.63    2.93
  13   4  18   -3.14    3.00
  13  -4  19   23.01    5.86
  13   4  19   26.27    6.54
  13   4  20   -3.12    2.20
  13  -4  20   -0.64    2.92
  13   4  21   17.92    6.66
  13  -5 -20   30.75    7.85
  13  -5 -19    1.22    1.99
  13   5 -19    1.70    2.19
  13  -5 -18    8.37    4.32
  13   5 -18   10.86    5.22
  13  -5 -17   16.08    5.50
  13  -5 -17    6.66    5.23
  13   5 -17   25.07    6.37
  13  -5 -16   28.14    7.02
  13  -5 -16   32.47    7.92
  13   5 -16   23.07    5.52
  13  -5 -15   13.15    5.09
  13  -5 -15   19.95    6.62
  13   5 -15    8.35    4.44
  13   5 -14   25.85    6.09
  13  -5 -14   25.17    5.65
  13  -5 -14   29.19    6.03
  13   5 -13   10.79    4.72
  13  -5 -13   11.12    5.07
  13  -5 -13    7.78    4.60
  13   5 -12   22.83    5.85
  13  -5 -12    9.34    3.48
  13  -5 -12   18.75    5.79
  13  -5 -11   72.21   10.39
  13  -5 -11   82.27   11.29
  13   5 -11   74.57   10.12
  13   5 -10   30.29    7.09
  13  -5 -10   28.37    6.54
  13  -5 -10   32.81    7.88
  13   5  -9    7.05    3.58
  13  -5  -9   -0.20    2.72
  13  -5  -9    6.82    2.18
  13   5  -8   15.95    5.07
  13  -5  -8    9.99    3.52
  13  -5  -8    2.81    2.74
  13  -5  -7   47.07    8.36
  13   5  -7   38.54    7.56
  13  -5  -7   39.13    7.86
  13  -5  -6   80.01   10.47
  13   5  -6  100.58   11.53
  13  -5  -6   95.35   11.26
  13  -5  -5   29.24    6.20
  13  -5  -5   27.40    7.12
  13   5  -5   37.45    7.57
  13  -5  -4   85.90   11.03
  13  -5  -4   92.99   11.74
  13   5  -4   71.36    9.29
  13   5  -4   87.92   10.85
  13  -5  -3   58.43    9.20
  13  -5  -3   65.50    9.45
  13   5  -3   68.51    9.31
  13   5  -3   72.90    9.89
  13  -5  -2  193.24   15.94
  13  -5  -2  166.18   15.60
  13   5  -2  199.61   16.29
  13   5  -2  198.60   15.62
  13   5  -1  158.89   14.55
  13  -5  -1  121.76   13.21
  13  -5  -1  139.28   14.37
  13   5  -1  156.71   13.98
  13   5   0   14.77    4.39
  13  -5   0   16.16    3.67
  13   5   0   10.11    3.74
  13  -5   0   19.30    5.82
  13   5   1  143.24   13.48
  13  -5   1  171.82   15.42
  13  -5   1  160.78   15.11
  13   5   1  125.09   12.96
  13   5   2  211.55   16.37
  13  -5   2  174.27   15.68
  13  -5   2  165.77   15.85
  13   5   2  200.69   15.96
  13   5   3   70.29    9.95
  13   5   3   60.29    9.08
  13  -5   3   55.37    8.85
  13  -5   3   77.73   10.77
  13   5   4  107.50   11.87
  13  -5   4   80.36   10.66
  13   5   4   76.02    9.91
  13  -5   4   98.27   12.19
  13   5   5   29.60    6.29
  13  -5   5   34.97    7.80
  13   5   5   28.88    6.69
  13  -5   5   28.62    6.89
  13   5   6   97.79   11.37
  13  -5   6   88.93   10.96
  13   5   6  107.16   11.76
  13  -5   6  118.70   13.49
  13   5   7   46.28    7.97
  13  -5   7   47.07    8.62
  13   5   7   49.76    7.96
  13  -5   7   41.58    7.12
  13   5   8    4.59    3.12
  13  -5   8    4.32    1.98
  13   5   8    8.54    3.52
  13  -5   8    6.29    3.78
  13   5   9    3.95    2.01
  13  -5   9    6.96    3.28
  13   5   9    1.72    2.12
  13  -5   9   -3.10    3.46
  13   5  10   35.80    7.37
  13  -5  10   33.83    6.97
  13   5  10   20.78    4.91
  13  -5  10   34.50    7.99
  13   5  11   83.27   10.70
  13   5  11   70.82   10.07
  13  -5  11   83.21   10.64
  13  -5  11   73.03   10.75
  13   5  12   22.51    6.14
  13  -5  12   16.90    5.74
  13   5  12   26.31    6.11
  13  -5  12   22.27    7.15
  13   5  13    4.14    2.75
  13  -5  13    8.82    3.90
  13   5  13    3.54    2.09
  13  -5  13    7.80    3.48
  13   5  14   18.03    5.33
  13  -5  14   29.28    6.70
  13   5  14   29.02    6.90
  13  -5  14   22.18    6.63
  13  -5  15    6.78    4.73
  13   5  15   16.30    4.50
  13  -5  15    6.04    3.04
  13  -5  16   19.55    5.58
  13   5  16   19.77    5.65
  13  -5  17   17.40    5.51
  13   5  17   20.24    5.06
  13  -5  18   11.80    5.75
  13   5  18   14.87    5.64
  13  -5  19    5.87    4.04
  13   5  19   12.61    5.26
  13   5  20   36.61    8.03
  13  -6 -18    1.69    3.43
  13   6 -18    1.90    2.68
  13  -6 -17    3.13    2.86
  13  -6 -17    2.68    3.39
  13   6 -17    3.35    3.76
  13   6 -16   -2.77    2.90
  13  -6 -16   -2.43    3.69
  13  -6 -16    0.27    2.05
  13   6 -15    3.60    3.08
  13  -6 -15    0.28    2.00
  13  -6 -15    1.57    3.29
  13   6 -14    8.29    3.68
  13  -6 -14    6.48    4.09
  13  -6 -14   -0.62    2.11
  13   6 -13    3.18    1.93
  13  -6 -13    4.01    3.94
  13  -6 -12    2.05    3.28
  13   6 -12    1.02    2.97
  13  -6 -12    2.87    3.86
  13  -6 -11    8.18    5.12
  13  -6 -11    3.25    2.37
  13   6 -10    0.65    1.63
  13  -6 -10   10.57    4.74
  13  -6 -10    5.99    2.93
  13   6  -9   -0.78    2.03
  13  -6  -9    2.88    3.74
  13  -6  -9    5.14    3.80
  13   6  -8    7.66    3.35
  13  -6  -8    6.45    4.21
  13  -6  -8    4.89    3.58
  13   6  -7    5.29    4.14
  13  -6  -7   12.10    5.34
  13  -6  -7    8.20    4.06
  13   6  -6    7.14    4.35
  13  -6  -6    5.22    4.72
  13  -6  -6    2.21    2.10
  13   6  -5    1.93    2.41
  13  -6  -5    0.40    2.73
  13  -6  -5    0.55    2.30
  13   6  -4   -3.15    2.98
  13  -6  -4    0.50    2.69
  13  -6  -4    2.91    3.81
  13   6  -3   14.49    4.35
  13  -6  -3    9.57    3.98
  13   6  -3   11.89    4.36
  13  -6  -3   12.24    3.90
  13   6  -2   10.29    3.72
  13  -6  -2   15.27    5.87
  13   6  -2   13.69    4.38
  13  -6  -2   15.01    4.73
  13   6  -1   11.74    4.08
  13  -6  -1   11.98    5.94
  13   6  -1    8.48    4.15
  13  -6  -1   10.34    3.19
  13   6   0    1.50    1.98
  13  -6   0   -1.91    2.75
  13   6   0   -3.37    3.23
  13  -6   0   -2.61    3.71
  13   6   1   22.02    6.28
  13  -6   1   16.66    4.84
  13   6   1   20.69    6.17
  13  -6   1   16.45    4.69
  13   6   2   17.05    4.62
  13  -6   2    7.18    4.84
  13   6   2   15.42    4.55
  13  -6   2   21.68    6.02
  13   6   3   17.09    4.81
  13  -6   3    8.92    3.90
  13   6   3   11.40    3.77
  13  -6   3   20.42    5.01
  13   6   4   -2.56    3.12
  13  -6   4    2.80    3.54
  13   6   4    1.73    3.00
  13  -6   4    1.94    3.96
  13   6   5    2.85    3.34
  13  -6   5    0.95    1.60
  13   6   5   -1.16    3.02
  13  -6   5   -3.54    4.11
  13   6   6   12.45    3.18
  13  -6   6    3.63    2.44
  13   6   6    2.55    3.55
  13  -6   6    7.89    4.78
  13   6   7    5.21    2.25
  13  -6   7    4.28    2.37
  13   6   7    0.01    2.04
  13  -6   7    0.15    3.41
  13   6   8    9.13    4.08
  13  -6   8    7.52    4.64
  13   6   8   -0.55    1.94
  13  -6   8    8.43    3.32
  13   6   9    2.69    3.19
  13  -6   9    2.01    3.38
  13   6   9    3.71    1.30
  13  -6   9    9.16    4.63
  13   6  10    9.36    4.04
  13  -6  10    8.09    3.92
  13   6  10    2.71    2.64
  13  -6  10    3.68    2.80
  13   6  11   11.51    4.50
  13  -6  11    5.39    4.05
  13   6  11   13.55    4.94
  13  -6  11    9.69    3.85
  13   6  12    4.73    3.67
  13  -6  12   -2.62    3.32
  13   6  12    3.17    3.19
  13  -6  12    2.03    2.10
  13  -6  13    2.20    2.09
  13   6  13    6.70    3.03
  13  -6  13    1.15    2.14
  13   6  14    6.96    3.63
  13  -6  14    6.15    4.07
  13   6  14   10.21    4.76
  13  -6  14    6.79    5.16
  13  -6  15   -0.70    2.46
  13   6  15    0.66    1.70
  13  -6  16    1.82    3.08
  13   6  16   -2.34    2.35
  13  -6  16   -2.77    5.16
  13  -6  17   -0.49    2.80
  13   6  17    0.55    2.64
  13  -6  17    0.93    3.42
  13   6  18    3.53    2.55
  13  -6  18   -3.33    2.84
  13   7 -15    6.72    5.00
  13  -7 -15    9.26    3.25
  13  -7 -15   -0.86    3.26
  13   7 -14   12.03    4.32
  13  -7 -14    5.26    2.96
  13  -7 -14    8.76    3.87
  13   7 -13    7.30    4.52
  13  -7 -13    3.35    2.60
  13  -7 -13    3.79    3.81
  13   7 -12    9.43    4.82
  13  -7 -12    7.00    3.26
  13  -7 -12   16.40    5.20
  13   7 -11   15.86    5.36
  13  -7 -11    8.63    4.29
  13  -7 -11   17.17    4.89
  13  -7 -10   65.14    9.80
  13  -7 -10   61.31    9.87
  13   7 -10   71.45   10.89
  13  -7  -9    4.54    2.45
  13  -7  -9   12.50    4.72
  13  -7  -8   15.69    5.32
  13   7  -8   20.47    5.51
  13  -7  -8   17.64    5.39
  13  -7  -7   13.65    4.93
  13   7  -7   21.34    5.61
  13  -7  -7   19.13    6.03
  13  -7  -6   44.94    8.23
  13  -7  -6   64.13   10.07
  13   7  -6   69.82   10.40
  13  -7  -5   12.98    4.96
  13   7  -5    9.73    3.49
  13  -7  -5    7.48    3.92
  13   7  -4   41.66    7.82
  13  -7  -4   28.30    6.13
  13  -7  -4   41.15    7.67
  13   7  -3   20.68    5.81
  13  -7  -3   17.50    5.35
  13  -7  -3    8.73    3.40
  13   7  -2   17.44    5.88
  13  -7  -2   29.14    6.55
  13   7  -2   33.77    8.20
  13  -7  -2   37.20    7.87
  13   7  -1   12.82    3.93
  13  -7  -1   22.76    6.05
  13   7  -1   12.65    3.90
  13  -7  -1   27.95    7.25
  13   7   0    5.11    2.64
  13  -7   0    8.65    4.64
  13  -7   0    2.96    2.75
  13   7   0    9.10    4.01
  13   7   1   23.47    6.61
  13  -7   1    9.42    3.80
  13  -7   1   19.82    5.86
  13   7   1   15.02    4.65
  13   7   2   32.38    7.27
  13  -7   2   24.84    6.41
  13  -7   2   32.41    7.46
  13   7   2   33.11    6.86
  13   7   3   17.77    5.85
  13  -7   3   17.68    5.05
  13  -7   3   18.30    6.31
  13   7   3   22.42    6.11
  13   7   4   35.26    7.13
  13  -7   4   36.67    7.68
  13  -7   4   28.16    7.17
  13   7   4   41.43    7.71
  13   7   5    0.32    3.59
  13  -7   5    7.95    4.33
  13  -7   5    5.85    2.38
  13   7   5   12.81    4.49
  13  -7   6   55.61    9.72
  13   7   6   48.34    8.84
  13   7   6   65.33    9.67
  13  -7   6   50.79    9.37
  13   7   7   16.26    4.53
  13  -7   7   14.94    6.16
  13  -7   7   17.92    5.16
  13   7   7   10.78    3.21
  13   7   8   13.11    4.39
  13  -7   8   22.41    5.72
  13  -7   8   10.91    4.29
  13   7   8   15.66    4.11
  13   7   9   13.40    4.66
  13  -7   9   16.77    5.76
  13  -7   9   15.78    4.87
  13   7   9   15.35    4.43
  13  -7  10   78.89   10.91
  13   7  10   79.54   10.99
  13   7  10   71.02   10.14
  13  -7  10   73.21   11.77
  13   7  11   23.63    6.18
  13  -7  11   19.29    6.41
  13  -7  11   13.49    5.25
  13   7  11    3.85    2.12
  13   7  12    3.77    2.38
  13  -7  12    7.36    3.25
  13  -7  12    4.19    2.52
  13   7  12   11.07    5.39
  13   7  13   12.97    4.69
  13  -7  13    5.20    4.01
  13  -7  13    6.58    3.95
  13   7  13    2.63    2.18
  13   7  14   10.63    4.12
  13  -7  14   13.85    5.72
  13  -7  14   27.68    7.50
  13   7  14   17.13    4.54
  13  -7  15   16.39    5.62
  13   7  15    5.77    3.17
  13   8 -11   12.53    5.62
  13  -8 -11    3.83    4.14
  13  -8 -11    7.76    3.36
  13   8 -10    3.00    3.02
  13  -8 -10   -2.30    2.80
  13  -8 -10   -0.04    2.73
  13   8  -9   11.49    4.69
  13  -8  -9    8.65    5.65
  13  -8  -9   -0.86    2.79
  13  -8  -8    6.11    4.04
  13   8  -8   -1.43    3.01
  13  -8  -8    5.33    3.22
  13   8  -7   10.06    4.07
  13  -8  -7    5.71    2.03
  13  -8  -6    6.16    3.96
  13   8  -6    6.53    5.36
  13  -8  -6    7.57    4.08
  13  -8  -5    2.03    3.84
  13  -8  -5    3.99    2.20
  13  -8  -4    0.96    2.33
  13   8  -4    2.26    4.08
 -13   8  -4   -0.55    3.63
  13  -8  -4    1.37    2.98
  13  -8  -3    0.66    3.99
  13   8  -3    4.14    3.71
  13  -8  -3    2.70    2.48
  13   8  -2   -0.30    2.40
  13  -8  -2    3.30    2.47
  13  -8  -1    1.63    2.20
  13   8  -1    1.99    2.83
  13  -8  -1   -1.85    2.46
  13  -8   0    0.90    3.48
  13   8   0   -0.29    2.49
  13  -8   0    4.01    4.84
  13   8   0    1.35    1.81
  13  -8   1    4.32    4.38
  13   8   1    0.19    2.94
  13  -8   1    0.68    2.40
  13   8   1    2.79    3.36
  13  -8   2    1.76    3.07
  13   8   2    5.56    4.48
  13  -8   2    2.35    2.53
  13   8   2    0.35    2.40
  13  -8   3    6.42    4.78
  13   8   3    8.96    4.00
  13  -8   3    7.40    4.72
  13   8   3    2.13    1.65
  13  -8   4    3.97    2.61
  13   8   4   -1.80    1.94
  13  -8   4   -0.12    3.70
  13   8   4    1.77    2.27
  13  -8   5    9.36    3.44
  13   8   5    5.28    2.45
  13  -8   5    1.26    2.32
  13   8   5    7.69    3.70
  13   8   6    3.66    2.26
  13  -8   6    5.96    2.35
  13  -8   6    1.37    2.53
  13   8   6    4.04    4.00
  13   8   7    8.00    3.64
  13  -8   7    4.25    3.07
  13  -8   7    1.28    3.92
  13   8   7   13.28    5.90
  13   8   8   10.26    3.57
  13  -8   8    9.75    5.00
  13  -8   8    1.72    2.67
  13   8   8    6.30    3.53
  13   8   9    3.96    2.84
  13  -8   9    5.32    3.11
  13  -8   9   11.45    6.47
  13   8   9    5.42    4.05
  13   8  10   -0.18    2.76
  13  -8  10    2.07    4.74
  13   8  10   -0.71    2.13
  13   8  11   10.33    5.33
  13  -8  11    5.90    4.48
  13   8  11    8.49    3.73
  13  -9  -3   -2.13    4.77
  13   9  -3   12.08    4.45
 -13   9  -3    6.92    2.48
  13  -9  -3    8.16    4.87
  13  -9  -2    2.58    3.95
  13   9  -2    8.60    3.59
 -13   9  -2    7.13    4.80
  13  -9  -2   -2.61    4.51
  13  -9  -1    4.20    3.12
  13   9  -1    1.59    2.45
 -13   9  -1    5.11    4.68
  13  -9  -1    6.81    3.61
  13  -9   0   23.24    5.92
  13   9   0   19.44    5.76
 -13   9   0   21.08    6.30
  13  -9   0   21.00    7.49
  13  -9   1    6.34    3.20
  13   9   1    2.52    2.41
 -13   9   1    0.04    2.75
  13  -9   1    0.79    2.70
  13  -9   2    1.81    1.83
  13   9   2    7.48    3.95
 -13   9   2    7.82    4.89
  13  -9   2    6.07    5.50
  13   9   2   -2.26    3.56
  13  -9   3   -3.63    4.58
  13   9   3    5.13    5.08
 -13   9   3   12.12    5.10
  13  -9   3    6.29    3.82
  13   9   3    1.98    3.53
  14   0 -20   29.93    6.99
  14   0 -19   10.18    4.57
  14   0 -18    3.53    4.05
  14   0 -17    4.25    4.22
  14   0 -16   76.89   11.22
  14   0 -15   13.75    4.67
  14   0 -14   40.28    7.88
  14   0 -13   88.87   11.22
  14   0 -12  142.98   14.01
  14   0 -11   14.42    3.82
  14   0 -10  154.61   14.04
  14   0 -10  157.90   14.35
  14   0  -9   18.38    4.84
  14   0  -9   18.21    5.29
  14   0  -8   25.70    5.98
  14   0  -8   17.77    4.91
  14   0  -7  194.22   15.51
  14   0  -7  185.25   16.22
  14   0  -6  265.54   17.96
  14   0  -6  273.90   19.18
  14   0  -5  136.76   12.95
  14   0  -5  130.46   13.29
  14   0  -4  227.13   16.36
  14   0  -4  200.83   16.40
  14   0  -3   94.35   10.70
  14   0  -3  114.71   12.54
  14   0  -2   54.10    8.02
  14   0  -2   67.38    9.52
  14   0  -1   98.47   11.07
  14   0  -1   95.19   10.41
  14   0   0  183.64   14.60
  14   0   0  152.77   14.10
  14   0   0  171.05   14.17
  14   0   1  126.98   12.43
  14   0   1  100.87   11.45
  14   0   1  115.95   11.67
  14   0   2   64.45    9.14
  14   0   2   73.69   10.39
  14   0   2   86.45   10.05
  14   0   3  101.36   11.71
  14   0   3  111.07   12.49
  14   0   3  102.77   11.19
  14   0   4  234.31   16.99
  14   0   4  215.81   16.86
  14   0   4  192.54   15.00
  14   0   5  136.98   13.16
  14   0   5  143.23   12.97
  14   0   6  263.01   18.26
  14   0   6  289.71   18.37
  14   0   7  192.20   15.95
  14   0   8   30.63    5.88
  14   0   9   13.75    4.07
  14   0  10  165.01   14.31
  14   0  11   11.93    4.11
  14   0  12  154.79   14.39
  14   0  13   85.17   11.29
  14   0  14   31.23    7.14
  14   0  15   24.38    6.44
  14   0  16   63.17   10.19
  14   0  17    8.53    3.72
  14   0  18    0.33    2.71
  14   0  19    4.95    3.36
  14   0  20   37.31    7.64
  14   0  21   59.94   10.25
  14   0  22   29.90    7.22
  14  -1 -22    2.85    3.47
  14  -1 -21    2.02    4.00
  14  -1 -20    1.89    1.94
  14  -1 -19    5.12    2.17
  14  -1 -18   15.05    5.32
  14  -1 -17    0.96    2.07
  14   1 -16   17.21    6.92
  14  -1 -16   -3.09    2.84
  14   1 -15   23.26    5.69
  14  -1 -15   11.31    5.36
  14   1 -14   -0.19    2.73
  14  -1 -14    0.99    3.11
  14   1 -13    0.42    2.01
  14  -1 -13   -1.03    2.62
  14   1 -12   -0.81    1.78
  14  -1 -12   -0.69    2.81
  14  -1 -11    2.63    2.98
  14  -1 -11    3.57    1.67
  14   1 -11    0.93    2.63
  14  -1 -10    8.96    4.10
  14  -1 -10    4.43    2.64
  14   1 -10    6.21    3.17
  14   1 -10    4.82    1.52
  14  -1  -9   15.91    4.74
  14   1  -9   26.55    5.65
  14  -1  -9   23.62    5.45
  14   1  -9   14.46    5.44
  14   1  -9   22.48    5.49
  14  -1  -8    3.87    3.78
  14   1  -8   -0.01    1.92
  14  -1  -8    8.22    3.46
  14   1  -8    8.19    2.91
  14   1  -8    9.82    4.18
  14  -1  -7   41.43    7.51
  14   1  -7   48.65    7.71
  14  -1  -7   31.83    6.59
  14   1  -7   41.37    7.23
  14   1  -7   48.94    7.79
  14  -1  -6    2.87    2.82
  14   1  -6    6.48    3.65
  14  -1  -6    6.12    3.42
  14   1  -6    2.47    2.89
  14   1  -6    4.66    4.11
  14  -1  -5    3.14    2.42
  14   1  -5    0.90    3.20
  14  -1  -5    0.31    2.20
  14   1  -5    1.52    1.64
  14   1  -5    2.49    3.86
  14  -1  -4   16.65    4.47
  14   1  -4   22.58    4.97
  14  -1  -4   11.76    4.18
  14   1  -4   14.94    5.01
  14   1  -4   15.96    4.28
  14  -1  -3   12.86    3.74
  14  -1  -3   13.43    4.14
  14   1  -3   11.58    4.09
  14   1  -3   11.61    4.04
  14   1  -3   11.17    3.13
  14  -1  -2   49.33    8.16
  14   1  -2   51.44    8.07
  14  -1  -2   59.00    8.58
  14   1  -2   57.05    8.42
  14   1  -2   70.73    9.24
  14  -1  -1   83.90   10.25
  14   1  -1   77.41    9.68
  14  -1  -1   65.19    9.21
  14   1  -1   85.59   10.39
  14   1  -1   71.33    9.50
  14  -1   0   61.66    8.70
  14   1   0   71.85    9.11
  14  -1   0   58.81    8.75
  14   1   0   72.25    9.24
  14   1   0   44.28    7.10
  14  -1   1   74.96    9.37
  14   1   1   75.47    9.49
  14  -1   1   58.27    8.95
  14   1   1   66.83    9.52
  14   1   1   71.03    9.45
  14  -1   2   49.84    8.07
  14   1   2   68.35    9.01
  14  -1   2   64.47    9.48
  14   1   2   77.31   10.09
  14   1   2   53.42    8.35
  14   1   3   17.74    4.92
  14  -1   3   25.48    6.17
  14  -1   3    9.09    3.88
  14   1   3   13.00    4.16
  14   1   4   18.32    4.80
  14  -1   4   25.39    6.45
  14  -1   4   21.19    6.06
  14   1   4   14.66    5.05
  14   1   5    0.99    2.35
  14  -1   5    5.16    3.75
  14  -1   5   -0.02    1.58
  14   1   5    1.32    3.01
  14   1   6    0.78    2.32
  14  -1   6    4.63    2.31
  14   1   6   -1.42    2.16
  14   1   7   42.50    7.23
  14  -1   7   32.24    6.70
  14   1   7   39.06    6.83
  14   1   8    0.20    1.76
  14  -1   8    6.05    3.56
  14   1   8    6.98    3.82
  14   1   9   21.14    5.57
  14  -1   9   27.96    5.80
  14   1   9   18.73    6.12
  14   1  10    6.60    3.17
  14  -1  10   12.28    3.72
  14   1  10   18.95    4.51
  14   1  11   -0.62    2.48
  14  -1  11    4.51    4.43
  14   1  11    0.59    2.13
  14   1  12    1.50    1.90
  14  -1  12   -0.48    1.58
  14   1  13    4.16    3.35
  14  -1  13    0.41    2.66
  14   1  14    1.09    1.63
  14  -1  14    2.04    3.16
  14   1  15    6.82    2.62
  14  -1  15   12.55    4.41
  14   1  16    3.86    3.09
  14  -1  16    2.18    3.46
  14   1  17   -0.74    3.03
  14  -1  17   -2.55    2.67
  14   1  18    7.60    4.02
  14  -1  18   10.73    4.30
  14   1  19    7.52    3.68
  14  -1  19    9.86    4.35
  14   1  20    0.66    2.04
  14  -1  20    0.75    2.64
  14   1  21    0.73    2.86
  14  -1  21    1.79    2.80
  14   1  22    2.30    3.60
  14  -1  22   -1.42    2.23
  14  -2 -22   10.63    2.42
  14  -2 -21   18.26    4.71
  14  -2 -20   28.63    7.17
  14  -2 -19    4.17    3.38
  14  -2 -18    6.89    3.90
  14  -2 -17   26.30    6.86
  14  -2 -16   62.50    9.95
  14  -2 -15   25.54    6.25
  14  -2 -14   56.39    9.39
  14   2 -14   71.51   10.03
  14  -2 -13   23.60    6.84
  14  -2 -13   23.51    5.78
  14   2 -13   15.00    4.56
  14  -2 -12   66.39   10.03
  14  -2 -12   62.46    9.63
  14   2 -12   65.76    9.69
  14  -2 -11   10.23    2.89
  14  -2 -11   14.73    5.61
  14   2 -11    4.45    3.40
  14  -2 -10   66.74    9.56
  14  -2 -10   51.49    7.89
  14   2 -10   62.30    8.99
  14   2 -10   79.87   10.04
  14  -2  -9  109.50   12.34
  14  -2  -9  101.90   12.22
  14   2  -9   95.85   11.30
  14   2  -9  113.27   12.01
  14  -2  -8   29.19    6.47
  14   2  -8   30.13    6.10
  14  -2  -8   28.84    6.29
  14   2  -8   23.70    5.45
  14   2  -8   27.26    6.05
  14  -2  -7   16.78    4.66
  14  -2  -7   21.40    5.54
  14   2  -7   24.70    5.26
  14   2  -7    8.35    2.57
  14   2  -7   27.19    6.00
  14  -2  -6   73.60    9.59
  14   2  -6   84.46    9.90
  14  -2  -6   76.05   10.24
  14   2  -6   97.38   11.33
  14   2  -6   75.27    9.55
  14  -2  -5   91.15   10.69
  14   2  -5   82.60   10.38
  14  -2  -5   84.02   10.95
  14   2  -5   90.90   11.00
  14   2  -5   87.17   10.33
  14  -2  -4  104.67   11.74
  14   2  -4  123.76   12.23
  14  -2  -4  134.84   13.57
  14   2  -4  116.44   11.96
  14   2  -4  112.63   12.05
  14  -2  -3   23.93    5.61
  14   2  -3   35.70    7.10
  14  -2  -3   24.79    5.91
  14   2  -3   28.87    5.90
  14   2  -3   24.45    5.55
  14  -2  -2   14.31    5.00
  14  -2  -2   19.26    5.43
  14   2  -2   12.74    3.59
  14   2  -2   13.38    3.63
  14   2  -2   12.49    3.84
  14   2  -1   23.57    5.61
  14  -2  -1   23.81    6.05
  14  -2  -1   11.19    4.79
  14   2  -1   12.87    4.15
  14   2  -1   18.63    4.98
  14  -2   0  235.13   17.00
  14   2   0  241.72   16.81
  14  -2   0  222.16   17.30
  14   2   0  196.19   16.46
  14   2   0  214.27   16.26
  14   2   1   12.22    3.51
  14  -2   1   21.55    5.26
  14  -2   1   15.50    4.94
  14   2   1   10.47    3.83
  14   2   1   22.24    5.29
  14   2   2   14.11    4.03
  14  -2   2   10.98    4.11
  14  -2   2   13.61    3.97
  14   2   2    9.14    3.53
  14   2   2   14.99    4.44
  14   2   3   25.54    6.04
  14  -2   3   25.63    5.82
  14  -2   3   31.40    7.13
  14   2   3   28.97    5.81
  14  -2   4  122.87   12.61
  14   2   4  110.94   11.60
  14  -2   4  137.46   13.84
  14   2   4  108.06   11.34
  14  -2   5   95.78   11.10
  14   2   5   79.50   10.33
  14  -2   5   80.38   10.67
  14   2   5   73.49    9.49
  14  -2   6   87.81   10.70
  14   2   6   86.03   10.29
  14  -2   6   82.60   10.53
  14   2   6   91.95   10.57
  14   2   7   17.33    4.79
  14  -2   7   21.34    4.73
  14  -2   7   18.17    4.87
  14   2   7   18.57    4.96
  14   2   8   22.83    5.91
  14  -2   8   29.17    6.32
  14   2   8   27.07    5.42
  14  -2   9   95.24   10.96
  14   2   9  101.73   11.62
  14   2   9   96.65   11.22
  14  -2  10   58.20    9.04
  14   2  10   71.13    9.69
  14   2  10   67.70    9.21
  14   2  11    7.50    2.79
  14  -2  11    5.87    3.42
  14   2  11   11.05    3.98
  14  -2  12   64.33   10.03
  14   2  12   66.57    9.61
  14   2  12   76.46    9.79
  14   2  13   17.52    4.93
  14  -2  13   20.34    6.02
  14  -2  14   70.10   10.47
  14   2  14   74.47   10.52
  14   2  15   24.16    6.29
  14  -2  15   23.39    5.75
  14  -2  16   70.95   10.53
  14   2  16   56.00    9.03
  14   2  17   13.07    4.37
  14  -2  17   20.80    5.82
  14   2  18    3.76    2.07
  14  -2  18    4.46    3.39
  14   2  19    6.08    3.39
  14  -2  19    8.68    4.58
  14   2  20   29.91    7.01
  14  -2  20   19.32    7.59
  14   2  21   25.28    5.87
  14  -2  21   14.90    5.75
  14   2  22   13.72    4.53
  14  -2  22   21.48    5.54
  14  -3 -21   -2.49    3.85
  14  -3 -20   11.19    4.92
  14  -3 -19    0.63    2.99
  14  -3 -18   11.03    5.20
  14   3 -18    3.50    2.96
  14  -3 -17   -6.06    3.94
  14   3 -17   -1.50    1.83
  14  -3 -16   19.61    5.70
  14   3 -16   18.19    5.63
  14  -3 -15   11.57    4.50
  14   3 -15    7.47    3.90
  14  -3 -14    7.10    3.80
  14  -3 -14    9.45    4.13
  14   3 -14   13.03    4.74
  14  -3 -13   13.93    4.66
  14  -3 -13    8.93    2.81
  14   3 -13    4.15    2.77
  14  -3 -12    3.20    2.87
  14  -3 -12    3.21    2.61
  14   3 -12    3.32    3.00
  14  -3 -11    9.51    4.03
  14  -3 -11    6.06    2.59
  14   3 -11   11.67    3.80
  14  -3 -10   42.82    8.00
  14  -3 -10   58.70    9.16
  14   3 -10   46.09    7.84
  14  -3  -9    2.43    1.60
  14  -3  -9    5.64    2.89
  14   3  -9    1.57    1.47
  14  -3  -8    2.12    2.09
  14  -3  -8    2.28    3.47
  14   3  -8    0.30    2.23
  14  -3  -7    6.78    2.85
  14  -3  -7    6.18    3.60
  14   3  -7    3.16    2.51
  14   3  -7    3.32    2.40
  14  -3  -6    9.30    3.94
  14  -3  -6    9.66    4.47
  14   3  -6   18.48    4.64
  14   3  -6   13.59    4.17
  14   3  -5   23.71    5.32
  14  -3  -5   18.97    5.50
  14   3  -5   32.01    8.35
  14  -3  -5   13.76    5.61
  14   3  -5   15.24    3.74
  14   3  -4    2.63    2.04
  14   3  -4    2.63    2.74
  14  -3  -4    1.91    2.13
  14  -3  -4    2.46    3.23
  14   3  -4    7.58    4.02
  14   3  -3   15.06    4.45
  14   3  -3   27.46    6.19
  14  -3  -3   26.90    6.24
  14  -3  -3   21.08    6.13
  14   3  -3   29.71    6.50
  14  -3  -2  143.42   13.92
  14  -3  -2  162.28   15.32
  14   3  -2  162.04   13.93
  14   3  -2  158.09   14.45
  14   3  -2  148.15   13.68
  14   3  -1   34.56    6.96
  14   3  -1   26.63    5.89
  14  -3  -1   25.22    5.37
  14  -3  -1   23.96    5.26
  14   3  -1   28.86    6.17
  14  -3   0  127.84   13.20
  14  -3   0  123.17   13.12
  14   3   0  165.95   14.24
  14   3   0  115.67   12.45
  14   3   0  125.83   12.50
  14   3   1   22.61    5.80
  14   3   1   28.17    6.18
  14  -3   1   23.16    5.59
  14  -3   1   25.46    7.01
  14   3   1   14.12    4.42
  14  -3   2  130.40   13.10
  14  -3   2  151.03   14.37
  14   3   2  174.63   14.54
  14   3   2  178.26   14.78
  14   3   3   16.86    4.60
  14   3   3   34.79    6.54
  14  -3   3   23.40    5.85
  14  -3   3   20.32    6.53
  14   3   4    5.28    4.49
  14   3   4    1.40    2.00
  14  -3   4    2.54    2.79
  14  -3   4   -0.06    3.30
  14   3   5   25.35    5.84
  14   3   5   24.87    6.03
  14  -3   5   16.29    5.24
  14  -3   5   13.31    4.70
  14   3   6   14.48    4.85
  14   3   6    8.83    3.82
  14  -3   6    7.24    2.99
  14  -3   6    1.97    2.42
  14   3   7    7.45    4.08
  14   3   7    4.24    1.90
  14  -3   7    7.01    3.06
  14  -3   7    2.77    2.62
  14   3   8    2.56    2.36
  14   3   8   -0.30    1.32
  14  -3   8   -1.17    2.51
  14  -3   8    2.05    1.68
  14   3   9    4.72    3.53
  14   3   9    1.77    2.05
  14  -3   9    6.17    4.95
  14  -3   9    3.82    4.37
  14   3  10   42.08    7.21
  14  -3  10   52.93    8.65
  14   3  10   57.85    8.95
  14   3  11    9.38    4.32
  14   3  11    7.24    2.56
  14  -3  11    6.48    2.87
  14   3  12    4.44    3.48
  14   3  12    0.61    2.13
  14  -3  12    4.65    3.51
  14   3  13    5.49    3.56
  14  -3  13    4.32    1.83
  14   3  14    3.81    3.21
  14  -3  14    6.59    3.64
  14   3  15    6.26    2.92
  14  -3  15   10.15    4.96
  14   3  16    9.75    3.91
  14  -3  16   12.11    4.70
  14   3  17    1.14    2.08
  14  -3  17    4.42    3.48
  14   3  18    4.63    1.69
  14  -3  18    0.19    4.32
  14   3  19    2.89    2.69
  14  -3  19    7.50    4.33
  14   3  20    9.42    5.40
  14  -3  20    4.35    2.24
  14   3  21    4.19    2.88
  14  -3  21    3.12    3.77
  14  -4 -20   60.39   10.18
  14   4 -20   42.72    8.91
  14  -4 -19    2.90    4.50
  14   4 -19   -1.73    2.00
  14  -4 -18    9.21    4.15
  14   4 -18   14.42    5.53
  14  -4 -17   48.78    8.57
  14   4 -17   41.25    8.42
  14  -4 -16   37.51    7.40
  14   4 -16   48.44    8.87
  14  -4 -15   20.12    5.96
  14  -4 -15   13.90    4.90
  14   4 -15   26.36    7.13
  14  -4 -14   42.30    8.40
  14  -4 -14   52.87    8.64
  14   4 -14   43.59    8.00
  14  -4 -13    8.77    4.80
  14  -4 -13    6.32    4.24
  14   4 -13    1.93    1.70
  14  -4 -12   38.10    7.71
  14  -4 -12   33.26    7.95
  14   4 -12   41.47    8.63
  14  -4 -11   72.89   10.49
  14   4 -11   61.15    9.42
  14  -4 -11   79.78   10.82
  14  -4 -10   43.32    7.60
  14   4 -10   48.68    8.12
  14  -4 -10   42.66    8.03
  14  -4  -9   87.76   11.38
  14   4  -9  100.55   11.95
  14  -4  -9   76.72   10.87
  14   4  -8   30.49    6.59
  14  -4  -8   29.09    6.84
  14  -4  -8   31.79    6.83
  14   4  -7    9.31    3.80
  14  -4  -7    4.32    3.23
  14  -4  -7    9.22    3.71
  14  -4  -6   79.88   10.94
  14  -4  -6  110.03   12.74
  14   4  -6   84.13   10.81
  14   4  -5   25.55    6.02
  14   4  -5   21.75    4.74
  14  -4  -5   29.47    7.08
  14  -4  -5   27.22    6.53
  14  -4  -4   97.97   11.60
  14  -4  -4   81.64   11.00
  14   4  -4   61.62    8.75
  14   4  -4   85.09   10.42
  14  -4  -3   65.62    9.86
  14  -4  -3   57.96    9.56
  14   4  -3   50.47    7.45
  14   4  -3   45.48    8.03
  14   4  -2   22.37    5.26
  14   4  -2   10.79    2.97
  14  -4  -2    7.58    3.90
  14  -4  -2   12.84    4.30
  14   4  -1   19.89    5.82
  14   4  -1   34.18    6.69
  14  -4  -1   32.28    7.39
  14  -4  -1   21.44    6.21
  14  -4   0  521.84   26.65
  14  -4   0  526.29   28.11
  14   4   0  501.82   25.19
  14   4   0  548.38   26.26
  14  -4   1   36.47    7.47
  14   4   1   34.03    6.89
  14  -4   1   25.88    6.36
  14   4   1   29.99    6.83
  14   4   1   36.42    7.53
  14   4   2   13.13    4.65
  14   4   2   20.89    4.99
  14  -4   2   14.42    4.86
  14  -4   2   17.61    4.99
  14  -4   3   48.22    8.32
  14  -4   3   55.05    9.04
  14   4   3   66.95    9.28
  14   4   3   58.50    8.69
  14  -4   4   73.15   10.36
  14  -4   4   71.57   10.24
  14   4   4   67.18    9.27
  14   4   4   79.67   10.41
  14   4   5   32.55    6.91
  14  -4   5   38.88    7.90
  14   4   5   30.00    6.47
  14  -4   5   23.18    5.21
  14  -4   6   88.53   11.08
  14  -4   6   79.24   11.26
  14   4   6   89.09   10.88
  14   4   6   87.44   10.72
  14   4   7    6.15    3.13
  14   4   7   13.47    4.56
  14  -4   7   11.03    3.64
  14  -4   7   11.02    4.70
  14   4   8   19.73    5.13
  14   4   8   29.07    6.55
  14  -4   8   28.30    6.53
  14  -4   8   33.13    8.21
  14   4   9   75.64   10.98
  14  -4   9   90.88   11.29
  14  -4   9   81.92   11.16
  14   4   9   90.23   11.04
  14   4  10   17.62    4.51
  14   4  10   33.54    7.07
  14  -4  10   37.33    7.33
  14  -4  10   18.78    5.48
  14   4  11   85.35   10.97
  14  -4  11   80.22   11.18
  14  -4  11   81.62   11.06
  14   4  11   78.08   10.66
  14   4  12   55.20    9.03
  14   4  12   46.73    8.21
  14  -4  12   59.72    9.16
  14  -4  12   48.80    9.30
  14   4  13   10.85    5.37
  14   4  13   10.56    4.13
  14  -4  13   15.11    4.32
  14   4  14   42.07    7.76
  14  -4  14   32.92    7.44
  14   4  15   21.56    5.51
  14  -4  15   21.13    5.83
  14   4  16   40.63    7.40
  14  -4  16   28.00    7.01
  14   4  17   38.33    7.78
  14  -4  17   33.99    7.70
  14   4  18    8.52    4.91
  14  -4  18    6.69    4.13
  14   4  19    0.43    2.99
  14  -4  19   -6.81    5.46
  14  -4  20   35.55    8.08
  14   4  20   52.02    9.47
  14  -5 -18    0.38    2.02
  14   5 -18    3.89    3.61
  14  -5 -17    6.33    4.58
  14   5 -17    3.87    2.00
  14  -5 -16    1.49    1.45
  14  -5 -16    2.73    2.39
  14  -5 -15   -3.18    2.08
  14  -5 -15   -0.89    1.60
  14  -5 -14    2.22    2.39
  14  -5 -14    5.79    3.76
  14   5 -14    8.46    3.30
  14   5 -13    4.33    1.57
  14  -5 -13    6.82    3.50
  14   5 -12   27.85    6.62
  14  -5 -12   16.09    6.21
  14  -5 -12   16.33    4.87
  14   5 -11   10.84    3.97
  14  -5 -11   11.53    3.72
  14  -5 -11    2.34    2.69
  14   5 -10   13.61    4.42
  14  -5 -10   12.58    3.69
  14   5  -9   18.27    4.87
  14  -5  -9   18.17    5.94
  14  -5  -9   17.96    6.67
  14   5  -8    3.16    3.51
  14  -5  -8    7.78    4.77
  14  -5  -8    2.83    2.13
  14   5  -7    7.70    3.76
  14  -5  -7   18.81    5.76
  14  -5  -7    7.84    4.34
  14   5  -6    3.03    2.86
  14  -5  -6    5.40    3.36
  14  -5  -6   -1.21    2.29
  14   5  -5    8.87    4.62
  14  -5  -5    1.19    1.86
  14  -5  -5    2.39    3.03
  14   5  -4   11.50    3.28
  14  -5  -4   11.03    4.70
  14   5  -4   15.23    3.99
  14  -5  -4   14.41    6.67
  14   5  -3    3.55    2.22
  14  -5  -3   10.03    3.82
  14   5  -3    9.29    3.60
  14  -5  -3    4.10    2.48
  14   5  -2    4.43    3.00
  14  -5  -2    9.64    3.42
  14   5  -2   15.08    4.62
  14  -5  -2   18.26    6.07
  14  -5  -1   52.96    8.71
  14  -5  -1   50.72    8.85
  14   5  -1   47.25    8.04
  14   5  -1   50.20    8.71
  14  -5   0   86.18   11.09
  14  -5   0  100.04   12.81
  14   5   0  100.49   11.66
  14   5   0  116.85   11.91
  14  -5   1   48.84    8.40
  14  -5   1   56.30    9.01
  14   5   1   45.75    8.73
  14   5   1   35.87    7.71
  14   5   2   12.21    5.20
  14  -5   2   12.70    4.59
  14   5   2   10.66    4.93
  14  -5   2   11.23    4.65
  14   5   3    7.11    3.24
  14  -5   3    5.54    4.27
  14   5   3    5.72    3.00
  14  -5   3    5.19    2.93
  14   5   4   21.53    5.09
  14  -5   4   11.24    4.30
  14   5   4   16.38    5.15
  14  -5   4   17.68    5.23
  14   5   5   -1.14    3.35
  14  -5   5    1.03    2.83
  14   5   5    3.44    3.13
  14  -5   5    1.96    4.18
  14   5   6    2.87    2.73
  14  -5   6   -2.14    2.31
  14   5   6   -1.59    3.16
  14  -5   6    4.53    3.96
  14   5   7   12.12    4.55
  14  -5   7   21.45    5.89
  14   5   7   12.91    4.12
  14  -5   7    6.63    2.71
  14   5   8    3.33    3.15
  14  -5   8    5.90    3.41
  14   5   8    2.44    3.45
  14  -5   8    5.69    4.89
  14   5   9   14.21    5.36
  14  -5   9   15.23    5.24
  14   5   9   17.55    5.03
  14  -5   9    2.27    2.69
  14   5  10   10.80    4.02
  14  -5  10   13.55    4.77
  14   5  10   20.51    5.64
  14  -5  10   21.68    6.84
  14   5  11   27.52    5.62
  14  -5  11    8.27    3.64
  14   5  11   28.69    7.53
  14  -5  11   14.92    5.39
  14   5  12   19.00    5.08
  14  -5  12   15.91    5.43
  14   5  12    8.44    3.64
  14  -5  12   15.35    4.62
  14   5  13   10.31    4.10
  14  -5  13    3.01    2.06
  14   5  13    0.84    2.89
  14  -5  13    1.54    3.17
  14  -5  14   13.74    5.10
  14   5  14    6.48    3.04
  14  -5  14    9.09    5.05
  14  -5  15   -0.46    2.28
  14  -5  15   -2.16    2.54
  14  -5  16    7.64    5.27
  14   5  16    6.45    4.60
  14  -5  16    8.85    5.25
  14  -5  17    4.59    3.10
  14   5  17    6.02    4.06
  14  -5  17    4.06    4.88
  14  -5  18   -2.71    3.28
  14   5  18    0.30    2.93
  14  -6 -16   37.18    8.11
  14  -6 -16   44.63    8.89
  14   6 -16   27.54    7.40
  14   6 -15    0.49    2.88
  14  -6 -15   10.06    5.22
  14  -6 -15    4.60    2.84
  14   6 -14    5.71    3.78
  14  -6 -14    4.06    2.49
  14  -6 -14    2.17    3.11
  14  -6 -13   10.79    4.84
  14   6 -13    7.47    4.20
  14  -6 -13    2.74    3.38
  14   6 -12   40.02    8.26
  14  -6 -12   21.88    5.77
  14  -6 -12   37.70    8.06
  14   6 -11   19.78    5.75
  14  -6 -11   17.08    5.01
  14  -6 -11   13.39    4.46
  14  -6 -10   90.96   12.18
  14  -6 -10   99.34   13.17
  14   6 -10  104.11   12.53
  14   6  -9   21.84    5.33
  14  -6  -9   25.22    6.61
  14  -6  -9   27.57    7.03
  14  -6  -8    8.00    3.63
  14  -6  -8    3.00    2.03
  14   6  -7   26.70    6.57
  14  -6  -7    9.94    4.64
  14  -6  -7   30.88    6.61
  14  -6  -6  107.66   13.03
  14  -6  -6  118.30   13.41
  14   6  -6  136.06   13.70
  14   6  -5    2.06    2.92
  14  -6  -5    0.96    2.43
  14  -6  -5    0.11    3.15
  14  -6  -4   87.68   11.66
  14  -6  -4   74.44   11.20
  14   6  -4   97.16   11.95
  14   6  -3   40.73    7.86
  14  -6  -3   34.82    7.32
  14  -6  -3   45.68    8.42
  14   6  -2   24.78    6.52
  14  -6  -2   35.73    7.57
  14   6  -2   18.96    5.69
  14  -6  -2   35.10    7.39
  14  -6  -1   50.66    8.81
  14   6  -1   45.53    8.13
  14   6  -1   23.45    5.88
  14  -6  -1   34.78    7.10
  14  -6   0  220.47   18.28
  14   6   0  255.41   19.33
  14  -6   0  239.69   19.37
  14   6   0  251.69   18.60
  14  -6   1   43.08    7.62
  14   6   1   38.08    7.23
  14  -6   1   47.74    9.13
  14   6   1   65.69    9.80
  14   6   2   40.44    7.17
  14  -6   2   35.34    7.11
  14   6   2   33.04    6.89
  14  -6   2   28.03    7.49
  14   6   3   34.49    7.81
  14  -6   3   37.66    7.59
  14   6   3   39.55    7.53
  14  -6   3   28.05    6.70
  14   6   4   87.24   11.48
  14  -6   4   89.91   11.80
  14   6   4   88.49   11.33
  14  -6   4   88.92   12.08
  14   6   5    0.98    2.48
  14  -6   5    7.32    5.07
  14   6   5    3.08    4.05
  14  -6   5    1.29    4.11
  14   6   6  155.32   15.10
  14  -6   6  134.06   14.33
  14   6   6  129.42   13.83
  14  -6   6  140.81   15.62
  14   6   7   24.30    6.18
  14  -6   7   23.64    5.90
  14   6   7   30.74    6.98
  14  -6   7   27.65    7.05
  14   6   8   11.81    4.10
  14  -6   8    5.03    3.86
  14  -6   8    9.39    4.40
  14   6   9   24.00    6.71
  14  -6   9   29.80    6.88
  14   6   9   24.49    5.94
  14  -6   9   17.13    5.58
  14   6  10   89.26   12.00
  14  -6  10   67.08   11.61
  14   6  10   89.85   11.46
  14   6  11   10.94    4.74
  14  -6  11   22.15    6.54
  14   6  11   29.73    6.94
  14  -6  11   20.92    5.07
  14   6  12   41.54    8.20
  14  -6  12   46.56    9.09
  14   6  12   32.15    6.08
  14  -6  12   24.89    6.82
  14   6  13   11.76    4.78
  14  -6  13    6.30    6.09
  14   6  13    5.79    3.87
  14  -6  13    8.98    4.87
  14  -6  14    5.11    5.40
  14   6  14    3.14    1.87
  14  -6  14   -0.86    4.88
  14  -6  15    4.57    4.31
  14   6  15    6.23    3.17
  14  -6  15    4.22    2.53
  14   6  16   45.08    8.30
  14  -6  16   23.00    8.07
  14  -6  16   27.34    7.76
  14   7 -13    0.13    2.48
  14  -7 -13    9.30    5.02
  14  -7 -13    3.00    3.38
  14  -7 -12    7.02    2.49
  14  -7 -12    1.55    1.87
  14  -7 -11    4.61    3.30
  14   7 -11    5.65    3.79
  14  -7 -11    7.92    4.78
  14  -7 -10   -1.35    2.49
  14   7 -10    4.57    3.40
  14  -7 -10    4.46    4.38
  14  -7  -9    1.10    2.21
  14   7  -9    1.82    2.02
  14  -7  -9    0.47    3.16
  14  -7  -8    6.22    3.05
  14   7  -8    3.85    3.75
  14  -7  -8    7.71    4.30
  14   7  -7    0.78    3.23
  14  -7  -7    2.82    2.72
  14  -7  -7    3.15    3.14
  14   7  -6   13.89    4.30
  14  -7  -6   24.16    6.65
  14  -7  -6   23.94    6.59
  14   7  -5   15.48    4.63
  14  -7  -5   26.83    6.61
  14  -7  -5   20.46    5.73
  14   7  -4    6.11    4.29
  14  -7  -4    4.12    3.03
  14  -7  -4    3.41    3.67
  14   7  -3   15.76    4.75
  14  -7  -3   24.88    6.29
  14  -7  -3   21.72    6.27
  14   7  -2   19.48    5.17
  14  -7  -2   22.88    6.08
  14  -7  -2   18.94    5.17
  14   7  -1    1.87    4.48
  14  -7  -1   -4.90    2.56
  14   7  -1    0.43    3.02
  14  -7  -1    1.80    3.81
  14   7   0   50.17    8.90
  14  -7   0   48.86    8.60
  14   7   0   43.15    8.14
  14  -7   0   40.95    8.60
  14   7   1    1.60    2.50
  14  -7   1    2.73    2.13
  14   7   1    1.31    2.93
  14  -7   1   -0.24    3.07
  14   7   2   25.88    6.92
  14  -7   2   14.72    4.87
  14   7   2   31.07    7.10
  14  -7   2   18.28    5.75
  14   7   3   22.97    5.60
  14  -7   3   12.33    4.05
  14   7   3   12.42    4.55
  14  -7   3    6.79    4.30
  14   7   4    7.56    3.86
  14  -7   4    0.51    2.32
  14   7   4    7.02    3.64
  14  -7   4    3.50    3.33
  14   7   5   23.34    5.46
  14  -7   5   14.48    4.50
  14   7   5   14.67    4.66
  14  -7   5   13.24    4.95
  14   7   6   27.28    6.73
  14  -7   6   32.03    7.38
  14   7   6   27.01    6.11
  14  -7   6   17.81    5.62
  14   7   7    3.62    1.76
  14  -7   7   -1.70    2.33
  14   7   7    7.82    4.73
  14  -7   7   13.68    6.73
  14   7   8    9.42    3.87
  14  -7   8   12.52    4.36
  14   7   8    6.74    2.69
  14  -7   8   11.90    4.98
  14   7   9    1.11    2.27
  14  -7   9    2.03    2.56
  14   7   9    1.62    3.60
  14  -7   9   -2.82    3.21
  14   7  10   -0.65    2.80
  14  -7  10   -0.22    2.94
  14   7  10    1.77    2.43
  14  -7  10    3.80    4.26
  14   7  11    2.03    2.53
  14  -7  11    5.21    3.22
  14   7  11   11.45    5.06
  14  -7  11    7.14    5.23
  14   7  12    5.72    2.44
  14  -7  12   12.48    6.10
  14   7  12    7.78    4.22
  14  -7  12    8.92    4.83
  14   7  13    0.67    3.78
  14  -7  13    7.06    3.12
  14   7  13    6.86    3.77
  14  -7  13    8.43    5.09
  14  -8  -8    2.60    2.87
  14   8  -8    8.06    4.06
  14  -8  -8    2.81    2.68
  14  -8  -7    4.94    2.77
  14   8  -7    8.35    3.26
  14  -8  -7    4.22    1.75
  14  -8  -6    8.18    4.42
  14   8  -6   12.96    5.25
  14  -8  -6   18.87    5.61
  14  -8  -5    5.72    4.25
  14   8  -5   -1.51    3.15
  14  -8  -5    1.80    4.29
  14  -8  -4   28.65    6.65
  14   8  -4   31.58    7.47
  14  -8  -4   33.98    8.12
  14  -8  -3    9.21    4.31
  14   8  -3   13.10    4.79
  14  -8  -3    7.21    2.64
  14  -8  -2    5.86    3.78
  14   8  -2   11.92    4.72
  14  -8  -2    4.92    3.87
  14  -8  -1   12.23    3.90
  14   8  -1   17.17    5.24
  14  -8  -1   10.18    4.86
  14  -8   0    7.41    5.25
  14   8   0    5.15    4.36
  14  -8   0    3.93    4.08
  14   8   1   12.02    4.17
  14   8   1    7.11    3.31
  14  -8   1   11.70    5.17
  14   8   2   -0.70    2.68
  14  -8   2   -2.18    3.06
  14  -8   2    5.18    4.12
  14   8   2   -0.59    2.14
  14   8   3    9.32    3.60
  14  -8   3    4.58    2.91
  14  -8   3   -0.26    2.67
  14   8   4   24.58    5.89
  14  -8   4   18.33    5.31
  14   8   4   42.95    8.89
  14  -8   4   47.99    9.48
  14   8   5    0.04    2.60
  14  -8   5    0.99    2.63
  14  -8   5    0.87    3.87
  14   8   5   -0.50    2.44
  14   8   6   29.99    8.11
  14  -8   6   19.11    5.92
  14  -8   6   17.31    6.82
  14   8   6   12.87    4.26
  14   8   7    6.35    4.76
  14  -8   7   12.25    4.66
  14  -8   7   -0.37    3.44
  14   8   7    7.87    4.33
  14   8   8   11.34    5.33
  14  -8   8   15.93    6.34
  14  -8   8   12.64    6.16
  14   8   8   15.47    4.99
  15   0 -19   -1.29    3.07
  15   0 -18    1.18    2.16
  15   0 -17    1.31    3.71
  15   0 -16    1.89    4.02
  15   0 -15    0.62    1.83
  15   0 -14   -1.22    2.82
  15   0 -13    0.09    2.80
  15   0 -12    0.94    2.37
  15   0 -11    1.19    4.01
  15   0 -10    2.86    3.28
  15   0 -10   -0.64    2.78
  15   0  -9    1.69    2.94
  15   0  -9   -2.73    3.46
  15   0  -8    1.45    3.15
  15   0  -8   -1.70    3.25
  15   0  -7    0.50    2.27
  15   0  -7    0.56    3.02
  15   0  -6   -0.95    2.39
  15   0  -6   -1.02    1.87
  15   0  -5   -0.53    2.03
  15   0  -5    0.70    3.15
  15   0  -4   -0.49    2.58
  15   0  -4    1.47    1.73
  15   0  -3   -0.01    2.83
  15   0  -3    1.63    2.78
  15   0  -2    2.85    2.38
  15   0  -2   -1.05    2.80
  15   0  -1   -1.79    2.22
  15   0  -1   -1.49    2.77
  15   0   0   -1.72    3.03
  15   0   0    2.29    2.60
  15   0   1   -0.34    1.81
  15   0   1    1.34    3.43
  15   0   2   -0.73    2.66
  15   0   2    0.15    2.86
  15   0   3    1.37    1.69
  15   0   3   -1.95    3.08
  15   0   4   -2.34    2.38
  15   0   4   -1.70    2.45
  15   0   5    0.91    2.52
  15   0   5    1.06    1.78
  15   0   6    2.17    3.02
  15   0   7   -2.12    2.83
  15   0   8    0.52    1.73
  15   0   9    0.72    1.77
  15   0  10   -1.65    3.84
  15   0  11   -0.94    1.98
  15   0  12    1.42    2.82
  15   0  13    3.42    2.72
  15   0  14    4.02    3.41
  15   0  15   -0.59    2.38
  15   0  16   -0.29    2.53
  15   0  17    3.15    3.74
  15   0  18    2.64    3.38
  15   0  19    2.13    3.89
  15   0  20   -1.46    3.67
  15   0  21    5.93    5.55
  15  -1 -21   -0.40    3.17
  15  -1 -20   -1.27    2.25
  15  -1 -19   16.72    5.46
  15  -1 -18   -2.26    2.28
  15  -1 -17   32.58    7.64
  15  -1 -16   26.48    6.33
  15   1 -15   -5.35    2.85
  15  -1 -15    7.42    4.15
  15   1 -14   14.87    5.33
  15  -1 -14   10.84    4.81
  15   1 -13  150.43   14.88
  15  -1 -13  160.67   15.28
  15   1 -12   43.03    8.41
  15  -1 -12   34.17    7.68
  15  -1 -11    3.41    3.56
  15  -1 -11   10.26    5.30
  15   1 -11    5.15    4.25
  15  -1 -10   14.35    5.40
  15  -1 -10   18.08    5.22
  15   1 -10   14.33    4.38
  15  -1  -9    5.28    2.60
  15   1  -9   -0.38    1.12
  15  -1  -9    8.45    3.78
  15   1  -9    6.22    3.19
  15  -1  -8   42.14    7.76
  15   1  -8   31.40    6.78
  15  -1  -8   61.37    9.71
  15   1  -8   45.17    8.10
  15   1  -8   41.64    7.20
  15  -1  -7  110.04   12.12
  15   1  -7  106.01   11.91
  15  -1  -7  128.29   13.45
  15   1  -7   98.50   11.67
  15   1  -7  102.72   12.01
  15  -1  -6    7.01    1.86
  15   1  -6   11.26    4.16
  15  -1  -6    4.70    3.45
  15   1  -6    7.75    3.49
  15   1  -6    8.84    3.46
  15   1  -5   44.54    7.60
  15  -1  -5   38.82    7.28
  15  -1  -5   29.99    6.76
  15   1  -5   32.28    7.08
  15   1  -5   22.62    4.90
  15  -1  -4   55.03    8.25
  15   1  -4   49.41    7.90
  15  -1  -4   50.32    8.20
  15   1  -4   54.18    9.06
  15   1  -4   44.31    7.84
  15  -1  -3   77.53   10.45
  15   1  -3   85.47   10.51
  15  -1  -3   71.40   10.16
  15   1  -3   79.37   10.30
  15   1  -3   72.70    9.94
  15  -1  -2    4.63    3.72
  15  -1  -2    1.12    2.11
  15   1  -2    5.77    2.53
  15   1  -2   10.31    4.20
  15   1  -2    6.70    3.78
  15  -1  -1    0.90    1.76
  15  -1  -1    3.13    2.96
  15   1  -1    0.70    2.75
  15   1  -1    0.47    2.72
  15   1  -1   -1.23    1.98
  15  -1   0   -0.92    2.74
  15  -1   0    0.38    1.98
  15   1   0    0.95    1.75
  15   1   0    1.82    3.10
  15   1   0    1.75    1.66
  15  -1   1    0.35    2.67
  15  -1   1    2.84    2.51
  15   1   1    4.73    3.79
  15   1   1    4.36    3.34
  15   1   1    1.61    3.40
  15  -1   2    8.75    2.96
  15  -1   2    5.31    2.90
  15   1   2    3.71    1.41
  15   1   2    7.92    3.85
  15   1   2    5.19    3.19
  15  -1   3   83.58   10.25
  15   1   3   67.33    9.51
  15  -1   3   78.51   10.76
  15   1   3   74.09   10.50
  15   1   3   83.13   10.58
  15  -1   4   45.50    7.71
  15   1   4   42.83    7.42
  15  -1   4   42.71    7.65
  15   1   4   40.67    7.04
  15   1   5   33.06    6.76
  15  -1   5   38.36    7.22
  15  -1   5   36.87    7.00
  15   1   5   40.89    7.21
  15   1   6    3.61    2.17
  15  -1   6    3.03    2.48
  15  -1   6    4.94    2.10
  15   1   6    6.28    1.94
  15  -1   7  129.63   13.38
  15   1   7  126.85   12.89
  15   1   7  119.27   12.40
  15   1   8   39.69    7.28
  15  -1   8   26.74    6.37
  15   1   8   26.72    6.14
  15   1   9    4.78    3.97
  15  -1   9    7.79    4.63
  15   1   9    1.91    2.34
  15   1  10   15.74    4.83
  15  -1  10    9.95    4.47
  15   1  10   12.85    4.75
  15   1  11    5.34    3.68
  15  -1  11    0.90    2.16
  15   1  11    4.01    1.80
  15   1  12   34.99    7.01
  15  -1  12   32.25    6.85
  15  -1  13  167.58   15.79
  15   1  13  191.02   16.60
  15   1  14   13.01    5.00
  15  -1  14   19.59    5.35
  15   1  15    1.07    2.67
  15  -1  15    2.93    2.90
  15   1  16   24.83    6.50
  15  -1  16   18.41    5.92
  15   1  17   42.00    8.47
  15  -1  17   41.70    7.94
  15   1  18    5.43    3.83
  15  -1  18    2.82    2.28
  15   1  19    6.11    3.68
  15  -1  19   18.76    6.39
  15   1  20   -1.73    3.91
  15  -1  20    1.81    3.54
  15   1  21    1.97    3.81
  15  -1  21   -0.59    2.36
  15  -2 -20    0.69    2.35
  15  -2 -19    6.22    3.14
  15  -2 -18    3.50    4.73
  15  -2 -17    0.53    1.89
  15  -2 -16   17.84    5.46
  15  -2 -15   27.00    6.94
  15  -2 -14   20.67    5.37
  15  -2 -13   32.25    7.45
  15   2 -13   19.70    5.51
  15  -2 -12    3.38    3.41
  15  -2 -12    6.20    3.73
  15   2 -12   -0.01    2.65
  15  -2 -11    5.36    1.67
  15  -2 -11    3.74    3.97
  15   2 -11    6.81    3.69
  15  -2 -10    6.29    2.20
  15  -2 -10   19.07    5.34
  15   2 -10   11.87    4.78
  15  -2  -9    7.13    3.71
  15  -2  -9    3.17    3.52
  15   2  -9    4.12    3.19
  15   2  -9    8.81    3.03
  15  -2  -8    5.11    4.05
  15  -2  -8    8.51    3.23
  15   2  -8    5.82    2.49
  15   2  -8   10.31    3.22
  15  -2  -7   24.10    6.16
  15   2  -7   13.57    3.97
  15  -2  -7   26.27    6.45
  15   2  -7   20.90    5.50
  15   2  -7   23.72    6.11
  15  -2  -6    3.81    3.52
  15  -2  -6    3.27    2.66
  15   2  -6    6.98    3.30
  15   2  -6    8.80    3.55
  15   2  -6   10.27    3.32
  15  -2  -5   15.07    4.31
  15  -2  -5   11.05    4.38
  15   2  -5   10.91    4.40
  15   2  -5    9.34    2.48
  15   2  -5    9.96    4.52
  15  -2  -4   17.86    5.40
  15  -2  -4    9.55    4.82
  15   2  -4    1.70    2.85
  15   2  -4    9.22    3.66
  15   2  -4    5.21    3.87
  15  -2  -3    1.07    2.86
  15  -2  -3   -2.31    2.17
  15   2  -3    1.64    1.92
  15   2  -3   -0.47    2.37
  15   2  -3   -0.20    1.61
  15  -2  -2    0.32    1.43
  15  -2  -2    2.47    1.57
  15   2  -2    1.51    3.19
  15   2  -2   -0.82    2.68
  15   2  -2    0.95    2.83
  15  -2  -1    4.13    2.71
  15  -2  -1    4.58    3.19
  15   2  -1   -1.04    2.32
  15   2  -1    0.91    3.24
  15   2  -1    1.55    1.49
  15   2   0    4.76    3.64
  15  -2   0    3.09    2.42
  15  -2   0    2.26    3.76
  15   2   0    0.22    2.05
  15   2   0    0.89    1.82
  15   2   1    2.27    2.80
  15  -2   1    4.31    2.11
  15  -2   1    1.41    1.62
  15   2   1    4.66    4.11
  15   2   1    7.14    3.34
  15   2   2    0.68    1.41
  15  -2   2    2.37    2.15
  15  -2   2    1.06    1.77
  15   2   2    1.95    2.59
  15   2   2    0.44    1.61
  15   2   3    0.10    1.42
  15  -2   3   -0.56    1.91
  15  -2   3   -3.97    3.71
  15   2   3    0.66    2.17
  15   2   3    0.40    1.85
  15   2   4    8.26    3.75
  15  -2   4    7.76    2.21
  15  -2   4    7.78    3.37
  15   2   4    3.06    1.90
  15   2   5   21.36    4.96
  15  -2   5   11.62    4.09
  15  -2   5    5.79    3.41
  15   2   5   14.62    5.11
  15   2   6    9.28    4.48
  15  -2   6    8.53    4.17
  15  -2   6    3.40    2.26
  15   2   6    6.02    3.04
  15   2   7   21.45    5.21
  15  -2   7   10.25    4.47
  15  -2   7   17.61    4.48
  15   2   7   22.15    5.78
  15   2   8    5.07    2.15
  15  -2   8    8.58    3.92
  15  -2   8   10.47    5.79
  15   2   8    4.71    4.14
  15   2   9    5.95    3.06
  15  -2   9    6.85    3.86
  15   2   9    6.82    3.94
  15   2  10   18.42    5.30
  15  -2  10   14.62    5.00
  15   2  10   19.93    5.73
  15   2  11    5.56    3.36
  15  -2  11    3.79    4.07
  15   2  11    0.70    3.75
  15   2  12    5.14    3.28
  15  -2  12    5.10    3.70
  15   2  13   36.15    7.38
  15  -2  13   36.12    7.69
  15   2  14   26.61    6.55
  15  -2  14   17.17    5.03
  15   2  15   19.46    5.59
  15  -2  15   17.84    5.97
  15   2  16   20.91    5.47
  15  -2  16   17.30    6.09
  15   2  17   -1.70    2.91
  15  -2  17    0.69    1.93
  15   2  18    1.57    2.14
  15  -2  18    7.64    3.74
  15   2  19    6.70    3.68
  15  -2  19    9.93    5.56
  15   2  20   -5.99    4.14
  15  -2  20   -4.21    3.52
  15  -3 -19    4.69    3.59
  15  -3 -18   34.10    7.45
  15  -3 -17   62.32   10.14
  15   3 -17   68.55   10.62
  15  -3 -16   10.57    5.02
  15   3 -16    1.19    1.83
  15  -3 -15    8.76    3.73
  15   3 -15    3.09    1.91
  15  -3 -14   23.20    5.92
  15   3 -14   15.35    6.04
  15  -3 -13    6.96    3.61
  15  -3 -13    7.24    3.86
  15   3 -13    8.91    4.25
  15  -3 -12   69.11    9.97
  15   3 -12   77.39   10.71
  15  -3 -12   69.22   10.52
  15  -3 -11   17.36    5.43
  15  -3 -11   15.39    4.56
  15   3 -11   24.17    5.56
  15  -3 -10    3.85    3.84
  15  -3 -10    2.37    3.12
  15   3 -10    1.52    2.35
  15  -3  -9   11.88    2.62
  15  -3  -9   17.31    4.26
  15   3  -9   13.42    4.63
  15  -3  -8   17.38    5.53
  15  -3  -8   35.59    7.95
  15   3  -8   33.25    6.71
  15  -3  -7   14.39    4.57
  15  -3  -7   21.90    5.82
  15   3  -7   16.25    5.20
  15  -3  -6   51.40    8.37
  15   3  -6   43.26    7.82
  15  -3  -6   48.38    8.98
  15   3  -6   35.04    7.58
  15  -3  -5   20.49    6.22
  15  -3  -5   23.90    6.01
  15   3  -5   34.17    7.15
  15   3  -5   20.59    5.90
  15  -3  -4   18.39    4.78
  15  -3  -4   23.77    5.83
  15   3  -4   16.57    4.72
  15   3  -4   22.46    5.47
  15   3  -4   16.13    4.65
  15  -3  -3   90.68   11.36
  15   3  -3  129.11   13.06
  15  -3  -3   91.15   11.93
  15   3  -3   95.28   11.54
  15   3  -3   97.19   11.09
  15   3  -2   34.93    7.75
  15   3  -2   28.26    6.50
  15  -3  -2   35.73    7.36
  15  -3  -2   29.31    6.57
  15   3  -2   26.25    6.52
  15   3  -1   25.54    5.96
  15  -3  -1   29.49    6.14
  15   3  -1   36.94    7.18
  15  -3  -1   29.60    6.91
  15   3  -1   40.24    7.84
  15  -3   0   51.76    8.55
  15  -3   0   62.04    9.86
  15   3   0   54.20    8.48
  15   3   0   59.08    8.80
  15   3   0   58.73    8.63
  15  -3   1   38.41    7.16
  15   3   1   39.59    7.50
  15  -3   1   37.80    7.93
  15   3   1   33.09    7.07
  15   3   1   41.65    7.79
  15   3   2   25.81    5.91
  15   3   2   24.63    5.74
  15  -3   2   32.80    6.71
  15  -3   2   28.56    7.11
  15   3   2   28.22    7.05
  15  -3   3  102.67   12.06
  15  -3   3  116.99   12.99
  15   3   3   94.90   10.79
  15   3   3  121.67   12.97
  15   3   4   17.33    4.05
  15   3   4   13.07    4.86
  15  -3   4   13.92    4.43
  15  -3   4   23.63    6.84
  15   3   5   33.36    6.98
  15   3   5   30.16    6.53
  15  -3   5   17.61    5.99
  15  -3   5   33.62    8.17
  15   3   6   30.88    6.63
  15   3   6   28.62    7.07
  15  -3   6   25.53    6.42
  15   3   7   23.55    6.29
  15   3   7   29.22    6.36
  15  -3   7   33.28    6.71
  15  -3   7   20.31    6.65
  15   3   8   27.79    7.12
  15   3   8   30.02    6.50
  15  -3   8   39.16    7.90
  15  -3   8   13.62    3.95
  15   3   9   19.64    5.49
  15   3   9   19.96    5.82
  15  -3   9    9.52    4.02
  15  -3   9   10.79    3.41
  15   3  10    3.47    2.70
  15   3  10   -0.27    2.79
  15  -3  10    0.17    1.92
  15  -3  10    1.26    2.79
  15   3  11   30.14    6.89
  15   3  11   18.49    5.59
  15  -3  11   11.23    4.98
  15  -3  11   16.88    5.84
  15  -3  12   67.95   10.23
  15   3  12   64.03    9.96
  15   3  12   48.57    9.27
  15   3  13    5.46    4.15
  15  -3  13   10.55    4.50
  15   3  14   13.00    4.53
  15  -3  14   34.08    7.68
  15   3  15   16.87    5.49
  15  -3  15   10.93    4.66
  15   3  16    4.32    2.35
  15  -3  16    4.03    3.63
  15  -3  17   71.33   11.18
  15   3  17   65.56   10.13
  15   3  18   43.50    8.96
  15  -3  18   26.70    6.69
  15   3  19    7.71    4.42
  15  -3  19    5.82    2.90
  15  -4 -18   12.82    5.23
  15   4 -18    4.35    2.89
  15  -4 -17   15.94    5.70
  15   4 -17    3.93    2.94
  15  -4 -16   24.01    6.63
  15   4 -16   16.41    5.59
  15  -4 -15   23.70    6.67
  15   4 -15   15.10    5.43
  15  -4 -14   23.57    5.92
  15  -4 -14   26.59    6.23
  15   4 -14   34.47    7.36
  15  -4 -13   31.74    7.60
  15  -4 -13   19.13    5.99
  15   4 -13   25.79    6.42
  15  -4 -12   -0.94    3.30
  15  -4 -12    1.24    2.20
  15   4 -12    4.16    2.86
  15  -4 -11   48.68    8.80
  15  -4 -11   36.28    7.70
  15   4 -11   36.38    7.29
  15  -4 -10   10.02    5.07
  15  -4 -10    9.37    4.12
  15   4 -10   11.25    4.29
  15  -4  -9   26.19    6.46
  15  -4  -9   27.05    6.80
  15   4  -9   17.82    5.31
  15   4  -8   32.12    6.46
  15  -4  -8   39.68    7.74
  15  -4  -8   30.94    7.12
  15  -4  -7   42.49    7.86
  15  -4  -7   46.79    8.72
  15   4  -7   46.60    8.14
  15   4  -6   12.62    4.26
  15  -4  -6   22.57    5.78
  15  -4  -6   17.53    5.29
  15   4  -5   23.07    5.90
  15  -4  -5   27.13    6.94
  15   4  -5   38.05    7.80
  15  -4  -5   13.75    4.90
  15   4  -4   17.38    5.55
  15   4  -4   13.94    4.85
  15  -4  -4    9.53    4.19
  15  -4  -4    8.84    4.94
  15   4  -3    3.07    2.01
  15   4  -3    9.94    3.69
  15  -4  -3   12.57    4.57
  15  -4  -3    7.41    3.78
  15   4  -2   -1.18    2.46
  15   4  -2    4.66    1.84
  15  -4  -2    2.06    2.93
  15  -4  -2    4.02    5.68
  15   4  -1    8.39    3.72
  15   4  -1   12.57    3.89
  15  -4  -1   11.21    4.46
  15  -4  -1   16.88    5.76
  15   4   0   17.69    5.32
  15   4   0   16.49    5.15
  15  -4   0   21.99    5.33
  15  -4   0   16.35    4.35
  15   4   1   16.68    5.49
  15   4   1    7.96    4.00
  15  -4   1   13.44    5.16
  15  -4   1    9.21    4.71
  15   4   2   -0.02    3.13
  15   4   2   -1.06    1.79
  15  -4   2    3.54    2.44
  15  -4   2   -0.80    2.12
  15   4   3   14.29    5.09
  15   4   3    9.66    4.59
  15  -4   3   -0.52    2.44
  15  -4   3    7.86    4.70
  15   4   4    5.22    2.64
  15   4   4   15.73    4.29
  15  -4   4   10.53    4.51
  15  -4   4   12.57    5.16
  15   4   5   30.59    6.65
  15   4   5   12.97    5.04
  15  -4   5   22.80    6.17
  15  -4   5   31.24    7.16
  15   4   6   18.21    5.87
  15   4   6   12.79    4.92
  15  -4   6   12.78    4.77
  15  -4   6   16.79    6.02
  15   4   7   44.78    8.38
  15   4   7   37.35    7.15
  15  -4   7   41.80    7.44
  15  -4   7   32.74    7.42
  15   4   8   25.80    6.74
  15   4   8   29.18    6.75
  15  -4   8   35.15    7.53
  15  -4   8   30.68    7.85
  15   4   9   16.89    5.90
  15   4   9   21.92    5.87
  15  -4   9   17.20    5.50
  15  -4   9   19.50    6.29
  15   4  10   11.82    4.29
  15   4  10    7.27    3.88
  15  -4  10   14.90    5.29
  15  -4  10   11.45    4.29
  15   4  11   37.58    7.76
  15  -4  11   32.71    7.35
  15  -4  11   39.26    8.01
  15   4  11   45.47    8.29
  15   4  12    4.54    3.50
  15   4  12    6.73    3.26
  15  -4  12    1.81    2.77
  15  -4  12    7.68    3.68
  15   4  13   27.90    6.50
  15  -4  13   20.50    6.68
  15  -4  13   31.21    8.05
  15   4  14   19.99    5.19
  15  -4  14   28.84    6.30
  15  -4  14   27.74    7.16
  15   4  15   16.60    5.28
  15  -4  15   26.06    7.28
  15   4  16   17.64    5.93
  15  -4  16    3.55    3.93
  15   4  17   19.66    5.26
  15  -4  17    6.05    3.65
  15   4  18    2.78    3.10
  15  -4  18    7.85    4.72
  15  -5 -16   15.83    6.09
  15   5 -16    7.26    4.66
  15  -5 -15   19.93    6.17
  15  -5 -15   13.41    4.64
  15   5 -15   16.91    4.92
  15  -5 -14    7.05    3.62
  15  -5 -14   23.25    6.43
  15   5 -14   23.48    5.77
  15  -5 -13   20.01    6.09
  15  -5 -13   32.53    6.92
  15   5 -13   36.95    7.57
  15  -5 -12   13.54    6.05
  15  -5 -12    3.69    3.43
  15   5 -12    4.24    2.94
  15   5 -11   11.76    4.96
  15  -5 -11    7.01    3.95
  15  -5 -11    3.18    3.23
  15   5 -10   26.85    6.07
  15  -5 -10   24.15    6.68
  15  -5 -10   17.79    5.74
  15  -5  -9   68.43   10.42
  15   5  -9  104.45   12.58
  15  -5  -9   86.05   11.96
  15   5  -8   14.29    5.28
  15  -5  -8    9.31    4.86
  15  -5  -8    7.98    4.27
  15   5  -7   28.37    6.48
  15  -5  -7   12.61    3.88
  15  -5  -7   20.45    6.01
  15   5  -6   25.16    6.15
  15  -5  -6   16.98    5.53
  15  -5  -6   17.52    6.45
  15   5  -5    1.52    3.25
  15  -5  -5    8.57    3.39
  15  -5  -5    8.42    2.16
  15   5  -4   30.53    7.26
  15  -5  -4   26.71    6.79
  15  -5  -4   23.30    5.88
  15  -5  -3   73.88   10.53
  15  -5  -3   62.63   10.30
  15   5  -3   67.08    9.71
  15   5  -3   83.85   10.63
  15   5  -2   -0.68    2.96
  15   5  -2    5.03    3.49
  15  -5  -2   -0.91    1.87
  15  -5  -2    0.44    2.69
  15  -5  -1   69.59   10.21
  15  -5  -1   58.95    9.70
  15   5  -1   61.96    9.08
  15   5  -1   72.58    9.96
  15  -5   0   67.80    9.53
  15  -5   0   53.40    9.33
  15   5   0   52.93    9.29
  15   5   0   69.40   10.24
  15  -5   1   61.07    9.73
  15  -5   1   69.21   10.44
  15   5   1   80.33   10.59
  15   5   1   75.48   10.56
  15   5   2    0.67    2.80
  15  -5   2    5.81    4.00
  15   5   2    1.01    1.59
  15  -5   2    1.60    2.34
  15  -5   3   88.55   12.17
  15  -5   3   68.16   10.62
  15   5   3   78.93   10.61
  15   5   3   82.12   10.62
  15   5   4   19.03    6.11
  15  -5   4   15.60    5.03
  15   5   4   10.89    3.66
  15  -5   4   22.80    6.98
  15   5   5   -0.96    2.70
  15  -5   5    1.84    1.98
  15   5   5    7.10    3.37
  15  -5   5   -1.62    2.28
  15   5   6   19.98    5.30
  15  -5   6   28.02    6.69
  15   5   6   31.16    7.44
  15  -5   6   34.97    8.03
  15   5   7   20.66    5.84
  15  -5   7   18.80    5.29
  15   5   7   25.50    6.14
  15  -5   7   18.10    5.01
  15   5   8    5.66    4.23
  15  -5   8    8.17    4.02
  15   5   8    5.87    3.17
  15  -5   8   12.75    5.60
  15   5   9   93.90   11.84
  15  -5   9   64.08   10.48
  15  -5   9   71.99   11.00
  15   5   9   74.99   10.58
  15   5  10   24.44    5.70
  15  -5  10   23.26    6.24
  15   5  10   18.06    5.45
  15  -5  10   34.65    7.73
  15   5  11    9.26    4.35
  15  -5  11   12.00    5.29
  15   5  11    7.41    3.14
  15  -5  11    7.72    2.92
  15   5  12    8.60    3.61
  15  -5  12   11.86    4.72
  15   5  12    9.98    5.10
  15  -5  12   11.35    5.42
  15   5  13   57.09    9.24
  15  -5  13   50.39    9.57
  15  -5  14   11.41    4.52
  15   5  14   16.22    5.00
  15  -5  14   20.91    5.96
  15  -5  15   10.47    4.55
  15   5  15   13.51    5.01
  15  -5  15   11.82    6.22
  15  -5  16    1.56    2.68
  15   5  16    6.52    3.97
  15  -5  16    9.17    5.34
  15  -6 -14    4.39    4.29
  15  -6 -14    3.71    4.43
  15   6 -14   -5.45    3.84
  15   6 -13   -1.74    2.92
  15  -6 -13    2.69    3.60
  15  -6 -13   -0.09    2.15
  15   6 -12    3.08    4.80
  15  -6 -12    7.85    3.90
  15  -6 -12   -0.19    3.82
  15   6 -11    3.19    3.04
  15  -6 -11    1.51    2.50
  15  -6 -11    5.38    3.18
  15   6 -10    4.51    2.42
  15  -6 -10   13.85    5.68
  15  -6 -10   10.28    5.02
  15  -6  -9   -0.61    2.44
  15  -6  -9    3.97    3.79
  15   6  -8    1.13    2.26
  15  -6  -8    6.51    3.19
  15  -6  -8   -3.78    4.94
  15   6  -7    4.35    3.38
  15  -6  -7   -1.65    2.81
  15  -6  -7    4.38    2.64
  15   6  -6    2.83    1.31
  15  -6  -6    3.80    3.42
  15  -6  -6    6.22    3.70
  15   6  -5    6.84    3.05
  15  -6  -5    2.33    2.07
  15  -6  -5    1.96    3.99
  15   6  -4   29.01    6.38
  15  -6  -4   24.73    6.49
  15  -6  -4   18.87    5.76
  15   6  -3   -3.10    2.02
  15  -6  -3   -1.30    1.39
  15  -6  -3    2.75    3.00
  15   6  -2   25.44    6.37
  15  -6  -2   17.64    4.71
  15   6  -2   28.95    6.80
  15  -6  -2   36.57    7.97
  15   6  -1   33.57    7.21
  15  -6  -1   35.01    6.90
  15   6  -1   26.35    6.61
  15  -6  -1   39.49    8.46
  15   6   0   22.90    6.17
  15  -6   0   38.26    8.58
  15   6   0   39.63    7.88
  15  -6   0   31.62    7.49
  15   6   1   38.10    7.99
  15  -6   1   32.59    6.69
  15   6   1   38.88    7.83
  15  -6   1   27.54    6.33
  15   6   2   23.66    6.74
  15  -6   2   20.17    5.38
  15   6   2   20.12    4.26
  15  -6   2   28.86    6.91
  15   6   3    0.91    2.09
  15  -6   3    4.92    2.28
  15   6   3   -1.18    2.35
  15  -6   3    1.16    2.13
  15   6   4   25.77    5.78
  15  -6   4   27.21    6.78
  15   6   4   33.30    7.09
  15  -6   4   35.44    7.85
  15   6   5    7.42    2.68
  15  -6   5    9.61    4.00
  15   6   5    7.87    2.21
  15  -6   5    3.58    3.79
  15   6   6   10.54    3.90
  15  -6   6    5.62    4.60
  15   6   6    5.88    4.08
  15  -6   6    9.88    4.78
  15   6   7    2.39    3.32
  15  -6   7    3.19    4.15
  15   6   7    0.72    1.96
  15  -6   7    4.07    4.07
  15   6   8    0.19    2.37
  15  -6   8    1.20    2.86
  15   6   8    2.46    2.01
  15  -6   8   -0.18    2.43
  15   6   9    1.63    2.20
  15  -6   9    0.79    3.00
  15   6   9   -1.94    3.29
  15  -6   9    4.00    3.03
  15   6  10    9.48    4.35
  15  -6  10   13.21    5.70
  15   6  10   20.35    5.94
  15  -6  10   10.07    4.86
  15   6  11   -1.40    2.59
  15  -6  11    3.75    2.61
  15   6  11    5.20    3.36
  15  -6  11    1.25    3.89
  15   6  12    3.03    3.61
  15  -6  12    6.07    3.18
  15   6  12    4.36    2.97
  15  -6  12    6.57    5.41
  15   6  13   -3.60    5.00
  15  -6  13    2.77    3.32
  15   6  13    1.86    1.70
  15  -6  13   -0.98    2.73
  15  -6  14    8.00    5.46
  15   6  14   -2.49    3.39
  15  -6  14    0.82    2.79
  15  -7 -10   12.73    4.97
  15   7 -10   21.64    5.99
  15  -7 -10   14.61    4.73
  15   7  -9   27.74    6.93
  15  -7  -9   20.63    6.96
  15  -7  -9   23.71    6.69
  15   7  -8   -2.30    2.70
  15  -7  -8   -1.03    3.72
  15  -7  -8   -3.06    4.58
  15   7  -7   29.67    6.35
  15  -7  -7   16.64    5.85
  15  -7  -7   25.66    6.54
  15   7  -6    2.75    3.25
  15  -7  -6    5.03    2.54
  15  -7  -6    3.89    4.32
  15   7  -5    1.81    3.39
  15  -7  -5    8.05    3.68
  15  -7  -5   -0.34    3.82
  15   7  -4   15.49    5.67
  15  -7  -4   10.78    4.82
  15  -7  -4    6.93    2.14
  15   7  -3   27.87    6.46
  15  -7  -3   24.76    6.78
  15  -7  -3   28.79    7.08
  15   7  -2    5.69    2.58
  15  -7  -2   -0.76    1.66
  15  -7  -2    5.19    2.71
  15   7  -1   29.66    7.00
  15  -7  -1   20.80    6.13
  15  -7  -1   22.86    6.42
  15   7   0   11.66    4.42
  15  -7   0   13.06    3.31
  15   7   0   16.06    5.37
  15  -7   0   22.43    5.66
  15   7   1   22.54    6.40
  15  -7   1   27.72    7.09
  15   7   1   22.08    6.68
  15  -7   1   28.18    7.57
  15   7   2    3.84    1.84
  15  -7   2    5.27    2.85
  15   7   2    6.61    4.96
  15  -7   2    6.08    4.64
  15   7   3   19.74    5.77
  15  -7   3   11.07    4.68
  15   7   3   10.08    2.71
  15  -7   3   12.50    6.18
  15   7   4    7.58    4.36
  15  -7   4   10.94    4.74
  15   7   4   17.95    5.26
  15  -7   4    5.86    3.07
  15   7   5    3.30    2.63
  15  -7   5    5.30    3.44
  15   7   5   10.33    4.82
  15  -7   5    8.52    4.59
  15   7   6    2.56    2.60
  15  -7   6    7.28    4.76
  15   7   6    5.32    4.03
  15  -7   6    3.75    4.73
  15   7   7   13.71    5.40
  15   7   7   18.28    5.22
  15  -7   7   29.43    7.57
  15   7   8    3.81    3.87
  15  -7   8   -2.56    3.74
  15   7   8   -0.93    3.46
  15  -7   8    2.60    2.26
  15   7   9   37.29    8.76
  15  -7   9   27.99    7.36
  15   7   9   43.39    8.31
  15  -7   9   34.36    9.21
  15   7  10   20.76    5.66
  15  -7  10   26.80    6.78
  15   7  10   11.03    4.24
  15  -7  10   25.46    6.95
  15  -8  -2   28.63    7.48
  15   8  -2   17.73    4.90
  15  -8  -2   39.94    8.85
  15   8  -1   12.85    6.47
  15  -8  -1    3.90    4.09
  15  -8  -1   12.68    4.18
  15   8   0    9.36    4.95
  15  -8   0   20.71    6.75
  15  -8   0   10.03    5.04
  15   8   1    3.19    3.86
  15  -8   1   10.83    5.64
  15   8   1   -6.23    1.94
  15  -8   1    6.86    4.68
  15   8   2   18.07    5.80
  15  -8   2   26.93    6.46
  15   8   2   24.03    7.06
  15  -8   2   32.94    8.12
  16   0 -17   73.31   11.17
  16   0 -16    1.64    2.85
  16   0 -15    4.79    2.06
  16   0 -14    5.80    3.13
  16   0 -13  220.21   18.77
  16   0 -12    8.45    3.55
  16   0 -11   25.29    6.91
  16   0 -10   14.12    4.44
  16   0  -9   31.33    6.83
  16   0  -9   36.20    8.22
  16   0  -8   22.40    5.30
  16   0  -8   19.23    5.27
  16   0  -7  173.96   15.69
  16   0  -7  155.77   15.51
  16   0  -6   13.35    4.37
  16   0  -6   13.86    4.14
  16   0  -5    1.22    2.50
  16   0  -5    8.40    4.16
  16   0  -4   42.89    7.90
  16   0  -4   37.59    7.69
  16   0  -3  120.30   13.01
  16   0  -3  132.54   14.01
  16   0  -2  154.27   14.24
  16   0  -2  128.59   13.80
  16   0  -1   25.40    6.14
  16   0  -1   27.99    7.03
  16   0   0    7.43    2.70
  16   0   0    8.12    4.53
  16   0   1   10.32    3.82
  16   0   1   14.07    4.35
  16   0   2  115.26   12.46
  16   0   2  131.73   14.04
  16   0   3  122.97   13.30
  16   0   3  144.48   14.63
  16   0   4   52.73    8.56
  16   0   4   45.50    8.78
  16   0   5    8.22    4.22
  16   0   5    1.21    2.30
  16   0   6    9.23    3.47
  16   0   6   10.69    4.47
  16   0   7  161.28   15.05
  16   0   8   21.53    6.51
  16   0   9   40.83    7.69
  16   0  10   18.41    5.84
  16   0  11   33.74    6.92
  16   0  12    5.85    2.96
  16   0  13  227.66   18.16
  16   0  14    4.12    2.63
  16   0  15   17.43    4.91
  16   0  16    7.39    4.63
  16   0  17   78.93   11.14
  16   0  18   42.22    7.94
  16   0  19   89.86   13.06
  16  -1 -19    4.61    4.37
  16  -1 -18    4.14    3.59
  16  -1 -17    5.08    2.36
  16  -1 -16    0.69    3.02
  16  -1 -15    0.90    2.92
  16  -1 -14   15.95    5.24
  16   1 -13   12.75    6.24
  16  -1 -13   10.12    5.27
  16   1 -12   -1.61    2.54
  16  -1 -12   -0.82    2.80
  16  -1 -11   -4.90    3.89
  16   1 -11    0.34    1.67
  16  -1 -10   -1.94    2.18
  16  -1 -10    1.77    2.94
  16   1 -10    1.03    3.88
  16  -1  -9   13.91    4.46
  16  -1  -9    3.93    2.20
  16   1  -9   10.92    4.79
  16  -1  -8    2.76    2.17
  16   1  -8   -1.39    2.02
  16  -1  -8    0.38    3.33
  16   1  -8   -0.30    2.17
  16  -1  -7    0.66    1.58
  16   1  -7   -1.17    1.49
  16  -1  -7   -1.07    3.45
  16   1  -7    3.05    4.04
  16   1  -7    3.47    3.73
  16  -1  -6    3.54    2.81
  16   1  -6    2.64    2.21
  16  -1  -6    2.77    2.83
  16   1  -6    8.00    3.22
  16   1  -6    7.73    4.62
  16  -1  -5   19.80    5.39
  16   1  -5   27.54    6.07
  16  -1  -5   26.17    6.73
  16   1  -5   24.22    6.73
  16   1  -5   25.65    5.71
  16  -1  -4   -1.04    1.56
  16   1  -4    6.81    2.23
  16  -1  -4    1.67    2.94
  16   1  -4   -0.15    1.89
  16   1  -4    1.63    2.24
  16  -1  -3   21.84    5.63
  16   1  -3   34.26    7.08
  16  -1  -3   24.38    6.87
  16   1  -3   26.78    6.29
  16   1  -3   35.66    7.09
  16  -1  -2    1.86    2.97
  16   1  -2   -1.69    1.44
  16  -1  -2    1.47    3.24
  16   1  -2    0.13    1.49
  16   1  -2   -1.42    2.22
  16  -1  -1    3.42    2.12
  16   1  -1    2.96    2.79
  16  -1  -1    7.88    4.33
  16   1  -1   10.66    4.76
  16   1  -1    4.80    3.62
  16  -1   0    1.83    2.74
  16  -1   0   -1.70    2.28
  16   1   0    9.21    4.43
  16   1   0    2.61    2.91
  16   1   0    3.58    3.27
  16  -1   1    2.08    1.89
  16  -1   1   10.07    3.94
  16   1   1    3.12    2.06
  16   1   1    5.00    2.24
  16   1   1    4.84    3.90
  16  -1   2   -0.72    2.57
  16  -1   2    1.25    3.04
  16   1   2    1.70    3.77
  16   1   2    5.80    3.58
  16   1   2    3.54    2.86
  16  -1   3   33.55    7.30
  16  -1   3   33.68    7.24
  16   1   3   22.59    5.80
  16   1   3   29.87    6.63
  16   1   3   29.95    6.61
  16  -1   4    1.80    2.40
  16  -1   4    0.11    2.50
  16   1   4    1.18    1.78
  16   1   4    2.67    3.71
  16   1   4   -0.29    2.31
  16  -1   5   15.77    3.98
  16  -1   5   15.85    4.90
  16   1   5   24.30    6.65
  16   1   5   27.20    6.43
  16   1   5   26.12    6.01
  16  -1   6    1.76    1.95
  16  -1   6    4.82    3.37
  16   1   6    3.61    3.53
  16   1   6    0.96    1.45
  16  -1   7   -0.71    2.51
  16  -1   7    0.62    2.89
  16   1   7    2.19    2.46
  16   1   7    0.66    1.97
  16   1   8    0.85    1.47
  16  -1   8    3.34    2.56
  16   1   8   -3.32    3.26
  16   1   9   15.96    5.14
  16  -1   9    5.50    3.19
  16   1   9    8.54    4.17
  16   1  10    1.15    2.36
  16  -1  10    2.72    2.44
  16   1  10   -0.69    2.14
  16   1  11    6.41    4.62
  16  -1  11    1.34    2.73
  16   1  12    1.00    1.79
  16  -1  12   -0.46    2.63
  16   1  13    9.56    3.87
  16  -1  13   10.76    5.63
  16   1  14   19.19    5.96
  16  -1  14   15.59    5.48
  16   1  15    8.27    4.64
  16  -1  15    3.13    4.32
  16   1  16    1.39    4.05
  16  -1  16    4.23    3.88
  16   1  17    7.15    4.01
  16  -1  17    4.96    2.34
  16   1  18   -3.01    3.24
  16  -1  18    3.65    2.35
  16   1  19    0.47    2.96
  16  -1  19   -1.83    2.13
  16  -2 -19   14.61    6.04
  16  -2 -18   14.61    5.62
  16  -2 -17   56.61    9.72
  16  -2 -16   10.21    5.20
  16  -2 -15    4.49    3.40
  16  -2 -14   14.24    5.10
  16  -2 -13  113.00   13.25
  16  -2 -12   -4.12    2.62
  16  -2 -12    5.37    3.46
  16  -2 -11   22.98    5.60
  16  -2 -11   22.61    6.30
  16   2 -11   15.48    5.11
  16  -2 -10   11.67    4.19
  16  -2 -10    6.18    2.58
  16   2 -10    6.42    4.49
  16  -2  -9   24.75    6.14
  16  -2  -9   24.38    6.48
  16   2  -9   12.01    3.94
  16  -2  -8    3.89    2.24
  16  -2  -8   -0.96    2.26
  16   2  -8    1.60    3.12
  16  -2  -7   72.54   10.47
  16   2  -7   83.06   11.20
  16  -2  -7   76.29   10.87
  16   2  -7   62.76   10.13
  16   2  -7   83.32   10.88
  16  -2  -6    3.94    3.58
  16   2  -6    9.47    3.75
  16  -2  -6    4.35    2.16
  16   2  -6    5.49    3.13
  16   2  -6    7.17    4.19
  16  -2  -5    9.33    3.86
  16  -2  -5   17.88    5.79
  16   2  -5   23.68    5.87
  16   2  -5   11.56    4.90
  16   2  -5    9.17    3.66
  16  -2  -4    9.94    3.78
  16  -2  -4   10.49    3.56
  16   2  -4    6.44    3.40
  16   2  -4   -0.09    3.32
  16   2  -4    4.33    3.01
  16  -2  -3   83.83   11.31
  16   2  -3   79.04   10.26
  16  -2  -3   92.89   12.16
  16   2  -3  126.70   13.59
  16   2  -3   94.29   11.13
  16  -2  -2    4.99    2.53
  16  -2  -2   11.69    4.98
  16   2  -2    5.42    2.08
  16   2  -2   10.66    3.38
  16   2  -2    7.26    3.37
  16  -2  -1   11.97    4.45
  16  -2  -1   10.76    4.41
  16   2  -1    6.70    3.63
  16   2  -1   11.03    4.45
  16   2  -1    6.46    3.37
  16  -2   0    2.80    1.71
  16  -2   0    7.05    1.70
  16   2   0    1.09    1.71
  16   2   0    3.89    1.39
  16   2   0    4.75    3.09
  16  -2   1   17.15    4.84
  16  -2   1    9.99    3.35
  16   2   1   17.80    5.62
  16   2   1   10.09    4.43
  16   2   1    6.80    2.29
  16   2   2    3.65    2.99
  16  -2   2    5.48    2.93
  16  -2   2    4.29    2.31
  16   2   2    7.48    4.32
  16   2   2    6.32    2.41
  16  -2   3  136.99   13.70
  16   2   3   96.47   11.67
  16  -2   3   91.99   11.66
  16   2   3   95.83   12.04
  16   2   3  104.32   11.93
  16   2   4    8.34    3.49
  16  -2   4    8.42    4.19
  16  -2   4    8.40    4.19
  16   2   4    6.85    3.66
  16   2   4   10.02    4.35
  16   2   5   12.02    4.92
  16  -2   5   13.34    4.14
  16  -2   5    4.70    3.19
  16   2   5   13.70    4.03
  16   2   6    4.20    1.53
  16  -2   6    9.91    4.34
  16  -2   6    3.93    4.25
  16   2   6    6.37    3.55
  16  -2   7   59.63    9.31
  16   2   7   64.71    9.39
  16  -2   7   84.43   10.70
  16   2   7   69.60   10.24
  16   2   8    6.41    3.63
  16  -2   8    5.58    3.45
  16  -2   8    0.82    4.04
  16   2   8    3.47    1.84
  16   2   9   26.79    6.33
  16  -2   9   23.68    6.63
  16  -2   9   18.86    5.99
  16   2   9   29.35    7.19
  16   2  10    9.30    4.15
  16  -2  10    9.99    4.49
  16   2  10    4.32    3.60
  16   2  11   18.83    5.08
  16  -2  11   13.30    5.87
  16   2  11   18.87    5.49
  16   2  12   15.03    3.74
  16  -2  12   17.98    4.59
  16  -2  13   74.42   10.80
  16   2  13  109.69   13.16
  16   2  14   11.44    4.95
  16  -2  14    4.69    3.23
  16   2  15    1.26    2.17
  16  -2  15    3.34    3.00
  16   2  16    9.77    5.23
  16  -2  16    4.97    3.24
  16  -2  17   79.36   11.59
  16   2  17   75.54   11.17
  16   2  18    6.60    3.79
  16  -2  18   13.75    5.34
  16   2  19   15.99    6.67
  16  -2  19    8.15    4.47
  16  -3 -18   -0.36    3.33
  16  -3 -17   -0.70    2.48
  16  -3 -16    2.09    2.36
  16   3 -16   -1.34    3.83
  16  -3 -15    2.01    2.88
  16   3 -15    0.74    2.74
  16  -3 -14    3.26    2.86
  16   3 -14   -0.11    2.05
  16  -3 -13   -1.08    1.69
  16   3 -13    3.09    2.73
  16  -3 -12    1.81    3.31
  16  -3 -12   -0.47    2.33
  16   3 -12    0.47    2.98
  16  -3 -11   10.60    5.82
  16  -3 -11    5.98    3.48
  16   3 -11   13.13    4.36
  16  -3 -10    3.91    4.48
  16  -3 -10    4.18    4.05
  16   3 -10    4.62    3.71
  16  -3  -9    0.37    2.09
  16  -3  -9    3.25    2.97
  16   3  -9    2.90    1.72
  16  -3  -8    5.06    4.05
  16  -3  -8    5.28    2.80
  16   3  -8    3.33    4.02
  16  -3  -7    2.26    2.17
  16  -3  -7   -0.32    3.24
  16   3  -7    6.84    2.98
  16  -3  -6    3.46    3.20
  16  -3  -6    3.71    3.03
  16   3  -6    2.52    2.09
  16  -3  -5   12.37    4.22
  16  -3  -5    4.16    2.96
  16   3  -5    9.73    3.79
  16   3  -5    2.48    3.85
  16  -3  -4   10.90    3.57
  16  -3  -4    2.42    3.71
  16   3  -4    0.73    2.25
  16   3  -4   -1.14    3.57
  16  -3  -3    1.82    1.60
  16  -3  -3    0.12    1.69
  16   3  -3   -0.21    2.41
  16   3  -3    5.41    4.32
  16   3  -2    2.24    2.25
  16  -3  -2    2.00    1.98
  16  -3  -2   -0.69    2.62
  16   3  -2    4.08    3.15
  16   3  -2    3.01    2.90
  16   3  -1    4.30    3.63
  16  -3  -1    7.80    4.08
  16  -3  -1    5.72    3.58
  16   3  -1    1.67    2.11
  16   3  -1    3.86    2.28
  16   3   0   -0.64    2.44
  16  -3   0   -0.01    1.60
  16  -3   0    2.07    3.67
  16   3   0    0.64    1.76
  16   3   0    3.70    3.58
  16   3   1    3.15    2.42
  16  -3   1    2.63    1.44
  16  -3   1   -1.32    2.64
  16   3   1    1.70    1.71
  16   3   1    5.37    2.71
  16   3   2    2.69    2.79
  16  -3   2    0.44    3.63
  16  -3   2    4.51    3.48
  16   3   2    1.94    3.52
  16   3   2    3.84    3.25
  16   3   3    0.10    1.53
  16   3   3    1.64    2.10
  16  -3   3    2.17    2.03
  16  -3   3   -1.40    2.56
  16   3   3   -0.26    2.89
  16   3   4    2.20    2.62
  16   3   4    5.30    3.89
  16  -3   4    0.31    3.29
  16  -3   4    1.07    2.24
  16   3   5    4.62    3.68
  16   3   5    2.58    3.41
  16  -3   5    4.03    4.37
  16  -3   5    0.23    2.50
  16   3   6    3.82    1.86
  16   3   6    0.19    2.35
  16  -3   6    0.52    3.03
  16  -3   6    2.35    2.24
  16   3   7    7.88    4.88
  16   3   7    2.12    2.81
  16  -3   7    6.63    3.06
  16  -3   7   12.76    5.75
  16   3   8    4.19    3.82
  16   3   8    0.65    2.72
  16  -3   8    8.43    2.76
  16  -3   8    4.04    4.19
  16   3   9    2.44    2.63
  16  -3   9    2.07    2.56
  16  -3   9    0.86    2.05
  16   3   9    1.48    3.45
  16   3  10    3.93    2.95
  16  -3  10    0.63    2.88
  16  -3  10    2.94    3.88
  16   3  10   -0.46    2.08
  16   3  11    7.25    2.77
  16  -3  11    9.04    4.01
  16  -3  11   14.87    5.85
  16   3  11    6.32    3.42
  16   3  12    1.49    3.06
  16  -3  12    0.21    2.65
  16  -3  12    2.61    2.99
  16   3  13    1.52    3.36
  16  -3  13    4.16    2.58
  16   3  14    4.97    4.52
  16  -3  14   -1.64    2.95
  16   3  15   -5.09    4.05
  16  -3  15    6.80    3.81
  16   3  16    0.48    2.60
  16  -3  16    8.06    3.48
  16   3  17   -2.30    2.90
  16  -3  17   -1.35    4.27
  16   3  18   -0.97    2.71
  16  -3  18   -2.16    2.84
  16  -4 -16    9.26    3.32
  16   4 -16    6.19    2.24
  16  -4 -15   10.07    4.43
  16   4 -15   10.46    5.62
  16  -4 -14   -0.75    3.89
  16  -4 -14    4.06    2.83
  16   4 -14    4.10    2.72
  16  -4 -13   84.15   12.32
  16   4 -13  123.68   13.72
  16  -4 -13   92.50   12.54
  16  -4 -12   12.04    5.42
  16  -4 -12   15.28    6.09
  16   4 -12   14.04    4.68
  16  -4 -11   17.31    5.48
  16  -4 -11   19.57    5.81
  16   4 -11   19.29    5.60
  16  -4 -10    2.69    2.22
  16  -4 -10   12.90    4.99
  16   4 -10   16.30    4.67
  16  -4  -9   29.18    7.02
  16  -4  -9   34.34    7.22
  16   4  -9   51.47    8.71
  16  -4  -8    0.22    1.78
  16  -4  -8    2.58    2.84
  16   4  -8   -1.05    2.84
  16  -4  -7   57.81    9.41
  16  -4  -7   51.68    8.93
  16   4  -7   52.27    8.61
  16  -4  -6    0.03    1.70
  16  -4  -6    0.53    2.25
  16   4  -6    5.13    3.76
  16   4  -5   28.29    6.51
  16  -4  -5   34.89    8.08
  16  -4  -5   33.62    8.14
  16   4  -4    5.27    3.85
  16   4  -4    5.61    3.67
  16  -4  -4    4.81    3.77
  16  -4  -3  112.65   13.11
  16  -4  -3   91.36   12.17
  16   4  -3   82.86   10.68
  16   4  -3  107.76   12.32
  16   4  -2   13.54    5.24
  16   4  -2   18.81    4.99
  16  -4  -2   14.40    4.85
  16  -4  -2    4.75    2.06
  16   4  -1   20.94    6.35
  16   4  -1   18.30    5.44
  16  -4  -1   23.68    6.59
  16  -4  -1   21.38    6.35
  16   4   0    3.33    4.07
  16   4   0    3.28    3.59
  16  -4   0    0.21    2.80
  16  -4   0   -1.19    3.06
  16   4   1   19.38    5.85
  16   4   1   21.93    5.56
  16  -4   1   27.25    6.58
  16  -4   1   22.75    5.64
  16   4   2   12.05    4.05
  16   4   2   14.62    5.45
  16  -4   2    1.86    2.89
  16  -4   2   12.87    4.57
  16  -4   3  107.21   12.57
  16  -4   3  116.48   13.85
  16   4   3   83.46   10.91
  16   4   3   93.88   11.45
  16   4   4    5.85    2.46
  16   4   4    7.95    4.19
  16  -4   4   10.44    4.55
  16  -4   4    5.43    3.16
  16   4   5   17.78    5.12
  16   4   5   21.74    6.03
  16  -4   5   25.51    6.19
  16  -4   5   30.97    7.05
  16   4   6    6.70    4.75
  16   4   6    3.60    3.98
  16  -4   6    2.26    2.99
  16  -4   6   -1.03    2.20
  16   4   7   40.46    7.88
  16  -4   7   60.94    9.55
  16  -4   7   63.98   10.21
  16   4   7   67.78   10.35
  16   4   8    0.61    2.04
  16   4   8    2.56    3.83
  16  -4   8   -5.46    3.61
  16  -4   8    3.90    4.30
  16   4   9   44.03    8.04
  16  -4   9   44.56    8.05
  16  -4   9   44.68    8.99
  16   4   9   51.51    8.64
  16   4  10   15.43    5.24
  16   4  10   12.12    4.74
  16  -4  10    3.74    2.10
  16  -4  10    5.59    3.42
  16   4  11   22.99    5.81
  16   4  11   23.84    6.33
  16  -4  11   14.59    4.82
  16  -4  11   21.65    6.05
  16   4  12    8.62    4.13
  16  -4  12   13.02    5.41
  16  -4  12    9.23    4.91
  16  -4  13  112.13   13.40
  16  -4  13  102.30   13.09
  16   4  13  110.82   12.83
  16   4  14    3.49    2.54
  16  -4  14   -0.26    2.34
  16   4  15   14.53    4.85
  16  -4  15    6.18    3.35
  16  -4  15    3.30    4.20
  16   4  16    4.76    3.29
  16  -4  16    8.33    4.39
  16  -4  16    7.07    4.85
  16  -5 -14   25.91    7.53
  16  -5 -14   27.99    6.04
  16   5 -14   35.89    7.71
  16  -5 -13   -2.09    3.09
  16  -5 -13    1.69    2.40
  16   5 -13    0.47    3.01
  16  -5 -12    9.68    3.60
  16  -5 -12    5.61    2.26
  16   5 -12    5.91    3.44
  16  -5 -11    4.61    3.47
  16  -5 -11    7.02    3.54
  16   5 -11    7.82    4.78
  16  -5 -10   15.94    5.53
  16  -5 -10   10.78    3.64
  16   5 -10   18.68    5.67
  16   5  -9    6.43    4.10
  16  -5  -9    6.61    3.88
  16  -5  -9   -1.36    3.27
  16   5  -8   -2.54    2.53
  16  -5  -8   -1.34    1.58
  16  -5  -8   -0.41    2.88
  16   5  -7   -1.28    3.12
  16  -5  -7    0.37    3.61
  16  -5  -7    1.73    3.77
  16   5  -6   -0.97    3.24
  16  -5  -6   -0.64    3.33
  16  -5  -6    2.61    2.08
  16   5  -5   29.75    7.36
  16  -5  -5   27.80    6.31
  16  -5  -5   24.72    6.55
  16   5  -4    4.16    2.97
  16  -5  -4   11.72    4.82
  16  -5  -4    5.45    3.21
  16   5  -3    2.70    3.51
  16   5  -3    0.24    3.95
  16  -5  -3   -1.10    2.79
  16  -5  -3   11.97    4.03
  16   5  -2    3.48    2.38
  16   5  -2    5.84    3.89
  16  -5  -2    1.93    2.23
  16   5  -1   12.95    4.76
  16   5  -1   21.93    6.53
  16  -5  -1   11.13    4.76
  16  -5  -1   18.11    4.87
  16   5   0    3.26    2.94
  16   5   0   -0.55    1.65
  16  -5   0    0.21    1.40
  16  -5   0    1.56    2.17
  16   5   1   23.57    6.69
  16   5   1   19.59    5.93
  16  -5   1    9.48    3.92
  16  -5   1   13.90    5.21
  16   5   2    2.65    2.36
  16   5   2    6.82    3.25
  16  -5   2   -0.15    1.85
  16  -5   2    1.49    3.32
  16   5   3    9.79    3.88
  16   5   3   11.51    4.59
  16  -5   3    2.36    3.23
  16  -5   3    5.99    3.42
  16   5   4    7.31    3.91
  16   5   4   11.93    4.19
  16  -5   4   13.66    4.38
  16  -5   4    8.11    5.08
  16   5   5   30.45    7.22
  16   5   5   16.59    5.77
  16  -5   5   23.17    5.65
  16  -5   5   32.10    7.65
  16   5   6    1.99    3.72
  16  -5   6   -1.36    2.89
  16   5   6   -1.34    2.70
  16  -5   6   -1.36    3.69
  16   5   7   -3.30    3.93
  16  -5   7   -0.50    1.71
  16   5   7   -1.95    3.25
  16  -5   7    2.15    2.71
  16   5   8   -2.72    2.53
  16  -5   8   -3.25    4.13
  16   5   8    0.73    2.17
  16  -5   8   -0.16    2.50
  16   5   9   -0.36    2.24
  16  -5   9   -3.46    4.58
  16   5   9    2.22    3.63
  16  -5   9    2.53    3.78
  16   5  10   14.12    5.50
  16  -5  10   15.33    5.78
  16   5  10    7.94    4.12
  16  -5  10    6.89    3.62
  16   5  11    9.58    4.82
  16  -5  11    7.13    3.28
  16   5  11    4.86    4.04
  16  -5  11    9.45    3.70
  16   5  12   17.84    5.18
  16  -5  12    4.22    3.89
  16   5  12   17.86    6.22
  16  -5  12   14.76    5.30
  16  -5  13    3.44    3.06
  16   5  13    0.92    2.19
  16  -5  13    0.24    4.13
  16   5  14   28.74    6.11
  16  -5  14   40.62    7.92
  16  -5  14   26.63    7.36
  16   6 -11   16.23    5.62
  16  -6 -11   29.03    7.83
  16  -6 -11   18.20    5.98
  16   6 -10    9.77    3.88
  16  -6 -10    1.66    2.09
  16   6  -9   44.98    8.32
  16  -6  -9   41.53    8.46
  16  -6  -9   44.58    8.56
  16   6  -8    1.22    3.90
  16  -6  -8    6.08    5.28
  16  -6  -8    0.67    2.31
  16  -6  -7   55.78    9.85
  16   6  -7   47.77    9.04
  16  -6  -7   40.58    8.19
  16   6  -6    8.84    4.20
  16  -6  -6   -0.89    3.52
  16  -6  -6    7.63    4.63
  16   6  -5    5.48    2.59
  16  -6  -5    2.59    4.52
  16  -6  -5   -0.17    2.57
  16   6  -4   11.27    3.67
  16  -6  -4   10.02    4.45
  16  -6  -4   12.65    4.78
  16  -6  -3   62.51   10.03
  16   6  -3   82.00   11.15
  16  -6  -3   64.39   10.39
  16  -6  -2   52.88    9.01
  16  -6  -2   50.51    9.64
  16   6  -2   52.66    9.73
  16  -6  -1   43.54    8.30
  16   6  -1   37.19    7.94
  16  -6  -1   43.81    8.72
  16   6  -1   50.67    9.22
  16   6   0    3.79    2.78
  16  -6   0    5.81    4.30
  16   6   0    3.09    3.98
  16  -6   0   -0.97    2.52
  16   6   1   41.57    7.97
  16  -6   1   49.00    8.73
  16   6   1   40.44    8.12
  16  -6   1   44.02    8.65
  16   6   2   43.58    8.82
  16  -6   2   46.01    8.98
  16  -6   2   49.11    9.45
  16   6   2   44.54    8.60
  16  -6   3   58.48    9.70
  16  -6   3   68.45   11.39
  16   6   3   48.49    8.87
  16   6   3   66.84   10.43
  16   6   4   15.43    4.72
  16  -6   4   14.37    5.22
  16   6   4    6.30    3.48
  16  -6   4   13.24    4.76
  16   6   5   -3.34    2.08
  16  -6   5    2.62    3.31
  16   6   5    3.46    2.03
  16  -6   5    3.07    3.45
  16   6   6    1.11    3.80
  16  -6   6   -0.80    3.04
  16   6   6    9.97    4.41
  16  -6   6    2.93    2.86
  16   6   7   43.63    8.80
  16  -6   7   45.99    9.09
  16   6   7   42.32    8.19
  16  -6   7   45.10    9.61
  16   6   8    8.83    5.24
  16  -6   8    4.59    4.09
  16   6   8    6.77    3.71
  16  -6   8    0.85    2.78
  16   6   9   60.94   10.28
  16   6   9   45.45    9.10
  16  -6   9   59.08    9.97
  16  -6   9   42.41    9.52
  16   6  10   10.47    4.98
  16  -6  10   12.54    6.40
  16   6  10    2.37    2.20
  16  -6  10   12.79    5.53
  16   6  11   19.60    6.31
  16  -6  11   13.66    5.45
  16   6  11   15.13    5.37
  16  -6  11   10.71    4.79
  16   7  -6    5.85    3.54
  16  -7  -6    4.22    3.13
  16  -7  -6    7.42    3.66
  16   7  -5   36.59    8.37
  16  -7  -5   18.71    5.81
  16  -7  -5   17.31    5.95
  16   7  -4    6.28    4.13
  16  -7  -4    0.16    1.68
  16  -7  -4    1.66    2.74
  16   7  -3   12.38    4.05
  16  -7  -3    6.30    4.01
  16  -7  -3   11.58    5.63
  16   7  -2   -0.67    1.82
  16  -7  -2    2.59    2.24
  16  -7  -2    4.29    3.90
  16   7  -1    4.29    2.95
  16  -7  -1   -3.06    2.06
  16  -7  -1    0.19    2.43
  16   7   0   -2.00    4.13
  16  -7   0    8.13    5.22
  16   7   0   -0.57    3.98
  16  -7   0   -0.77    3.57
  16   7   1   -3.83    4.61
  16  -7   1    3.06    2.56
  16   7   1   -1.76    4.06
  16  -7   1    1.44    3.50
  16   7   2    2.09    2.74
  16  -7   2    0.01    3.05
  16   7   2    2.96    5.15
  16  -7   2   -7.08    5.71
  16  -7   3    4.61    2.16
  16  -7   3    5.89    2.10
  16   7   4    0.56    2.26
  16  -7   4    3.58    2.64
  16   7   4    7.03    3.53
  16   7   5   22.52    5.58
  16  -7   5   25.17    7.05
  16   7   5   18.48    5.54
  16  -7   5   36.19    8.35
  16   7   6    8.57    3.46
  16  -7   6    5.04    4.22
  16   7   6    3.95    2.48
  16  -7   6    1.41    3.66
  17   0 -16    0.77    2.26
  17   0 -15   -1.86    2.90
  17   0 -14    0.80    3.73
  17   0 -13   -0.77    2.74
  17   0 -12    1.51    3.02
  17   0 -11    0.56    2.69
  17   0 -10    1.39    3.10
  17   0  -9  -10.08    3.88
  17   0  -9    2.34    3.98
  17   0  -8    0.66    3.40
  17   0  -8    1.96    3.47
  17   0  -7   -3.57    3.49
  17   0  -7   -1.13    3.15
  17   0  -6    1.73    1.67
  17   0  -6   -0.18    2.54
  17   0  -5   -3.00    2.62
  17   0  -5   -1.56    1.77
  17   0  -4    1.21    3.75
  17   0  -4    0.71    2.46
  17   0  -3   -1.50    2.97
  17   0  -3   -2.99    3.73
  17   0  -2   -0.06    1.65
  17   0  -2    0.14    2.05
  17   0  -1   -0.28    2.16
  17   0  -1    0.62    1.67
  17   0   0   -1.74    2.61
  17   0   0   -1.06    2.91
  17   0   1    0.56    2.17
  17   0   1    1.68    4.12
  17   0   2    3.51    4.45
  17   0   2   -0.68    2.71
  17   0   3    1.90    3.02
  17   0   3   -0.81    2.83
  17   0   4    1.24    2.51
  17   0   4    0.68    1.98
  17   0   5   -0.10    1.73
  17   0   5   -1.21    2.98
  17   0   6    1.01    3.04
  17   0   6    0.28    2.10
  17   0   7    0.05    2.93
  17   0   7    1.16    3.13
  17   0   8   -1.23    1.72
  17   0   9   -2.19    2.48
  17   0  10    1.38    2.72
  17   0  11    2.37    3.97
  17   0  12    0.55    2.00
  17   0  13   -1.82    3.82
  17   0  14   -2.42    2.90
  17   0  15   -0.96    1.74
  17   0  16   -1.45    3.86
  17   0  17    0.65    3.31
  17  -1 -17   59.57   10.52
  17  -1 -16   51.10    9.58
  17  -1 -15    5.42    4.01
  17  -1 -14   22.51    5.97
  17  -1 -13   12.51    6.70
  17  -1 -12   20.40    6.62
  17  -1 -11   45.20    9.36
  17   1 -11   40.85    7.94
  17  -1 -10   27.50    6.81
  17   1 -10   20.25    6.10
  17  -1  -9   21.20    6.34
  17  -1  -9   15.40    5.15
  17   1  -9   25.14    7.07
  17  -1  -8   23.36    6.16
  17  -1  -8   29.15    7.18
  17   1  -8   12.58    4.18
  17  -1  -7    2.19    1.45
  17   1  -7   -1.70    2.70
  17  -1  -7    2.69    3.07
  17   1  -7    6.92    4.40
  17  -1  -6   13.58    4.79
  17   1  -6   11.34    3.86
  17  -1  -6   13.11    5.58
  17   1  -6   17.20    4.65
  17  -1  -5   11.82    4.73
  17   1  -5    3.45    3.03
  17  -1  -5    9.78    4.79
  17   1  -5   18.99    5.64
  17  -1  -4   71.68   10.30
  17   1  -4   61.68    9.64
  17  -1  -4   71.07   10.92
  17   1  -4   78.47   11.18
  17   1  -4   78.38   10.98
  17  -1  -3   77.88   10.79
  17   1  -3   75.00   10.63
  17  -1  -3   90.13   12.22
  17   1  -3   90.05   12.24
  17   1  -3   82.06   10.62
  17   1  -2   39.77    7.95
  17  -1  -2   37.44    7.42
  17  -1  -2   33.86    8.10
  17   1  -2   43.40    8.38
  17   1  -2   53.97    8.48
  17  -1  -1   16.21    5.48
  17   1  -1   28.28    6.75
  17  -1  -1   18.45    6.15
  17   1  -1   22.32    6.20
  17   1  -1   19.37    5.52
  17  -1   0   80.74   10.52
  17   1   0   72.13   10.13
  17  -1   0   70.37   10.83
  17   1   0   77.48   10.71
  17   1   0   60.44    9.49
  17  -1   1   12.08    4.07
  17  -1   1   16.65    5.66
  17   1   1   18.17    5.36
  17   1   1   15.25    5.58
  17   1   1   18.44    5.22
  17  -1   2   46.19    8.32
  17   1   2   44.21    8.23
  17   1   2   47.36    9.43
  17  -1   2   40.31    8.28
  17   1   2   59.45    9.61
  17  -1   3   96.06   11.68
  17   1   3   88.66   11.39
  17  -1   3   81.45   11.18
  17   1   3   67.14   10.36
  17   1   3   82.16   10.79
  17  -1   4   65.47   10.00
  17   1   4   60.49    9.49
  17  -1   4   65.30    9.99
  17   1   4   70.08   10.31
  17   1   4   68.33    9.93
  17  -1   5   25.86    5.87
  17  -1   5   17.56    5.41
  17   1   5   16.59    5.74
  17   1   5   12.07    4.96
  17   1   5   20.61    5.44
  17  -1   6   17.22    5.25
  17  -1   6   18.57    5.87
  17   1   6   13.83    5.01
  17   1   6    9.08    4.90
  17   1   6   11.40    3.19
  17  -1   7    9.60    4.42
  17  -1   7    4.39    4.21
  17   1   7   11.23    3.95
  17   1   7    9.00    4.30
  17  -1   8   30.11    6.70
  17  -1   8   16.22    4.63
  17   1   8   17.63    5.22
  17   1   8   30.79    7.40
  17  -1   9   13.35    5.41
  17  -1   9   18.79    5.63
  17   1   9   14.64    4.34
  17   1   9   18.97    5.94
  17  -1  10   30.26    6.66
  17   1  10   15.55    5.45
  17  -1  11   59.60   10.03
  17   1  11   61.43    9.94
  17  -1  12   36.50    8.27
  17   1  12   27.16    6.88
  17  -1  13   10.39    4.41
  17   1  13   22.66    6.19
  17  -1  14   14.54    4.72
  17   1  14   15.85    6.50
  17  -1  15    3.05    2.09
  17   1  15   -1.07    2.00
  17  -1  16   35.56    7.87
  17   1  16   45.48    8.87
  17  -1  17   70.87   10.53
  17   1  17   54.21    8.99
  17  -2 -16    3.82    3.40
  17  -2 -15    2.73    3.41
  17  -2 -14    1.23    2.84
  17  -2 -13    9.33    4.81
  17  -2 -12    5.28    3.73
  17  -2 -11    4.24    4.02
  17  -2 -11   -1.62    2.38
  17   2 -11    1.78    3.01
  17  -2 -10    2.68    3.21
  17  -2 -10    1.46    3.07
  17   2 -10    3.13    2.65
  17  -2  -9   19.17    6.73
  17  -2  -9   14.57    4.40
  17   2  -9    7.15    3.67
  17  -2  -8   20.08    6.32
  17  -2  -8   12.74    4.24
  17   2  -8   18.73    5.58
  17  -2  -7    8.54    3.82
  17  -2  -7    3.55    3.54
  17   2  -7   10.65    4.38
  17  -2  -6    6.11    3.65
  17   2  -6    6.32    3.66
  17  -2  -6    3.96    3.68
  17   2  -6    5.31    4.21
  17   2  -6   13.76    5.97
  17  -2  -5    2.70    1.72
  17   2  -5    0.27    1.77
  17  -2  -5   -1.43    3.33
  17   2  -5    0.91    1.95
  17   2  -5    2.98    3.56
  17  -2  -4    0.90    2.19
  17  -2  -4    8.45    4.83
  17   2  -4    4.93    3.15
  17   2  -4    3.02    2.15
  17   2  -4    5.65    2.85
  17  -2  -3    0.42    2.28
  17  -2  -3    1.58    1.56
  17   2  -3    0.01    2.50
  17   2  -3    4.73    4.41
  17   2  -3    2.11    3.48
  17  -2  -2   -1.97    3.32
  17  -2  -2    3.63    4.69
  17   2  -2    2.01    4.37
  17   2  -2    3.64    2.14
  17   2  -2    5.44    3.61
  17  -2  -1    2.46    2.56
  17  -2  -1    5.91    4.01
  17   2  -1    6.75    2.82
  17   2  -1    5.60    3.46
  17   2  -1    0.29    1.86
  17  -2   0   -0.60    2.01
  17  -2   0    1.63    3.48
  17   2   0   -3.05    3.14
  17   2   0    0.43    2.26
  17   2   0    1.24    3.72
  17  -2   1    0.76    1.89
  17  -2   1    3.64    3.70
  17   2   1    7.98    5.04
  17   2   1    1.14    2.80
  17   2   1   -1.08    2.61
  17  -2   2    5.50    3.25
  17  -2   2   -0.44    2.48
  17   2   2    3.92    3.62
  17   2   2   -0.85    2.45
  17   2   2    7.73    3.75
  17  -2   3   -0.99    1.85
  17  -2   3   -0.06    2.67
  17   2   3   -0.04    2.44
  17   2   3   -0.77    2.87
  17   2   3    4.46    3.14
  17   2   4   11.66    3.60
  17  -2   4    3.01    2.65
  17  -2   4    6.40    3.04
  17   2   4    7.74    4.26
  17   2   4    3.09    2.64
  17   2   5    4.22    2.14
  17  -2   5    3.22    3.13
  17  -2   5    3.11    2.54
  17   2   5    2.65    2.87
  17   2   5    2.46    3.64
  17   2   6    6.06    3.28
  17  -2   6    8.09    4.25
  17  -2   6    4.92    2.70
  17   2   6    5.76    4.38
  17   2   7    8.53    4.22
  17  -2   7    9.13    3.31
  17  -2   7    5.50    4.25
  17   2   7    9.98    4.81
  17   2   8   19.94    5.61
  17  -2   8   13.33    4.20
  17  -2   8   18.91    5.77
  17   2   8   20.85    5.25
  17   2   9   21.33    6.10
  17  -2   9   13.99    5.65
  17  -2   9   13.98    4.61
  17   2   9   16.01    4.86
  17   2  10    4.58    2.53
  17  -2  10   10.52    4.46
  17  -2  10   11.42    4.43
  17   2  10    9.69    4.76
  17   2  11   -0.17    2.11
  17  -2  11    0.21    2.58
  17  -2  11   -1.52    2.26
  17   2  12   11.61    4.73
  17  -2  12    5.36    3.09
  17   2  13    4.97    1.91
  17  -2  13    7.52    2.93
  17   2  14    4.95    3.98
  17  -2  14   10.23    3.40
  17   2  15    8.86    4.44
  17  -2  15    6.60    3.43
  17   2  16    4.69    3.42
  17  -2  16   -2.39    3.18
  17  -3 -15   28.42    7.54
  17   3 -15   29.68    7.42
  17  -3 -14    3.52    2.12
  17   3 -14    7.26    2.77
  17  -3 -13   15.02    5.11
  17   3 -13    6.41    3.95
  17  -3 -12    8.15    5.22
  17  -3 -12    5.06    3.86
  17   3 -12    2.67    2.75
  17  -3 -11   16.17    5.66
  17  -3 -11   20.51    5.88
  17   3 -11   23.60    6.42
  17  -3 -10   48.82    9.80
  17  -3 -10   37.23    7.86
  17   3 -10   36.76    8.22
  17  -3  -9   10.63    4.52
  17  -3  -9   14.34    4.53
  17   3  -9   14.25    4.74
  17  -3  -8    1.23    2.16
  17  -3  -8    5.66    3.89
  17   3  -8    5.67    3.51
  17  -3  -7   21.81    6.91
  17  -3  -7   25.54    7.06
  17   3  -7   27.07    6.59
  17  -3  -6   -0.04    1.89
  17  -3  -6    1.85    3.01
  17   3  -6    1.45    3.08
  17  -3  -5   47.88    8.44
  17  -3  -5   62.51   10.14
  17   3  -5   46.22    8.27
  17  -3  -4   47.67    8.18
  17   3  -4   59.77    9.51
  17  -3  -4   52.23    9.87
  17   3  -4   54.57    9.10
  17  -3  -3    4.12    1.81
  17  -3  -3    7.76    4.23
  17   3  -3    2.94    1.50
  17   3  -3    9.30    2.57
  17  -3  -2   75.13   10.92
  17   3  -2   57.21    9.41
  17  -3  -2   78.41   11.03
  17   3  -2   70.66   10.09
  17  -3  -1  124.45   13.99
  17   3  -1  131.35   13.58
  17  -3  -1  130.26   14.28
  17   3  -1  132.82   14.01
  17   3   0   -0.72    2.31
  17  -3   0   -0.13    2.41
  17  -3   0    1.69    1.89
  17   3   0    3.16    2.04
  17   3   0    8.00    3.70
  17  -3   1  118.43   13.71
  17   3   1  157.21   15.22
  17  -3   1  140.46   15.39
  17   3   1  129.05   14.50
  17   3   1  134.28   14.05
  17  -3   2   60.45    9.53
  17   3   2   75.36   10.66
  17  -3   2   68.61   11.05
  17   3   2   64.14    9.93
  17   3   2   61.58   10.14
  17   3   3   10.80    4.14
  17  -3   3    4.48    1.85
  17  -3   3    1.46    2.46
  17   3   3    3.71    2.18
  17   3   3    9.22    4.67
  17  -3   4   47.52    8.39
  17   3   4   51.16    8.87
  17  -3   4   63.76   10.41
  17   3   4   48.38    9.03
  17   3   4   46.72    8.82
  17  -3   5   55.74    9.88
  17   3   5   44.06    7.90
  17  -3   5   57.84    9.44
  17   3   5   62.97    9.38
  17   3   6    4.95    2.87
  17  -3   6    4.45    3.29
  17  -3   6    6.63    5.73
  17   3   6   -0.95    2.08
  17   3   7   27.93    6.55
  17  -3   7   22.03    6.06
  17  -3   7   25.60    6.50
  17   3   7   11.42    5.53
  17   3   8    5.09    4.09
  17  -3   8    3.63    2.27
  17  -3   8    2.92    2.27
  17   3   8    2.08    2.08
  17   3   9   14.97    5.49
  17  -3   9   16.99    5.89
  17  -3   9   15.81    5.60
  17   3   9   22.52    6.46
  17   3  10   21.58    6.10
  17  -3  10   46.08    7.89
  17  -3  10   35.43    7.82
  17   3  10   46.32    8.92
  17   3  11    6.42    3.83
  17  -3  11   23.48    6.66
  17  -3  11   13.26    6.14
  17   3  12    4.49    2.63
  17  -3  12    3.36    2.17
  17  -3  12    2.07    2.34
  17   3  13   22.89    6.13
  17  -3  13   24.22    6.98
  17  -3  13   14.71    6.40
  17   3  14   10.70    4.45
  17  -3  14   13.52    3.21
  17  -3  14   14.85    5.81
  17   3  15   25.27    6.39
  17  -3  15   33.85    7.65
  17  -4 -14   26.36    7.07
  17   4 -14   21.03    7.30
  17  -4 -13   29.03    7.75
  17  -4 -13   27.94    7.53
  17   4 -13   28.73    6.45
  17  -4 -12   13.72    5.15
  17  -4 -12    4.72    4.01
  17   4 -12   12.62    4.89
  17  -4 -11    4.85    2.35
  17  -4 -11   14.97    4.45
  17   4 -11    8.98    5.21
  17  -4 -10    5.80    4.23
  17  -4 -10    4.17    2.69
  17   4 -10    4.34    2.57
  17  -4  -9    5.44    2.75
  17  -4  -9    1.81    2.84
  17   4  -9   -0.15    1.70
  17  -4  -8    8.19    4.11
  17  -4  -8    2.72    3.55
  17   4  -8   14.31    5.19
  17  -4  -7    8.47    5.25
  17  -4  -7    4.04    3.44
  17   4  -7    7.93    3.76
  17  -4  -6   17.80    5.75
  17  -4  -6   20.79    5.40
  17   4  -6   13.00    4.68
  17  -4  -5   32.18    7.26
  17  -4  -5   35.01    8.30
  17   4  -5   32.00    7.25
  17  -4  -4    4.54    3.22
  17  -4  -4    2.11    3.24
  17   4  -4    6.23    3.29
  17   4  -3    6.52    3.23
  17  -4  -3   14.52    4.57
  17  -4  -3    7.39    3.09
  17   4  -3    6.36    3.57
  17   4  -2   18.65    5.60
  17   4  -2   26.89    7.11
  17  -4  -2   19.39    5.57
  17  -4  -2   15.51    5.55
  17   4  -1   17.48    6.15
  17   4  -1   23.02    6.03
  17  -4  -1   25.88    6.82
  17  -4  -1   30.71    7.05
  17   4   0   16.66    4.79
  17   4   0   22.35    6.67
  17  -4   0   11.03    4.93
  17  -4   0   15.81    5.61
  17   4   1   33.34    7.65
  17   4   1   28.39    6.48
  17  -4   1   15.77    5.16
  17  -4   1   28.46    7.17
  17   4   2   29.27    6.60
  17   4   2   21.14    5.97
  17  -4   2   24.59    6.16
  17  -4   2   11.33    4.53
  17   4   3    7.96    3.77
  17   4   3    7.40    3.35
  17  -4   3    3.15    1.64
  17  -4   3    8.84    4.86
  17   4   4    2.34    2.36
  17   4   4    1.67    3.62
  17  -4   4    6.93    3.79
  17  -4   4    6.32    2.01
  17   4   5   18.38    5.25
  17   4   5   28.68    6.55
  17  -4   5   25.58    6.31
  17  -4   5   29.46    7.40
  17   4   6   18.23    5.91
  17   4   6   19.48    5.78
  17  -4   6   24.15    6.38
  17  -4   6   12.96    5.02
  17   4   7    7.34    3.57
  17   4   7    6.64    3.75
  17  -4   7    2.18    3.64
  17  -4   7    1.60    4.02
  17   4   8    6.64    3.66
  17   4   8    2.61    3.16
  17  -4   8    5.99    3.24
  17  -4   8    3.60    1.97
  17   4   9    2.97    3.73
  17   4   9    3.28    2.21
  17  -4   9   -1.48    4.10
  17  -4   9   -2.62    3.28
  17   4  10    6.13    4.67
  17   4  10   11.20    5.24
  17  -4  10    0.86    2.24
  17  -4  10    7.60    2.62
  17   4  11   17.03    6.47
  17   4  11    6.99    3.44
  17  -4  11   13.13    5.84
  17  -4  11   10.25    4.57
  17   4  12    5.63    3.42
  17  -4  12   12.41    4.95
  17  -4  12    3.77    3.14
  17   4  13   31.63    6.90
  17  -4  13   45.54    9.19
  17  -4  13   23.46    6.18
  17   4  14   30.34    7.19
  17  -4  14   30.77    7.51
  17  -4  14   32.32    7.73
  17  -5 -11   13.57    4.92
  17  -5 -11   22.62    6.14
  17   5 -11   16.09    5.78
  17  -5 -10   39.56    8.45
  17  -5 -10   35.32    7.17
  17   5 -10   53.47    9.29
  17  -5  -9    7.64    3.27
  17  -5  -9    8.66    2.94
  17   5  -9    9.12    4.27
  17  -5  -8    5.56    2.57
  17  -5  -8    8.03    4.09
  17   5  -8    3.05    3.27
  17   5  -7   31.06    7.08
  17  -5  -7   18.92    5.21
  17  -5  -7   31.09    7.46
  17  -5  -6   56.85    9.41
  17  -5  -6   31.70    7.82
  17   5  -6   50.04    9.54
  17   5  -5   18.06    5.79
  17  -5  -5    8.67    3.42
  17  -5  -5   26.22    7.02
  17   5  -4    5.48    3.06
  17  -5  -4   12.28    4.71
  17  -5  -4    1.42    3.23
  17   5  -3   12.08    5.59
  17  -5  -3   10.37    5.48
  17  -5  -3   10.68    4.54
  17   5  -2   12.61    5.82
  17   5  -2   16.59    7.50
  17  -5  -2   12.82    5.33
  17  -5  -2   12.51    5.33
  17   5  -1   23.94    6.68
  17   5  -1   23.92    5.57
  17  -5  -1   18.94    5.87
  17  -5  -1   23.84    7.38
  17   5   0   23.48    6.17
  17   5   0   30.37    7.06
  17  -5   0   20.62    5.34
  17  -5   0   25.03    7.41
  17   5   1   13.07    4.40
  17   5   1    9.87    4.58
  17  -5   1   24.87    7.22
  17  -5   1   25.20    6.90
  17   5   2    3.96    3.31
  17   5   2    9.54    4.28
  17  -5   2   13.93    5.63
  17  -5   2    3.84    2.60
  17   5   3   17.05    5.12
  17   5   3   22.22    5.14
  17  -5   3   16.70    4.40
  17  -5   3   16.59    5.03
  17   5   4   13.62    5.03
  17   5   4   16.72    5.21
  17  -5   4   15.51    5.81
  17  -5   4    9.10    4.14
  17   5   5   10.74    4.32
  17   5   5   13.85    5.64
  17  -5   5   18.41    5.74
  17  -5   5   19.43    6.17
  17   5   6   44.06    8.11
  17  -5   6   37.03    7.77
  17  -5   6   51.86    9.16
  17   5   6   48.86    8.95
  17   5   7   26.32    6.47
  17   5   7   39.51    8.36
  17  -5   7   30.27    7.21
  17  -5   7   21.16    6.01
  17   5   8    7.22    4.01
  17   5   8   10.40    4.63
  17  -5   8    8.43    4.65
  17  -5   8    4.12    2.93
  17   5   9    4.89    3.42
  17   5   9    7.39    3.05
  17  -5   9   13.07    5.56
  17  -5   9    5.37    3.89
  17   5  10   47.55    8.67
  17  -5  10   39.71    8.37
  17  -5  10   59.87   10.31
  17   5  10   57.05   10.06
  17   5  11   10.49    5.66
  17   5  11   16.27    4.15
  17  -5  11    5.86    3.10
  17  -5  11    1.80    2.49
  17   6  -7    2.88    2.95
  17  -6  -7    2.44    2.60
  17  -6  -7    2.23    4.50
  17   6  -6   13.65    5.74
  17  -6  -6    8.90    4.01
  17  -6  -6   12.48    5.39
  17   6  -5    5.64    3.16
  17  -6  -5    0.91    1.54
  17  -6  -5    2.91    1.84
  17   6  -4    5.18    4.11
  17  -6  -4    3.60    3.55
  17  -6  -4   12.51    4.96
  17   6  -3    5.45    2.62
  17  -6  -3   -1.47    2.51
  17   6  -2    3.16    2.43
  17  -6  -2    5.41    3.39
  17  -6  -2   12.98    6.30
  17   6  -1    1.47    2.33
  17  -6  -1    1.72    2.32
  17  -6  -1    1.47    2.42
  17   6   0    5.32    2.19
  17  -6   0    2.14    3.06
  17   6   0    3.33    2.48
  17  -6   0    1.79    2.42
  17   6   1    0.75    2.76
  17  -6   1    1.86    2.91
  17   6   1    2.61    3.70
  17  -6   1   -2.98    4.21
  17   6   2    3.62    3.15
  17  -6   2    6.16    3.40
  17   6   2    3.40    3.16
  17  -6   2    4.65    2.77
  17   6   3    4.89    2.13
  17  -6   3    8.79    4.57
  17   6   3   17.04    5.43
  17  -6   3    5.87    3.65
  17   6   4    4.15    1.77
  17  -6   4   10.08    4.08
  17   6   4    7.09    4.12
  17  -6   4   10.96    4.81
  17   6   5    3.47    4.21
  17  -6   5    1.88    2.15
  17   6   5    1.46    2.22
  17  -6   5    3.79    4.45
  17   6   6    1.31    2.81
  17  -6   6    9.06    5.01
  17   6   6    1.63    1.96
  17  -6   6    7.15    4.47
  17   6   7   -1.38    3.57
  17  -6   7    1.67    2.89
  17   6   7    4.46    3.86
  17  -6   7   -0.39    3.28
  18   0 -15  379.82   26.23
  18   0 -14    7.62    4.09
  18   0 -13   50.97    9.61
  18   0 -12   48.69    9.09
  18   0 -11  325.54   23.35
  18   0 -10   33.60    7.85
  18   0  -9   63.82    9.35
  18   0  -8   42.78    9.28
  18   0  -8   17.20    6.05
  18   0  -7   18.43    5.56
  18   0  -7    8.67    3.99
  18   0  -6    5.85    1.87
  18   0  -6    9.76    3.63
  18   0  -5  119.76   13.68
  18   0  -5  137.78   15.14
  18   0  -4  115.38   13.05
  18   0  -4  144.07   15.73
  18   0  -3  126.27   14.00
  18   0  -3  104.42   13.15
  18   0  -2   41.81    8.65
  18   0  -2   40.51    7.81
  18   0  -1   45.91    8.23
  18   0  -1   69.73   11.08
  18   0   0   38.60    7.59
  18   0   0   51.79    9.42
  18   0   1   56.28    8.63
  18   0   1   68.72   10.36
  18   0   2   36.72    7.85
  18   0   2   39.98    8.75
  18   0   3  116.65   13.48
  18   0   3  113.58   13.50
  18   0   4  134.40   14.26
  18   0   4  120.46   13.93
  18   0   5  138.10   14.85
  18   0   5  132.83   14.79
  18   0   6    3.39    1.67
  18   0   6    2.07    2.65
  18   0   7   11.10    3.77
  18   0   7   15.98    5.34
  18   0   8   25.61    6.16
  18   0   8   24.58    6.69
  18   0   9   57.39    9.73
  18   0   9   50.18    9.24
  18   0  10   47.38    8.53
  18   0  11  320.32   22.46
  18   0  12   48.70    8.98
  18   0  13   43.89    8.19
  18   0  14    1.09    3.07
  18   0  15  377.35   25.43
  18  -1 -15   32.16    8.29
  18  -1 -14    5.42    4.68
  18  -1 -13    2.22    5.44
  18  -1 -12   -1.47    3.03
  18  -1 -11    3.11    4.19
  18   1 -10   58.76   10.75
  18  -1 -10   48.94    9.39
  18  -1  -9    0.83    3.55
  18  -1  -9    2.91    2.88
  18   1  -9    4.33    2.98
  18  -1  -8   -0.07    2.10
  18  -1  -8    4.19    2.47
  18   1  -8    7.31    3.47
  18  -1  -7    7.19    4.58
  18   1  -7   -5.11    2.94
  18  -1  -7    0.86    2.57
  18   1  -7    8.35    5.19
  18  -1  -6   28.89    6.47
  18   1  -6   37.38    8.18
  18  -1  -6   34.41    7.75
  18   1  -6   43.56    8.63
  18  -1  -5    0.82    1.57
  18   1  -5    0.92    1.77
  18  -1  -5    1.31    2.60
  18   1  -5   -1.82    4.00
  18  -1  -4    2.57    3.63
  18   1  -4    1.07    2.32
  18  -1  -4   -1.77    3.76
  18   1  -4   -0.91    2.71
  18  -1  -3    1.65    1.88
  18   1  -3    2.24    2.68
  18  -1  -3   -1.93    2.87
  18   1  -3    2.12    3.02
  18  -1  -2   -2.31    3.00
  18   1  -2   -0.47    2.04
  18  -1  -2    1.16    2.74
  18   1  -2    1.71    3.52
  18  -1  -1    2.75    1.46
  18   1  -1    5.96    3.26
  18  -1  -1    3.75    3.63
  18   1  -1    2.05    1.95
  18  -1   0    2.52    2.57
  18   1   0    1.25    1.83
  18  -1   0    0.71    1.81
  18   1   0    2.79    3.27
  18   1   0    3.07    2.28
  18  -1   1    4.50    2.67
  18   1   1    7.35    3.47
  18  -1   1   -0.91    3.44
  18   1   1    1.13    2.05
  18   1   1    0.03    2.88
  18  -1   2    2.57    4.01
  18   1   2    0.86    1.68
  18  -1   2   -0.22    3.24
  18   1   2   -2.30    1.63
  18   1   2    3.27    2.12
  18  -1   3    2.18    2.17
  18  -1   3    0.26    3.03
  18   1   3   -0.67    2.62
  18   1   3    0.77    1.96
  18   1   3   -3.34    3.82
  18  -1   4    3.76    3.40
  18  -1   4    1.63    2.78
  18   1   4    1.45    2.83
  18   1   4    2.37    2.67
  18   1   4    2.95    2.25
  18  -1   5    1.87    1.77
  18  -1   5    2.05    2.63
  18   1   5   -0.69    2.36
  18   1   5    0.91    2.07
  18   1   5    3.73    3.29
  18  -1   6   30.91    7.22
  18  -1   6   29.39    8.06
  18   1   6   41.94    8.36
  18   1   6   43.33    8.31
  18  -1   7    3.36    2.96
  18  -1   7    4.82    1.82
  18   1   7    0.99    2.50
  18   1   7    9.04    3.17
  18  -1   8    0.38    3.43
  18  -1   8   -1.58    3.00
  18   1   8    2.35    2.84
  18  -1   9    3.13    2.50
  18  -1   9   -3.06    3.45
  18   1   9    2.88    3.76
  18  -1  10   54.89    9.69
  18  -1  10   54.81    9.97
  18   1  10   31.53    6.53
  18  -1  11    2.71    3.02
  18  -1  11    2.76    3.20
  18   1  11    3.27    3.71
  18  -1  12    4.64    3.64
  18   1  12    4.44    3.04
  18  -1  13    5.97    3.62
  18   1  13    0.51    3.21
  18  -1  14    0.41    2.51
  18   1  14    4.31    3.84
  18  -1  15   41.89    8.67
  18   1  15   25.95    6.95
  18  -2 -14    6.54    3.88
  18  -2 -13   14.11    4.41
  18  -2 -12    0.37    1.91
  18  -2 -11   44.74    9.01
  18  -2 -10   45.68    8.90
  18  -2 -10   45.76    9.19
  18  -2  -9    2.57    3.82
  18  -2  -9    1.85    3.44
  18   2  -9   -3.04    3.66
  18  -2  -8    0.52    2.66
  18  -2  -8   -0.31    1.72
  18   2  -8   -1.79    2.70
  18  -2  -7   -4.20    4.58
  18  -2  -7    2.30    2.84
  18   2  -7   -1.04    2.54
  18  -2  -6   26.70    6.26
  18  -2  -6   31.43    7.49
  18   2  -6   33.85    7.38
  18  -2  -5   69.02   10.50
  18   2  -5   51.64    8.60
  18  -2  -5   74.49   10.75
  18   2  -5   72.01   11.77
  18   2  -5   48.32    8.55
  18  -2  -4   42.91    7.73
  18   2  -4   41.48    7.99
  18  -2  -4   46.01    8.79
  18   2  -4   44.89    8.68
  18   2  -4   47.30    8.28
  18  -2  -3   15.01    5.59
  18   2  -3    4.04    2.61
  18  -2  -3    6.60    3.44
  18   2  -3   11.58    5.08
  18   2  -3    6.83    2.36
  18  -2  -2   18.85    5.85
  18  -2  -2   22.89    6.45
  18   2  -2   21.06    6.88
  18   2  -2   27.63    7.38
  18   2  -2   17.21    6.01
  18  -2  -1   58.10    9.57
  18   2  -1   67.86   10.53
  18  -2  -1   77.90   11.67
  18   2  -1   71.11   11.22
  18   2  -1   75.13   10.50
  18  -2   0   52.63    8.79
  18   2   0   80.68   11.36
  18  -2   0   53.62    9.24
  18   2   0   67.37   10.59
  18   2   0   69.07   10.29
  18  -2   1   85.58   11.50
  18   2   1   76.49   10.98
  18  -2   1   88.18   12.39
  18   2   1   86.23   11.99
  18   2   1   78.99   10.55
  18  -2   2   21.51    6.51
  18  -2   2   17.70    5.54
  18   2   2   23.48    6.72
  18   2   2   23.66    5.72
  18   2   2   26.08    6.59
  18  -2   3   12.97    5.33
  18  -2   3    8.45    3.48
  18   2   3   14.83    4.57
  18   2   3    4.65    2.15
  18   2   3   11.21    4.50
  18  -2   4   52.72    8.94
  18   2   4   52.85    9.13
  18  -2   4   34.52    8.60
  18   2   4   47.60    9.53
  18   2   4   38.30    7.95
  18  -2   5   67.00    9.80
  18   2   5   80.52   10.89
  18  -2   5   60.74    9.74
  18   2   5   66.72   11.23
  18   2   5   52.90    9.38
  18  -2   6   36.86    7.27
  18  -2   6   28.01    7.30
  18   2   6   31.51    7.68
  18   2   6   27.91    6.51
  18   2   6   39.33    7.62
  18  -2   7    5.99    3.96
  18  -2   7    8.12    4.19
  18   2   7    1.60    2.38
  18   2   7   -2.47    3.41
  18   2   8    1.17    1.90
  18  -2   8   -1.29    1.50
  18  -2   8    0.09    2.21
  18   2   8   -0.27    2.89
  18   2   9   -2.10    3.76
  18  -2   9    1.96    2.30
  18  -2   9    0.44    3.77
  18   2   9    0.98    2.99
  18   2  10   30.75    6.91
  18  -2  10   33.48    8.01
  18  -2  11   45.18    9.01
  18   2  11   56.09    9.52
  18  -2  11   55.58    9.58
  18   2  12    5.97    3.10
  18  -2  12    2.96    3.26
  18  -2  12   -2.62    3.12
  18   2  13    7.31    4.23
  18  -2  13   15.38    5.17
  18  -2  13   10.78    6.16
  18   2  14   11.53    5.48
  18  -2  14   11.85    3.47
  18  -3 -13   12.27    4.73
  18   3 -13   24.95    6.83
  18  -3 -12   13.13    5.19
  18   3 -12   18.94    5.66
  18  -3 -11   -5.14    4.14
  18  -3 -11    0.46    2.85
  18   3 -11    0.64    2.08
  18  -3 -10    3.47    3.27
  18  -3 -10    5.01    4.09
  18   3 -10    7.10    4.36
  18  -3  -9    3.52    3.60
  18  -3  -9    3.59    2.61
  18   3  -9    9.30    5.16
  18  -3  -8   -1.15    1.92
  18   3  -8   -1.36    2.02
  18  -3  -7    4.75    2.86
  18  -3  -7   13.88    5.07
  18   3  -7    9.15    4.32
  18  -3  -6   39.30    8.62
  18  -3  -6   45.06    9.82
  18   3  -6   60.59    9.49
  18  -3  -5   -3.14    4.35
  18  -3  -5   -0.30    2.96
  18   3  -5    6.38    5.01
  18  -3  -4    6.43    3.25
  18  -3  -4   23.37    6.42
  18   3  -4   18.48    6.03
  18  -3  -3    1.70    2.66
  18  -3  -3   -3.10    4.40
  18   3  -3    4.23    3.51
  18   3  -3   -0.28    2.56
  18  -3  -2    1.56    2.50
  18  -3  -2    2.22    4.91
  18   3  -2    0.58    1.93
  18   3  -2   -1.84    2.44
  18  -3  -1    1.53    2.50
  18  -3  -1   -2.31    2.50
  18   3  -1   -1.59    2.75
  18   3  -1    2.36    2.99
  18  -3   0    2.17    2.43
  18  -3   0    2.55    3.66
  18   3   0    7.40    3.77
  18   3   0    3.73    3.79
  18  -3   1    0.04    2.41
  18  -3   1   -0.84    2.94
  18   3   1    1.83    3.61
  18   3   1    1.34    1.99
  18   3   2    0.32    1.86
  18  -3   2   -1.20    2.53
  18  -3   2    6.39    3.71
  18   3   2    2.60    2.84
  18   3   2    1.96    2.99
  18   3   3    0.62    3.36
  18  -3   3   -0.37    1.39
  18  -3   3    0.64    2.69
  18   3   3    1.81    3.58
  18   3   3   -0.90    2.77
  18   3   4   19.74    5.52
  18  -3   4   15.84    5.53
  18  -3   4   17.27    5.91
  18   3   4   19.16    6.23
  18   3   4   16.24    5.11
  18   3   5    1.39    3.10
  18  -3   5    4.79    4.33
  18  -3   5    2.34    2.06
  18   3   5   -1.97    3.22
  18   3   5    6.79    3.72
  18  -3   6   62.01    9.64
  18   3   6   48.74    9.51
  18  -3   6   50.44    9.06
  18   3   6   39.00    7.93
  18   3   6   46.48    9.18
  18   3   7    5.75    4.18
  18  -3   7    5.74    3.92
  18  -3   7    4.67    4.58
  18   3   7    0.49    3.67
  18   3   8    1.44    3.40
  18  -3   8   -0.03    2.95
  18  -3   8    1.99    3.70
  18   3   8   -0.01    3.02
  18   3   9    3.70    4.07
  18  -3   9    5.32    3.49
  18  -3   9    4.05    2.19
  18   3   9    3.35    4.04
  18   3  10    8.00    3.74
  18  -3  10    5.80    2.66
  18  -3  10    3.15    2.65
  18   3  10   11.00    5.55
  18   3  11    7.02    4.45
  18  -3  11    7.69    4.73
  18  -3  11   -2.88    4.23
  18   3  12   15.59    4.46
  18  -3  12   28.43    6.64
  18  -3  12   24.04    6.87
  18   3  13   22.78    6.19
  18  -3  13   22.55    6.49
  18  -3  13   16.99    5.61
  18  -4 -11   13.80    6.54
  18  -4 -11   24.25    7.48
  18   4 -11   29.64    7.09
  18  -4 -10   37.84    8.72
  18  -4 -10   48.42    9.11
  18   4 -10   54.85    9.09
  18  -4  -9    8.15    3.66
  18  -4  -9   13.47    5.36
  18   4  -9   14.75    5.43
  18  -4  -8    5.66    3.96
  18  -4  -8    2.15    3.62
  18   4  -8    3.95    3.84
  18  -4  -7   37.84    8.65
  18  -4  -7   44.07    9.30
  18   4  -7   41.85    8.43
  18  -4  -6   70.84   10.81
  18  -4  -6   70.51   10.75
  18  -4  -5   69.39   10.75
  18  -4  -5   58.90   10.49
  18   4  -5   69.58   10.57
  18  -4  -4    2.31    2.30
  18  -4  -4    3.79    1.93
  18   4  -4   -0.27    3.36
  18  -4  -3   -0.91    3.44
  18   4  -3   -6.23    3.24
  18   4  -3   -1.37    1.74
  18  -4  -2   -2.25    3.02
  18  -4  -2    5.68    3.42
  18   4  -2    4.56    3.23
  18   4  -2    2.47    4.29
  18  -4  -1   83.89   11.76
  18   4  -1   63.67   10.13
  18  -4  -1   67.30   11.24
  18   4  -1   62.87   10.52
  18  -4   0   74.63   10.70
  18   4   0   74.93   10.97
  18  -4   0   73.49   11.01
  18   4   0   75.75   10.50
  18  -4   1   75.39   11.06
  18   4   1   76.79   10.55
  18  -4   1   59.86   10.34
  18   4   1   53.61    9.06
  18   4   2    4.19    2.36
  18  -4   2    3.66    3.79
  18  -4   2   -2.54    3.80
  18   4   2   -0.22    1.73
  18   4   3   -2.64    1.96
  18  -4   3    0.07    3.09
  18  -4   3   -2.52    4.39
  18   4   3   -2.69    2.91
  18   4   4    8.52    4.92
  18  -4   4   -1.58    3.00
  18  -4   4    3.48    3.74
  18   4   4   13.16    6.46
  18  -4   5   63.73   10.37
  18  -4   5   71.71   11.74
  18   4   5   53.92    8.98
  18   4   5   69.26   11.06
  18  -4   6   75.13   11.18
  18  -4   6   97.18   13.68
  18   4   6   87.62   11.99
  18   4   6   71.23   10.83
  18   4   7   46.38    8.57
  18  -4   7   39.69    8.24
  18  -4   7   36.75    8.22
  18   4   7   45.48    8.96
  18   4   8    1.28    1.90
  18  -4   8    0.22    2.37
  18  -4   8    6.15    4.21
  18   4   8   -2.54    3.48
  18   4   9   12.47    5.11
  18  -4   9   11.19    5.66
  18  -4   9   13.69    4.80
  18   4   9   10.67    4.81
  18   4  10   48.79    8.76
  18  -4  10   41.50    8.52
  18  -4  10   66.75   10.84
  18   4  10   35.82    7.96
  18   4  11   22.98    5.95
  18  -4  11   25.45    6.58
  18  -4  11   21.91    6.91
  18  -5  -7   -1.91    2.29
  18  -5  -7   -1.95    3.13
  18   5  -7    2.97    4.11
  18  -5  -6   -2.55    4.04
  18  -5  -6   -0.08    3.17
  18   5  -6   -1.03    3.26
  18  -5  -5    2.32    3.58
  18  -5  -5   -3.05    2.85
  18   5  -5   -0.63    2.81
  18   5  -4    6.42    4.34
  18  -5  -4    7.18    4.90
  18  -5  -4   18.48    7.03
  18   5  -3   -2.98    4.74
  18  -5  -3    2.58    3.00
  18  -5  -3    0.81    3.85
  18   5  -2    2.19    2.23
  18  -5  -2   -0.28    1.87
  18  -5  -2   -1.73    4.10
  18   5  -1    6.46    3.22
  18   5  -1    2.95    2.07
  18  -5  -1    3.94    2.16
  18  -5  -1    6.30    4.52
  18   5   0    1.66    1.65
  18   5   0    0.64    2.57
  18  -5   0    2.01    3.30
  18  -5   0    1.85    2.37
  18   5   1   10.48    4.13
  18   5   1    9.75    4.23
  18  -5   1    7.75    4.88
  18  -5   1    8.13    5.37
  18   5   2    0.06    3.56
  18   5   2    7.08    4.15
  18  -5   2    7.71    5.02
  18  -5   2    1.43    3.08
  18   5   3    0.57    3.30
  18   5   3   -2.38    3.03
  18  -5   3    5.82    4.37
  18  -5   3    3.98    4.14
  18   5   4    9.75    4.14
  18   5   4    8.91    4.65
  18  -5   4    7.75    2.66
  18  -5   4    1.89    2.49
  18   5   5    1.86    3.21
  18   5   5    0.04    2.04
  18  -5   5    2.51    1.78
  18  -5   5   -3.96    3.24
  18   5   6   -2.00    2.30
  18   5   6    1.86    2.24
  18  -5   6    0.12    2.16
  18   5   7   -4.32    4.22
  18   5   7    0.22    3.55
  18  -5   7    1.13    2.24
  18  -5   7   -2.87    4.52
  19   0 -12    2.76    3.38
  19   0 -11    7.08    6.91
  19   0 -10   -0.84    2.81
  19   0  -9    0.88    2.47
  19   0  -8   -0.77    3.43
  19   0  -7   -4.69    4.77
  19   0  -7   -0.53    2.18
  19   0  -6    1.07    2.35
  19   0  -6    1.10    5.20
  19   0  -5   -1.37    3.21
  19   0  -5    0.84    2.90
  19   0  -4    4.13    3.23
  19   0  -4    1.34    2.64
  19   0  -3    0.50    3.18
  19   0  -3    1.04    2.54
  19   0  -2    3.43    3.22
  19   0  -2    0.98    2.75
  19   0  -1    6.54    4.25
  19   0  -1    0.68    2.34
  19   0   0   -0.79    2.47
  19   0   0   -0.58    2.23
  19   0   1   -0.64    3.53
  19   0   1   -0.65    2.38
  19   0   2    0.70    3.35
  19   0   2    0.47    1.99
  19   0   3    0.08    1.67
  19   0   3    0.84    3.48
  19   0   4   -1.75    1.88
  19   0   4   -2.60    4.30
  19   0   5   -2.08    3.29
  19   0   5   -0.73    2.04
  19   0   6    1.19    4.29
  19   0   6   -1.62    1.93
  19   0   7   -3.52    2.64
  19   0   7    0.92    2.88
  19   0   8    1.00    2.43
  19   0   8    3.74    2.31
  19   0   9   -0.27    2.61
  19   0   9   -2.13    3.28
  19   0  10    4.43    3.74
  19   0  10    1.40    3.49
  19   0  11   -2.99    4.79
  19   0  11   -2.49    3.10
  19   0  12   -2.77    3.14
  19  -1 -12    5.93    4.60
  19  -1 -11   32.90    7.74
  19  -1 -10   47.74    9.02
  19  -1  -9    9.35    5.62
  19   1  -9   -2.67    4.54
  19  -1  -8   17.37    5.65
  19  -1  -8   11.39    4.56
  19   1  -8    5.01    3.68
  19  -1  -7   23.11    6.50
  19  -1  -7   29.47    8.02
  19   1  -7   31.28    7.37
  19   1  -6   37.57    8.76
  19  -1  -6   36.84    8.27
  19  -1  -6   49.81    9.68
  19   1  -6   46.63    9.57
  19  -1  -5   54.88   10.03
  19   1  -5   48.49    8.79
  19  -1  -5   34.21    8.09
  19   1  -5   40.06    8.47
  19  -1  -4   22.89    6.64
  19   1  -4   24.17    6.76
  19  -1  -4   27.98    7.75
  19   1  -4   33.05    8.21
  19  -1  -3   20.64    5.42
  19   1  -3   10.00    3.88
  19  -1  -3   15.63    5.70
  19   1  -3   12.69    5.21
  19  -1  -2   70.87   10.76
  19   1  -2   59.69   10.01
  19  -1  -2   66.71   10.89
  19   1  -2   76.25   11.77
  19  -1  -1   61.84   11.18
  19   1  -1   50.71    9.35
  19  -1  -1   54.47    9.88
  19   1  -1   58.33   10.33
  19  -1   0    9.95    3.41
  19   1   0   11.70    4.56
  19  -1   0    9.91    4.52
  19   1   0    3.14    3.28
  19  -1   1   62.18    9.72
  19   1   1   59.95    9.60
  19  -1   1   53.81   10.30
  19   1   1   60.89   10.75
  19  -1   2   55.51    9.12
  19  -1   2   52.35    9.23
  19   1   2   37.04    8.40
  19  -1   3   20.86    7.01
  19   1   3    7.67    2.99
  19  -1   3   12.76    5.55
  19   1   3   13.01    5.67
  19  -1   4   30.34    7.36
  19   1   4   23.78    6.42
  19  -1   4   29.67    7.29
  19   1   4   13.18    4.85
  19  -1   5   49.22    8.88
  19   1   5   65.24    9.84
  19  -1   5   60.18   10.16
  19   1   5   28.82    7.15
  19  -1   6   29.10    6.64
  19  -1   6   43.18    9.12
  19   1   6   46.39    8.77
  19   1   6   51.83    9.76
  19   1   7   47.52    9.07
  19  -1   7   33.28    7.20
  19  -1   7   31.37    7.76
  19   1   7   18.72    6.08
  19  -1   8   13.10    4.96
  19  -1   8   11.49    4.23
  19   1   8   14.41    3.88
  19   1   8   22.65    5.99
  19  -1   9   13.78    4.82
  19  -1   9    6.93    3.49
  19   1   9   12.22    5.05
  19   1   9   24.54    7.38
  19  -1  10   85.67   12.41
  19   1  10   71.28   10.74
  19  -1  10   92.49   12.50
  19  -1  11   38.25    8.05
  19  -1  11   47.80    9.69
  19   1  11   36.52    7.68
  19  -1  12    4.11    2.56
  19  -1  12    8.58    3.40
  19   1  12    4.54    5.70
  19  -2 -11   10.01    3.89
  19  -2 -10    9.99    4.68
  19  -2  -9   11.71    4.95
  19  -2  -9    1.78    2.58
  19  -2  -8    0.51    2.71
  19  -2  -8    5.31    3.17
  19  -2  -7   15.66    5.68
  19  -2  -7   23.03    7.36
  19   2  -7   13.34    5.07
  19  -2  -6   36.45    8.55
  19  -2  -6   26.46    7.39
  19   2  -6   20.03    6.19
  19  -2  -5   30.99    6.73
  19  -2  -5   22.16    6.91
  19   2  -5   18.58    5.78
  19  -2  -4   13.49    5.35
  19   2  -4    5.77    4.55
  19  -2  -4   11.61    4.99
  19   2  -4   24.13    6.82
  19  -2  -3   10.08    4.25
  19   2  -3   10.46    4.85
  19  -2  -3    6.51    4.65
  19   2  -3   21.64    7.95
  19   2  -3    8.01    3.69
  19  -2  -2    6.02    4.19
  19   2  -2    2.47    2.13
  19  -2  -2    2.34    3.43
  19   2  -2    9.37    3.63
  19   2  -2    2.24    2.08
  19  -2  -1    5.89    3.34
  19   2  -1    6.37    2.90
  19  -2  -1    9.17    4.70
  19   2  -1    6.61    5.25
  19   2  -1    7.61    4.44
  19  -2   0   12.26    5.18
  19  -2   0   11.60    5.13
  19   2   0    4.00    2.86
  19   2   0    3.39    2.85
  19   2   0    9.84    3.53
  19  -2   1    8.29    3.41
  19  -2   1   11.26    5.74
  19   2   1    5.98    3.16
  19   2   1    3.47    2.96
  19   2   1    9.74    3.68
  19  -2   2    1.96    2.48
  19   2   2    3.33    2.77
  19   2   2    4.05    2.62
  19   2   2    3.27    3.97
  19  -2   3   10.23    4.29
  19  -2   3    6.81    4.84
  19   2   3   14.54    6.41
  19   2   3    6.23    4.05
  19   2   3    8.19    3.71
  19  -2   4   12.63    5.18
  19  -2   4    9.21    2.87
  19   2   4   15.90    5.74
  19   2   4    9.65    2.94
  19   2   4   12.45    3.76
  19  -2   5   31.34    6.91
  19  -2   5   35.37    8.15
  19   2   5   15.61    5.65
  19   2   5   18.39    5.39
  19   2   5   21.25    6.62
  19  -2   6   27.30    6.23
  19  -2   6   18.60    5.26
  19   2   6   28.40    7.07
  19   2   6   14.67    4.76
  19   2   6   19.48    5.98
  19  -2   7   16.96    5.51
  19  -2   7   20.04    6.28
  19   2   7    9.73    5.95
  19   2   7    9.08    4.82
  19   2   7   23.00    6.79
  19  -2   8    3.11    2.32
  19  -2   8    2.52    3.18
  19   2   8    2.69    2.81
  19   2   8    3.52    2.39
  19   2   8    8.45    4.43
  19  -2   9    0.54    3.09
  19  -2   9    1.77    3.18
  19   2   9    3.73    3.06
  19  -2  10    7.91    3.57
  19  -2  10    6.33    3.62
  19   2  10    3.29    3.14
  19  -2  11    4.11    3.44
  19  -2  11   10.22    5.27
  19   2  11    8.19    3.08
  19  -3  -9    8.15    4.39
  19  -3  -9    8.02    2.75
  19   3  -9   11.09    5.04
  19  -3  -8   35.37    8.15
  19  -3  -8   27.84    7.37
  19   3  -8   26.29    7.29
  19  -3  -7    0.80    2.40
  19  -3  -7    9.98    5.18
  19   3  -7   14.03    5.44
  19  -3  -6    6.78    3.53
  19  -3  -6   10.24    3.56
  19   3  -6   10.72    4.52
  19  -3  -5    2.32    2.84
  19  -3  -5   17.62    5.86
  19   3  -5   14.94    4.81
  19  -3  -4    6.00    4.13
  19  -3  -4    8.73    4.92
  19   3  -4    6.30    3.32
  19  -3  -3    5.39    3.07
  19  -3  -3   10.13    4.18
  19   3  -3    4.76    2.76
  19   3  -3   12.37    4.24
  19  -3  -2   31.16    8.21
  19  -3  -2   20.94    6.22
  19   3  -2   10.51    3.01
  19   3  -2   22.11    6.54
  19  -3  -1    9.66    4.78
  19  -3  -1    0.58    2.51
  19   3  -1   15.47    5.45
  19   3  -1   15.33    6.07
  19  -3   0    7.38    4.09
  19  -3   0   -0.34    2.57
  19   3   0    2.51    2.83
  19   3   0   -1.78    2.06
  19  -3   1    9.09    4.80
  19  -3   1    5.88    4.20
  19   3   1   15.03    5.05
  19   3   1    8.62    4.31
  19  -3   2   10.82    4.62
  19  -3   2    6.42    2.20
  19   3   2   17.18    6.48
  19   3   2   11.80    4.06
  19  -3   3    6.57    1.49
  19  -3   3   10.84    5.57
  19   3   3    8.33    6.62
  19   3   3   10.93    4.69
  19   3   3   12.29    5.50
  19  -3   4    8.71    2.54
  19  -3   4    2.65    4.21
  19   3   4   11.38    5.26
  19   3   4    7.61    4.26
  19   3   4   11.77    4.44
  19   3   5   18.60    5.80
  19  -3   5   18.11    4.92
  19  -3   5   15.07    4.34
  19   3   5   12.61    4.40
  19   3   5   15.86    5.15
  19   3   6    3.75    2.95
  19  -3   6   15.50    5.34
  19  -3   6   19.80    6.80
  19   3   6   10.71    4.86
  19   3   6   25.46    7.56
  19   3   7    7.67    4.52
  19  -3   7   10.87    4.19
  19  -3   7    4.56    3.12
  19   3   7    8.31    4.00
  19   3   7    3.76    2.51
  19   3   8   30.54    6.36
  19  -3   8   34.29    8.22
  19  -3   8   42.02    9.34
  19   3   8   29.44    8.09
  19   3   9    8.99    4.78
  19  -3   9   21.43    6.57
  19  -3   9    8.87    5.80
  19   3   9   25.33    7.85
  19  -4  -6    2.67    3.88
  19  -4  -6    2.80    4.52
  19   4  -6    2.85    3.73
  19  -4  -5    0.49    2.72
  19  -4  -5    1.42    2.39
  19   4  -5   -2.10    3.25
  19  -4  -4    4.91    3.06
  19  -4  -4   11.12    5.68
  19   4  -4   10.40    3.80
  19  -4  -3   10.19    5.93
  19  -4  -3   10.95    3.13
  19   4  -3    5.58    2.08
  19  -4  -2    3.00    2.25
  19  -4  -2   21.44    6.32
  19   4  -2   15.49    5.37
  19  -4  -1   -0.68    1.94
  19  -4  -1    2.34    2.45
  19   4  -1   -1.75    2.20
  19   4  -1   -0.37    3.59
  19  -4   0    5.92    3.77
  19  -4   0    0.03    2.72
  19   4   0    8.17    4.99
  19   4   0   11.16    4.67
  19   4   1    1.69    2.20
  19  -4   1    1.42    2.55
  19  -4   1    1.39    2.22
  19   4   1    0.47    1.78
  19   4   2   16.00    5.34
  19  -4   2    6.83    4.52
  19  -4   2    9.57    4.76
  19   4   2    4.55    2.99
  19   4   3    4.50    4.04
  19  -4   3    9.74    4.36
  19  -4   3   10.55    6.99
  19   4   3    7.59    4.72
  19   4   4   11.09    5.54
  19  -4   4    4.25    4.39
  19  -4   4   10.18    5.38
  19   4   4    7.02    3.87
  19   4   5   -1.88    3.99
  19  -4   5   -1.29    2.96
  19  -4   5    1.53    4.23
  19   4   5    5.80    4.90
  19   4   6    0.76    2.51
  19  -4   6    2.83    3.06
  19  -4   6    3.94    3.47
  19   4   6   11.75    5.53
  20   0  -7    7.60    2.90
  20   0  -6   -2.12    4.53
  20   0  -6   -2.24    3.09
  20   0  -5   84.76   12.28
  20   0  -5   77.28   11.07
  20   0  -4  206.45   19.21
  20   0  -4  219.42   20.02
  20   0  -3    8.38    3.82
  20   0  -3   -1.31    3.47
  20   0  -2  295.11   22.04
  20   0  -2  303.24   23.72
  20   0  -1   24.11    6.55
  20   0  -1   14.30    5.17
  20   0   0    0.19    3.77
  20   0   0   -1.80    3.55
  20   0   1   31.68    7.70
  20   0   1   12.28    4.57
  20   0   2  261.03   20.64
  20   0   2  274.41   22.60
  20   0   3   -0.50    2.30
  20   0   3    3.67    3.03
  20   0   4  218.31   18.79
  20   0   4  229.55   19.89
  20   0   5   84.55   12.40
  20   0   5   93.77   13.07
  20   0   6   -1.58    2.16
  20   0   6   -0.64    3.15
  20   0   7    3.82    3.17
  20   0   7    8.72    4.88
  20  -1  -7   -1.29    5.02
  20  -1  -7    1.08    2.25
  20  -1  -6    4.66    4.15
  20  -1  -6   -1.26    2.63
  20   1  -6    1.11    2.78
  20  -1  -5   10.07    4.91
  20   1  -5    4.44    2.65
  20  -1  -5    8.42    4.59
  20   1  -5    9.57    5.29
  20  -1  -4   -1.94    3.43
  20   1  -4   -1.40    2.34
  20  -1  -4   -1.19    3.98
  20   1  -4    3.42    3.20
  20  -1  -3   22.96    5.78
  20   1  -3   21.03    6.51
  20  -1  -3   17.16    6.19
  20   1  -3    5.78    5.15
  20  -1  -2   10.36    4.92
  20   1  -2    4.70    2.57
  20  -1  -2    7.24    4.26
  20   1  -2    0.56    3.09
  20  -1  -1    4.49    2.07
  20   1  -1    5.34    3.43
  20  -1  -1    1.02    3.39
  20   1  -1   11.02    4.88
  20  -1   0    2.30    3.91
  20   1   0    3.16    4.17
  20  -1   0    3.44    3.99
  20   1   0    4.34    4.91
  20  -1   1    4.52    4.28
  20   1   1   11.82    4.27
  20  -1   1    5.41    3.90
  20   1   1    3.38    3.19
  20  -1   2    4.94    3.87
  20   1   2    9.70    5.80
  20  -1   2    5.87    3.61
  20   1   2    1.68    4.53
  20  -1   3   24.71    6.76
  20   1   3   15.74    5.81
  20  -1   3   31.16    7.81
  20   1   3   11.01    4.60
  20  -1   4    0.89    2.36
  20   1   4    0.43    1.83
  20  -1   4    0.05    2.46
  20   1   4   -3.22    4.15
  20  -1   5    4.98    2.58
  20   1   5    5.36    3.54
  20   1   5    3.80    3.71
  20  -1   6   -1.78    2.26
  20   1   6    2.09    3.93
  20  -1   6    1.28    2.94
  20   1   6   -1.49    3.31
  20  -1   7    0.72    1.85
  20   1   7   -0.88    1.90
  20  -1   7    2.67    2.90
  20   1   7    1.55    3.21
  20  -2  -5    3.47    3.64
  20  -2  -5    1.40    3.24
  20  -2  -4   24.58    7.11
  20  -2  -4   16.66    5.86
  20  -2  -3    4.40    3.75
  20   2  -3    5.65    4.36
  20  -2  -3    4.10    2.65
  20   2  -3    5.88    2.93
  20  -2  -2  115.29   14.12
  20   2  -2  104.43   13.18
  20  -2  -2  102.69   13.60
  20   2  -2   92.44   12.72
  20  -2  -1   18.70    6.08
  20   2  -1    7.80    4.83
  20  -2  -1    8.86    5.31
  20   2  -1    0.08    2.75
  20   2  -1    7.08    4.47
  20  -2   0    1.20    2.67
  20   2   0   -1.48    3.11
  20  -2   0    2.24    4.08
  20   2   0    0.45    2.19
  20   2   0   -0.17    3.20
  20  -2   1    3.89    3.55
  20  -2   1    7.65    3.45
  20   2   1    8.03    4.55
  20   2   1   -0.26    3.60
  20  -2   2   94.49   12.85
  20   2   2   97.45   12.76
  20  -2   2   99.68   14.04
  20   2   2   94.54   13.59
  20   2   2   98.27   12.68
  20  -2   3    3.32    2.95
  20  -2   3    5.59    2.07
  20   2   3    4.55    2.89
  20   2   3    3.51    2.40
  20   2   3    6.82    4.80
  20  -2   4   24.88    5.58
  20  -2   4   36.52    8.34
  20   2   4    8.61    4.96
  20   2   4   15.24    4.45
  20   2   4   23.90    5.44
  20  -2   5    3.10    3.09
  20  -2   5    5.08    5.01
  20   2   5    6.84    4.17
  20   2   5    3.36    3.86
  20   2   5    1.42    3.32
   0   0   0    0.00    0.00
TITL 010_220K_SulfamerazineF1_ in Pna2(1)
REM Pna2(1) (#33, found as Pbn2(1) in ba-c setting)
CELL 0.68890  14.479456   8.197422  21.869257  90.0000  90.0000  90.0000
ZERR    8.00   0.000121   0.000076   0.000266   0.0000   0.0000   0.0000
LATT -1
SYMM -x,-y, z+1/2
SYMM  x+1/2,-y+1/2, z
SYMM -x+1/2, y+1/2, z+1/2
SFAC C H N O S
UNIT 88.00 96.00 32.00 16.00 8.00
TREF
HKLF 4
END
_computing_structure_solution     'SHELXT 2014/5 (Sheldrick, 2014)'
;
_shelx_hkl_checksum              83722
loop_
_space_group_symop_operation_xyz
'x, y, z'
'-x, -y, z+1/2'
'x+1/2, -y+1/2, z'
'-x+1/2, y+1/2, z+1/2'
loop_
_atom_site_label
_atom_site_type_symbol
_atom_site_fract_x
_atom_site_fract_y
_atom_site_fract_z
_atom_site_U_iso_or_equiv
_atom_site_adp_type
_atom_site_occupancy
_atom_site_site_symmetry_order
_atom_site_calc_flag
_atom_site_refinement_flags_posn
_atom_site_refinement_flags_adp
_atom_site_refinement_flags_occupancy
_atom_site_disorder_assembly
_atom_site_disorder_group
S1 S 0.64534(5) 0.49522(9) 0.34400(4) 0.02926(17) Uani 1 1 d . . . . .
S2 S 0.57789(5) 0.49664(9) 0.65284(4) 0.02832(17) Uani 1 1 d . . . . .
O1 O 0.68867(17) 0.3705(3) 0.30832(12) 0.0380(5) Uani 1 1 d . . . . .
O2 O 0.54816(16) 0.5223(3) 0.33741(13) 0.0380(6) Uani 1 1 d . . . . .
O3 O 0.67531(15) 0.4692(3) 0.65927(13) 0.0359(5) Uani 1 1 d . . . . .
O4 O 0.53552(17) 0.6236(3) 0.68772(12) 0.0370(5) Uani 1 1 d . . . . .
N1 N 0.8422(2) 1.1168(4) 0.31238(18) 0.0457(8) Uani 1 1 d . . . . .
N2 N 0.6545(2) 0.4482(4) 0.41728(15) 0.0339(6) Uani 1 1 d . . . . .
N3 N 0.81414(19) 0.4090(3) 0.41719(15) 0.0345(6) Uani 1 1 d . . . . .
N4 N 0.7279(2) 0.4301(5) 0.50958(15) 0.0475(8) Uani 1 1 d . . . . .
N5 N 0.3803(2) -0.1199(4) 0.69533(19) 0.0546(10) Uani 1 1 d . . . . .
H5A H 0.3238 -0.1186 0.7075 0.071 Uiso 1 1 calc R U . . .
H5B H 0.4077 -0.2114 0.6889 0.071 Uiso 1 1 calc R U . . .
N6 N 0.5682(2) 0.5393(4) 0.57956(15) 0.0353(6) Uani 1 1 d . . . . .
N7 N 0.40972(19) 0.5866(4) 0.58013(14) 0.0350(6) Uani 1 1 d . . . . .
N8 N 0.4957(2) 0.5654(5) 0.48740(16) 0.0467(8) Uani 1 1 d . . . . .
C1 C 0.7040(2) 0.6773(4) 0.33387(17) 0.0278(6) Uani 1 1 d . . . . .
C2 C 0.7941(2) 0.6792(4) 0.31066(16) 0.0287(6) Uani 1 1 d . . . . .
H2 H 0.8232 0.5819 0.3003 0.037 Uiso 1 1 calc R U . . .
C3 C 0.8395(2) 0.8254(4) 0.30316(17) 0.0287(7) Uani 1 1 d . . . . .
H3 H 0.8993 0.8263 0.2875 0.037 Uiso 1 1 calc R U . . .
C4 C 0.7967(2) 0.9731(4) 0.31887(16) 0.0304(7) Uani 1 1 d . . . . .
C5 C 0.7060(2) 0.9693(4) 0.3425(2) 0.0338(7) Uani 1 1 d . . . . .
H5 H 0.6767 1.0662 0.3532 0.044 Uiso 1 1 calc R U . . .
C6 C 0.6608(2) 0.8233(4) 0.35000(18) 0.0334(7) Uani 1 1 d . . . . .
H6 H 0.6012 0.8217 0.3659 0.043 Uiso 1 1 calc R U . . .
C7 C 0.7367(2) 0.4283(4) 0.44899(16) 0.0316(7) Uani 1 1 d . . . . .
C8 C 0.8060(3) 0.4052(8) 0.5407(2) 0.0659(14) Uani 1 1 d . . . . .
H8 H 0.8035 0.4023 0.5831 0.086 Uiso 1 1 calc R U . . .
C9 C 0.8899(3) 0.3837(7) 0.5125(2) 0.0606(12) Uani 1 1 d . . . . .
H9 H 0.9434 0.3665 0.5351 0.079 Uiso 1 1 calc R U . . .
C10 C 0.8920(2) 0.3884(5) 0.4498(2) 0.0429(9) Uani 1 1 d . . . . .
C11 C 0.9785(3) 0.3690(6) 0.4137(2) 0.0566(11) Uani 1 1 d . . . . .
H11A H 0.9824 0.2595 0.3984 0.074 Uiso 1 1 calc R U . . .
H11B H 1.0308 0.3908 0.4395 0.074 Uiso 1 1 calc R U . . .
H11C H 0.9783 0.4443 0.3801 0.074 Uiso 1 1 calc R U . . .
C12 C 0.5189(2) 0.3159(3) 0.66584(15) 0.0272(6) Uani 1 1 d . . . . .
C13 C 0.5635(2) 0.1687(4) 0.6557(2) 0.0365(8) Uani 1 1 d . . . . .
H13 H 0.6244 0.1679 0.6423 0.047 Uiso 1 1 calc R U . . .
C14 C 0.5180(3) 0.0238(4) 0.6653(2) 0.0423(9) Uani 1 1 d . . . . .
H14 H 0.5482 -0.0744 0.6579 0.055 Uiso 1 1 calc R U . . .
C15 C 0.4262(2) 0.0227(4) 0.68614(18) 0.0352(8) Uani 1 1 d . . . . .
C16 C 0.3820(2) 0.1725(4) 0.69645(17) 0.0319(7) Uani 1 1 d . . . . .
H16 H 0.3211 0.1739 0.7100 0.042 Uiso 1 1 calc R U . . .
C17 C 0.4277(2) 0.3173(4) 0.68672(17) 0.0297(7) Uani 1 1 d . . . . .
H17 H 0.3980 0.4159 0.6940 0.039 Uiso 1 1 calc R U . . .
C18 C 0.4865(2) 0.5653(4) 0.54806(16) 0.0315(7) Uani 1 1 d . . . . .
C19 C 0.4176(3) 0.5974(7) 0.4566(2) 0.0640(14) Uani 1 1 d . . . . .
H19 H 0.4198 0.6013 0.4142 0.083 Uiso 1 1 calc R U . . .
C20 C 0.3352(3) 0.6244(7) 0.4850(2) 0.0658(14) Uani 1 1 d . . . . .
H20 H 0.2825 0.6486 0.4625 0.086 Uiso 1 1 calc R U . . .
C21 C 0.3322(3) 0.6150(5) 0.5479(2) 0.0435(9) Uani 1 1 d . . . . .
C22 C 0.2452(3) 0.6356(6) 0.5843(2) 0.0609(12) Uani 1 1 d . . . . .
H22A H 0.2474 0.7372 0.6061 0.079 Uiso 1 1 calc R U . . .
H22B H 0.2395 0.5473 0.6129 0.079 Uiso 1 1 calc R U . . .
H22C H 0.1930 0.6354 0.5573 0.079 Uiso 1 1 calc R U . . .
H1N1 H 0.890(3) 1.120(5) 0.292(2) 0.042(11) Uiso 1 1 d . . . . .
H2N1 H 0.812(3) 1.200(6) 0.316(2) 0.056(13) Uiso 1 1 d . . . . .
H1N2 H 0.616(3) 0.479(5) 0.438(2) 0.043(13) Uiso 1 1 d . . . . .
H1N6 H 0.619(3) 0.504(5) 0.559(2) 0.056(14) Uiso 1 1 d . . . . .
loop_
_atom_site_aniso_label
_atom_site_aniso_U_11
_atom_site_aniso_U_22
_atom_site_aniso_U_33
_atom_site_aniso_U_23
_atom_site_aniso_U_13
_atom_site_aniso_U_12
S1 0.0270(3) 0.0314(3) 0.0294(4) 0.0024(3) -0.0015(3) -0.0021(3)
S2 0.0263(3) 0.0309(3) 0.0278(4) 0.0032(3) -0.0013(3) -0.0017(3)
O1 0.0445(13) 0.0319(11) 0.0376(14) -0.0039(10) 0.0005(11) -0.0015(10)
O2 0.0274(11) 0.0472(13) 0.0395(15) 0.0071(12) -0.0049(12) -0.0052(9)
O3 0.0262(11) 0.0460(13) 0.0354(14) 0.0064(11) -0.0053(11) -0.0025(9)
O4 0.0407(13) 0.0302(11) 0.0402(14) -0.0035(10) -0.0001(11) -0.0021(9)
N1 0.0405(17) 0.0321(15) 0.064(2) -0.0079(15) 0.0183(17) -0.0048(12)
N2 0.0247(12) 0.0451(16) 0.0318(17) 0.0072(13) 0.0010(12) 0.0000(11)
N3 0.0274(13) 0.0371(14) 0.0390(18) 0.0031(12) 0.0030(12) 0.0011(11)
N4 0.0336(15) 0.078(2) 0.0308(18) 0.0045(16) -0.0021(13) 0.0130(15)
N5 0.0461(18) 0.0324(14) 0.085(3) -0.0036(16) 0.0150(19) -0.0089(13)
N6 0.0260(12) 0.0498(16) 0.0301(17) 0.0091(14) 0.0021(12) 0.0025(12)
N7 0.0283(13) 0.0402(15) 0.0363(17) 0.0014(12) 0.0015(12) 0.0027(11)
N8 0.0342(15) 0.073(2) 0.0328(19) 0.0054(16) -0.0033(14) 0.0132(15)
C1 0.0260(14) 0.0294(13) 0.0280(17) 0.0012(12) 0.0006(13) 0.0016(10)
C2 0.0283(14) 0.0308(14) 0.0271(17) -0.0011(12) 0.0002(13) 0.0038(11)
C3 0.0247(14) 0.0353(16) 0.0260(18) 0.0002(13) 0.0045(13) 0.0006(11)
C4 0.0313(15) 0.0327(14) 0.0272(17) -0.0013(12) 0.0001(13) -0.0031(11)
C5 0.0321(15) 0.0302(14) 0.039(2) -0.0018(15) 0.0085(17) 0.0023(11)
C6 0.0283(14) 0.0350(15) 0.037(2) 0.0013(14) 0.0076(14) 0.0016(11)
C7 0.0278(15) 0.0337(15) 0.033(2) 0.0051(13) -0.0011(13) 0.0032(12)
C8 0.046(2) 0.117(4) 0.035(2) 0.005(3) -0.0050(19) 0.023(3)
C9 0.0329(19) 0.102(4) 0.047(3) -0.003(3) -0.0100(19) 0.017(2)
C10 0.0301(17) 0.047(2) 0.052(3) 0.0008(18) -0.0006(16) 0.0071(14)
C11 0.0326(19) 0.074(3) 0.064(3) -0.004(2) 0.0041(19) 0.0063(18)
C12 0.0270(13) 0.0281(13) 0.0263(17) 0.0016(11) 0.0016(12) -0.0002(10)
C13 0.0271(15) 0.0333(15) 0.049(2) -0.0027(16) 0.0074(17) 0.0025(11)
C14 0.0364(17) 0.0303(15) 0.060(3) -0.0027(16) 0.0052(17) 0.0058(12)
C15 0.0347(17) 0.0314(15) 0.039(2) -0.0024(13) 0.0038(15) -0.0015(12)
C16 0.0304(15) 0.0345(15) 0.0309(18) -0.0055(13) 0.0031(13) -0.0020(11)
C17 0.0295(15) 0.0314(14) 0.0284(18) -0.0016(13) 0.0032(13) 0.0006(11)
C18 0.0274(14) 0.0362(15) 0.0309(19) 0.0041(13) 0.0000(13) 0.0010(12)
C19 0.046(2) 0.111(4) 0.035(2) 0.001(2) -0.0090(19) 0.023(2)
C20 0.041(2) 0.109(4) 0.047(3) -0.006(3) -0.012(2) 0.028(2)
C21 0.0316(17) 0.049(2) 0.050(3) -0.0034(18) -0.0023(16) 0.0087(15)
C22 0.0311(18) 0.079(3) 0.073(3) -0.005(3) 0.005(2) 0.0092(19)
loop_
_atom_type_symbol
_atom_type_description
_atom_type_scat_dispersion_real
_atom_type_scat_dispersion_imag
_atom_type_scat_source
C C 0.0033 0.0016 'International Tables Vol C Tables 4.2.6.8 and 6.1.1.4'
H H 0.0000 0.0000 'International Tables Vol C Tables 4.2.6.8 and 6.1.1.4'
N N 0.0061 0.0033 'International Tables Vol C Tables 4.2.6.8 and 6.1.1.4'
O O 0.0106 0.0060 'International Tables Vol C Tables 4.2.6.8 and 6.1.1.4'
S S 0.1246 0.1234 'International Tables Vol C Tables 4.2.6.8 and 6.1.1.4'
loop_
_geom_angle_atom_site_label_1
_geom_angle_atom_site_label_2
_geom_angle_atom_site_label_3
_geom_angle
_geom_angle_site_symmetry_1
_geom_angle_site_symmetry_3
O1 S1 O2 119.12(16) . .
O1 S1 N2 109.07(17) . .
O2 S1 N2 102.26(16) . .
O1 S1 C1 109.32(16) . .
O2 S1 C1 109.63(14) . .
N2 S1 C1 106.60(17) . .
O4 S2 O3 118.93(16) . .
O4 S2 N6 109.19(16) . .
O3 S2 N6 102.25(16) . .
O4 S2 C12 108.86(16) . .
O3 S2 C12 109.52(14) . .
N6 S2 C12 107.42(16) . .
C4 N1 H1N1 120(3) . .
C4 N1 H2N1 117(3) . .
H1N1 N1 H2N1 118(4) . .
C7 N2 S1 125.5(3) . .
C7 N2 H1N2 112(4) . .
S1 N2 H1N2 116(4) . .
C7 N3 C10 116.4(3) . .
C7 N4 C8 115.1(4) . .
C15 N5 H5A 120.0 . .
C15 N5 H5B 120.0 . .
H5A N5 H5B 120.0 . .
C18 N6 S2 126.1(2) . .
C18 N6 H1N6 119(3) . .
S2 N6 H1N6 110(3) . .
C18 N7 C21 116.5(3) . .
C18 N8 C19 114.5(3) . .
C6 C1 C2 120.0(3) . .
C6 C1 S1 119.1(2) . .
C2 C1 S1 120.9(2) . .
C3 C2 C1 119.9(3) . .
C3 C2 H2 120.1 . .
C1 C2 H2 120.1 . .
C2 C3 C4 120.7(3) . .
C2 C3 H3 119.7 . .
C4 C3 H3 119.7 . .
N1 C4 C3 120.6(3) . .
N1 C4 C5 120.6(3) . .
C3 C4 C5 118.8(3) . .
C6 C5 C4 120.4(3) . .
C6 C5 H5 119.8 . .
C4 C5 H5 119.8 . .
C5 C6 C1 120.2(3) . .
C5 C6 H6 119.9 . .
C1 C6 H6 119.9 . .
N3 C7 N4 127.1(3) . .
N3 C7 N2 118.5(3) . .
N4 C7 N2 114.4(3) . .
N4 C8 C9 122.7(4) . .
N4 C8 H8 118.7 . .
C9 C8 H8 118.7 . .
C10 C9 C8 117.7(4) . .
C10 C9 H9 121.2 . .
C8 C9 H9 121.2 . .
N3 C10 C9 121.0(3) . .
N3 C10 C11 116.0(4) . .
C9 C10 C11 123.0(4) . .
C10 C11 H11A 109.5 . .
C10 C11 H11B 109.5 . .
H11A C11 H11B 109.5 . .
C10 C11 H11C 109.5 . .
H11A C11 H11C 109.5 . .
H11B C11 H11C 109.5 . .
C13 C12 C17 119.9(3) . .
C13 C12 S2 119.2(2) . .
C17 C12 S2 120.8(2) . .
C14 C13 C12 120.3(3) . .
C14 C13 H13 119.8 . .
C12 C13 H13 119.8 . .
C13 C14 C15 120.5(3) . .
C13 C14 H14 119.7 . .
C15 C14 H14 119.7 . .
N5 C15 C16 120.4(3) . .
N5 C15 C14 121.0(3) . .
C16 C15 C14 118.6(3) . .
C17 C16 C15 120.7(3) . .
C17 C16 H16 119.7 . .
C15 C16 H16 119.6 . .
C16 C17 C12 119.9(3) . .
C16 C17 H17 120.0 . .
C12 C17 H17 120.0 . .
N7 C18 N8 127.6(3) . .
N7 C18 N6 118.3(3) . .
N8 C18 N6 114.2(3) . .
N8 C19 C20 122.8(4) . .
N8 C19 H19 118.6 . .
C20 C19 H19 118.6 . .
C19 C20 C21 118.2(4) . .
C19 C20 H20 120.9 . .
C21 C20 H20 120.9 . .
N7 C21 C20 120.3(4) . .
N7 C21 C22 116.3(4) . .
C20 C21 C22 123.4(4) . .
C21 C22 H22A 109.5 . .
C21 C22 H22B 109.5 . .
H22A C22 H22B 109.5 . .
C21 C22 H22C 109.5 . .
H22A C22 H22C 109.5 . .
H22B C22 H22C 109.5 . .
loop_
_geom_bond_atom_site_label_1
_geom_bond_atom_site_label_2
_geom_bond_distance
_geom_bond_site_symmetry_2
S1 O1 1.431(3) .
S1 O2 1.432(2) .
S1 N2 1.654(3) .
S1 C1 1.732(3) .
S2 O4 1.429(2) .
S2 O3 1.435(2) .
S2 N6 1.646(3) .
S2 C12 1.733(3) .
N1 C4 1.357(4) .
N1 H1N1 0.82(4) .
N1 H2N1 0.81(4) .
N2 C7 1.388(4) .
N2 H1N2 0.76(5) .
N3 C7 1.328(4) .
N3 C10 1.344(5) .
N4 C7 1.331(5) .
N4 C8 1.335(5) .
N5 C15 1.360(4) .
N5 H5A 0.8600 .
N5 H5B 0.8600 .
N6 C18 1.386(4) .
N6 H1N6 0.92(5) .
N7 C18 1.326(4) .
N7 C21 1.346(5) .
N8 C18 1.333(5) .
N8 C19 1.342(5) .
C1 C6 1.396(4) .
C1 C2 1.399(4) .
C2 C3 1.378(4) .
C2 H2 0.9300 .
C3 C4 1.403(4) .
C3 H3 0.9300 .
C4 C5 1.412(4) .
C5 C6 1.373(4) .
C5 H5 0.9300 .
C6 H6 0.9300 .
C8 C9 1.374(6) .
C8 H8 0.9300 .
C9 C10 1.372(6) .
C9 H9 0.9300 .
C10 C11 1.488(5) .
C11 H11A 0.9600 .
C11 H11B 0.9600 .
C11 H11C 0.9600 .
C12 C13 1.387(4) .
C12 C17 1.397(4) .
C13 C14 1.374(5) .
C13 H13 0.9300 .
C14 C15 1.405(5) .
C14 H14 0.9300 .
C15 C16 1.403(4) .
C16 C17 1.376(4) .
C16 H16 0.9300 .
C17 H17 0.9300 .
C19 C20 1.363(6) .
C19 H19 0.9300 .
C20 C21 1.380(7) .
C20 H20 0.9300 .
C21 C22 1.499(6) .
C22 H22A 0.9600 .
C22 H22B 0.9600 .
C22 H22C 0.9600 .
loop_
_geom_hbond_atom_site_label_D
_geom_hbond_atom_site_label_H
_geom_hbond_atom_site_label_A
_geom_hbond_distance_DH
_geom_hbond_distance_HA
_geom_hbond_distance_DA
_geom_hbond_angle_DHA
_geom_hbond_site_symmetry_A
N5 H5B O4 0.86 2.29 3.083(4) 152.8 1_545
N1 H1N1 O4 0.82(4) 2.53(5) 3.251(4) 147(4) 4_654
N1 H2N1 O1 0.81(4) 2.27(4) 3.045(4) 159(4) 1_565
N2 H1N2 N8 0.76(5) 2.17(5) 2.925(5) 174(5) .
N6 H1N6 N4 0.92(5) 2.00(5) 2.913(5) 177(5) .
loop_
_geom_torsion_atom_site_label_1
_geom_torsion_atom_site_label_2
_geom_torsion_atom_site_label_3
_geom_torsion_atom_site_label_4
_geom_torsion
_geom_torsion_site_symmetry_1
_geom_torsion_site_symmetry_2
_geom_torsion_site_symmetry_3
_geom_torsion_site_symmetry_4
O1 S1 N2 C7 60.7(3) . . . .
O2 S1 N2 C7 -172.3(3) . . . .
C1 S1 N2 C7 -57.3(3) . . . .
O4 S2 N6 C18 -57.8(3) . . . .
O3 S2 N6 C18 175.4(3) . . . .
C12 S2 N6 C18 60.1(3) . . . .
O1 S1 C1 C6 162.4(3) . . . .
O2 S1 C1 C6 30.2(4) . . . .
N2 S1 C1 C6 -79.8(3) . . . .
O1 S1 C1 C2 -18.5(3) . . . .
O2 S1 C1 C2 -150.7(3) . . . .
N2 S1 C1 C2 99.3(3) . . . .
C6 C1 C2 C3 -0.7(5) . . . .
S1 C1 C2 C3 -179.8(3) . . . .
C1 C2 C3 C4 0.3(5) . . . .
C2 C3 C4 N1 178.9(3) . . . .
C2 C3 C4 C5 0.0(5) . . . .
N1 C4 C5 C6 -178.9(4) . . . .
C3 C4 C5 C6 0.0(6) . . . .
C4 C5 C6 C1 -0.4(6) . . . .
C2 C1 C6 C5 0.7(6) . . . .
S1 C1 C6 C5 179.8(3) . . . .
C10 N3 C7 N4 0.3(5) . . . .
C10 N3 C7 N2 -179.3(3) . . . .
C8 N4 C7 N3 -1.9(6) . . . .
C8 N4 C7 N2 177.7(4) . . . .
S1 N2 C7 N3 -15.9(5) . . . .
S1 N2 C7 N4 164.5(3) . . . .
C7 N4 C8 C9 1.7(8) . . . .
N4 C8 C9 C10 0.0(9) . . . .
C7 N3 C10 C9 1.6(6) . . . .
C7 N3 C10 C11 -179.2(3) . . . .
C8 C9 C10 N3 -1.7(7) . . . .
C8 C9 C10 C11 179.2(5) . . . .
O4 S2 C12 C13 -157.3(3) . . . .
O3 S2 C12 C13 -25.7(3) . . . .
N6 S2 C12 C13 84.6(3) . . . .
O4 S2 C12 C17 22.3(3) . . . .
O3 S2 C12 C17 153.9(3) . . . .
N6 S2 C12 C17 -95.8(3) . . . .
C17 C12 C13 C14 0.9(6) . . . .
S2 C12 C13 C14 -179.6(3) . . . .
C12 C13 C14 C15 -0.7(6) . . . .
C13 C14 C15 N5 179.5(4) . . . .
C13 C14 C15 C16 0.5(6) . . . .
N5 C15 C16 C17 -179.4(3) . . . .
C14 C15 C16 C17 -0.4(6) . . . .
C15 C16 C17 C12 0.6(5) . . . .
C13 C12 C17 C16 -0.8(5) . . . .
S2 C12 C17 C16 179.7(3) . . . .
C21 N7 C18 N8 -1.5(5) . . . .
C21 N7 C18 N6 178.6(3) . . . .
C19 N8 C18 N7 2.8(6) . . . .
C19 N8 C18 N6 -177.3(4) . . . .
S2 N6 C18 N7 12.6(5) . . . .
S2 N6 C18 N8 -167.3(3) . . . .
C18 N8 C19 C20 -1.2(8) . . . .
N8 C19 C20 C21 -1.4(9) . . . .
C18 N7 C21 C20 -1.4(6) . . . .
C18 N7 C21 C22 178.8(4) . . . .
C19 C20 C21 N7 2.8(8) . . . .
C19 C20 C21 C22 -177.5(5) . . . .
