#------------------------------------------------------------------------------
#$Date: 2017-09-28 15:45:34 +0300 (Thu, 28 Sep 2017) $
#$Revision: 201416 $
#$URL: file:///home/coder/svn-repositories/cod/cif/1/54/74/1547414.cif $
#------------------------------------------------------------------------------
#
# This file is available in the Crystallography Open Database (COD),
# http://www.crystallography.net/
#
# All data on this site have been placed in the public domain by the
# contributors.
#
data_1547414
loop_
_publ_author_name
'Anuradha R. Pallipurath'
'Jonathan M. Skelton'
'Mark R. Warren'
'Naghmeh Kamali'
'Patrick McArdle'
'Andrea Erxleben'
_publ_section_title
;
 Sulfamerazine: Understanding the Influence of Slip Planes in the
 Polymorphic Phase Transformation through X-Ray Crystallographic Studies
 and ab Initio Lattice Dynamics
;
_journal_name_full               'Molecular Pharmaceutics'
_journal_page_first              3735
_journal_page_last               3748
_journal_paper_doi               10.1021/acs.molpharmaceut.5b00504
_journal_volume                  12
_journal_year                    2015
_chemical_absolute_configuration ad
_chemical_formula_moiety         'C11 H12 N4 O2 S'
_chemical_formula_sum            'C11 H12 N4 O2 S'
_chemical_formula_weight         264.31
_chemical_name_common            Sulfamerazine
_chemical_name_systematic        4-amino-N-(4-methylpyrimidin-2-yl)
_space_group_crystal_system      orthorhombic
_space_group_IT_number           33
_space_group_name_Hall           'P 2c -2n'
_space_group_name_H-M_alt        'P n a 21'
_symmetry_space_group_name_Hall  'P 2c -2n'
_symmetry_space_group_name_H-M   'P n a 21'
_atom_sites_solution_hydrogens   mixed
_cell_angle_alpha                90
_cell_angle_beta                 90
_cell_angle_gamma                90
_cell_formula_units_Z            8
_cell_length_a                   14.45970(10)
_cell_length_b                   8.18020(10)
_cell_length_c                   21.7812(2)
_cell_measurement_reflns_used    12054
_cell_measurement_temperature    160
_cell_measurement_theta_max      29.4870
_cell_measurement_theta_min      1.8100
_cell_volume                     2576.35(4)
_computing_cell_refinement
;
CrysAlisPro, Agilent Technologies,
Version 1.171.37.35 (release 13-08-2014 CrysAlis171 .NET)
(compiled Aug 13 2014,18:06:01)
;
_computing_data_collection
;
CrysAlisPro, Agilent Technologies,
Version 1.171.37.35 (release 13-08-2014 CrysAlis171 .NET)
(compiled Aug 13 2014,18:06:01)
;
_computing_data_reduction
;
CrysAlisPro, Agilent Technologies,
Version 1.171.37.35 (release 13-08-2014 CrysAlis171 .NET)
(compiled Aug 13 2014,18:06:01)
;
_computing_molecular_graphics    OSCAIL
_computing_structure_refinement  'SHELXL-2014/7 (Sheldrick, 2014)'
_computing_structure_solution    SHELXT
_diffrn_ambient_temperature      160
_diffrn_measured_fraction_theta_full 0.998
_diffrn_measured_fraction_theta_max 0.998
_diffrn_radiation_type           Synchrotron
_diffrn_radiation_wavelength     0.68890
_diffrn_reflns_av_R_equivalents  0.0464
_diffrn_reflns_av_unetI/netI     0.0437
_diffrn_reflns_Laue_measured_fraction_full 0.998
_diffrn_reflns_Laue_measured_fraction_max 0.998
_diffrn_reflns_limit_h_max       20
_diffrn_reflns_limit_h_min       -13
_diffrn_reflns_limit_k_max       11
_diffrn_reflns_limit_k_min       -11
_diffrn_reflns_limit_l_max       31
_diffrn_reflns_limit_l_min       -27
_diffrn_reflns_number            23196
_diffrn_reflns_point_group_measured_fraction_full 0.987
_diffrn_reflns_point_group_measured_fraction_max 0.967
_diffrn_reflns_theta_full        24.415
_diffrn_reflns_theta_max         29.474
_diffrn_reflns_theta_min         1.812
_exptl_absorpt_coefficient_mu    0.251
_exptl_absorpt_correction_T_max  1.00000
_exptl_absorpt_correction_T_min  0.97673
_exptl_absorpt_correction_type   multi-scan
_exptl_absorpt_process_details
;
CrysAlisPro, Agilent Technologies, 
Version 1.171.36.28 (release 01-02-2013 CrysAlis171 .NET) 
Empirical absorption correction using spherical harmonics, 
implemented in SCALE3 ABSPACK scaling algorithm.
;
_exptl_crystal_colour            Colourless
_exptl_crystal_density_diffrn    1.363
_exptl_crystal_description       Parallelepiped
_exptl_crystal_F_000             1104
_exptl_crystal_size_max          0.50
_exptl_crystal_size_mid          0.40
_exptl_crystal_size_min          0.20
_refine_diff_density_max         0.311
_refine_diff_density_min         -0.383
_refine_diff_density_rms         0.054
_refine_ls_abs_structure_details
;
 Flack x determined using 2637 quotients [(I+)-(I-)]/[(I+)+(I-)]
 (Parsons, Flack and Wagner, Acta Cryst. B69 (2013) 249-259).
;
_refine_ls_abs_structure_Flack   -0.04(5)
_refine_ls_extinction_coef       .
_refine_ls_extinction_method     none
_refine_ls_goodness_of_fit_ref   1.068
_refine_ls_hydrogen_treatment    mixed
_refine_ls_matrix_type           full
_refine_ls_number_parameters     344
_refine_ls_number_reflns         7604
_refine_ls_number_restraints     1
_refine_ls_restrained_S_all      1.068
_refine_ls_R_factor_all          0.0533
_refine_ls_R_factor_gt           0.0440
_refine_ls_shift/su_max          0.000
_refine_ls_shift/su_mean         0.000
_refine_ls_structure_factor_coef Fsqd
_refine_ls_weighting_details
'w=1/[\s^2^(Fo^2^)+(0.0541P)^2^+0.3587P] where P=(Fo^2^+2Fc^2^)/3'
_refine_ls_weighting_scheme      calc
_refine_ls_wR_factor_gt          0.1070
_refine_ls_wR_factor_ref         0.1156
_reflns_Friedel_coverage         0.893
_reflns_Friedel_fraction_full    0.976
_reflns_Friedel_fraction_max     0.934
_reflns_number_gt                6584
_reflns_number_total             7604
_reflns_threshold_expression     'I > 2\s(I)'
_cod_data_source_file            Exp_Form-I2FSynchrotron_Form-I_160K.cif
_cod_data_source_block           160k_smz-f1_a
_cod_database_code               1547414
_shelx_space_group_comment
;
The symmetry employed for this shelxl refinement is uniquely defined
by the following loop, which should always be used as a source of
symmetry information in preference to the above space-group names.
They are only intended as comments.
;
_shelx_estimated_absorpt_t_min   0.885
_shelx_estimated_absorpt_t_max   0.951
_shelx_res_file
;
    160k_smz-f1_a.res created by SHELXL-2014/7
TITL 160k_smz-f1_a.res in Pna2(1)
REM Old TITL 016_160K_SulfamerazineF1_ in Pna2(1)
REM SHELXT solution in Pna2(1)
REM R1 0.089,  Rweak 0.016,  Alpha 0.002,  Orientation as input
REM Flack x =  0.036 ( 0.056 ) from Parsons' quotients
REM Formula found by SHELXT:  C26 N4 O4 S2
CELL  0.68890  14.4597   8.1802  21.7812   90.000   90.000   90.000
ZERR    8.000   0.0001   0.0001   0.0002    0.000    0.000    0.000
REM SG 33 4 4 Pna21 PGmm2 Orthorhombic
LATT -1
REM SG  ASUN  1  .5 .5 1.
REM SG  ORGN  on 2(1)
SYMM -X,-Y,0.5+Z
SYMM 0.5+X,0.5-Y,Z
SYMM 0.5-X,0.5+Y,0.5+Z
SFAC C H N O S
UNIT 88.00 96.00 32.00 16.00 8.00
L.S. 10
SIZE    0.50  0.40  0.20
BOND $H
FMAP 2
PLAN 20
ACTA
CONF
EQIV $1 x, y-1, z
HTAB N5 O4_$1
EQIV $2 -x+3/2, y+1/2, z-1/2
HTAB N1 O4_$2
EQIV $3 x, y+1, z
HTAB N1 O1_$3
HTAB N2 N8
HTAB N6 N4
LIST 4
WGHT    0.054100    0.358700
FVAR       0.54354   0.35344
S1    5    0.356264    0.505634    0.656455    11.00000    0.01887    0.02202 =
         0.02028    0.00191   -0.00103   -0.00120
S2    5    0.421847    0.501649    0.346626    11.00000    0.01865    0.02112 =
         0.01990    0.00228   -0.00064   -0.00130
O1    4    0.313018    0.630508    0.692570    11.00000    0.03088    0.02288 =
         0.02821   -0.00352   -0.00016   -0.00001
O2    4    0.453861    0.478334    0.663030    11.00000    0.01938    0.03289 =
         0.02674    0.00378   -0.00329   -0.00224
O3    4    0.324150    0.529192    0.340226    11.00000    0.01792    0.03257 =
         0.02686    0.00520   -0.00429   -0.00290
O4    4    0.464245    0.375155    0.311105    11.00000    0.02984    0.02191 =
         0.02728   -0.00254    0.00025   -0.00087
N1    3    0.159078   -0.117568    0.687730    11.00000    0.02794    0.02344 =
         0.04353   -0.00599    0.01116   -0.00471
N2    3    0.346998    0.553499    0.582761    11.00000    0.01739    0.03107 =
         0.02107    0.00469    0.00066    0.00115
N3    3    0.187026    0.592072    0.583600    11.00000    0.01922    0.02711 =
         0.02611    0.00149    0.00172    0.00226
N4    3    0.272527    0.568157    0.490291    11.00000    0.02389    0.05658 =
         0.02501    0.00346   -0.00187    0.01059
N5    3    0.620170    1.120389    0.305535    11.00000    0.03192    0.02252 =
         0.06130   -0.00373    0.01252   -0.00591
AFIX  93
H5A   2    0.593232    1.212040    0.312908    11.00000   -1.30000
H5B   2    0.676383    1.119068    0.292646    11.00000   -1.30000
AFIX   0
N6    3    0.431593    0.458011    0.420151    11.00000    0.01863    0.03413 =
         0.02270    0.00706    0.00176    0.00118
N7    3    0.590704    0.411629    0.419273    11.00000    0.01991    0.02885 =
         0.02711    0.00145    0.00020    0.00312
N8    3    0.505430    0.434761    0.512748    11.00000    0.02633    0.05440 =
         0.02377    0.00386   -0.00065    0.00929
C1    1    0.297249    0.322568    0.666381    11.00000    0.01840    0.01996 =
         0.02094    0.00093    0.00012    0.00063
C2    1    0.207367    0.321157    0.690063    11.00000    0.02018    0.02161 =
         0.02023   -0.00094   -0.00003    0.00281
AFIX  43
H2    2    0.178601    0.418567    0.701019    11.00000   -1.30000
AFIX   0
C3    1    0.161805    0.174842    0.697044    11.00000    0.01758    0.02542 =
         0.01976   -0.00058    0.00506    0.00040
AFIX  43
H3    2    0.101844    0.174046    0.712487    11.00000   -1.30000
AFIX   0
C4    1    0.204555    0.026420    0.681175    11.00000    0.02252    0.02116 =
         0.02074   -0.00129    0.00072    0.00006
C5    1    0.295292    0.029774    0.657338    11.00000    0.02260    0.02170 =
         0.02861   -0.00129    0.00407    0.00121
AFIX  43
H5    2    0.324489   -0.067303    0.646468    11.00000   -1.30000
AFIX   0
C6    1    0.340759    0.176798    0.650131    11.00000    0.02055    0.02499 =
         0.02516    0.00048    0.00583    0.00149
AFIX  43
H6    2    0.400544    0.178655    0.634402    11.00000   -1.30000
AFIX   0
C7    1    0.264064    0.571880    0.551381    11.00000    0.01981    0.02650 =
         0.02261    0.00426   -0.00157    0.00253
C8    1    0.193689    0.591058    0.459146    11.00000    0.03329    0.08663 =
         0.02608    0.00167   -0.00546    0.01827
AFIX  43
H8    2    0.195567    0.591124    0.416467    11.00000   -1.30000
AFIX   0
C9    1    0.109970    0.614505    0.487979    11.00000    0.02383    0.07951 =
         0.03258   -0.00530   -0.00968    0.01404
AFIX  43
H9    2    0.056154    0.631414    0.465476    11.00000   -1.30000
AFIX   0
C10   1    0.108478    0.612122    0.551052    11.00000    0.02220    0.03322 =
         0.03646   -0.00179   -0.00229    0.00514
C11   1    0.022200    0.633120    0.587503    11.00000    0.02344    0.05124 =
         0.04686   -0.00675    0.00345    0.00738
AFIX 137
H11A  2    0.022616    0.738466    0.606925    11.00000   -1.30000
H11B  2    0.018776    0.549348    0.618285    11.00000   -1.30000
H11C  2   -0.030428    0.625088    0.560804    11.00000   -1.30000
AFIX   0
C12   1    0.480811    0.682859    0.334207    11.00000    0.01913    0.02085 =
         0.02113    0.00050    0.00004   -0.00080
C13   1    0.436168    0.830851    0.344771    11.00000    0.02044    0.02246 =
         0.03768   -0.00005    0.00716    0.00300
AFIX  43
H13   2    0.375160    0.831508    0.358288    11.00000   -1.30000
AFIX   0
C14   1    0.481930    0.976571    0.335301    11.00000    0.02845    0.02045 =
         0.04228   -0.00099    0.00421    0.00296
AFIX  43
H14   2    0.451817    1.074984    0.342875    11.00000   -1.30000
AFIX   0
C15   1    0.573777    0.977235    0.314278    11.00000    0.02560    0.02514 =
         0.02442   -0.00114    0.00017   -0.00165
C16   1    0.618252    0.827163    0.303589    11.00000    0.02082    0.02367 =
         0.02342   -0.00313    0.00189   -0.00121
AFIX  43
H16   2    0.679269    0.825907    0.290096    11.00000   -1.30000
AFIX   0
C17   1    0.571977    0.681308    0.312981    11.00000    0.02183    0.02273 =
         0.01820   -0.00161   -0.00003    0.00054
AFIX  43
H17   2    0.601482    0.582444    0.305185    11.00000   -1.30000
AFIX   0
C18   1    0.513977    0.433464    0.451501    11.00000    0.01992    0.02616 =
         0.02467    0.00256   -0.00198    0.00103
C19   1    0.583333    0.404428    0.543547    11.00000    0.03317    0.08879 =
         0.02386    0.00062   -0.00487    0.01646
AFIX  43
H19   2    0.581356    0.401794    0.586213    11.00000   -1.30000
AFIX   0
C20   1    0.666259    0.376969    0.514691    11.00000    0.02872    0.08247 =
         0.03552   -0.00587   -0.01037    0.02362
AFIX  43
H20   2    0.719405    0.353899    0.537124    11.00000   -1.30000
AFIX   0
C21   1    0.668491    0.384598    0.451335    11.00000    0.02146    0.03597 =
         0.03480   -0.00390   -0.00234    0.00590
C22   1    0.755126    0.362600    0.414584    11.00000    0.02193    0.05585 =
         0.05229   -0.00473    0.00382    0.00580
AFIX 137
H22A  2    0.754465    0.257047    0.395324    11.00000   -1.30000
H22B  2    0.807851    0.370631    0.441199    11.00000   -1.30000
H22C  2    0.758603    0.446019    0.383669    11.00000   -1.30000
AFIX   0
H1N1  2    0.110231   -0.124081    0.708076    11.00000    0.03962
H2N1  2    0.195151   -0.208066    0.684347    11.00000    0.05309
H1N2  2    0.388262    0.517672    0.561262    11.00000    0.02850
H1N6  2    0.384446    0.490228    0.438601    11.00000    0.05255
HKLF 4
REM  160k_smz-f1_a.res in Pna2(1)
REM R1 =  0.0440 for    6584 Fo > 4sig(Fo)  and  0.0533 for all    7604 data
REM    344 parameters refined using      1 restraints
END
WGHT      0.0497      0.6368
REM Highest difference peak  0.311,  deepest hole -0.383,  1-sigma level  0.054
Q1    1   0.3230  0.4003  0.6615  11.00000  0.05    0.31
Q2    1   0.4551  0.5988  0.3406  11.00000  0.05    0.31
Q3    1   0.1936  0.1053  0.6998  11.00000  0.05    0.30
Q4    1   0.1935  0.2372  0.6975  11.00000  0.05    0.28
Q5    1   0.2443  0.3011  0.6594  11.00000  0.05    0.28
Q6    1   0.4583  0.7546  0.3412  11.00000  0.05    0.27
Q7    1   0.5909  0.8999  0.3033  11.00000  0.05    0.26
Q8    1   0.3163  0.1072  0.6517  11.00000  0.05    0.26
Q9    1   0.4642  0.8990  0.3427  11.00000  0.05    0.25
Q10   1   0.5293  0.9739  0.3206  11.00000  0.05    0.25
Q11   1   0.4125  0.4534  0.6594  11.00000  0.05    0.24
Q12   1   0.3606  0.5224  0.3429  11.00000  0.05    0.24
Q13   1   0.5241  0.6834  0.3291  11.00000  0.05    0.23
Q14   1   0.3184  0.6016  0.4908  11.00000  0.05    0.23
Q15   1   0.6331  0.4027  0.4330  11.00000  0.05    0.22
Q16   1   0.3022  0.5524  0.5745  11.00000  0.05    0.22
Q17   1   0.2261  0.6028  0.5697  11.00000  0.05    0.22
Q18   1   0.3307  0.5528  0.6854  11.00000  0.05    0.21
Q19   1   0.1842 -0.0546  0.6915  11.00000  0.05    0.20
Q20   1   0.3346  0.5473  0.6183  11.00000  0.05    0.20
;
_shelx_res_checksum              9347
_shelx_hkl_file
;
   0   0 -19   -0.36    1.62
   0   0 -18   69.33    6.92
   0   0 -17   -0.72    0.92
   0   0 -16  547.19   17.49
   0   0 -15    0.34    1.08
   0   0 -14   47.91    4.82
   0   0 -13    0.57    1.30
   0   0 -12 5221.78   46.01
   0   0 -11   -0.12    0.74
   0   0 -10  329.30   10.44
   0   0  -9    0.80    0.71
   0   0  -7   -0.22    0.51
   0   0  -5    0.06    0.25
   0   0  -4 5156.61   26.49
   0   0   2  291.95    5.81
   0   0   3    0.64    0.27
   0   0   4 5264.76   34.94
   0   0   5    0.97    0.62
   0   0   7    0.73    0.73
   0   0   9    0.06    1.25
   0   0  10  314.07   13.46
   0   0  11    0.92    0.91
   0   0  12 5011.40   59.80
   0   0  13   -0.47    1.13
   0   0  14   49.38    6.33
   0   0  15    0.74    1.89
   0   0  16  521.62   22.12
   0   0  17    0.49    1.93
   0   0  18   81.20    9.23
   0   0  19    0.28    1.13
   0   0  20 1105.23   35.48
   0   0  21   -1.37    1.42
   0   0  22   95.15   11.26
   0   0  23    0.99    1.66
   0   0  24    7.96    3.25
   0   0  25    4.12    3.41
   0   0  26 1190.68   42.83
   0   0  27   -1.02    3.21
   0   0  28  816.75   36.52
   0   0  29   -0.85    3.78
   0  -1 -20   -1.71    1.89
   0  -1 -19   55.15    6.75
   0  -1 -18   -0.01    1.13
   0  -1 -18    0.93    0.97
   0  -1 -17   33.65    4.91
   0   1 -17   40.14    4.25
   0  -1 -17   32.20    4.21
   0   1 -16    1.77    1.12
   0  -1 -16    1.55    1.78
   0  -1 -16    1.93    1.35
   0  -1 -15  106.32    8.23
   0   1 -15  108.11    6.47
   0  -1 -14    0.02    1.68
   0   1 -14    1.02    0.76
   0   1 -13  179.11    7.70
   0  -1 -13  189.66   10.73
   0   1 -12    1.98    0.95
   0  -1 -12   -0.25    0.89
   0   1 -11   55.75    3.83
   0  -1 -11   54.73    5.45
   0  -1 -10    1.43    0.51
   0   1 -10    0.16    0.53
   0   1  -9 2326.49   21.84
   0  -1  -9 2370.20   32.87
   0  -1  -8    1.09    0.83
   0   1  -8   -0.21    0.38
   0   1  -7 1900.19   17.19
   0   1  -6    0.17    0.21
   0   1  -5 3112.51   19.42
   0   1  -3 1793.60   14.47
   0  -1  -2    0.26    0.39
   0   1  -2    0.69    0.51
   0   1  -1  471.12    8.54
   0  -1  -1  446.25    9.22
   0   1   0    0.57    0.46
   0  -1   0    0.68    0.37
   0   1   1  439.26    9.65
   0  -1   1  443.90    8.59
   0  -1   2   -0.22    0.21
   0   1   2    0.41    0.39
   0   1   3 1767.76   21.16
   0  -1   3 1714.74   16.52
   0   1   3 1743.18   21.67
   0  -1   4    0.16    0.35
   0   1   4   -0.43    0.34
   0   1   4    0.30    1.01
   0  -1   4   -0.16    0.39
   0  -1   5 3146.97   22.29
   0   1   5 3184.67   33.06
   0  -1   6   -0.19    0.43
   0  -1   6   -0.02    0.40
   0   1   6    0.06    0.91
   0  -1   7 1976.77   18.12
   0  -1   7 1919.56   25.65
   0  -1   8    0.55    0.59
   0   1   8    1.48    1.60
   0  -1   8    0.42    0.41
   0   1   9 2219.39   36.03
   0  -1   9 2284.38   21.09
   0  -1   9 2276.26   32.46
   0  -1  10    2.28    1.10
   0   1  10    1.89    1.57
   0   1  11   64.22    6.71
   0  -1  11   51.49    5.49
   0  -1  12    0.49    1.83
   0   1  12    0.26    0.89
   0   1  13  172.42   11.75
   0  -1  13  163.63   10.86
   0  -1  14    0.55    2.24
   0   1  14   -0.46    1.35
   0   1  15  106.91   10.02
   0  -1  15  115.16    9.63
   0  -1  16   -0.61    1.11
   0   1  16   -0.01    1.95
   0   1  17   25.62    5.50
   0  -1  17   38.44    5.78
   0  -1  18   -1.11    1.59
   0   1  18    0.22    1.90
   0   1  19   71.16    9.44
   0  -1  19   64.28    8.49
   0   1  20    1.89    2.60
   0  -1  20    0.70    2.16
   0  -1  21  203.48   15.91
   0   1  21  195.51   15.60
   0   1  22   -1.39    1.84
   0  -1  22   -0.56    2.68
   0   1  23    6.96    3.35
   0  -1  23    2.60    1.71
   0   1  24   -0.79    2.79
   0  -1  24   -1.42    2.25
   0  -1  25    2.76    4.33
   0   1  25    8.56    3.54
   0   1  26   -0.28    3.17
   0  -1  26   -2.85    4.56
   0   1  27    2.29    2.46
   0   1  28   -1.83    3.70
   0   1  29    4.99    3.22
   0   1  30    6.17    4.81
   0  -2 -21    0.28    2.57
   0  -2 -20  211.83   14.68
   0  -2 -19    1.37    1.80
   0  -2 -19    1.02    1.58
   0  -2 -18  196.18   13.76
   0  -2 -18  194.36   11.86
   0  -2 -17    2.65    1.90
   0  -2 -17    0.32    1.69
   0  -2 -16 1256.51   29.01
   0  -2 -16 1238.21   33.09
   0   2 -15    0.42    0.66
   0  -2 -15    1.15    0.77
   0  -2 -15   -0.04    1.68
   0  -2 -14  378.38   17.24
   0   2 -14  307.31    9.01
   0  -2 -13   -0.05    1.32
   0   2 -13   -0.84    0.62
   0  -2 -13    0.03    0.85
   0   2 -12 2647.59   24.99
   0  -2 -12 2690.53   39.17
   0  -2 -12 2683.08   43.78
   0   2 -11    0.83    0.39
   0  -2 -11   -0.31    0.72
   0  -2 -11    0.14    0.85
   0   2 -10 2685.11   24.50
   0  -2 -10 2600.08   36.91
   0  -2  -9    0.60    0.53
   0   2  -9    0.52    0.66
   0   2  -8  195.81    6.52
   0  -2  -8  195.80    9.65
   0  -2  -7    1.31    0.97
   0   2  -7    1.92    0.83
   0  -2  -6 2376.89   32.21
   0   2  -6 2173.59   23.31
   0  -2  -5    1.24    0.78
   0   2  -5    0.45    0.67
   0  -2  -4 1987.95   28.72
   0   2  -4 1858.55   22.28
   0   2  -3    1.84    0.92
   0  -2  -3    0.17    0.47
   0   2  -2  795.69   10.21
   0  -2  -2  779.17   17.11
   0   2  -2  815.13   15.96
   0   2  -1    0.19    0.55
   0   2  -1    0.83    1.01
   0  -2  -1   -0.03    0.84
   0   2   1    0.17    0.52
   0   2   1    0.26    0.69
   0  -2   1   -0.03    0.53
   0   2   2  860.49   15.89
   0  -2   2  791.33   16.28
   0   2   3   -0.05    0.57
   0   2   3    0.20    0.55
   0  -2   3    0.23    0.65
   0   2   4 1877.56   29.97
   0  -2   4 1907.49   24.84
   0   2   4 1911.59   27.49
   0   2   5    1.48    1.11
   0   2   5    0.45    0.96
   0  -2   5    1.32    1.19
   0   2   6 2261.38   35.48
   0   2   6 2355.85   34.18
   0  -2   6 2328.00   26.77
   0  -2   7    1.93    1.04
   0   2   7    0.51    1.32
   0   2   7   -0.12    1.10
   0   2   8  158.59    9.72
   0  -2   8  191.44    7.65
   0   2   9   -0.71    1.29
   0  -2   9    0.08    0.75
   0  -2  10 2810.53   37.59
   0  -2  10 2783.57   29.23
   0  -2  11    1.91    1.32
   0   2  11    0.37    1.31
   0  -2  11   -0.13    0.74
   0  -2  12 2669.59   40.15
   0  -2  12 2577.17   28.41
   0   2  12 2565.31   45.90
   0  -2  13    0.38    1.47
   0  -2  13    0.35    0.51
   0   2  13   -1.25    2.54
   0  -2  14  320.51   15.56
   0   2  14  341.22   17.69
   0  -2  14  325.85   10.13
   0   2  15   -0.73    1.79
   0  -2  15   -0.27    1.16
   0   2  16 1306.91   36.52
   0  -2  16 1311.91   33.64
   0   2  17    2.36    3.21
   0  -2  17   -1.25    1.32
   0  -2  18  191.23   13.81
   0   2  18  169.13   14.08
   0   2  19    0.32    1.84
   0  -2  19    0.82    1.35
   0   2  20  175.47   14.67
   0   2  21    3.08    3.02
   0   2  22  218.60   17.05
   0   2  23    0.84    3.17
   0   2  24   46.88    8.13
   0   2  25   -2.19    1.73
   0   2  26  274.72   20.38
   0   2  27    3.68    3.35
   0   2  28   94.77   12.66
   0   2  29    0.18    2.61
   0   2  30  197.75   18.22
   0  -3 -23   -1.21    3.19
   0  -3 -22   -1.12    2.02
   0  -3 -21  132.19   12.74
   0  -3 -20   -0.38    2.30
   0  -3 -19  277.27   16.64
   0  -3 -19  295.12   18.29
   0  -3 -18    1.78    2.75
   0  -3 -18   -0.16    1.71
   0  -3 -17   72.82    9.09
   0  -3 -17   82.64    8.42
   0  -3 -16   -0.02    1.12
   0  -3 -16   -1.09    1.35
   0  -3 -15  125.00   10.20
   0  -3 -15  111.56   10.58
   0  -3 -14    0.65    1.77
   0  -3 -14   -0.99    1.77
   0   3 -14    0.36    0.68
   0  -3 -13  245.73   14.92
   0   3 -13  238.19    8.31
   0  -3 -12    0.34    1.39
   0   3 -12   -0.32    0.48
   0   3 -11  221.30    8.54
   0  -3 -11  215.53   12.23
   0  -3 -10    1.99    1.56
   0   3 -10   -0.78    0.89
   0  -3  -9 3787.47   50.75
   0   3  -9 3672.65   36.40
   0   3  -8   -0.44    0.75
   0  -3  -8    1.68    2.24
   0   3  -7   40.81    4.04
   0  -3  -7   41.11    5.03
   0   3  -6    0.64    0.66
   0  -3  -6    1.64    1.28
   0  -3  -5  626.15   19.16
   0   3  -5  638.34   16.46
   0   3  -4    0.17    0.81
   0  -3  -4   -0.15    1.20
   0   3  -4    0.20    0.38
   0   3  -3 1012.19   14.42
   0   3  -3 1065.26   22.34
   0   3  -2   -0.78    0.70
   0  -3  -2    2.11    1.71
   0   3  -2    1.57    0.69
   0   3  -1 1953.85   21.34
   0   3  -1 2045.01   31.85
   0  -3  -1 2016.85   32.60
   0  -3   0    2.16    1.70
   0   3   0   -0.06    0.73
   0   3   0    0.01    0.72
   0   3   1 1993.97   25.86
   0  -3   1 2049.54   32.27
   0  -3   2   -0.91    1.28
   0   3   2    0.58    1.32
   0   3   2   -0.29    0.69
   0   3   3 1033.26   25.27
   0  -3   3  992.65   22.12
   0  -3   4   -1.29    1.38
   0   3   4    1.42    1.39
   0   3   4   -0.06    1.14
   0   3   5  596.46   17.83
   0   3   5  595.22   20.60
   0  -3   5  652.25   17.98
   0   3   6    0.32    1.79
   0   3   6   -0.44    0.68
   0  -3   6   -0.34    0.92
   0   3   7   48.75    6.21
   0   3   7   54.34    5.78
   0  -3   7   42.63    4.65
   0   3   8    0.96    1.16
   0  -3   8   -0.34    0.73
   0   3   8    0.22    0.78
   0   3   9 3799.08   55.41
   0  -3   9 3905.61   42.87
   0   3   9 3897.84   55.56
   0  -3  10    0.37    0.66
   0   3  10    0.35    1.06
   0   3  11  202.03   13.01
   0  -3  11  220.35   10.22
   0   3  12   -0.66    0.90
   0  -3  12   -0.92    0.96
   0  -3  13  227.08   10.50
   0   3  13  251.30   15.27
   0  -3  14    0.06    0.76
   0   3  14   -1.06    1.75
   0   3  15  129.64   11.69
   0   3  16   -0.12    1.19
   0   3  17   72.51    9.08
   0   3  18   -1.38    2.99
   0   3  19  270.55   18.46
   0   3  20   -1.79    1.68
   0   3  21  139.74   13.62
   0   3  22    0.96    2.04
   0   3  23    1.04    1.77
   0   3  24    1.88    2.73
   0   3  25    1.14    2.27
   0   3  26   -1.06    3.71
   0   3  27   40.38    7.42
   0   3  28    3.63    3.47
   0   3  29   14.69    6.29
   0   3  30   -0.12    3.50
   0  -4 -24    6.32    4.54
   0  -4 -23    1.34    2.51
   0  -4 -22  672.60   30.82
   0  -4 -21    1.62    2.77
   0  -4 -20   28.29    7.29
   0  -4 -20   37.65    6.50
   0  -4 -19    8.07    3.78
   0  -4 -19   -0.11    2.01
   0  -4 -18  489.25   24.81
   0  -4 -18  451.96   21.88
   0  -4 -17    0.84    1.93
   0  -4 -17    2.04    1.78
   0  -4 -16 1357.86   39.74
   0  -4 -15   -1.14    1.40
   0  -4 -15   -2.82    3.39
   0  -4 -14  186.85   13.05
   0  -4 -14  174.68   13.66
   0   4 -13    0.07    1.16
   0  -4 -13    0.79    0.82
   0   4 -12 1251.67   23.48
   0  -4 -12 1248.40   33.36
   0   4 -11    0.79    0.63
   0  -4 -11    5.65    2.70
   0  -4 -10 3022.05   50.39
   0  -4  -9    1.01    0.85
   0   4  -9   -0.07    0.99
   0   4  -8  862.60   21.36
   0  -4  -8  787.45   25.26
   0   4  -7    0.32    0.96
   0  -4  -7    0.35    1.45
   0   4  -7   -1.29    1.30
   0  -4  -6 1621.33   34.90
   0   4  -6 1658.69   31.13
   0   4  -6 1580.08   20.61
   0   4  -5   -0.15    1.40
   0  -4  -5   -1.20    1.19
   0   4  -5    0.69    1.12
   0   4  -4 2757.39   25.99
   0   4  -4 2722.25   41.28
   0  -4  -4 2697.84   44.46
   0   4  -3    0.27    1.13
   0   4  -3    3.73    1.02
   0  -4  -3    3.37    1.97
   0  -4  -2  909.54   25.14
   0   4  -2  903.15   24.39
   0   4  -1   -1.30    1.88
   0   4  -1    0.93    0.88
   0  -4  -1   -0.47    1.56
   0   4   0  545.63   14.31
   0  -4   0  498.53   18.60
   0   4   1    1.25    1.15
   0  -4   1   -0.42    1.39
   0   4   1    0.73    0.93
   0  -4   2  871.84   24.22
   0   4   2  799.13   19.55
   0  -4   3   -0.25    0.78
   0   4   3    0.67    1.55
   0   4   3    0.07    1.42
   0   4   4 2590.62   38.88
   0   4   4 2624.89   46.13
   0  -4   4 2608.39   41.50
   0  -4   5    3.91    2.44
   0   4   5    1.49    1.63
   0   4   5    0.05    2.32
   0   4   6 1659.91   33.39
   0   4   6 1607.61   37.32
   0  -4   6 1636.42   33.06
   0  -4   7   -0.68    0.98
   0   4   7    1.37    2.31
   0   4   7    0.58    1.85
   0   4   8  828.06   27.81
   0  -4   8  803.42   23.70
   0   4   8  862.37   26.01
   0  -4   9   -0.42    1.17
   0   4   9    1.46    2.27
   0   4   9    1.47    1.35
   0  -4  10 2994.61   44.08
   0   4  10 3012.97   54.95
   0  -4  11    2.60    1.66
   0   4  11    3.55    2.77
   0   4  12 1061.98   32.50
   0  -4  12 1199.59   28.12
   0  -4  13    2.44    1.80
   0   4  13   -0.83    1.84
   0  -4  14  192.75   11.37
   0   4  14  220.41   15.14
   0   4  15    1.77    2.84
   0   4  16 1489.63   41.18
   0   4  17   -1.78    2.76
   0   4  18  496.59   24.95
   0   4  19    4.82    4.02
   0   4  20   31.14    6.59
   0   4  21    0.63    2.08
   0   4  22  634.61   30.43
   0   4  23   -1.73    2.62
   0   4  24    2.81    2.84
   0   4  25   -0.52    2.41
   0   4  26  103.10   12.66
   0   4  27   -1.27    2.15
   0   4  28    6.34    3.87
   0   4  29   -0.93    3.10
   0  -5 -25   -3.73    3.14
   0  -5 -24    0.23    2.66
   0  -5 -23   40.24    8.47
   0  -5 -22   -2.05    2.21
   0  -5 -21    5.69    3.83
   0  -5 -20    3.05    2.89
   0  -5 -20   -0.40    2.81
   0  -5 -19    8.86    3.40
   0  -5 -19   12.18    5.34
   0  -5 -18   -3.11    3.60
   0  -5 -18    1.74    1.82
   0  -5 -17   10.02    4.12
   0  -5 -17   12.02    4.39
   0  -5 -16    4.46    3.21
   0  -5 -16    1.84    1.64
   0  -5 -15   34.48    6.12
   0  -5 -15   28.59    6.24
   0  -5 -14   -0.07    2.57
   0  -5 -13   68.68    8.43
   0  -5 -12   -1.25    2.23
   0   5 -12   -0.05    1.08
   0   5 -11   52.27    5.87
   0  -5 -11   43.99    7.42
   0   5 -10   -0.99    1.20
   0  -5 -10   -2.82    3.18
   0   5 -10    0.53    1.60
   0   5  -9    0.39    0.89
   0   5  -9    0.62    1.15
   0  -5  -9    1.07    2.07
   0   5  -8   -0.22    0.56
   0  -5  -8    0.65    1.53
   0   5  -8    0.54    1.29
   0   5  -7  201.72   12.26
   0  -5  -7  234.25   14.73
   0   5  -7  211.01    7.75
   0   5  -6    0.37    1.04
   0  -5  -6    0.79    2.14
   0   5  -6   -0.20    0.67
   0   5  -5  148.04    6.60
   0  -5  -5  134.34   10.99
   0   5  -5  127.45    9.92
   0   5  -4   -0.16    0.77
   0  -5  -4    1.30    2.39
   0   5  -4    0.98    1.79
   0  -5  -3  252.92   14.74
   0   5  -3  232.59   13.71
   0   5  -3  235.62    8.94
   0   5  -2    0.42    0.95
   0   5  -2    0.43    1.08
   0   5  -1   69.48    7.66
   0   5  -1   58.51    4.95
   0   5   0   -1.81    1.78
   0  -5   0   -1.25    1.01
   0   5   0   -0.96    1.71
   0   5   1   53.13    6.98
   0   5   1   58.00    5.56
   0  -5   1   59.36    6.92
   0  -5   2   -0.73    0.88
   0   5   2   -0.01    0.77
   0   5   2   -0.96    1.91
   0   5   3  218.41   11.63
   0  -5   3  261.05   14.73
   0   5   3  233.53   14.83
   0  -5   4   -0.19    1.14
   0   5   4   -0.44    1.30
   0   5   4   -1.49    2.67
   0  -5   5  130.76   10.41
   0   5   5  140.96   12.14
   0   5   5  123.61    9.36
   0   5   6   -0.12    1.27
   0   5   6    0.83    1.82
   0  -5   6    2.00    1.40
   0  -5   7  196.62   12.89
   0   5   7  197.39   14.40
   0   5   7  197.95   12.79
   0   5   8    0.33    1.90
   0  -5   8   -0.01    2.24
   0   5   8    0.89    1.29
   0   5   9    2.82    2.59
   0   5   9    4.76    2.37
   0  -5   9    3.38    1.78
   0   5  10    0.23    2.39
   0   5  10    1.48    1.56
   0  -5  10    1.33    2.11
   0   5  11   43.30    6.94
   0  -5  11   40.46    6.05
   0  -5  12   -1.84    2.54
   0   5  12    2.89    2.56
   0  -5  13   76.64    8.23
   0   5  13   85.35    9.69
   0   5  14   -0.47    1.88
   0   5  15   33.92    6.55
   0   5  16   -0.11    1.96
   0   5  17    3.33    2.83
   0   5  18    4.19    3.48
   0   5  19   11.00    4.59
   0   5  20   -1.53    1.65
   0   5  21    5.06    2.64
   0   5  22    3.91    1.69
   0   5  23   36.05    7.55
   0   5  24    2.63    3.34
   0   5  25    2.88    4.07
   0   5  26   -0.20    1.81
   0   5  27    2.35    2.87
   0   5  28    2.30    3.44
   0  -6 -25   -2.56    4.46
   0  -6 -24   67.55   11.44
   0  -6 -23   -2.31    2.60
   0  -6 -22  489.41   28.71
   0  -6 -21    1.92    2.81
   0  -6 -21    0.83    2.39
   0  -6 -20  164.87   16.74
   0  -6 -20  180.10   16.75
   0  -6 -19    0.21    3.47
   0  -6 -19    1.68    2.55
   0  -6 -18    6.13    2.60
   0  -6 -18    9.56    2.78
   0  -6 -17   -0.29    3.14
   0  -6 -17   -0.88    2.21
   0  -6 -16  392.13   23.87
   0  -6 -16  410.71   23.18
   0  -6 -15   -0.45    2.74
   0  -6 -15    4.41    3.95
   0  -6 -14   14.29    4.44
   0  -6 -13    2.39    2.08
   0  -6 -12  528.40   24.98
   0   6 -11   -0.89    0.95
   0  -6 -11   -1.40    1.90
   0   6 -10  535.17   21.84
   0  -6 -10  520.69   24.43
   0   6  -9    0.14    1.30
   0  -6  -9    1.57    2.51
   0  -6  -8   81.37    9.63
   0   6  -8   91.96    9.37
   0   6  -7   -2.32    2.20
   0  -6  -7    1.78    1.44
   0  -6  -6 3206.02   59.01
   0   6  -6 3235.80   56.28
   0   6  -5    0.89    0.97
   0   6  -5    3.37    2.86
   0  -6  -5    5.55    4.11
   0   6  -4 1432.43   22.67
   0   6  -4 1405.00   37.17
   0  -6  -4 1383.47   38.16
   0  -6  -3   -2.64    2.37
   0   6  -3    0.09    0.86
   0   6  -3   -1.48    2.24
   0   6  -2 2709.34   52.69
   0  -6  -2 2707.17   52.45
   0   6  -2 2762.76   36.12
   0  -6  -1    1.68    3.14
   0   6  -1   -1.42    0.79
   0   6   0 1650.21   41.63
   0  -6   0 1567.78   39.97
   0   6   1    1.98    1.38
   0   6   1   -0.27    1.35
   0  -6   1   -0.08    1.64
   0   6   2 2706.42   43.01
   0  -6   2 2534.55   50.85
   0   6   2 2587.70   53.29
   0   6   3   -0.50    2.44
   0  -6   3   -0.07    1.37
   0   6   3   -0.66    0.91
   0  -6   4 1371.85   36.98
   0   6   4 1491.39   40.63
   0   6   5    1.60    2.30
   0  -6   5   -0.31    2.37
   0   6   5    0.52    3.06
   0   6   6 3234.16   53.70
   0  -6   6 3192.00   57.13
   0   6   7    1.40    2.16
   0   6   7    0.60    2.46
   0  -6   7    1.66    2.34
   0   6   8   74.11    8.67
   0  -6   8   72.73    9.14
   0   6   8   94.19   10.85
   0  -6   9    0.53    2.36
   0   6   9   -1.93    2.57
   0   6   9    0.55    2.13
   0   6  10  549.82   26.64
   0  -6  10  551.23   24.03
   0   6  10  545.40   24.22
   0   6  11    3.92    2.78
   0  -6  11    0.82    1.61
   0  -6  12  515.84   23.14
   0   6  12  565.75   25.25
   0   6  13    1.61    2.10
   0  -6  13    1.61    1.51
   0   6  14    6.87    3.29
   0   6  15    2.76    3.94
   0   6  16  442.31   24.22
   0   6  17    1.45    2.40
   0   6  18   12.55    4.63
   0   6  19   -1.96    2.67
   0   6  20  176.61   16.10
   0   6  21    1.06    3.82
   0   6  22  503.45   27.94
   0   6  23   -4.48    3.96
   0   6  24   87.33   12.44
   0   6  25    9.43    4.79
   0   6  26  221.34   19.35
   0  -7 -24    8.08    5.43
   0  -7 -23   15.25    4.88
   0  -7 -22   -3.54    2.16
   0  -7 -21   16.26    6.36
   0  -7 -21   20.99    7.16
   0  -7 -20   -0.83    2.59
   0  -7 -20    3.24    4.39
   0  -7 -19   41.02    7.61
   0  -7 -19   46.33    8.33
   0  -7 -18    0.73    2.44
   0  -7 -18   -1.50    2.27
   0  -7 -17    6.22    4.42
   0  -7 -17    6.18    4.23
   0  -7 -16    4.06    2.21
   0  -7 -16    0.09    3.26
   0  -7 -15   60.18    9.80
   0  -7 -15   84.27   11.41
   0  -7 -14    1.62    2.74
   0  -7 -13   62.44    9.09
   0  -7 -12   -3.05    3.39
   0  -7 -11   24.50    6.16
   0  -7 -10    1.14    1.72
   0   7 -10   -0.74    2.44
   0  -7  -9  376.67   21.32
   0   7  -9  333.09   19.05
   0  -7  -8    0.31    2.99
   0   7  -8    3.11    2.42
   0   7  -7 1107.96   36.15
   0  -7  -7 1129.41   37.13
   0  -7  -6    4.25    3.66
   0   7  -6   -2.26    1.86
   0  -7  -5  652.48   27.98
   0   7  -5  543.24   25.47
   0  -7  -4    3.58    3.34
   0   7  -4    1.88    2.19
   0  -7  -3   86.35   10.01
   0   7  -3   68.71    8.66
   0  -7  -2    0.74    2.47
   0   7  -2    3.05    3.27
   0  -7  -1 2063.25   49.63
   0   7  -1 2169.94   51.35
   0  -7   0    0.93    3.58
   0   7   0    0.53    3.02
   0   7   0    2.53    2.18
   0   7   1 2033.43   50.36
   0  -7   1 2073.08   49.20
   0   7   2   -1.06    1.15
   0   7   2    0.80    1.79
   0  -7   2    3.72    2.38
   0   7   3   51.39    6.60
   0  -7   3   58.40    8.17
   0   7   4    6.06    3.41
   0   7   4    0.61    2.43
   0  -7   4   -1.19    2.69
   0   7   5  558.98   23.60
   0  -7   5  594.84   26.44
   0   7   6   -1.28    1.20
   0   7   6   -0.46    2.47
   0  -7   6    2.44    4.11
   0   7   7 1121.66   39.28
   0   7   7  998.72   33.36
   0  -7   7 1116.20   36.91
   0  -7   8    4.76    4.10
   0   7   8   -0.06    3.96
   0   7   8    0.81    2.54
   0   7   9  327.81   21.58
   0  -7   9  295.18   19.71
   0   7   9  275.87   17.69
   0  -7  10   -1.69    2.10
   0   7  10    0.32    2.61
   0   7  11   22.74    4.94
   0  -7  11   33.03    6.76
   0   7  12    0.51    1.99
   0  -7  12    4.16    2.94
   0   7  13   49.52    7.71
   0   7  14    1.63    3.24
   0   7  15   89.32   10.65
   0   7  16   -1.10    2.86
   0   7  17   11.66    4.63
   0   7  18   -3.07    3.28
   0   7  19   50.07    9.31
   0   7  20    1.74    2.93
   0   7  21   21.48    5.82
   0   7  22    0.06    3.06
   0   7  23   16.59    6.23
   0   7  24   -0.78    3.70
   0  -8 -22   56.61   10.81
   0  -8 -21   -8.88    5.38
   0  -8 -21    2.01    2.61
   0  -8 -20   85.84   11.82
   0  -8 -20   76.51   11.67
   0  -8 -19   -2.44    3.81
   0  -8 -19    2.68    2.07
   0  -8 -18   10.81    4.82
   0  -8 -18   -0.39    2.83
   0  -8 -17    1.39    1.98
   0  -8 -17    2.34    1.91
   0  -8 -16  107.29   12.99
   0  -8 -16  115.93   13.68
   0  -8 -15   -2.37    1.80
   0  -8 -15   -2.40    2.66
   0  -8 -14    2.04    2.86
   0  -8 -14   -0.79    3.19
   0  -8 -13    0.25    2.46
   0  -8 -12   34.77    7.03
   0  -8 -11    2.34    2.86
   0  -8 -10  124.96   12.96
   0   8  -9    0.28    2.25
   0  -8  -9   -1.72    3.61
   0  -8  -8    2.66    2.36
   0   8  -8    2.69    2.18
   0   8  -7    1.26    2.45
   0  -8  -7    1.91    2.07
   0  -8  -6  291.53   19.71
   0   8  -6  307.06   20.32
   0  -8  -5    3.59    3.75
   0   8  -5   -1.83    2.00
   0   8  -4  130.79   13.42
   0  -8  -4  140.95   13.80
   0  -8  -3   -1.25    1.92
   0   8  -3   -0.63    2.67
   0  -8  -2  140.52   13.25
   0   8  -2  146.00   14.37
   0  -8  -1    3.15    1.25
   0   8  -1    3.25    2.61
   0  -8   0  247.37   17.98
   0   8   0  272.65   19.74
   0   8   1    1.63    3.23
   0  -8   1   -1.00    2.20
   0  -8   2  141.98   13.87
   0   8   2  122.57   12.92
   0  -8   3   -0.85    2.76
   0   8   3    1.86    2.87
   0   8   4  137.26   15.04
   0  -8   4  154.69   14.43
   0   8   5   -1.48    2.72
   0   8   5    0.23    2.36
   0  -8   5   -1.99    2.94
   0   8   6  272.46   17.36
   0   8   6  247.71   19.09
   0  -8   6  285.37   19.95
   0   8   7    2.91    1.63
   0   8   7    0.34    1.76
   0  -8   7   -0.44    1.75
   0   8   8    3.43    1.64
   0   8   8    7.50    4.26
   0  -8   8    4.37    3.80
   0  -8   9    0.53    2.52
   0   8   9    2.25    3.49
   0  -8  10  133.27   13.61
   0   8  10  120.16   12.44
   0  -8  11    5.90    4.47
   0   8  11   -2.51    3.51
   0   8  12   40.17    7.37
   0  -8  12   38.86    8.43
   0   8  13    3.56    3.85
   0   8  14   10.65    4.19
   0   8  15   -0.92    3.01
   0   8  16  117.37   13.46
   0   8  17    0.54    2.58
   0   8  18    1.82    2.60
   0   8  19    1.08    2.18
   0   8  20   89.52   12.45
   0   8  21   -4.74    3.90
   0   8  22   58.07   10.09
   0  -9 -19   23.60    6.80
   0  -9 -19   20.56    7.14
   0  -9 -18    5.56    3.74
   0  -9 -18   -2.15    3.82
   0  -9 -17   56.12    9.68
   0  -9 -17   43.60    9.07
   0  -9 -16   -8.03    4.72
   0  -9 -16   -4.10    2.30
   0  -9 -15    1.84    2.46
   0  -9 -15    1.90    3.19
   0  -9 -14   -8.13    5.40
   0  -9 -14   -0.92    2.70
   0  -9 -13    2.86    2.39
   0  -9 -13    0.12    2.74
   0  -9 -12   -4.97    3.59
   0  -9 -11   58.86    9.91
   0  -9 -10   -5.27    3.57
   0  -9  -9   38.01    7.36
   0   9  -8    3.01    3.63
   0  -9  -8   -3.05    3.38
   0  -9  -7   17.97    6.62
   0   9  -7   27.04    7.13
   0  -9  -6   -1.00    3.78
   0   9  -6   -4.15    3.95
   0  -9  -5    3.98    4.31
   0   9  -5    5.91    3.86
   0   9  -4    4.20    3.50
   0  -9  -4    5.23    3.83
   0   9  -3   46.86    8.50
   0  -9  -3   43.73    7.69
   0  -9  -2   -0.21    2.55
   0   9  -2    2.32    2.93
   0   9  -1   19.24    5.78
   0  -9  -1   21.06    6.56
   0  -9   0   -0.17    2.69
   0   9   0   -0.78    2.74
   0   9   1   23.32    6.45
   0  -9   1   20.34    6.72
   0  -9   2    0.66    1.43
   0   9   2   -3.78    3.38
   0  -9   3   49.84    8.61
   0   9   3   41.94    8.22
   0  -9   4   -0.68    1.78
   0   9   4   -6.04    4.39
   0  -9   5    7.09    4.22
   0   9   5    2.75    4.43
   0  -9   6    2.36    2.84
   0  -9   7   26.69    6.74
   0  -9   8    1.48    2.68
   0  -9   9   40.27    7.59
   0  -9  10    4.15    3.43
   0   9  10    0.54    2.72
   0  -9  11   58.55    9.88
   0   9  11   57.30    9.40
   0   9  12    3.04    3.73
   0   9  13   -1.32    3.15
   0   9  14    1.58    4.46
   0   9  15    1.59    2.17
   0   9  16    2.42    3.23
   0   9  17   45.97    9.02
   0   9  18    6.60    4.15
   0   9  19   20.60    6.83
   0 -10 -16   60.92   10.36
   0 -10 -16   80.43   11.73
   0 -10 -15    1.07    3.12
   0 -10 -15    4.05    1.84
   0 -10 -14   13.10    5.91
   0 -10 -14    6.31    5.19
   0 -10 -13    5.51    4.17
   0 -10 -13   -6.92    4.10
   0 -10 -12   51.78    9.34
   0 -10 -12   47.07    9.57
   0 -10 -11   -5.02    3.52
   0 -10 -11   -3.50    2.66
   0 -10 -10  148.55   15.34
   0 -10  -9    2.77    3.88
   0 -10  -8   -2.26    3.77
   0 -10  -7    6.31    4.86
   0  10  -6  187.08   18.23
   0 -10  -6  207.72   17.74
   0  10  -5    4.83    2.94
   0 -10  -5   -0.79    2.69
   0 -10  -4  114.21   13.04
   0  10  -4  130.20   15.24
   0  10  -3    2.69    4.22
   0 -10  -3   -0.07    2.19
   0 -10  -2   39.68    8.21
   0  10  -2   38.12    8.56
   0 -10  -1   -0.25    3.46
   0  10  -1   -0.22    2.30
   0  10   0  254.53   20.72
   0 -10   0  230.85   19.61
   0 -10   1   -4.15    3.37
   0  10   1    0.06    2.25
   0 -10   2   57.75   10.05
   0 -10   3    5.52    4.25
   0 -10   4   96.24   12.68
   0 -10   5    3.68    4.91
   0 -10   6  179.76   17.92
   0 -10   7    2.51    2.70
   0 -10   8    7.74    5.40
   0 -10   9    4.91    4.13
   0 -10  10  108.91   14.08
   0 -11 -10   -0.18    4.60
   0 -11 -10   -4.20    2.69
   0 -11  -9   12.80    5.04
   0 -11  -9   15.25    5.66
   0 -11  -8    2.60    2.63
   0 -11  -7    7.11    3.54
   0 -11  -6    3.80    3.75
   0 -11  -5    0.27    1.98
   0 -11  -4    7.40    4.65
   0 -11  -3   11.24    5.16
   0 -11  -2   -0.45    3.72
   0 -11  -1    0.57    2.51
   0 -11   0    0.95    2.89
   0 -11   1    0.15    3.72
   0 -11   2   -0.25    2.26
   0 -11   3   20.97    6.19
   0 -11   4    2.11    2.28
   0 -11   5   -2.10    2.73
   0 -11   6   -5.21    4.85
   0 -11   7    2.24    3.07
   0 -11   8   -1.51    2.97
   0 -11   9    9.82    4.29
   1   0 -19   -2.08    2.70
   1   0 -18    1.23    1.87
  -1   0 -18    1.47    1.78
   1   0 -17   -0.56    0.90
  -1   0 -17   -0.62    1.37
   1   0 -16    0.51    1.51
  -1   0 -16    0.07    1.00
   1   0 -16   -0.54    0.55
   1   0 -15   -0.19    0.47
   1   0 -15   -0.38    1.10
  -1   0 -15   -0.18    0.63
  -1   0 -14    0.71    0.98
   1   0 -14    1.76    1.96
   1   0 -14   -0.33    0.42
   1   0 -13   -0.40    0.55
   1   0 -13   -0.78    1.17
  -1   0 -13    0.92    0.78
  -1   0 -12   -0.65    0.52
   1   0 -12    0.36    0.39
   1   0 -12   -0.04    1.12
   1   0 -11    0.57    0.59
   1   0 -11    0.81    1.29
  -1   0 -11    0.33    0.62
   1   0 -10    0.88    1.21
  -1   0 -10    0.56    0.49
   1   0 -10    0.31    0.30
  -1   0  -9   -0.25    0.40
   1   0  -9    0.04    0.19
   1   0  -9    0.69    0.78
  -1   0  -8    0.49    0.58
   1   0  -8    0.05    0.46
   1   0  -8    0.37    0.45
   1   0  -7   -0.47    0.60
   1   0  -6    0.00    0.74
   1   0  -5    0.53    0.77
   1   0  -4    0.14    0.27
   1   0  -3   -0.21    0.33
   1   0  -2    0.37    0.44
   1   0  -1   -0.11    0.27
   1   0   1   -0.07    0.18
   1   0   2    0.32    0.34
   1   0   2    0.25    0.24
   1   0   3    0.02    0.47
   1   0   3   -0.11    0.44
  -1   0   3    1.16    0.56
  -1   0   4    0.29    0.64
   1   0   4    0.87    0.80
   1   0   4    0.29    0.28
  -1   0   5    0.55    0.58
   1   0   5    0.58    0.53
   1   0   5   -0.16    0.34
   1   0   6    0.04    0.62
   1   0   6    0.39    0.59
  -1   0   6    0.34    0.44
  -1   0   7    0.83    0.55
   1   0   7    0.23    0.51
   1   0   8   -0.08    0.75
  -1   0   8    0.17    1.25
   1   0   9    0.26    0.98
  -1   0   9    6.86    2.08
  -1   0  10   -0.18    0.60
   1   0  10   -0.95    0.63
   1   0  11    0.76    0.89
  -1   0  11    0.52    1.26
   1   0  12    0.67    0.83
  -1   0  12    0.63    1.17
   1   0  13   -1.04    2.05
  -1   0  13    0.75    0.95
   1   0  14    1.66    2.73
  -1   0  14   -0.83    2.00
  -1   0  15    1.40    1.43
   1   0  15    0.02    0.97
   1   0  16    0.27    1.73
  -1   0  16   -1.00    2.02
   1   0  17    2.36    2.13
  -1   0  17   -0.58    1.74
   1   0  18   -0.70    1.54
  -1   0  18    1.38    1.68
  -1   0  19    1.78    1.52
   1   0  19    1.60    2.35
  -1   0  20   -1.91    1.86
   1   0  20   -1.15    1.59
   1   0  21   -0.69    1.94
  -1   0  21    0.10    2.41
   1   0  22    0.18    1.41
  -1   0  22   -0.58    1.67
   1   0  23    2.15    2.77
  -1   0  23    1.04    1.67
   1   0  24   -1.77    3.34
  -1   0  24    3.62    2.56
  -1   0  25    2.65    2.22
   1   0  25    0.92    2.59
  -1   0  26    2.29    3.40
   1   0  26   -3.62    2.37
   1   0  27    1.76    3.95
   1   0  28    0.15    2.11
   1   0  29   -0.74    4.23
   1   0  30    6.37    5.29
   1   0  31    1.92    3.82
   1  -1 -21   21.68    4.54
   1  -1 -20  163.66   12.76
  -1  -1 -20  178.11   12.16
   1  -1 -19  263.35   15.35
  -1  -1 -19  274.80   14.83
   1  -1 -18   85.68    8.48
   1   1 -18   72.87    6.84
  -1  -1 -18   87.33    8.07
   1  -1 -17  164.10    8.52
   1   1 -17  175.49   10.15
   1  -1 -17  197.53   12.57
  -1  -1 -17  190.78   11.72
  -1  -1 -16  386.69   16.20
   1  -1 -16  363.59   12.45
   1   1 -16  344.94   13.79
   1  -1 -16  363.70   16.50
  -1   1 -16  337.80   10.29
  -1   1 -15   23.40    2.57
   1   1 -15   29.26    3.94
  -1  -1 -15   34.60    4.87
   1  -1 -15   31.16    3.56
   1  -1 -15   27.26    4.47
   1  -1 -14  127.46    7.11
  -1  -1 -14  151.79    9.66
   1  -1 -14  120.82    8.95
  -1   1 -14  129.30    5.74
   1   1 -14  124.78    7.67
   1   1 -13  700.11   17.44
   1  -1 -13  701.94   16.33
   1  -1 -13  739.57   21.68
  -1  -1 -13  759.70   21.07
   1   1 -12 1544.19   24.85
   1  -1 -12 1578.12   30.38
   1  -1 -12 1527.98   23.82
  -1  -1 -12 1594.51   29.49
   1  -1 -11  561.43   17.62
   1  -1 -11  531.78   13.42
   1   1 -11  548.74   14.19
   1   1 -10  838.31   16.86
   1  -1 -10  864.60   16.58
   1  -1 -10  868.19   21.32
   1  -1  -9 1113.81   23.54
   1  -1  -9 1152.93   18.65
   1   1  -9 1134.01   18.78
   1  -1  -8  874.27   15.86
   1   1  -8  856.73   15.94
   1  -1  -7 1176.55   22.50
   1   1  -7 1183.10   17.55
   1  -1  -7 1208.05   17.94
   1  -1  -6 1831.35   21.50
   1   1  -6 1891.63   21.23
   1  -1  -6 1855.67   26.86
   1  -1  -5 1020.61   19.05
   1  -1  -5 1051.39   15.83
   1   1  -5 1012.18   15.19
   1  -1  -4 2899.01   25.75
   1   1  -4 2904.83   24.61
   1  -1  -4 2890.73   30.76
   1   1  -3 2364.60   22.33
   1  -1  -3 2304.40   22.63
   1  -1  -3 2332.10   26.01
   1  -1  -2   58.23    3.86
   1   1  -2   61.10    3.55
   1  -1  -2   53.00    3.32
   1  -1  -1 3486.62   26.96
   1  -1  -1 3480.93   27.81
   1   1   0 9999.00   43.28
   1  -1   1 3593.77   22.79
   1   1   1 3565.25   27.40
   1   1   1 3497.70   29.61
   1  -1   1 3526.67   27.04
  -1   1   1 3588.71   22.37
   1   1   2   57.44    3.86
  -1   1   2   60.99    3.49
   1   1   2   59.45    3.86
   1  -1   2   62.14    2.63
   1  -1   2   58.51    3.45
  -1  -1   3 2391.21   17.82
   1  -1   3 2346.64   22.45
   1   1   3 2393.69   26.75
   1   1   4 2852.07   30.23
   1  -1   4 2837.43   21.87
   1   1   4 2818.93   31.11
   1  -1   4 2914.01   25.53
  -1  -1   4 2942.00   18.60
   1   1   5 1005.66   20.10
   1  -1   5 1001.93   15.66
   1   1   5 1046.64   18.80
   1  -1   5 1079.09   15.36
  -1   1   5 1102.85   20.13
   1   1   6 1847.25   26.00
   1   1   6 1904.98   29.07
  -1   1   6 1855.55   28.20
   1  -1   6 1811.25   21.52
   1  -1   6 1881.39   22.64
   1   1   7 1142.22   24.12
   1  -1   7 1151.02   19.76
   1   1   7 1115.62   21.68
   1  -1   7 1126.92   17.43
   1   1   8  915.00   20.21
   1   1   8  860.89   21.67
   1  -1   8  849.77   18.43
  -1   1   8  901.57   22.04
   1  -1   8  927.86   16.14
  -1  -1   8  864.42   19.93
   1   1   9 1168.21   26.36
   1  -1   9 1224.69   19.26
  -1   1   9 1175.63   26.57
   1  -1   9 1125.56   22.92
   1   1   9 1126.59   23.21
  -1  -1   9 1153.68   24.18
   1  -1  10  850.98   16.27
   1  -1  10  810.89   20.51
  -1  -1  10  772.76   20.88
   1   1  10  814.97   23.75
  -1   1  10  789.01   23.03
   1  -1  11  518.39   13.25
   1   1  11  546.28   20.24
  -1  -1  11  520.63   18.17
  -1   1  11  518.84   19.26
   1  -1  11  540.42   17.72
   1  -1  12 1592.44   32.80
  -1   1  12 1602.94   35.10
   1   1  12 1661.12   35.81
   1  -1  13  691.47   22.34
   1   1  13  678.48   23.44
  -1   1  13  652.86   23.44
  -1  -1  13  664.14   22.18
   1  -1  14  139.95   10.26
   1   1  14  125.95   10.60
  -1  -1  14  141.94   10.67
  -1   1  14  130.17   10.72
  -1  -1  15   30.07    5.03
   1   1  15   15.49    3.68
   1  -1  15   24.40    4.38
  -1   1  15   31.13    5.81
  -1  -1  16  342.51   17.83
  -1   1  16  379.35   19.70
   1  -1  16  392.41   18.59
   1   1  16  378.50   19.19
  -1  -1  17  207.68   14.43
   1  -1  17  193.12   13.58
  -1   1  17  203.57   14.53
   1   1  17  181.84   13.83
   1  -1  18   72.00    8.76
  -1  -1  18   63.73    8.08
  -1   1  18   74.51    8.92
   1   1  18   96.25   10.23
  -1   1  19  249.89   16.91
   1   1  19  263.51   17.20
  -1  -1  19  285.59   17.82
   1  -1  19  258.22   16.53
   1  -1  20  171.56   13.96
   1   1  20  213.26   15.94
  -1   1  20  176.92   14.65
  -1  -1  20  183.89   14.81
  -1  -1  21   26.11    5.70
  -1   1  21   21.72    5.36
   1   1  21   25.46    5.31
   1  -1  21   23.16    5.04
   1  -1  22  152.58   13.79
  -1  -1  22  130.20   13.06
   1   1  22  141.20   13.79
   1  -1  23  102.39   11.62
  -1   1  23  102.15   12.09
   1   1  23  125.55   13.07
  -1   1  24    6.47    2.83
   1   1  24    7.36    4.13
   1  -1  24    8.49    4.66
   1  -1  25  221.46   17.84
   1   1  25  193.33   16.64
  -1   1  25  216.65   17.97
   1   1  26  193.58   17.53
   1  -1  26  224.46   18.80
  -1   1  26  224.57   18.58
   1  -1  27    9.88    4.82
  -1   1  27   12.60    4.40
   1   1  27   14.46    4.21
  -1   1  28   78.12   11.85
   1  -1  28   71.80   11.36
   1   1  28   74.85   10.70
  -1   1  29  136.43   14.95
   1   1  29  113.88   13.96
   1   1  30   68.76   11.12
   1  -2 -22   21.33    4.67
   1  -2 -21   16.12    4.50
  -1  -2 -21   19.55    4.74
   1  -2 -20  112.87   10.80
  -1  -2 -20  107.35   10.68
   1  -2 -19   58.22    7.81
  -1  -2 -19   45.29    6.26
  -1  -2 -18   18.27    3.92
   1  -2 -18   23.75    4.86
  -1  -2 -18   21.30    4.50
   1  -2 -18   24.04    4.17
   1  -2 -17   60.86    6.29
  -1  -2 -17   54.19    6.97
   1  -2 -17   47.94    6.90
   1  -2 -16   82.22    7.14
   1  -2 -16   84.22    8.68
   1   2 -16   76.82    6.24
  -1  -2 -16   73.45    7.97
   1  -2 -15   16.04    3.46
   1  -2 -15   22.15    4.28
  -1  -2 -15   14.85    3.80
   1   2 -15    8.97    2.25
   1  -2 -14  157.72    9.46
   1   2 -14  159.53    8.18
  -1  -2 -14  157.16   11.01
   1  -2 -14  159.78   11.28
   1  -2 -13   57.89    6.68
   1  -2 -13   44.79    5.16
   1   2 -13   43.34    4.27
   1  -2 -12   18.69    3.28
   1   2 -12   17.26    2.76
   1  -2 -12   20.50    3.79
   1  -2 -11    6.28    2.56
   1   2 -11    3.40    0.86
   1  -2 -11    2.64    1.74
   1  -2 -10   44.73    5.47
   1   2 -10   54.79    4.39
   1  -2 -10   46.84    5.04
   1   2  -9  202.43    8.24
   1  -2  -9  187.31    9.47
   1  -2  -9  202.18   11.23
   1  -2  -8  141.06    9.16
   1   2  -8  139.24    6.78
   1  -2  -8  142.47    8.10
   1  -2  -7  218.01    9.77
   1  -2  -7  229.70   11.34
   1   2  -7  207.38    8.27
  -1   2  -6  305.50    7.20
   1  -2  -6  302.79   11.35
   1   2  -6  302.48   10.05
  -1   2  -5   37.80    2.68
   1   2  -5   38.26    3.50
   1   2  -4  193.08    8.11
   1  -2  -4  203.83    9.02
   1   2  -3 1643.08   24.35
   1  -2  -3 1575.41   24.89
  -1   2  -3 1632.61   20.44
   1   2  -2 5206.78   44.07
   1   2  -2 5193.05   35.91
   1   2  -1 5220.09   35.92
  -1   2  -1 5103.48   40.44
   1  -2  -1 5123.87   43.85
   1   2   0 9446.54   61.99
  -1  -2   0 9032.40   56.80
   1  -2   0 9254.23   57.84
   1   2   0 8965.17   49.68
  -1   2   0 8671.78   56.65
   1   2   1 4929.54   45.86
   1  -2   1 5046.40   43.17
   1   2   1 5122.21   39.44
  -1   2   1 5258.97   45.40
  -1  -2   1 4819.58   41.24
  -1   2   2 5294.29   47.70
   1  -2   2 5255.70   44.14
   1   2   2 5279.42   48.17
  -1  -2   2 5179.15   41.59
  -1   2   3 1577.81   22.71
   1  -2   3 1588.53   24.51
  -1  -2   3 1606.39   22.27
   1   2   3 1620.89   27.37
  -1  -2   4  194.83    7.64
   1  -2   4  195.47    8.48
   1   2   4  210.71   10.22
  -1   2   4  201.66    8.71
   1   2   4  223.60    9.88
   1   2   5   49.91    4.95
  -1  -2   5   39.12    3.38
   1   2   5   41.94    4.66
   1  -2   5   41.68    3.91
   1  -2   6  304.81    7.91
   1   2   6  297.87   12.86
  -1   2   6  299.69   12.03
  -1  -2   6  306.63    9.26
   1   2   6  264.93   12.12
   1  -2   6  308.22   10.55
   1   2   7  203.97   10.93
   1   2   7  195.89   10.75
   1  -2   7  217.56    7.60
  -1   2   7  219.86   10.94
  -1  -2   7  220.82    7.86
   1  -2   7  216.52    9.12
  -1   2   8  132.00    8.93
   1   2   8  119.33    8.58
   1  -2   8  130.20    7.07
   1   2   8  126.82    9.11
  -1  -2   8  132.69    5.84
   1  -2   8  134.58    6.65
   1  -2   9  213.64    9.08
  -1  -2   9  184.53    6.74
   1   2   9  200.84   11.64
   1  -2   9  188.03    8.57
   1   2   9  194.95   11.21
   1  -2  10   49.57    4.75
   1  -2  10   55.00    4.66
  -1  -2  10   50.41    3.41
   1   2  10   50.37    6.12
  -1   2  10   47.55    5.62
   1   2  10   49.65    5.97
   1  -2  11    8.25    2.14
   1   2  11   10.42    2.93
  -1   2  11   -0.37    1.14
   1   2  11    5.48    1.84
   1  -2  11    5.09    1.79
  -1  -2  11    3.40    1.04
   1   2  12   17.30    3.87
  -1   2  12   18.83    4.25
  -1  -2  12   16.45    1.94
   1  -2  12   16.73    2.65
   1  -2  12   22.05    3.34
  -1   2  13   49.79    6.47
  -1  -2  13   37.71    2.71
   1  -2  13   48.01    5.74
   1   2  13   40.14    6.52
   1  -2  13   43.38    4.35
  -1   2  14  165.07   12.46
   1  -2  14  148.85   10.31
   1  -2  14  149.07    8.25
   1  -2  15   12.37    2.37
  -1   2  15   11.00    3.99
   1  -2  15    8.97    3.40
   1   2  15   10.86    2.81
   1   2  16   93.52    9.97
   1  -2  16   86.02    8.50
  -1   2  16   80.02    9.13
   1  -2  17   70.65    8.07
   1   2  17   64.23    8.40
  -1   2  17   64.76    8.51
  -1   2  18   28.19    5.82
   1   2  18   26.14    5.65
   1  -2  18   21.08    5.15
  -1   2  19   66.09    9.01
   1  -2  19   47.11    7.20
   1   2  19   64.78    8.42
   1  -2  20   91.27   10.18
  -1   2  20   91.49   10.82
   1   2  20   97.05   11.29
   1   2  21   11.81    3.69
  -1   2  21   24.04    6.14
   1  -2  21   24.97    5.62
   1   2  22   29.44    6.86
  -1   2  22   31.84    6.72
   1  -2  22   22.10    6.03
   1   2  23   23.84    5.97
   1  -2  23   29.39    6.76
  -1   2  23   20.82    4.98
  -1   2  24   51.98    8.32
   1   2  24   36.04    7.83
   1  -2  24   38.79    7.63
  -1   2  25   70.36   10.48
   1   2  25   68.55   10.40
  -1   2  26   14.55    5.51
   1   2  26   12.61    4.77
  -1   2  27   26.68    6.97
   1   2  27   16.33    4.81
  -1   2  28   60.23    9.90
   1   2  28   40.58    7.78
   1   2  29   20.52    5.96
  -1   2  29   37.48    7.83
   1   2  30   54.19   10.00
  -1   2  30   47.77    8.84
   1  -3 -23  111.25   12.34
   1  -3 -22  286.41   19.28
  -1  -3 -22  304.78   19.89
   1  -3 -21   75.62    9.61
  -1  -3 -21   67.39    9.51
  -1  -3 -20  300.06   18.92
  -1  -3 -20  266.64   16.72
   1  -3 -20  287.31   18.56
  -1  -3 -19  240.52   16.78
   1  -3 -19  227.86   14.47
   1  -3 -19  278.22   17.88
  -1  -3 -19  254.25   16.18
  -1  -3 -18   93.03    9.91
   1  -3 -18   89.24    8.81
  -1  -3 -18   90.17    9.19
   1  -3 -18   99.43   10.57
   1  -3 -17  266.57   14.92
   1  -3 -17  247.14   16.27
  -1  -3 -17  261.20   16.71
   1  -3 -16 1196.40   35.06
   1  -3 -16 1116.18   30.08
  -1  -3 -16 1106.03   33.60
  -1  -3 -16 1122.94   32.22
  -1  -3 -15  141.35   11.02
   1   3 -15  127.02    7.58
   1  -3 -15  124.80   11.27
   1  -3 -15  134.11   10.34
   1  -3 -14  734.64   23.90
   1   3 -14  710.24   17.73
   1  -3 -14  799.20   27.85
  -1  -3 -14  788.15   25.29
   1  -3 -13 1227.03   33.81
  -1  -3 -13 1225.06   31.32
   1  -3 -13 1214.42   29.89
   1   3 -13 1167.37   22.96
   1  -3 -12  529.39   19.79
   1   3 -12  578.05   16.05
   1  -3 -12  579.22   22.76
   1  -3 -11  326.90   15.03
   1   3 -11  307.23   11.77
   1  -3 -11  298.85   16.01
   1  -3 -10 1680.79   33.70
   1   3 -10 1617.52   27.34
   1  -3 -10 1683.72   37.11
  -1   3 -10 1628.64   19.20
  -1   3  -9  425.03   10.53
   1   3  -9  427.68   13.94
   1  -3  -9  414.20   16.57
  -1   3  -8  221.46    8.08
   1   3  -8  247.23   10.64
   1  -3  -8  219.86   11.70
   1   3  -7  780.31   19.25
  -1   3  -7  784.90   15.80
   1   3  -6  134.65    8.09
   1  -3  -6  121.30    8.43
  -1   3  -6  120.73    6.48
   1  -3  -5  322.68   13.74
  -1  -3  -5  334.76   14.08
  -1   3  -5  353.92   11.49
   1   3  -4 1236.51   19.72
   1   3  -4 1130.97   23.68
   1  -3  -4 1146.28   25.44
  -1  -3  -4 1247.54   26.86
  -1   3  -4 1146.18   21.86
   1  -3  -3  269.67   12.27
  -1   3  -3  288.87   11.30
   1   3  -3  266.39    9.03
  -1  -3  -3  291.15   12.90
   1   3  -3  257.66   11.53
   1  -3  -2  296.67   12.71
  -1   3  -2  307.78    5.84
  -1   3  -2  339.54   12.50
   1   3  -2  327.82   13.27
   1   3  -2  305.95   10.09
  -1  -3  -2  329.01   13.53
   1   3  -1 1165.13   25.97
  -1  -3  -1 1166.14   25.21
   1   3  -1 1261.35   20.55
   1  -3  -1 1234.79   25.64
  -1   3  -1 1249.08   24.92
  -1   3  -1 1283.64   14.49
   1   3   0 2455.95   37.77
  -1  -3   0 2459.80   36.50
   1   3   0 2395.36   29.72
  -1   3   0 2453.14   23.42
   1   3   1 1228.32   26.83
  -1   3   1 1235.84   26.14
  -1  -3   1 1230.20   25.18
   1  -3   1 1179.82   25.25
  -1   3   1 1153.01   18.19
   1   3   2  295.84   11.59
  -1   3   2  285.06   13.03
  -1   3   2  266.66    9.96
   1  -3   2  304.39   12.82
  -1  -3   2  309.70   12.59
   1   3   2  291.44   13.47
   1  -3   3  267.72   11.93
  -1  -3   3  285.80   11.85
  -1   3   3  263.03   12.82
   1   3   3  288.99   13.54
   1   3   3  307.50   12.11
  -1   3   3  289.25   10.95
  -1   3   4 1223.15   28.36
   1  -3   4 1170.62   25.43
  -1  -3   4 1128.58   23.67
   1   3   4 1205.92   28.15
   1   3   4 1129.01   24.47
  -1   3   4 1150.55   23.28
  -1  -3   5  331.56   12.54
   1  -3   5  340.97   13.57
   1   3   5  329.58   15.14
  -1   3   5  320.35   12.87
   1   3   5  322.63   13.87
  -1   3   5  343.03   15.24
   1   3   6  127.71    9.00
  -1  -3   6  124.43    7.59
   1  -3   6  118.72    7.89
  -1   3   6  120.93    8.37
   1   3   6  105.65    8.65
   1   3   7  716.33   21.86
   1   3   7  766.08   24.03
   1  -3   7  765.27   19.68
  -1  -3   7  724.56   18.44
  -1   3   7  682.19   20.53
   1   3   8  216.88   12.44
   1   3   8  256.20   14.00
  -1  -3   8  254.75   10.79
   1  -3   8  229.76   11.02
  -1   3   8  253.94   13.02
  -1  -3   9  436.78   13.99
   1  -3   9  437.21   15.33
   1   3   9  413.41   18.26
  -1   3   9  430.94   17.69
   1   3  10 1714.14   36.96
  -1   3  10 1804.60   37.53
   1  -3  10 1686.17   30.53
  -1  -3  10 1715.00   26.95
   1   3  10 1776.95   38.89
  -1   3  11  318.33   16.31
   1   3  11  313.70   16.81
   1   3  11  335.68   16.95
  -1  -3  11  306.39   11.24
   1  -3  11  308.09   13.17
   1   3  12  566.47   23.07
   1   3  12  524.46   22.07
  -1   3  12  536.93   21.98
  -1  -3  12  541.30   15.08
   1  -3  12  548.35   17.27
  -1  -3  13 1201.36   21.47
   1  -3  13 1169.21   25.69
  -1   3  13 1249.13   34.15
  -1   3  14  809.35   28.21
   1  -3  14  754.68   20.40
   1   3  14  754.90   27.86
  -1   3  15  130.76   11.51
   1   3  15  121.50   11.40
   1   3  16 1163.64   35.98
  -1   3  16 1197.63   36.30
  -1   3  17  232.45   16.28
   1   3  17  255.53   17.25
   1   3  18   87.51   10.50
  -1   3  18  110.03   11.51
  -1   3  19  247.80   17.54
   1   3  19  231.37   16.96
  -1   3  20  285.19   19.32
   1   3  20  282.43   19.02
   1   3  21   47.90    8.61
  -1   3  21   60.05    9.33
   1   3  22  255.07   19.62
  -1   3  22  269.69   19.12
  -1   3  23  114.99   12.75
   1   3  23  107.61   12.84
  -1   3  24   51.32    9.01
   1   3  24   40.48    7.86
  -1   3  25   64.99    9.61
   1   3  25   73.54   11.30
   1   3  26  145.60   15.25
  -1   3  26  151.47   15.03
  -1   3  27   10.96    5.35
   1   3  27    9.85    3.88
   1   3  28   47.99    8.74
  -1   3  28   28.01    7.24
  -1   3  29   95.89   12.85
   1   3  29   77.90   11.36
   1   3  30   65.67   10.97
  -1   3  30   61.60   10.18
   1  -4 -24   28.66    6.95
   1  -4 -23   38.65    7.29
  -1  -4 -23   55.35    9.35
  -1  -4 -22   67.38   10.20
   1  -4 -22   68.83    9.33
   1  -4 -21  102.15   11.80
  -1  -4 -21   93.26   11.78
  -1  -4 -20    5.18    3.65
  -1  -4 -20    1.38    2.74
   1  -4 -20    8.38    4.28
  -1  -4 -19    6.06    3.45
  -1  -4 -19    5.97    2.80
   1  -4 -19   14.42    4.74
   1  -4 -19    7.12    3.80
   1  -4 -18   48.96    7.98
  -1  -4 -18   37.23    6.45
  -1  -4 -18   46.62    8.01
   1  -4 -18   42.62    7.11
  -1  -4 -17   43.98    7.24
   1  -4 -17   33.95    6.47
  -1  -4 -17   41.37    6.40
   1  -4 -17   40.31    7.26
   1  -4 -16   20.51    4.70
   1  -4 -16   18.73    5.41
  -1  -4 -16   19.06    4.63
  -1  -4 -15   40.52    6.40
   1  -4 -15   53.36    7.94
   1  -4 -15   32.26    5.76
   1  -4 -14   12.39    4.25
   1  -4 -14   10.60    3.11
  -1  -4 -14   15.85    4.03
   1   4 -14   15.50    3.10
   1  -4 -13    8.61    3.74
   1   4 -13   10.59    2.54
   1  -4 -13    5.28    2.58
  -1  -4 -13   12.85    3.22
   1  -4 -12  232.48   15.32
   1  -4 -12  217.23   13.77
  -1   4 -12  235.05    8.81
  -1  -4 -12  230.63   14.46
   1   4 -12  224.28   11.48
   1   4 -11   73.37    6.42
   1  -4 -11   91.30    9.49
   1  -4 -11   78.78    8.47
  -1  -4 -11   88.27    8.80
  -1   4 -11   78.43    5.51
  -1   4 -10  336.36   11.82
   1  -4 -10  332.78   16.66
   1   4 -10  338.48   14.14
   1   4  -9  527.02   17.83
   1  -4  -9  578.13   21.75
  -1   4  -9  582.92   16.14
  -1  -4  -8  241.36   14.06
   1  -4  -8  210.10   12.89
  -1   4  -8  245.16   10.99
   1   4  -8  245.40   12.19
  -1   4  -7   10.91    2.35
  -1   4  -7    5.58    0.97
  -1  -4  -7    8.55    2.62
   1   4  -7    7.52    2.49
   1   4  -6  136.22    9.38
  -1   4  -6  128.09    8.22
   1   4  -6  133.67    7.49
   1  -4  -6  124.77    9.70
  -1  -4  -6  114.10    9.55
   1  -4  -5  143.53   10.27
   1   4  -5  148.74   10.18
  -1  -4  -5  147.46   10.65
  -1   4  -5  137.92    8.96
   1   4  -5  146.02    7.46
   1   4  -4   98.57    8.41
  -1  -4  -4   87.60    8.13
  -1   4  -4   91.19    7.31
   1  -4  -4   78.88    7.68
   1   4  -4   83.27    5.67
   1   4  -3  139.79    7.42
  -1   4  -3  120.63    8.80
  -1  -4  -3  147.95   10.45
  -1   4  -3  129.56    4.23
   1   4  -3  153.48   10.36
   1  -4  -3  168.06   11.17
  -1   4  -2  420.42   16.56
   1  -4  -2  463.15   18.11
  -1   4  -2  423.45    9.15
   1   4  -2  389.14   16.62
  -1  -4  -2  427.53   17.51
   1   4  -2  456.25   13.45
   1   4  -1  754.55   18.07
   1   4  -1  805.18   24.38
  -1   4  -1  855.33   14.91
  -1   4  -1  785.00   23.12
   1  -4  -1  873.67   24.84
  -1  -4  -1  809.24   23.77
  -1  -4   0 1867.26   35.89
  -1   4   0 1796.52   23.87
   1   4   0 1987.26   38.08
   1  -4   0 1923.91   37.01
  -1   4   0 1901.12   36.44
   1   4   0 1970.42   29.73
  -1   4   1  838.31   24.77
  -1  -4   1  803.11   23.39
   1   4   1  838.02   20.56
   1   4   1  870.69   25.70
  -1   4   1  770.24   17.10
   1  -4   1  790.31   23.32
   1  -4   2  408.02   16.80
  -1  -4   2  395.37   16.49
  -1   4   2  419.95   17.71
  -1   4   2  372.28   12.81
   1   4   2  417.24   18.03
   1   4   2  427.67   15.28
  -1   4   3  155.61    8.79
  -1  -4   3  131.52    9.34
   1   4   3  149.43    9.23
   1  -4   3  155.43   10.33
  -1   4   3  157.88   11.26
   1   4   4  102.90    7.98
   1   4   4   78.86    7.94
   1  -4   4   80.83    7.52
  -1   4   4   61.93    7.20
  -1   4   4   79.99    6.64
  -1  -4   4  102.85    8.09
   1   4   5  125.95   10.34
  -1   4   5  135.39    9.13
  -1   4   5  142.62   11.04
  -1  -4   5  130.92    9.17
   1   4   5  150.21   10.16
   1  -4   5  138.82    9.93
  -1   4   6  140.14    9.62
  -1  -4   6  126.35    9.01
   1  -4   6  137.36   10.21
   1   4   6  132.26   10.72
   1   4   6  118.52    9.42
  -1   4   6  121.20   10.20
   1  -4   7   10.83    3.15
   1   4   7    8.28    2.25
   1   4   7    7.99    2.98
  -1   4   7   10.76    2.61
  -1  -4   7    9.67    2.52
   1  -4   8  233.43   12.80
   1   4   8  236.03   15.15
  -1  -4   8  241.61   12.34
  -1   4   8  208.45   12.50
   1   4   8  240.71   13.96
   1   4   9  608.00   22.77
  -1   4   9  573.79   21.47
   1  -4   9  518.49   18.98
   1   4   9  556.80   23.61
  -1  -4   9  554.42   19.00
  -1  -4  10  333.55   14.47
   1   4  10  320.98   18.04
   1   4  10  313.22   16.63
  -1   4  10  337.96   17.01
   1  -4  10  304.26   14.72
   1   4  11   86.30    9.49
   1   4  11   88.83    9.20
  -1   4  11  103.61    9.63
   1  -4  11   87.80    8.20
  -1  -4  11   91.66    7.55
  -1  -4  12  207.57   11.32
  -1   4  12  263.45   15.56
   1   4  12  231.36   15.38
   1   4  12  274.03   17.21
   1  -4  12  225.49   12.56
  -1   4  13   14.40    3.66
   1  -4  13   12.35    3.13
  -1  -4  13   11.86    2.72
   1   4  13    9.10    3.59
   1   4  13    5.08    2.10
   1  -4  14   13.66    3.43
  -1   4  14   15.61    4.33
   1   4  14   18.45    5.37
   1   4  15   54.84    8.11
  -1   4  15   42.50    7.40
  -1   4  16   24.18    5.72
   1   4  16   17.69    4.75
  -1   4  17   44.45    7.89
   1   4  17   55.45    7.72
   1   4  18   36.78    6.70
  -1   4  18   34.03    6.66
   1   4  19   12.31    3.95
  -1   4  19    9.18    4.17
  -1   4  20   11.39    5.63
   1   4  20   11.59    4.44
   1   4  21   76.72   10.67
  -1   4  21  106.48   12.05
   1   4  22   62.90    9.90
  -1   4  22   70.09   10.11
   1   4  23   67.68   10.27
  -1   4  23   62.41    9.44
   1   4  24   10.72    4.00
  -1   4  24   21.88    5.87
   1   4  25    4.11    2.21
  -1   4  25    9.20    5.02
  -1   4  26   20.27    6.01
   1   4  26   18.36    5.45
   1   4  27    2.42    3.04
  -1   4  27    2.09    2.68
  -1   4  28   10.40    5.23
   1   4  28    3.58    3.94
   1   4  29    1.46    3.10
  -1   4  29    7.31    4.50
   1  -5 -25   43.14    7.84
   1  -5 -24    6.13    4.73
  -1  -5 -24    2.57    2.84
  -1  -5 -23   56.39   10.19
   1  -5 -23   59.60    9.94
  -1  -5 -22  182.45   16.97
   1  -5 -22  212.02   18.17
  -1  -5 -21   38.08    7.74
   1  -5 -21   41.47    8.14
  -1  -5 -21   42.59    8.46
  -1  -5 -20   49.42    8.37
   1  -5 -20   48.77    7.90
  -1  -5 -20   53.32    8.72
   1  -5 -20   56.97    9.24
  -1  -5 -19  140.13   13.85
   1  -5 -19  161.26   15.01
  -1  -5 -19  157.09   15.27
   1  -5 -19  152.14   13.37
  -1  -5 -18   69.64    9.71
   1  -5 -18   71.29    9.85
   1  -5 -18   57.79    9.32
   1  -5 -17   36.96    7.10
   1  -5 -17   37.66    7.26
  -1  -5 -17   23.18    5.12
  -1  -5 -17   27.05    6.21
   1  -5 -16  447.64   22.80
   1  -5 -16  413.60   23.26
  -1  -5 -16  436.50   22.95
  -1  -5 -15  150.16   13.14
   1  -5 -15  107.17   11.71
   1  -5 -15  141.23   12.53
   1  -5 -14  100.69   11.01
   1  -5 -14   88.55   10.08
  -1  -5 -14  122.72   11.58
  -1  -5 -13  347.94   19.57
   1  -5 -13  367.97   19.87
   1   5 -13  344.52   16.26
   1  -5 -13  348.77   20.20
  -1  -5 -12  338.33   18.75
   1  -5 -12  326.68   18.73
   1  -5 -12  286.91   17.94
  -1   5 -12  299.07   12.94
   1   5 -12  331.37   15.69
   1   5 -11   58.17    6.78
  -1  -5 -11   56.52    7.61
  -1   5 -11   54.24    5.52
   1  -5 -11   43.44    6.74
  -1  -5 -10  609.93   24.63
   1  -5 -10  608.35   24.80
   1   5 -10  635.13   22.67
  -1   5 -10  600.87   19.91
   1   5  -9  414.94   18.12
   1  -5  -9  430.24   20.37
  -1  -5  -9  411.01   20.05
  -1   5  -9  377.11   16.10
   1   5  -9  413.45   14.66
   1   5  -8   66.79    7.16
   1   5  -8   79.20    6.29
  -1  -5  -8   85.83    9.25
   1  -5  -8   82.12    8.86
  -1   5  -8   85.18    7.59
   1   5  -7  365.94   17.16
   1  -5  -7  341.00   17.78
  -1  -5  -7  384.21   19.08
   1   5  -7  369.98   13.13
   1  -5  -6  379.68   18.85
  -1   5  -6  399.76   17.13
   1   5  -6  371.85   17.43
   1  -5  -5   86.15    8.82
   1   5  -5   83.35    6.28
   1   5  -5   78.30    8.15
  -1   5  -5   75.15    7.71
  -1  -5  -5   70.56    8.28
   1   5  -4  471.98   19.89
  -1   5  -4  458.66   18.77
   1   5  -4  476.31   14.46
   1  -5  -4  443.89   19.90
  -1   5  -4  405.10    7.82
   1   5  -3  611.82   22.82
  -1  -5  -3  603.99   22.88
  -1   5  -3  571.60   21.48
   1   5  -3  664.72   17.59
   1  -5  -3  559.39   22.17
  -1   5  -3  532.51   10.82
   1   5  -2  144.46    8.55
   1   5  -2  120.95   10.21
  -1   5  -2  142.31    6.17
  -1  -5  -2  139.29   11.08
   1  -5  -2  123.22   10.37
  -1   5  -2  121.95    9.83
  -1   5  -1   56.79    6.96
  -1   5  -1   56.80    4.36
  -1  -5  -1   58.01    7.19
   1   5  -1   53.07    5.35
   1  -5  -1   56.46    6.90
   1   5  -1   66.52    7.65
  -1   5   0  383.55   12.61
  -1  -5   0  358.66   17.50
   1   5   0  356.67   18.18
  -1   5   0  346.31   17.19
   1  -5   0  371.33   17.65
   1   5   0  400.62   14.80
   1   5   1   60.61    7.53
  -1   5   1   70.97    5.69
   1  -5   1   49.43    6.71
  -1  -5   1   56.95    7.18
  -1   5   1   56.36    7.24
   1   5   1   47.83    5.39
   1   5   2  118.55   10.55
  -1   5   2  101.83    7.39
   1  -5   2  130.64   10.39
  -1  -5   2  133.49   10.45
  -1   5   2  132.85   11.18
   1   5   2  120.50    8.78
  -1   5   3  585.13   23.76
   1  -5   3  655.87   23.75
   1   5   3  636.31   20.77
  -1  -5   3  600.50   22.30
   1   5   3  618.23   24.28
   1  -5   4  481.65   20.44
  -1   5   4  462.49   17.66
   1   5   4  414.29   17.42
  -1   5   4  483.28   21.64
   1   5   4  419.80   20.48
  -1  -5   4  497.29   20.35
  -1   5   5   87.28    8.32
  -1   5   5   92.82    9.38
  -1  -5   5   70.85    7.60
   1  -5   5   87.85    8.82
   1   5   5   72.71    8.82
   1   5   5   82.36    8.16
  -1  -5   6  367.37   17.35
   1   5   6  411.13   18.43
   1   5   6  384.02   20.26
   1  -5   6  382.52   18.34
  -1   5   6  359.15   19.48
   1   5   7  381.97   18.10
   1   5   7  377.77   20.29
  -1  -5   7  364.16   17.34
   1  -5   7  390.44   18.30
  -1   5   7  337.98   16.46
   1  -5   8   86.69    8.52
  -1   5   8   80.79    8.17
  -1  -5   8   75.69    7.86
   1   5   8   63.21    7.69
   1   5   9  379.74   20.85
  -1   5   9  440.80   19.79
  -1  -5   9  392.59   18.35
   1   5   9  370.79   18.63
   1  -5   9  407.53   18.71
   1  -5  10  601.03   22.93
   1   5  10  618.23   24.36
  -1  -5  10  627.54   23.19
  -1   5  10  661.43   24.77
   1   5  10  658.81   27.63
  -1  -5  11   50.04    6.47
   1   5  11   50.40    6.92
   1   5  11   55.70    8.23
   1  -5  11   52.82    7.22
  -1   5  11   54.85    7.56
   1   5  12  338.27   19.20
  -1   5  12  278.96   16.98
  -1  -5  12  300.68   15.76
   1  -5  12  272.62   15.62
   1   5  12  282.21   18.63
   1  -5  13  335.06   17.85
   1   5  13  356.28   19.97
  -1  -5  13  343.98   16.60
   1   5  13  330.68   20.31
  -1   5  13  342.92   19.43
   1   5  14  101.91   11.15
  -1   5  14   96.68   10.32
   1  -5  14   74.13    8.45
   1   5  15  115.02   11.98
  -1   5  15  134.33   12.54
  -1   5  16  409.75   22.57
   1   5  16  473.16   24.25
   1   5  17   22.88    5.62
  -1   5  17   32.01    6.99
   1   5  18   65.91    9.51
  -1   5  18   93.14   10.99
  -1   5  19  146.14   14.08
   1   5  19  160.13   14.59
   1   5  20   57.63    8.89
  -1   5  20   66.81    9.80
   1   5  21   36.54    7.91
  -1   5  21   32.24    6.72
   1   5  22  180.95   16.76
  -1   5  22  200.64   17.51
  -1   5  23   63.73   10.39
   1   5  23   45.09    8.05
  -1   5  24    6.38    4.37
   1   5  24    0.29    2.24
   1   5  25   41.61    8.20
  -1   5  25   51.09    9.42
   1   5  26   35.75    7.79
  -1   5  26   65.08   10.63
   1   5  27   -1.93    2.73
  -1   5  27    0.68    2.86
   1   5  28   13.64    4.13
  -1   5  28   28.73    7.90
   1  -6 -26   10.00    5.82
  -1  -6 -25   -1.44    2.39
   1  -6 -25    8.73    5.42
   1  -6 -24    0.46    2.22
  -1  -6 -24   -3.04    4.34
  -1  -6 -23   12.74    4.85
   1  -6 -23    9.93    5.51
  -1  -6 -22   15.11    5.87
   1  -6 -22   24.33    5.53
  -1  -6 -21   20.82    6.03
   1  -6 -21   11.58    4.72
  -1  -6 -21    8.01    4.22
  -1  -6 -20    4.79    5.05
   1  -6 -20    5.19    4.30
   1  -6 -20    7.44    4.38
  -1  -6 -20    1.68    2.81
   1  -6 -19    9.60    4.29
   1  -6 -19    8.84    3.35
  -1  -6 -19    9.50    4.24
  -1  -6 -18    4.97    3.97
  -1  -6 -18    3.40    2.63
   1  -6 -18    2.90    1.99
   1  -6 -18    6.13    4.34
   1  -6 -17    8.48    3.33
   1  -6 -17   22.98    5.95
  -1  -6 -17   24.32    6.31
   1  -6 -16    0.16    2.81
  -1  -6 -16    2.30    3.23
  -1  -6 -15   35.47    6.88
   1  -6 -15   26.91    6.53
   1  -6 -15   22.16    5.08
   1  -6 -14    9.43    4.57
   1  -6 -14   11.77    5.18
  -1  -6 -13   33.16    7.19
   1  -6 -13   27.54    6.28
   1  -6 -13   42.86    7.89
   1   6 -12   56.02    7.37
  -1  -6 -12   61.42    8.95
   1  -6 -12   54.11    8.05
  -1   6 -11   44.35    6.08
   1   6 -11   30.43    5.73
   1  -6 -11   41.11    7.00
  -1  -6 -11   50.22    8.20
   1   6 -10   25.74    4.87
  -1   6 -10   19.03    3.98
  -1  -6 -10   18.57    5.24
   1  -6 -10   24.55    5.22
   1   6  -9    7.42    2.22
   1  -6  -9    5.99    2.83
  -1   6  -9    6.60    2.29
  -1  -6  -9    7.63    3.37
   1  -6  -8    5.61    3.24
  -1  -6  -8    7.58    3.89
   1   6  -8   -0.63    2.13
  -1   6  -8    3.61    2.57
   1  -6  -7   69.17    8.57
   1   6  -7   96.18    9.83
  -1   6  -7   77.95    8.27
   1   6  -7   55.72    4.96
  -1  -6  -7   97.57   10.41
   1   6  -6  178.14    9.28
  -1   6  -6  205.39   13.82
  -1  -6  -6  185.56   14.09
   1  -6  -6  185.55   14.15
   1   6  -6  177.61   13.29
  -1  -6  -5  120.77   11.13
   1  -6  -5  142.31   12.32
   1   6  -5  142.07   11.91
  -1   6  -5  163.27   12.51
   1   6  -5  139.73    8.68
   1   6  -4  146.82   11.88
  -1   6  -4  162.81   12.33
   1  -6  -4  162.37   12.86
   1   6  -4  192.60    9.88
  -1  -6  -4  154.36   12.86
   1   6  -3  162.39    9.67
  -1  -6  -3  172.27   13.30
   1   6  -3  193.00   14.08
   1  -6  -3  170.05   13.25
  -1   6  -3  162.67    6.80
  -1   6  -3  176.18   13.10
  -1  -6  -2  197.93   14.12
  -1   6  -2  176.36   13.20
  -1   6  -2  177.40    8.10
   1  -6  -2  186.20   13.86
   1   6  -2  142.74   12.34
   1   6  -2  163.31    9.76
   1  -6  -1   31.47    6.16
  -1   6  -1   27.58    3.52
   1   6  -1   29.02    5.55
   1   6  -1   29.30    4.29
  -1   6  -1   33.62    5.91
  -1  -6  -1   30.79    5.94
   1  -6   0   38.45    5.94
  -1   6   0   46.00    7.06
  -1  -6   0   51.19    6.94
   1   6   0   50.17    5.94
   1   6   0   44.43    6.99
  -1   6   0   53.60    5.19
   1   6   1   31.82    6.01
  -1  -6   1   30.93    5.92
  -1   6   1   37.28    4.60
   1  -6   1   38.97    6.09
   1   6   1   29.76    4.60
  -1   6   1   26.79    5.78
  -1  -6   2  153.54   12.66
   1   6   2  158.38   11.03
  -1   6   2  172.51   13.49
   1   6   2  187.79   14.45
   1  -6   2  162.48   12.79
  -1   6   2  162.50   10.20
  -1  -6   3  185.63   13.72
  -1   6   3  194.09   11.39
  -1   6   3  168.90   14.32
   1   6   3  159.08   13.55
   1   6   3  173.21   11.59
   1  -6   3  135.50   11.83
   1  -6   4  181.77   13.70
   1   6   4  168.93   13.96
  -1  -6   4  163.71   12.95
   1   6   4  156.15   11.27
  -1   6   4  138.22   13.34
  -1   6   4  140.43   10.38
  -1  -6   5  143.11   12.09
  -1   6   5  146.09   13.17
   1  -6   5  147.59   12.40
  -1   6   5  137.15   10.31
   1   6   5  139.65   11.01
   1   6   5  124.57   12.01
  -1   6   6  194.25   15.69
   1  -6   6  177.99   13.60
   1   6   6  199.60   13.29
  -1   6   6  171.13   11.80
  -1  -6   6  183.52   13.55
   1   6   6  190.32   14.96
  -1   6   7   75.05    8.14
  -1  -6   7   68.62    8.20
   1   6   7   74.32    8.40
   1   6   7   71.50    9.65
   1  -6   7   77.70    9.07
  -1   6   8    5.20    2.02
   1   6   8    2.12    2.06
   1   6   8    5.76    2.93
   1  -6   8    4.21    2.67
  -1  -6   8    0.09    2.29
  -1   6   9    3.77    2.08
   1   6   9    5.61    2.70
  -1  -6   9    3.09    1.84
   1  -6   9    9.46    3.45
   1   6   9   10.29    3.68
   1   6  10   27.54    5.26
   1   6  10   21.46    5.41
  -1   6  10   21.03    5.06
   1  -6  10   16.11    4.44
  -1  -6  10   22.53    4.93
   1  -6  11   36.54    6.43
   1   6  11   34.23    6.67
   1   6  11   41.56    7.20
  -1   6  11   48.67    7.11
  -1  -6  11   43.40    6.91
   1   6  12   49.26    7.08
  -1   6  12   51.57    7.70
  -1  -6  12   65.02    8.21
   1  -6  12   70.75    8.69
   1   6  12   75.02   10.45
  -1   6  13   25.72    5.87
   1  -6  13   38.00    6.51
   1   6  13   29.30    6.57
   1   6  13   27.02    6.81
  -1   6  14   23.32    6.08
   1   6  14   15.18    4.02
  -1   6  15   18.74    5.74
   1   6  15   24.96    6.94
   1   6  16    4.70    1.91
  -1   6  16    8.33    2.03
  -1   6  17   10.19    2.93
   1   6  17   12.00    4.20
   1   6  18    3.34    1.98
  -1   6  18    4.27    2.16
   1   6  19   14.77    4.26
  -1   6  19   17.27    5.00
   1   6  20   -0.88    3.14
  -1   6  20   12.19    4.17
   1   6  21   16.23    5.16
  -1   6  21   14.10    5.61
   1   6  22   25.48    6.51
  -1   6  22   15.70    4.96
   1   6  23    7.19    4.00
  -1   6  23    6.73    3.11
   1   6  24    5.10    3.29
  -1   6  24    3.24    2.37
   1   6  25    0.63    3.59
  -1   6  25    5.63    4.05
   1   6  26    7.61    4.31
  -1   6  26    5.98    5.61
  -1  -7 -24   16.38    5.53
   1  -7 -24   29.20    8.21
   1  -7 -23  106.92   13.83
  -1  -7 -23  111.49   14.37
   1  -7 -22   84.22   12.25
  -1  -7 -22   80.24   12.05
  -1  -7 -21   15.15    5.97
   1  -7 -21   12.81    4.37
   1  -7 -21   19.11    5.11
  -1  -7 -21   10.89    5.27
  -1  -7 -20   52.64    9.45
  -1  -7 -20   60.93    9.35
   1  -7 -20   42.91    7.75
   1  -7 -20   77.77   11.13
  -1  -7 -19   70.86   11.33
   1  -7 -19   61.68   10.17
  -1  -7 -19   56.71    9.94
   1  -7 -19   59.64   10.07
  -1  -7 -18   13.29    4.82
  -1  -7 -18   -0.23    2.73
   1  -7 -18    8.03    4.08
   1  -7 -18   13.57    3.94
  -1  -7 -17   55.05    9.69
  -1  -7 -17   46.06    7.99
   1  -7 -17   49.98    9.68
   1  -7 -17   71.20   10.74
  -1  -7 -16   99.93   11.87
   1  -7 -16  119.36   12.69
   1  -7 -16  116.05   13.44
   1  -7 -15   28.31    6.35
  -1  -7 -15   19.81    5.75
   1  -7 -15   25.32    6.82
  -1  -7 -14   25.45    5.47
   1  -7 -14   20.92    6.06
   1  -7 -14   17.28    5.97
   1  -7 -13   44.71    7.67
   1  -7 -13   66.58    9.77
  -1  -7 -13   52.89    8.33
  -1  -7 -12   61.96    9.40
   1  -7 -12   39.22    7.29
   1  -7 -12   50.26    8.52
  -1  -7 -11    9.73    4.57
   1  -7 -11   12.15    4.60
   1   7 -11    7.65    3.32
   1  -7 -10  211.17   16.40
  -1  -7 -10  206.51   16.15
   1   7 -10  205.22   15.60
  -1   7 -10  206.84   14.73
   1   7  -9  117.30   11.94
  -1   7  -9  150.76   12.81
   1  -7  -9  134.46   13.08
  -1  -7  -9  123.57   12.65
  -1  -7  -8    4.00    3.05
   1   7  -8   -0.49    1.75
  -1   7  -8    4.16    1.44
   1  -7  -8    2.92    2.99
  -1  -7  -7  164.28   14.12
  -1   7  -7  150.21   13.24
   1   7  -7  113.43   11.70
   1  -7  -7  165.06   14.57
   1   7  -6  406.01   21.87
  -1  -7  -6  381.78   21.76
   1  -7  -6  384.06   21.60
  -1   7  -6  425.89   22.02
   1  -7  -5   75.46    9.74
  -1  -7  -5   74.70    9.62
   1   7  -5   97.52   10.90
  -1   7  -5   79.30    9.80
  -1   7  -4  207.77   15.68
   1   7  -4  169.94   14.38
   1  -7  -4  204.36   15.70
  -1  -7  -4  187.87   15.11
   1  -7  -3  479.98   24.27
   1   7  -3  557.36   25.84
  -1  -7  -3  487.71   24.09
  -1   7  -3  494.28   24.24
  -1   7  -2  247.94   17.66
   1   7  -2  242.49   12.60
   1   7  -2  238.34   16.94
  -1  -7  -2  226.61   16.35
   1  -7  -2  274.75   17.97
   1   7  -1    4.03    2.47
   1  -7  -1    5.34    2.98
  -1  -7  -1    1.38    3.21
  -1   7  -1    9.36    4.51
   1   7  -1    4.36    2.00
  -1   7   0   90.04    7.70
   1  -7   0   96.57   10.63
   1   7   0   95.36   10.71
  -1  -7   0   97.74   10.69
   1   7   0   91.46    8.47
  -1   7   0   95.94   10.96
   1   7   1    5.16    2.16
  -1  -7   1    5.01    2.60
   1   7   1    6.25    2.79
  -1   7   1    5.61    2.08
  -1   7   1    3.01    2.32
   1  -7   1   -0.15    1.72
   1   7   2  208.53   16.38
  -1  -7   2  238.08   16.74
  -1   7   2  235.52   12.88
   1  -7   2  212.24   15.70
   1   7   2  212.85   13.33
  -1   7   2  217.96   16.54
   1  -7   3  483.67   23.90
  -1   7   3  506.25   25.35
  -1  -7   3  505.73   24.06
  -1   7   3  512.97   19.98
   1   7   3  526.56   25.90
   1   7   3  589.36   22.87
  -1   7   4  237.63   14.01
   1  -7   4  212.07   15.91
   1   7   4  208.05   16.28
  -1   7   4  201.82   16.04
   1   7   4  150.82   12.09
  -1  -7   4  174.80   14.36
   1  -7   5   79.34    9.68
  -1   7   5   81.59    8.76
   1   7   5   83.80    9.40
   1   7   5   71.55    9.95
  -1  -7   5   71.76    9.33
  -1   7   5   78.33   10.21
  -1  -7   6  449.52   23.17
   1  -7   6  366.19   21.36
  -1   7   6  422.19   20.12
   1   7   6  419.22   23.86
   1   7   6  444.25   21.25
   1   7   7  147.28   12.64
   1  -7   7  150.10   13.92
   1   7   7  159.61   14.57
  -1   7   7  132.01   11.80
  -1  -7   7  170.28   14.00
   1   7   8    5.13    2.87
   1  -7   8    4.41    2.68
  -1   7   8    2.48    2.28
  -1  -7   8    6.31    2.85
   1   7   8    7.63    3.96
   1   7   9  116.85   11.64
  -1   7   9  145.40   12.58
  -1  -7   9  131.89   12.69
   1   7   9  124.24   13.27
   1  -7   9  123.32   12.51
   1  -7  10  226.67   16.45
  -1   7  10  223.85   16.37
   1   7  10  223.39   18.09
  -1  -7  10  212.49   16.36
   1   7  11   10.80    3.36
  -1  -7  11    2.59    2.41
   1   7  11    9.57    3.81
   1  -7  11    9.38    4.21
  -1   7  11    6.56    2.80
  -1   7  12   36.75    6.34
   1  -7  12   47.40    7.92
   1   7  12   47.56    9.41
   1   7  12   48.34    7.77
  -1  -7  12   51.11    7.94
  -1   7  13   41.87    7.70
   1   7  13   40.03    7.22
   1  -7  13   51.23    8.18
   1   7  14   30.79    6.29
  -1   7  14   21.88    5.70
  -1   7  15    9.15    4.25
   1   7  15   19.44    5.48
  -1   7  16  100.90   12.10
   1   7  16  128.03   13.41
   1   7  17   36.26    7.62
  -1   7  17   48.53    8.73
  -1   7  18   10.85    4.61
   1   7  18    5.46    1.91
   1   7  19   53.95    9.39
  -1   7  19   48.61    9.61
  -1   7  20   58.29    9.49
   1   7  20   59.14    9.70
   1   7  21    7.07    3.79
  -1   7  21   12.73    5.19
   1   7  22   87.25   11.92
  -1   7  22   92.86   12.76
   1   7  23  103.01   12.64
  -1   7  23  100.35   12.40
   1   7  24   34.20    8.27
  -1   7  24   35.64    7.78
   1  -8 -22    9.39    5.18
  -1  -8 -22   11.42    4.62
  -1  -8 -22   -0.32    3.40
   1  -8 -21    4.03    2.97
   1  -8 -21    5.08    4.92
  -1  -8 -21    0.08    3.57
  -1  -8 -21    1.59    2.16
  -1  -8 -20    5.03    2.84
  -1  -8 -20    0.96    3.07
   1  -8 -20   -1.74    2.95
   1  -8 -20    7.46    4.45
   1  -8 -19    7.82    5.00
  -1  -8 -19    8.05    4.20
  -1  -8 -19   10.45    4.48
   1  -8 -19    6.88    3.83
  -1  -8 -18    2.70    2.93
   1  -8 -18    1.83    2.88
  -1  -8 -18   -2.76    3.10
   1  -8 -18    1.91    2.14
   1  -8 -17    5.04    4.19
  -1  -8 -17    8.42    3.94
  -1  -8 -17   10.62    5.69
   1  -8 -17    5.05    4.02
   1  -8 -16    3.29    3.65
   1  -8 -16    7.56    4.21
  -1  -8 -16    8.97    5.02
   1  -8 -15   -0.48    1.87
   1  -8 -15    0.99    1.87
  -1  -8 -15   -2.65    2.75
   1  -8 -14   -3.18    3.90
  -1  -8 -14    2.41    3.28
  -1  -8 -13   15.91    5.11
   1  -8 -13    6.71    3.24
   1  -8 -13   13.19    4.65
   1  -8 -12    0.12    2.63
  -1  -8 -12    5.80    3.70
   1  -8 -12    3.49    4.06
  -1  -8 -11   25.35    5.56
   1  -8 -11   18.67    4.91
   1  -8 -10    0.39    3.43
  -1  -8 -10   -3.24    3.23
   1   8 -10    3.64    3.65
   1   8  -9    1.03    2.39
  -1   8  -9    5.38    3.39
  -1  -8  -9    6.06    1.84
   1  -8  -9    1.00    2.53
  -1  -8  -8   10.37    4.15
  -1   8  -8   12.11    4.06
   1   8  -8   11.01    4.62
   1  -8  -8   17.36    5.78
  -1   8  -7    2.98    2.93
   1  -8  -7    7.49    3.38
  -1  -8  -7    4.89    1.59
   1   8  -7    1.64    3.42
   1   8  -6  146.68   14.66
   1  -8  -6  124.96   13.14
  -1   8  -6  143.96   14.19
  -1  -8  -6  148.83   14.23
  -1  -8  -5   44.65    8.23
   1  -8  -5   34.60    7.17
  -1   8  -5   40.60    6.99
   1   8  -5   31.57    6.59
  -1  -8  -4   30.29    6.77
   1   8  -4   29.58    5.90
  -1   8  -4   34.26    7.04
   1  -8  -4   38.36    7.26
  -1  -8  -3   62.36    8.90
   1  -8  -3   59.56    8.99
   1   8  -3   42.94    7.55
  -1   8  -3   48.16    8.09
   1  -8  -2  118.72   12.74
   1   8  -2  114.13   12.11
  -1  -8  -2  160.46   14.66
  -1   8  -2  159.02   14.97
   1   8  -1   23.43    6.29
   1  -8  -1   24.59    6.16
  -1   8  -1   20.08    5.29
  -1  -8  -1   24.86    6.25
  -1   8   0   34.81    7.53
  -1  -8   0   34.62    6.94
   1   8   0   31.78    7.35
   1  -8   0   36.00    8.04
  -1   8   1   11.23    4.41
   1  -8   1   14.79    4.10
  -1  -8   1   24.17    6.25
   1   8   1   26.08    6.44
  -1  -8   2  129.61   13.08
   1  -8   2  132.14   13.17
  -1   8   2  156.60   15.08
   1   8   2  140.34   14.87
  -1   8   3   40.83    8.09
   1  -8   3   61.92    9.06
   1   8   3   63.48    9.74
   1   8   3   48.78    7.29
  -1  -8   3   46.38    7.93
   1   8   4   37.12    7.68
   1   8   4   40.93    7.12
   1  -8   4   34.48    7.58
  -1  -8   4   17.83    5.70
   1  -8   5   36.65    7.09
   1   8   5   38.31    7.63
   1   8   5   37.26    7.23
  -1  -8   5   40.03    7.34
  -1   8   5   35.87    6.02
  -1   8   6  138.61   12.16
  -1  -8   6  146.61   13.96
   1   8   6  145.41   12.94
   1   8   6  126.86   14.08
   1  -8   6  143.41   14.18
   1   8   7    3.17    1.76
  -1   8   7    5.07    2.98
   1  -8   7    4.37    3.14
  -1  -8   7    1.35    1.74
   1   8   7    5.97    3.02
   1   8   8   12.23    4.28
  -1  -8   8   16.39    5.27
   1  -8   8    9.08    3.17
  -1   8   8   17.75    4.56
   1   8   8    6.75    2.85
  -1   8   9    3.69    3.09
   1  -8   9   -0.68    1.96
   1   8   9    3.05    1.52
   1   8   9   -0.46    2.02
  -1  -8   9    4.32    2.73
  -1  -8  10    0.26    2.21
   1  -8  10    4.23    2.91
   1   8  10    0.21    2.37
   1   8  10    4.05    4.15
  -1   8  10    0.38    3.12
   1  -8  11   12.77    4.20
  -1   8  11   16.16    4.71
  -1  -8  11   15.22    4.01
   1   8  11    7.98    4.08
   1   8  11   25.51    6.80
   1   8  12    5.68    2.60
   1  -8  12    4.48    3.23
  -1   8  12    4.75    2.99
  -1   8  13    7.85    2.93
   1   8  13    1.37    2.41
  -1   8  14    9.27    4.39
   1   8  14   12.21    4.46
  -1   8  15   -1.11    3.70
   1   8  15    5.18    3.90
   1   8  16    0.83    2.40
  -1   8  16    5.60    3.19
  -1   8  17    0.36    2.85
   1   8  17    3.72    2.77
  -1   8  18    0.42    2.22
   1   8  18    9.04    4.87
   1   8  19    1.17    3.45
  -1   8  19    8.65    3.50
  -1   8  20    5.38    3.90
   1   8  20    8.66    4.56
  -1   8  21   -1.24    2.31
   1   8  21   -0.86    2.49
   1   8  22    7.59    2.42
  -1   8  22    6.09    4.76
  -1  -9 -19   68.46   11.01
   1  -9 -19   54.10   10.06
   1  -9 -19   40.36    8.97
  -1  -9 -19   58.46   10.51
  -1  -9 -18   17.14    6.32
   1  -9 -18    8.17    4.51
  -1  -9 -18    6.45    4.53
   1  -9 -18    6.84    5.55
   1  -9 -17   49.04    9.59
  -1  -9 -17   63.13   10.29
  -1  -9 -17   43.49    9.22
   1  -9 -17   59.09   10.55
   1  -9 -16   96.38   12.83
  -1  -9 -16   82.10   11.82
   1  -9 -16  102.99   13.56
  -1  -9 -16   94.91   12.79
   1  -9 -15   28.95    7.28
  -1  -9 -15   18.65    6.26
   1  -9 -15   26.85    6.27
   1  -9 -14   39.18    8.69
  -1  -9 -14   25.14    7.30
   1  -9 -14   32.49    7.97
   1  -9 -13   62.94   10.63
  -1  -9 -13   69.89   10.33
   1  -9 -13   53.30    9.37
   1  -9 -12   40.91    8.01
   1  -9 -12   47.76    8.97
  -1  -9 -12   34.22    7.31
   1  -9 -11   20.71    5.83
  -1  -9 -11   29.03    7.28
   1  -9 -11   35.02    8.04
   1  -9 -10  126.23   14.05
  -1  -9 -10  158.13   15.60
   1  -9 -10  145.45   15.00
  -1  -9  -9   50.23    9.04
   1  -9  -9   45.99    8.42
   1   9  -8    0.93    3.66
  -1  -9  -8   14.52    5.21
   1  -9  -8    9.01    4.62
   1   9  -7  134.94   14.76
   1  -9  -7   96.66   11.59
  -1  -9  -7  117.91   13.67
   1  -9  -6  207.21   17.71
  -1  -9  -6  189.83   16.46
   1   9  -6  219.43   18.84
   1  -9  -5    4.02    2.56
   1   9  -5    8.21    5.14
  -1  -9  -5    4.18    3.53
  -1  -9  -4  115.69   12.90
   1  -9  -4  104.38   12.25
   1   9  -4  127.03   14.06
   1   9  -3  146.75   15.28
  -1  -9  -3  134.24   14.17
   1  -9  -3  183.12   16.66
   1  -9  -2   96.02   12.21
  -1  -9  -2   81.06   10.65
   1   9  -2  119.43   13.20
   1  -9  -1   15.91    5.10
  -1  -9  -1    9.59    3.29
   1   9  -1   17.98    4.59
   1  -9   0   95.03   11.47
  -1  -9   0  110.15   12.89
   1   9   0   93.80   12.27
   1   9   1   16.60    5.04
  -1  -9   1    9.59    4.15
   1  -9   1   13.28    3.97
   1  -9   2  103.29   12.20
   1   9   2   80.24   11.64
  -1  -9   2  110.94   12.57
  -1  -9   3  163.48   15.85
   1   9   3  155.98   16.09
   1  -9   3  177.53   16.37
   1  -9   4  119.70   13.32
  -1  -9   4  129.60   14.04
   1   9   4  112.83   13.62
   1   9   5   10.27    4.19
   1  -9   5    4.04    4.35
  -1  -9   5    2.44    1.59
   1   9   6  208.50   18.38
  -1  -9   6  193.57   17.24
   1  -9   6  197.79   17.51
   1  -9   7  108.91   13.24
   1   9   7  119.63   14.30
  -1  -9   7  122.55   13.62
   1  -9   8   13.56    4.94
  -1  -9   8    6.55    3.69
   1   9   8    7.88    5.86
   1   9   8    8.95    5.33
   1   9   9   53.73    9.10
  -1  -9   9   37.70    8.57
   1  -9   9   45.13    8.47
   1   9   9   54.63    9.42
   1  -9  10  131.00   14.47
  -1  -9  10  105.44   13.21
   1   9  10  132.96   13.78
   1  -9  11   31.67    7.51
  -1   9  11   32.74    6.79
   1   9  11   38.47    8.00
  -1   9  12   35.25    7.96
   1   9  12   49.54    9.49
   1   9  13   70.22   11.19
  -1   9  13   53.20    9.47
   1   9  14   28.87    6.40
  -1   9  14   46.15    8.36
  -1   9  15   27.22    7.36
   1   9  15   21.03    6.08
   1   9  16  100.86   12.97
  -1   9  16  105.86   13.46
  -1   9  17   40.19    9.13
   1   9  17   64.10   10.62
  -1   9  18   28.42    6.42
   1   9  18    4.07    5.14
   1   9  19   56.87   10.70
  -1   9  19   52.75    9.63
  -1 -10 -16    3.15    2.83
  -1 -10 -16    0.58    2.69
   1 -10 -16   10.80    5.06
   1 -10 -16   10.17    3.39
  -1 -10 -15   27.41    8.01
   1 -10 -15   26.02    6.31
  -1 -10 -15   27.82    6.74
   1 -10 -15   12.22    5.21
  -1 -10 -14   10.35    5.27
   1 -10 -14   12.01    5.26
  -1 -10 -14    7.30    3.55
   1 -10 -14   11.35    4.74
   1 -10 -13   32.53    7.81
   1 -10 -13   24.72    5.93
  -1 -10 -13   23.49    6.77
   1 -10 -12   34.50    7.57
  -1 -10 -12   33.34    6.63
   1 -10 -12   43.39    9.19
   1 -10 -11   38.13    7.76
   1 -10 -11   34.54    8.71
  -1 -10 -11   18.05    4.59
   1 -10 -10   42.68    8.78
  -1 -10 -10   29.62    6.82
   1 -10 -10   33.21    7.45
   1 -10  -9   30.65    7.89
  -1 -10  -9   19.11    5.98
   1 -10  -9   18.88    4.91
   1 -10  -8    7.45    5.41
   1 -10  -8    4.29    2.60
  -1 -10  -8   -2.90    2.18
   1  10  -7   19.86    6.46
  -1 -10  -7   13.05    3.65
   1 -10  -6   82.47   10.85
  -1 -10  -6   74.64   11.46
   1  10  -6   67.92   11.20
   1  10  -5   18.08    7.19
   1 -10  -5   12.03    4.68
  -1 -10  -5   11.49    5.63
  -1 -10  -4   55.44    9.48
   1 -10  -4   74.66   11.47
   1  10  -4   61.85   10.38
   1 -10  -3   11.64    4.95
  -1 -10  -3   11.35    4.65
   1  10  -3   12.85    4.81
   1  10  -2   18.46    6.17
   1 -10  -2   18.04    5.90
  -1 -10  -2   12.53    5.39
   1  10  -1   23.57    7.10
   1 -10  -1   13.81    4.51
  -1 -10  -1   15.31    5.16
   1 -10   0   24.15    6.40
   1  10   0   23.05    6.90
  -1 -10   0   21.91    7.15
   1 -10   1   24.20    6.78
   1  10   1   27.06    7.57
  -1 -10   1   21.13    6.16
  -1 -10   2   30.93    7.20
   1 -10   2   17.95    5.75
   1  10   2   22.75    7.08
   1  10   3    7.74    4.65
  -1 -10   3   21.74    6.88
   1 -10   3   23.71    6.98
   1 -10   4   56.15   10.24
  -1 -10   4   63.61   10.58
   1  10   4   67.12   10.11
   1 -10   5   11.20    4.13
  -1 -10   5   15.69    6.09
  -1 -10   6   69.18   11.03
   1 -10   6   96.48   12.66
   1  10   6   93.22   12.77
   1  10   7   24.33    6.19
  -1 -10   7   17.17    5.86
   1 -10   7   20.79    6.50
  -1 -10   8   10.48    5.75
   1 -10   8    1.23    2.37
  -1 -10   9   22.57    6.16
   1 -10   9   17.33    4.96
  -1 -10  10   33.10    9.74
   1 -10  10   21.10    6.58
   1  10  16    3.48    3.87
   1 -11 -10   53.63   10.65
  -1 -11 -10   71.19   11.57
   1 -11 -10   61.69   11.16
   1 -11  -9   37.92    7.70
  -1 -11  -9   31.96    7.59
   1 -11  -9   26.14    7.82
  -1 -11  -8    8.46    6.01
   1 -11  -8    6.57    3.77
   1 -11  -8   11.56    4.60
   1 -11  -7   41.76    9.32
   1 -11  -7   50.74    9.65
  -1 -11  -7   43.26    8.56
  -1 -11  -6   70.68   12.33
   1 -11  -6   63.75   11.02
   1 -11  -6   73.20   11.89
  -1 -11  -5   12.37    4.42
   1  11  -5    8.56    5.27
   1 -11  -5   26.37    7.15
   1 -11  -5   17.23    5.53
   1  11  -4   31.64    9.30
  -1 -11  -4   35.92    8.02
   1 -11  -4   29.48    6.92
   1 -11  -4   38.42    8.31
   1 -11  -3   38.61    8.67
   1  11  -3   40.58    9.49
   1 -11  -3   50.30    9.72
  -1 -11  -3   43.18    8.63
   1  11  -2   13.04    6.18
   1 -11  -2   16.30    5.67
  -1 -11  -2    9.10    2.28
   1  11  -1   25.47    8.09
  -1 -11  -1   18.46    6.70
   1 -11  -1   20.82    5.44
   1 -11   0   36.77    8.36
   1  11   0   53.19    9.96
   1 -11   1   26.27    6.89
  -1 -11   1   24.03    7.02
   1  11   1   31.13    7.66
  -1 -11   2   23.76    6.83
   1  11   2   13.36    3.93
   1 -11   2   26.84    7.56
   1 -11   3   29.24    7.52
  -1 -11   3   38.52    8.76
  -1 -11   4   49.81    9.70
   1 -11   4   37.07    8.71
   1 -11   5    2.31    3.85
  -1 -11   5    5.28    4.05
   1 -11   6   63.24   10.92
  -1 -11   6   49.09    9.77
   1 -11   7   57.28   10.36
  -1 -11   7   36.83    8.56
  -1 -11   8    1.00    3.49
   1 -11   8    4.66    4.42
   1 -11   9   27.10    7.85
   1 -11  10   41.02   11.28
   2   0 -20   81.22    8.72
   2   0 -19 1114.68   31.75
   2   0 -18   44.20    6.03
  -2   0 -17  427.25   14.44
   2   0 -17  392.12   17.58
  -2   0 -16   49.63    4.75
   2   0 -16   58.02    6.48
  -2   0 -15 1018.65   20.89
   2   0 -15  983.15   25.89
  -2   0 -14   70.22    5.38
   2   0 -14   62.25    6.19
  -2   0 -13 7091.75   51.32
   2   0 -12  123.14    8.40
  -2   0 -12  127.88    6.56
   2   0 -11  452.10   15.09
   2   0 -10 3331.20   40.38
   2   0  -9 2609.83   34.65
   2   0  -8  608.09   15.99
   2   0  -6  992.33   18.60
   2   0  -5 2680.22   29.64
   2   0  -1  579.21   11.48
   2   0  -1  652.17   10.51
   2   0   0    3.47    1.17
   2   0   0    6.41    1.14
   2   0   1  586.41   11.13
   2   0   1  585.80   10.67
   2   0   1  599.86   11.31
   2   0   3 7944.76   46.02
   2   0   5 2747.76   30.86
   2   0   5 2727.16   28.56
   2   0   5 2713.69   23.79
   2   0   6  925.93   19.32
   2   0   6  958.62   14.64
   2   0   7 9906.66   68.30
   2   0   8  583.74   17.33
   2   0   8  605.28   12.53
  -2   0   8  609.59   17.91
   2   0   9 2719.87   38.56
   2   0   9 2741.29   27.71
   2   0  10 3357.07   44.73
  -2   0  10 3286.72   45.77
   2   0  11  438.56   17.15
  -2   0  11  425.58   17.15
  -2   0  12  121.87    9.69
   2   0  12  130.32    9.72
   2   0  13 6555.31   71.62
  -2   0  13 6816.51   73.85
  -2   0  14   64.30    7.54
   2   0  14   77.25    7.82
   2   0  15  956.67   29.25
  -2   0  15  975.31   30.01
  -2   0  16   59.64    7.83
   2   0  16   43.95    6.83
  -2   0  17  440.41   21.30
   2   0  17  406.80   19.96
   2   0  18   16.91    4.48
  -2   0  18   34.03    6.17
   2   0  19 1137.31   35.85
  -2   0  19 1057.91   35.10
  -2   0  20   70.36    9.16
   2   0  20   74.22    9.57
  -2   0  21  394.33   22.45
   2   0  21  394.22   22.24
  -2   0  22   98.84   11.97
   2   0  22   86.24   10.73
   2   0  23  372.48   22.40
  -2   0  23  351.19   22.28
   2   0  24  166.59   15.34
   2   0  25  225.88   17.77
   2   0  26    7.65    3.91
   2   0  27   23.25    6.25
   2   0  28   79.41   11.27
   2   0  29   66.81   11.55
   2   0  30  105.33   13.49
   2  -1 -21   19.39    4.77
   2  -1 -20   62.40    7.88
   2  -1 -19   11.36    3.42
  -2  -1 -19   15.93    3.82
   2  -1 -18   61.87    7.56
   2   1 -18   74.80    7.12
  -2  -1 -18   76.25    7.66
  -2  -1 -17   12.58    3.00
   2   1 -17   14.89    3.37
   2  -1 -17   12.30    3.49
   2   1 -16   74.88    6.89
   2  -1 -16   73.60    7.95
   2  -1 -16   64.29    4.82
  -2  -1 -16   65.15    6.53
  -2  -1 -15   78.40    7.12
   2   1 -15   67.31    6.36
   2  -1 -15   90.37    8.24
  -2   1 -15   53.83    2.98
   2   1 -14  196.89   10.73
   2  -1 -14  214.04    8.73
  -2  -1 -14  209.07   11.29
   2  -1 -14  234.83   13.12
   2  -1 -13   73.47    7.00
   2   1 -13   58.98    5.73
   2  -1 -13   64.15    4.66
   2  -1 -12  734.03   21.84
   2   1 -12  733.02   19.49
   2  -1 -12  765.08   15.91
   2  -1 -11   55.59    5.67
   2   1 -11   51.27    4.90
   2  -1 -11   54.03    4.11
   2  -1 -10   66.61    6.14
   2  -1 -10   70.57    4.63
   2   1 -10   58.56    5.03
   2  -1  -9  118.33    7.91
   2  -1  -9  107.34    5.59
   2   1  -9  109.55    6.79
   2  -1  -8  229.89    8.15
   2  -1  -8  257.48   11.28
   2   1  -8  235.59    9.49
   2  -1  -7  134.54    6.11
   2   1  -7  137.09    7.05
   2  -1  -7  151.10    8.35
   2  -1  -6 1122.27   17.38
   2  -1  -6 1118.16   22.01
   2   1  -6 1156.92   19.90
   2   1  -5   26.97    2.98
   2  -1  -5   33.13    2.99
   2  -1  -4  161.46    7.78
   2  -1  -4  154.27    6.36
   2   1  -4  158.24    7.04
   2  -1  -3 1322.22   18.59
   2   1  -3 1378.09   20.27
   2  -1  -3 1332.86   21.02
   2   1  -2  182.14    7.40
   2  -1  -2  173.87    7.18
   2  -1  -2  174.80    6.65
   2   1  -1   48.09    3.86
   2  -1  -1   40.26    3.31
   2  -1  -1   43.22    3.35
   2  -1   0    0.61    0.68
   2   1   0    0.32    0.35
   2   1   0   -0.08    0.45
   2  -1   0   -0.13    0.35
   2  -1   1   44.64    2.97
   2   1   1   46.60    3.80
   2  -1   1   40.33    3.38
   2   1   1   42.75    3.54
   2   1   2  160.85    7.23
   2   1   2  182.79    7.74
   2  -1   2  170.07    7.03
   2  -1   2  186.64    5.64
   2  -1   2  187.54    5.21
   2  -1   3 1344.13   19.79
   2  -1   3 1339.37   13.77
   2   1   3 1364.06   21.55
   2  -1   3 1334.32   14.75
   2   1   4  151.07    7.74
   2  -1   4  157.33    6.94
  -2   1   4  155.86    7.28
   2  -1   4  154.41    5.57
   2   1   4  153.87    7.69
   2  -1   5   27.99    2.67
  -2   1   5   38.22    3.84
   2  -1   5   40.78    3.63
   2   1   5   31.18    3.74
   2   1   5   26.90    3.26
   2   1   6 1132.14   21.22
   2   1   6 1097.05   23.35
   2  -1   6 1123.87   18.27
  -2   1   6 1163.86   22.66
   2  -1   6 1109.74   19.36
   2   1   7  127.45    7.48
  -2   1   7  127.66    8.04
   2  -1   7  134.51    6.87
   2  -1   7  137.68    7.01
   2  -1   8  208.70    9.19
  -2   1   8  228.23   11.26
   2  -1   8  236.79    9.62
   2   1   8  232.95   10.39
   2   1   8  234.37   11.74
  -2   1   9   97.32    7.80
   2   1   9  114.40    8.55
   2   1   9  108.69    7.59
   2  -1   9  105.17    7.62
   2  -1   9  109.69    6.65
   2   1  10   64.00    6.67
   2  -1  10   68.12    6.26
   2  -1  10   63.99    5.30
   2   1  10   72.94    6.03
  -2   1  10   67.07    6.67
  -2   1  11   57.34    6.45
   2   1  11   51.39    5.53
   2  -1  11   58.78    5.83
   2   1  11   50.86    6.07
   2  -1  11   53.43    4.80
   2  -1  12  777.52   22.56
  -2   1  12  768.78   24.25
   2   1  12  780.98   21.34
   2   1  12  744.77   23.79
   2  -1  12  807.70   19.26
   2  -1  13   69.48    6.97
   2   1  13   66.10    7.47
  -2   1  13   71.01    7.76
   2  -1  14  186.49   12.15
   2   1  14  229.25   14.41
  -2   1  14  222.19   14.14
  -2   1  15   75.68    8.48
   2  -1  15   93.29    8.64
   2   1  15   80.17    8.75
  -2   1  16   92.99    9.63
   2   1  16   86.54    9.48
   2  -1  16   80.83    8.60
  -2   1  17    9.87    4.09
   2  -1  17   14.45    3.81
   2   1  17   14.51    3.71
   2   1  18   57.16    8.12
   2  -1  18   51.71    7.45
  -2   1  18   48.78    7.27
  -2   1  19    9.45    3.86
   2  -1  19    9.01    3.98
   2   1  19    9.23    3.12
   2  -1  20   66.58    8.59
  -2   1  20   49.30    7.93
   2   1  20   52.62    8.02
  -2   1  21   14.50    4.41
   2   1  21   24.78    5.76
   2  -1  21   23.28    5.73
  -2   1  22   39.07    7.42
   2   1  22   44.77    7.74
   2  -1  22   39.18    7.12
   2   1  23    0.22    1.76
  -2   1  23    3.54    2.13
   2  -1  23    5.17    2.91
   2  -1  24    9.47    2.61
   2   1  24    7.78    3.82
  -2   1  24   14.25    5.97
   2  -1  25    6.62    4.13
   2   1  25    0.07    2.41
  -2   1  25    5.01    4.10
  -2   1  26   -2.81    4.09
   2   1  26   -1.28    1.64
   2  -1  26   -0.90    2.84
   2  -1  27    5.31    2.35
   2   1  27    9.38    3.53
   2  -1  28    9.50    4.48
   2   1  28    8.96    1.93
   2   1  29    0.96    4.28
   2   1  30    0.68    2.13
   2  -2 -22   11.43    3.98
   2  -2 -21   32.89    5.90
  -2  -2 -20   22.30    4.75
   2  -2 -20   39.84    6.93
  -2  -2 -19  469.30   21.84
   2  -2 -19  478.51   22.50
   2  -2 -18   76.57    8.60
  -2  -2 -18   80.38    8.94
   2   2 -17  372.45   15.44
   2  -2 -17  400.45   15.63
  -2  -2 -17  404.94   18.85
   2  -2 -17  414.68   19.91
   2  -2 -16    7.65    3.02
   2  -2 -16    7.93    2.21
  -2  -2 -16   12.83    3.58
   2   2 -16   10.15    2.57
   2  -2 -15  111.90    8.19
   2  -2 -15  100.31    9.39
   2   2 -15   90.98    7.03
   2  -2 -14   11.25    3.17
   2  -2 -14   12.19    2.57
   2   2 -14    7.43    2.11
   2   2 -13 1362.87   26.50
   2  -2 -13 1383.85   33.45
   2  -2 -13 1389.60   27.19
   2   2 -12  307.77   12.51
   2  -2 -12  267.17   11.95
   2  -2 -12  298.32   15.07
   2  -2 -11    4.87    1.97
   2  -2 -11    2.70    1.17
   2   2 -11    5.76    2.07
   2  -2 -10  220.04   10.35
   2   2 -10  193.49    9.59
   2  -2 -10  219.04   12.37
   2   2  -9  977.69   21.34
   2  -2  -9  956.70   21.48
   2  -2  -8   85.84    6.31
   2  -2  -8  100.13    7.86
   2   2  -7  785.40   18.60
   2  -2  -7  800.77   18.92
   2  -2  -7  819.53   22.04
   2  -2  -6   74.90    6.43
   2  -2  -6   72.44    5.71
   2   2  -6   63.60    5.29
   2   2  -5  122.59    7.14
   2  -2  -5  115.72    6.99
   2   2  -4  298.90   11.11
   2  -2  -4  288.81   12.08
   2  -2  -4  275.47   10.73
   2  -2  -3 3884.08   42.82
   2  -2  -3 4007.43   41.28
   2  -2  -2  459.21   14.16
   2   2  -2  395.24   11.84
   2  -2  -2  432.54   13.48
   2   2  -2  489.22   14.33
   2   2  -1 1255.53   21.04
   2  -2  -1 1207.67   22.57
   2  -2  -1 1258.49   22.57
   2   2   0  237.48    9.33
   2  -2   0  239.05   10.07
   2  -2   0  253.17    9.55
  -2   2   1 1257.22   16.66
   2   2   1 1248.66   24.63
   2  -2   1 1256.85   22.84
   2  -2   1 1278.42   20.64
   2   2   1 1187.80   21.70
   2  -2   2  449.82   11.74
   2   2   2  425.85   13.44
   2  -2   2  439.68   13.46
  -2   2   2  439.95   11.13
   2   2   2  449.25   14.86
   2   2   3 3891.02   44.65
   2   2   3 3928.98   43.17
   2  -2   3 3995.93   40.68
   2  -2   3 3950.09   32.86
   2  -2   4  289.49    8.21
   2   2   4  289.32   11.85
  -2   2   4  279.37   10.47
  -2  -2   4  267.43    9.25
   2   2   4  294.31   12.70
   2  -2   4  297.18   11.14
  -2  -2   5  122.86    6.06
   2   2   5  129.43    8.16
   2   2   5  126.96    8.47
   2  -2   5  109.60    6.85
   2  -2   5  122.31    4.21
   2  -2   5  120.96    4.79
  -2   2   5  113.52    7.02
   2   2   6   64.63    6.09
   2  -2   6   75.79    5.94
   2  -2   6   73.66    3.84
   2  -2   6   65.93    3.18
  -2  -2   6   74.25    4.50
   2   2   6   75.77    6.61
  -2   2   6   56.32    5.39
   2   2   7  764.62   21.74
   2  -2   7  778.25   14.30
   2   2   7  760.16   21.39
   2  -2   7  796.55   18.72
  -2  -2   7  814.07   14.37
  -2   2   7  774.25   20.83
  -2  -2   8   78.35    4.32
  -2   2   8   85.42    7.10
   2  -2   8   82.07    6.09
   2   2   8   78.61    7.07
   2   2   8   64.86    6.77
   2  -2   8   74.44    4.87
   2  -2   9 1000.71   19.72
   2   2   9  952.84   25.63
  -2   2   9  997.12   25.86
   2   2   9  942.24   26.50
   2  -2   9 1044.80   22.23
   2  -2  10  187.72    9.55
   2  -2  10  207.55    9.61
   2   2  10  201.33   12.27
  -2  -2  10  188.27    5.91
  -2   2  10  197.54   12.04
   2   2  10  189.42   11.40
   2   2  11    4.74    2.45
   2  -2  11    6.43    2.05
   2  -2  11    4.08    1.31
  -2   2  11    3.82    1.97
   2   2  11    7.40    2.85
  -2  -2  11    2.37    0.64
  -2   2  12  288.05   15.49
   2   2  12  273.25   15.36
   2  -2  12  304.73   13.13
   2  -2  12  284.80   12.22
   2   2  12  303.05   15.35
   2  -2  13 1391.39   29.89
   2   2  13 1344.27   34.35
   2   2  13 1371.65   33.36
   2  -2  13 1397.11   27.51
  -2   2  13 1372.31   34.64
   2  -2  14   13.37    2.84
   2  -2  14   13.24    3.06
   2   2  14   11.28    3.30
  -2   2  14    9.80    3.23
  -2   2  15   93.10    9.54
   2  -2  15   98.80    8.93
   2  -2  15  108.29    7.93
   2   2  15   92.38    9.94
  -2   2  16    9.91    2.97
   2  -2  16    6.80    2.41
   2  -2  16   14.77    4.16
   2   2  16   10.30    4.31
   2   2  17  392.87   21.05
  -2   2  17  434.17   21.54
   2  -2  17  374.81   18.28
   2   2  18   89.54   10.34
  -2   2  18   83.62    9.84
   2  -2  18   84.60    9.01
  -2   2  19  460.71   23.47
   2  -2  19  461.85   21.80
   2   2  19  487.94   24.23
  -2   2  20   26.84    6.11
   2  -2  20   35.32    6.23
   2   2  20   30.21    6.03
  -2   2  21   29.59    6.09
   2  -2  21   15.33    4.12
   2   2  21   14.81    5.11
   2   2  22   11.79    4.80
  -2   2  22   14.55    5.63
   2  -2  22   11.22    3.95
   2   2  23  371.20   23.05
   2  -2  23  366.61   21.97
  -2   2  23  361.92   22.48
   2   2  24   18.88    5.16
   2  -2  24   15.99    6.57
  -2   2  24   34.96    7.27
   2   2  25  294.92   21.40
  -2   2  25  303.72   21.37
  -2   2  26   12.20    3.18
   2   2  26   22.34    6.21
  -2   2  27    8.51    2.70
   2   2  27   27.04    6.91
   2   2  28   44.20    8.21
  -2   2  28   38.15    8.20
  -2   2  29  189.15   17.93
   2   2  29  191.48   18.12
   2   2  30    8.73    4.50
   2  -3 -24    6.27    4.85
   2  -3 -23   11.50    5.01
  -2  -3 -22    5.44    2.80
   2  -3 -22    3.09    3.46
   2  -3 -21   21.88    5.08
  -2  -3 -21   31.83    6.74
   2  -3 -20   11.31    4.56
  -2  -3 -20   10.44    3.80
  -2  -3 -20   14.05    4.62
  -2  -3 -19    2.16    3.02
   2  -3 -19    1.78    2.61
  -2  -3 -19    0.66    1.59
   2  -3 -18    7.21    3.10
   2  -3 -18    7.12    3.48
  -2  -3 -18    3.69    2.30
   2  -3 -17    1.37    1.99
   2  -3 -17    1.90    1.56
   2   3 -16   10.00    2.76
   2  -3 -16   13.37    3.26
   2   3 -15   11.71    2.50
   2  -3 -15   14.39    3.38
   2  -3 -15   12.01    3.65
   2   3 -14   26.13    3.77
   2  -3 -14   16.04    3.50
   2  -3 -14   18.47    4.21
   2  -3 -13    3.88    1.60
   2  -3 -13    4.93    2.09
   2   3 -13    4.95    1.19
   2   3 -12   47.05    5.14
   2  -3 -12   47.66    5.59
   2  -3 -12   41.25    6.20
   2  -3 -11   79.23    7.35
   2  -3 -11   66.04    7.81
   2   3 -11   70.64    6.29
   2  -3 -10   78.32    8.13
   2   3 -10   97.36    7.33
   2  -3 -10   88.14    7.67
   2   3  -9   88.36    6.97
   2  -3  -9   82.07    7.35
   2   3  -8   17.01    3.07
   2  -3  -8   18.13    3.76
   2  -3  -8   25.60    3.98
   2  -3  -7   67.13    6.52
   2   3  -7   61.79    5.89
   2  -3  -7   65.65    7.11
   2  -3  -6    2.34    1.28
   2   3  -6    3.77    1.09
   2  -3  -6    2.01    1.64
   2   3  -5  261.14   12.30
   2  -3  -5  290.55   13.87
   2  -3  -5  270.26   12.68
   2   3  -4   26.26    3.94
   2   3  -4   39.89    4.18
   2  -3  -4   32.30    4.38
   2  -3  -4   44.34    4.90
   2  -3  -3   31.26    4.21
   2   3  -3   34.13    4.35
   2   3  -3   35.46    3.89
   2  -3  -2   50.22    5.38
   2   3  -2   64.44    6.31
   2   3  -2   51.53    4.61
   2   3  -1 2059.56   30.48
   2  -3  -1 2050.69   34.15
  -2   3  -1 2109.22   17.99
   2  -3   0  187.00   10.32
  -2   3   0  201.35    6.64
   2   3   0  193.82   10.84
   2  -3   1 2074.91   34.41
  -2   3   1 2000.60   23.86
   2   3   1 2098.04   37.11
  -2  -3   1 2134.85   33.41
   2   3   1 2192.33   32.38
  -2   3   2   59.96    4.49
   2  -3   2   57.55    5.72
  -2  -3   2   55.37    5.27
   2   3   2   60.64    6.52
   2   3   2   49.55    5.07
  -2   3   3   36.66    3.94
   2   3   3   39.12    5.35
   2  -3   3   31.06    4.51
   2   3   3   34.37    4.38
  -2  -3   3   32.96    4.05
  -2  -3   4   35.02    4.15
   2   3   4   35.12    4.69
   2   3   4   34.74    4.89
  -2   3   4   33.67    3.89
   2  -3   4   36.34    4.38
  -2   3   5  265.27   12.18
  -2  -3   5  272.17   11.39
   2   3   5  257.52   12.66
   2  -3   5  290.83   12.74
   2   3   5  267.73   13.79
   2   3   6    1.19    0.74
   2  -3   6    2.12    1.65
   2   3   6    0.44    0.74
  -2   3   6    0.79    1.10
  -2  -3   6    2.73    1.31
   2  -3   7   73.38    6.54
  -2   3   7   74.46    6.81
  -2  -3   7   65.93    5.42
   2   3   7   77.73    7.65
   2   3   7   76.08    7.30
   2  -3   8   23.28    2.43
  -2  -3   8   24.32    3.06
  -2   3   8   25.02    4.46
   2   3   8   27.64    4.56
   2  -3   8   18.55    3.40
   2   3   8   22.76    4.28
   2   3   9   83.53    8.19
   2   3   9   76.43    7.88
  -2  -3   9   91.75    6.23
   2  -3   9   79.38    4.04
  -2   3   9   88.77    8.00
   2  -3   9   90.44    7.57
   2  -3   9   83.18    4.92
   2  -3  10   81.81    5.47
  -2   3  10   78.14    7.61
   2   3  10   92.52    8.63
  -2  -3  10   81.23    5.71
   2  -3  10   97.72    7.46
   2   3  10   78.70    8.12
   2  -3  11   64.26    5.32
  -2  -3  11   68.30    5.11
   2  -3  11   77.71    6.90
  -2   3  11   63.68    7.49
   2   3  11   84.99    9.01
   2   3  11   67.69    7.73
   2   3  12   52.30    7.05
   2   3  12   51.33    6.98
   2  -3  12   47.23    4.88
   2  -3  12   47.15    5.43
  -2  -3  12   44.58    4.00
  -2   3  12   43.38    6.14
  -2   3  13   -1.07    2.55
   2   3  13    4.89    2.63
   2   3  13    3.86    3.20
   2  -3  13    2.89    1.36
   2  -3  13    1.95    1.54
   2   3  14   23.73    4.52
   2  -3  14   22.98    3.78
   2   3  14   24.71    5.19
   2  -3  14   20.96    3.66
  -2   3  14   31.20    5.65
   2  -3  15   15.67    3.72
   2  -3  15   19.03    3.60
   2   3  15   23.34    5.65
  -2   3  15   21.03    4.30
   2  -3  16   12.35    3.10
   2   3  16   19.02    5.51
  -2   3  16    9.10    3.95
  -2   3  17   -1.44    2.28
   2   3  17    1.22    1.85
   2  -3  17    0.30    1.79
   2  -3  18    1.71    1.22
  -2   3  18    1.48    2.19
   2   3  18    5.73    2.13
  -2   3  19    0.79    2.76
   2  -3  19   -0.66    0.98
   2   3  19    1.98    2.99
   2   3  20    4.11    1.57
  -2   3  20    5.16    2.56
  -2   3  21   29.18    6.69
   2   3  21   45.49    7.95
   2   3  22    4.09    1.42
  -2   3  22   10.59    2.89
  -2   3  23   10.13    4.89
   2   3  23    2.25    2.55
   2   3  24    0.55    1.91
  -2   3  24    0.59    2.68
  -2   3  25   24.59    6.97
   2   3  25   42.94    8.57
   2   3  26    7.31    4.39
  -2   3  26    3.18    3.83
  -2   3  27   -0.54    3.15
   2   3  27   -3.19    3.01
  -2   3  28    6.10    3.88
   2   3  28    9.23    4.42
  -2   3  29   41.61    8.67
   2   3  29   37.39    7.41
   2  -4 -25  255.34   20.93
   2  -4 -24   -0.06    3.33
  -2  -4 -23  102.05   12.48
   2  -4 -23  146.60   15.10
   2  -4 -22    7.01    4.30
  -2  -4 -22    6.31    3.23
  -2  -4 -21    9.85    4.27
   2  -4 -21    3.26    2.56
  -2  -4 -21    1.99    2.70
   2  -4 -20   13.86    4.38
  -2  -4 -20   13.73    4.60
  -2  -4 -20   10.85    4.26
  -2  -4 -19  497.10   24.24
   2  -4 -19  459.36   24.44
   2  -4 -19  491.84   23.04
  -2  -4 -19  461.35   24.93
   2  -4 -18  110.60   11.97
   2  -4 -18   93.75   10.01
  -2  -4 -18  105.39   10.98
   2  -4 -17  327.25   18.21
  -2  -4 -17  352.59   19.99
   2  -4 -17  339.51   20.54
  -2  -4 -16   19.22    4.80
   2  -4 -16   23.06    5.71
   2  -4 -16   13.14    3.49
   2  -4 -15  153.51   12.01
   2   4 -15  123.49    9.43
   2  -4 -15  152.50   13.23
   2  -4 -14  140.27   11.43
   2   4 -14  156.98   10.68
  -2  -4 -14  165.02   12.87
   2  -4 -14  170.71   13.68
   2  -4 -13  929.98   31.76
   2  -4 -13  943.25   29.15
  -2  -4 -13  932.31   30.19
   2   4 -13  873.81   24.67
   2   4 -12  231.81   13.10
   2  -4 -12  266.88   15.18
   2  -4 -12  217.69   15.29
   2  -4 -11   73.31    7.85
   2   4 -11   61.47    6.44
   2  -4 -11   58.74    7.90
   2   4 -10    9.69    2.42
   2  -4 -10   13.01    3.49
   2  -4 -10   13.43    4.03
   2   4  -9 1038.89   27.07
   2  -4  -9 1053.99   29.36
   2  -4  -9 1020.87   31.79
   2  -4  -8   97.01    9.53
   2  -4  -8  107.45    9.27
   2   4  -8  119.52    9.19
   2  -4  -7  263.75   14.35
   2  -4  -7  253.24   14.81
   2   4  -7  241.51   13.16
   2  -4  -6  130.08   10.07
   2   4  -6  152.70   10.78
   2   4  -6  137.31    8.55
   2  -4  -5   94.11    8.63
   2   4  -5   77.78    7.34
  -2   4  -5   87.52    7.10
   2   4  -5   89.19    6.66
   2   4  -4  290.93   12.09
  -2   4  -4  288.51   12.99
   2  -4  -4  294.72   14.77
  -2  -4  -4  292.64   15.03
  -2  -4  -3  638.15   21.79
   2  -4  -3  661.04   21.96
   2   4  -3  627.61   17.99
   2   4  -3  666.06   21.97
   2  -4  -2   61.49    6.81
  -2  -4  -2   42.76    5.70
   2   4  -2   42.26    4.72
  -2   4  -2   60.07    6.11
  -2   4  -2   47.88    2.61
   2   4  -2   39.93    5.47
   2   4  -1 3469.51   42.33
  -2  -4  -1 3328.58   50.04
  -2   4  -1 3459.52   26.89
   2   4  -1 3438.90   51.68
   2  -4  -1 3351.69   49.64
   2   4   0  340.71   13.79
  -2   4   0  334.71    9.91
  -2  -4   0  329.36   15.18
   2   4   0  334.04   16.46
   2  -4   0  306.14   14.91
   2  -4   1 3420.38   49.73
   2   4   1 3242.80   51.53
   2   4   1 3172.41   43.61
  -2   4   1 3325.56   34.27
  -2  -4   1 3301.08   47.91
  -2   4   2   48.40    4.59
   2  -4   2   46.21    5.81
  -2  -4   2   43.33    5.56
   2   4   2   44.47    6.02
   2   4   2   50.40    5.40
   2   4   3  631.77   20.21
   2   4   3  686.61   24.12
   2  -4   3  668.31   22.38
  -2  -4   3  660.54   21.08
  -2   4   4  277.47   12.15
   2   4   4  282.52   13.74
   2   4   4  248.92   14.63
  -2  -4   4  291.67   13.79
   2  -4   4  294.78   14.85
   2  -4   5   86.47    7.97
  -2   4   5   78.06    7.15
   2   4   5   81.10    8.42
   2   4   5   73.11    7.28
  -2  -4   5   84.67    7.47
  -2  -4   6  144.34    9.54
  -2   4   6  117.43    8.76
   2   4   6  131.07   10.93
   2  -4   6  145.54   10.25
   2   4   6  139.44   10.48
   2   4   7  249.50   15.30
   2   4   7  258.16   14.37
  -2   4   7  263.48   13.54
   2  -4   7  260.40   13.70
  -2  -4   7  237.50   12.23
   2   4   8   93.61    9.40
   2  -4   8  106.24    8.84
  -2  -4   8   98.18    7.84
   2   4   8   83.72    8.31
  -2   4   8   91.56    8.30
   2  -4   9 1008.24   27.36
   2   4   9  985.02   31.42
  -2   4   9 1022.25   29.01
   2   4   9 1080.97   31.06
  -2  -4   9 1009.52   24.93
  -2  -4  10   14.32    3.04
   2  -4  10   10.27    3.38
   2  -4  10   11.02    2.08
   2   4  10   10.66    3.67
  -2   4  10   11.23    3.48
   2   4  10   10.28    4.04
   2  -4  11   76.06    7.90
  -2   4  11   84.37    8.78
  -2  -4  11   66.02    6.54
   2   4  11   84.22    9.77
   2   4  11   87.26    9.07
  -2   4  12  227.63   14.79
   2   4  12  289.96   16.90
   2  -4  12  285.59   14.79
   2   4  12  258.27   17.06
  -2  -4  12  273.69   12.59
   2  -4  13  922.59   26.82
   2   4  13  910.92   30.91
  -2   4  13  879.75   30.10
   2   4  13  966.99   33.28
   2   4  14  155.91   13.12
   2   4  14  167.56   13.96
   2  -4  14  187.95   12.14
  -2   4  14  175.13   13.76
   2  -4  15  100.03    9.42
   2   4  15  108.70   11.77
  -2   4  15  137.01   12.51
   2   4  15  140.90   12.99
   2   4  16   16.97    4.10
  -2   4  16   16.71    4.61
  -2   4  17  327.19   19.93
   2   4  17  247.22   17.42
  -2   4  18  115.21   12.11
   2   4  18  105.04   11.69
  -2   4  19  474.15   24.88
   2   4  19  432.35   24.04
  -2   4  20   16.47    4.37
   2   4  20   22.41    5.85
  -2   4  21    5.53    3.28
   2   4  21    0.36    2.43
  -2   4  22    3.78    1.89
   2   4  22    3.34    1.69
   2   4  23   93.98   11.32
  -2   4  23  121.69   13.12
   2   4  24   -3.67    2.98
  -2   4  24   -0.48    2.72
  -2   4  25  241.89   19.29
   2   4  25  227.31   18.92
   2   4  26    3.05    3.11
  -2   4  26   10.47    3.97
  -2   4  27    6.85    5.08
   2   4  27   -1.29    3.16
  -2   4  28   16.45    6.68
   2   4  28   27.97    7.73
   2   4  29  195.41   18.44
  -2   4  29  150.87   15.96
   2  -5 -25   36.80    8.00
   2  -5 -24    5.78    3.56
  -2  -5 -24    0.02    2.17
   2  -5 -23   19.68    5.31
  -2  -5 -23   20.49    5.17
   2  -5 -22   40.02    8.41
  -2  -5 -22   45.47    8.52
   2  -5 -21    1.28    2.10
  -2  -5 -21    3.90    3.30
  -2  -5 -21   10.10    4.81
  -2  -5 -20    2.72    3.50
  -2  -5 -20   -0.91    1.85
   2  -5 -20    2.61    2.15
   2  -5 -19   32.43    6.28
  -2  -5 -19   33.71    6.93
  -2  -5 -19   32.63    5.97
   2  -5 -19   29.51    6.63
   2  -5 -18   -1.10    3.65
  -2  -5 -18    6.59    3.01
   2  -5 -18    8.89    3.11
  -2  -5 -17   16.09    4.21
   2  -5 -17   13.27    4.17
   2  -5 -17   18.29    4.70
   2  -5 -16   15.79    4.88
   2  -5 -16   13.75    3.98
  -2  -5 -16   19.61    4.96
   2  -5 -15    5.28    2.09
  -2  -5 -15   15.12    4.16
   2  -5 -15   17.46    4.66
   2  -5 -14   21.89    5.38
   2  -5 -14   17.84    4.81
  -2  -5 -14   10.81    3.48
   2   5 -13  222.42   13.76
   2  -5 -13  220.98   15.36
  -2  -5 -13  198.09   15.09
   2  -5 -13  175.05   14.52
  -2  -5 -12  120.55   11.31
   2  -5 -12  112.85   11.91
   2  -5 -12  114.91   11.13
   2   5 -12  115.35    9.85
   2  -5 -11   12.77    4.21
  -2  -5 -11    8.48    2.87
   2   5 -11    4.69    2.30
   2  -5 -11    7.52    2.37
   2  -5 -10   43.53    6.83
   2   5 -10   36.67    5.64
   2  -5 -10   39.63    6.26
  -2  -5 -10   51.03    7.29
  -2  -5  -9   47.13    7.41
   2  -5  -9   50.05    7.41
   2   5  -9   35.75    4.79
   2   5  -9   28.93    5.01
   2  -5  -9   43.83    6.67
  -2  -5  -8   -0.25    2.09
   2  -5  -8    1.75    2.21
   2  -5  -8   -0.19    2.19
   2   5  -8   -0.03    1.40
   2   5  -8    5.33    2.51
  -2  -5  -7    3.37    2.38
   2  -5  -7   -1.91    1.42
   2   5  -7    0.95    1.44
   2   5  -7   -1.01    1.55
   2   5  -6   23.90    3.72
   2   5  -6   17.69    4.30
  -2   5  -6   20.99    4.10
  -2  -5  -6   17.33    4.18
   2  -5  -6   12.80    3.78
   2   5  -5   39.69    5.99
   2  -5  -5   38.28    5.87
  -2   5  -5   41.23    5.51
   2   5  -5   38.70    4.65
   2   5  -4  202.26   13.62
  -2   5  -4  192.95   12.40
   2   5  -4  190.78   10.41
   2  -5  -4  214.95   13.84
  -2  -5  -4  183.05   13.12
   2  -5  -3  173.31   12.44
  -2   5  -3  208.40   12.90
  -2  -5  -3  184.71   13.10
   2   5  -3  186.78   10.49
   2   5  -3  197.04   13.31
   2   5  -2   45.35    5.28
  -2  -5  -2   43.61    6.33
   2  -5  -2   49.61    6.88
   2   5  -2   52.15    6.89
  -2   5  -2   39.78    5.64
  -2   5  -2   41.45    3.09
   2   5  -1  857.61   23.12
  -2   5  -1  869.44   15.76
  -2   5  -1  881.87   27.16
   2   5  -1  880.76   28.62
   2  -5  -1  877.71   27.76
  -2  -5  -1  928.68   28.56
   2   5   0   71.95    6.67
   2  -5   0   57.66    7.16
   2   5   0   70.81    8.09
  -2  -5   0   63.60    7.46
  -2   5   0   60.92    4.64
  -2   5   0   62.68    7.37
  -2  -5   1  831.04   26.64
   2   5   1  762.92   22.70
  -2   5   1  811.87   18.93
   2   5   1  806.19   27.81
   2  -5   1  855.03   27.66
   2   5   2   42.64    6.26
   2   5   2   34.55    5.34
  -2  -5   2   44.97    6.53
  -2   5   2   51.95    5.21
   2  -5   2   55.69    6.86
  -2   5   3  192.29   10.56
   2   5   3  161.44   12.65
  -2  -5   3  196.60   12.72
   2  -5   3  179.44   12.54
   2   5   3  187.96   11.99
  -2  -5   4  195.44   12.70
   2   5   4  200.17   14.20
   2  -5   4  171.97   12.40
   2   5   4  164.86   11.31
  -2   5   4  170.38   10.09
   2  -5   5   41.61    6.31
   2   5   5   38.70    6.27
  -2  -5   5   49.59    6.38
   2   5   5   40.47    5.93
  -2   5   5   42.88    5.36
   2   5   6   13.88    4.20
   2   5   6   19.67    4.23
  -2  -5   6   22.54    4.75
  -2   5   6   28.02    4.60
   2  -5   6   19.78    4.02
   2  -5   7    2.50    1.97
   2   5   7    0.86    1.87
  -2   5   7   -1.03    0.85
  -2  -5   7   -0.36    0.95
   2   5   7   -1.37    1.44
   2  -5   8   -1.23    1.54
   2   5   8    2.50    3.02
   2   5   8    0.41    1.11
  -2  -5   8   -0.04    1.56
  -2   5   8    1.84    2.34
   2  -5   9   29.69    5.30
  -2  -5   9   37.70    5.78
   2   5   9   29.03    5.72
   2   5   9   41.66    7.11
  -2   5   9   38.61    5.71
   2   5  10   57.51    8.21
   2   5  10   49.83    6.99
   2  -5  10   55.90    7.19
  -2   5  10   52.80    7.35
  -2  -5  10   44.65    6.10
   2  -5  11    5.78    2.56
   2   5  11    9.39    3.84
  -2  -5  11    7.29    2.18
   2   5  11    7.39    3.40
  -2   5  11    4.52    2.31
  -2  -5  12   99.71    9.18
   2   5  12  107.34   10.80
   2   5  12  111.97   11.96
  -2   5  12  116.41   11.14
   2  -5  12   94.91    9.59
  -2   5  13  183.08   14.48
   2  -5  13  210.39   14.04
   2   5  13  211.18   15.60
   2   5  13  219.21   16.89
   2   5  14   11.06    3.80
   2  -5  14   25.14    5.25
  -2   5  14    6.44    2.50
   2   5  14   19.09    5.43
  -2   5  15    7.70    3.12
   2   5  15   14.02    4.96
   2   5  15   13.69    3.70
  -2   5  16   16.80    4.65
   2   5  16   21.31    4.69
  -2   5  17   10.13    3.47
   2   5  17   23.60    5.90
  -2   5  18   16.00    5.50
   2   5  18   10.64    4.14
   2   5  19   19.80    5.14
  -2   5  19   37.85    7.00
  -2   5  20    5.23    2.06
   2   5  20    3.11    3.33
  -2   5  21    0.82    2.26
   2   5  21    4.14    3.81
   2   5  22   30.63    7.71
  -2   5  22   34.76    7.21
  -2   5  23   22.77    6.46
   2   5  23   11.67    3.76
  -2   5  24    9.30    3.72
   2   5  24    4.35    2.18
  -2   5  25   33.84    7.30
   2   5  25   27.30    6.37
   2   5  26    0.75    3.02
  -2   5  26   -0.19    2.17
   2   5  27   38.65    7.88
  -2   5  27   27.28    8.56
   2  -6 -26    4.08    2.30
  -2  -6 -25  114.01   14.38
   2  -6 -25   99.70   13.10
   2  -6 -24   48.17    9.30
  -2  -6 -24   34.75    7.78
  -2  -6 -23   56.82   10.60
   2  -6 -23   40.74    8.74
  -2  -6 -22   50.19    9.16
  -2  -6 -22   66.57   10.62
   2  -6 -22   58.69    9.76
   2  -6 -21   40.79    8.09
  -2  -6 -21   35.52    7.98
  -2  -6 -21   18.97    6.16
   2  -6 -20   43.06    8.14
  -2  -6 -20   33.54    7.59
  -2  -6 -20   34.82    7.67
   2  -6 -20   61.31    9.84
  -2  -6 -19  432.19   25.69
   2  -6 -19  445.18   24.99
  -2  -6 -19  394.29   23.94
   2  -6 -19  414.59   24.80
   2  -6 -18   20.22    5.42
  -2  -6 -18   24.95    6.23
   2  -6 -18   20.60    6.37
   2  -6 -17  143.87   14.06
  -2  -6 -17  155.90   14.33
   2  -6 -17  147.07   14.87
   2  -6 -16   18.93    4.96
   2  -6 -16   18.19    5.49
  -2  -6 -16   22.82    6.01
   2  -6 -15  290.62   20.24
  -2  -6 -15  317.89   20.89
   2  -6 -15  303.73   19.65
   2  -6 -14   90.23   10.49
  -2  -6 -14   65.92    9.25
   2  -6 -14   71.01   10.14
   2  -6 -13 1214.31   40.23
   2  -6 -13 1172.99   37.87
  -2  -6 -13 1200.56   38.20
  -2  -6 -12   30.13    6.30
   2   6 -12   29.28    5.47
   2  -6 -12   36.09    7.13
   2  -6 -12   30.70    7.44
  -2  -6 -11  177.64   14.51
   2  -6 -11  158.98   13.67
   2   6 -11  163.72   13.37
   2  -6 -11  171.84   14.91
   2  -6 -10   74.05    9.87
   2  -6 -10   60.46    8.61
  -2  -6 -10   77.36    9.49
   2   6 -10   69.90    8.60
   2  -6  -9  906.02   32.11
   2   6  -9  937.22   31.32
  -2  -6  -9  934.87   32.71
   2  -6  -9  853.41   32.22
  -2  -6  -8  447.41   22.37
   2  -6  -8  498.87   23.43
   2   6  -8  451.58   17.49
   2   6  -8  415.70   20.62
  -2  -6  -7  782.88   29.41
   2  -6  -7  840.57   30.33
   2   6  -7  867.91   30.42
  -2  -6  -6   16.15    4.75
   2   6  -6   19.11    3.86
   2  -6  -6   16.07    4.68
   2   6  -6   22.04    5.04
   2   6  -5   67.05    6.53
   2  -6  -5   76.41    9.39
  -2   6  -5   77.29    8.59
   2   6  -5   75.36    8.86
  -2  -6  -5   69.61    8.82
   2   6  -4  929.05   24.64
   2  -6  -4  897.61   31.10
  -2  -6  -4  862.58   30.42
  -2   6  -4  864.11   28.69
   2   6  -4  880.91   30.88
  -2  -6  -3  606.09   25.22
  -2   6  -3  597.53   24.08
   2   6  -3  599.01   25.37
   2   6  -3  664.62   21.26
   2  -6  -3  667.02   26.46
  -2   6  -2  276.31   16.46
   2   6  -2  240.61   16.11
  -2   6  -2  228.00    8.55
   2   6  -2  248.39   13.43
  -2  -6  -2  256.76   16.35
   2  -6  -1  734.58   27.80
   2   6  -1  707.22   22.37
  -2   6  -1  720.91   16.24
  -2   6  -1  787.11   28.38
  -2  -6  -1  737.67   27.64
   2   6  -1  779.31   29.06
   2   6   0   71.77    7.58
   2  -6   0   67.83    8.19
   2   6   0   63.60    8.13
  -2   6   0   66.30    5.35
  -2  -6   0   64.23    8.12
   2  -6   1  736.00   27.77
  -2  -6   1  757.00   27.66
   2   6   1  749.66   29.02
   2   6   1  744.86   24.01
  -2   6   1  745.92   20.08
  -2  -6   2  305.16   17.65
   2  -6   2  278.19   16.95
   2   6   2  260.78   17.20
  -2   6   2  266.08   12.78
   2   6   2  272.99   15.29
   2  -6   3  654.89   26.45
   2   6   3  621.38   26.48
   2   6   3  581.03   22.42
  -2   6   3  577.63   19.78
  -2  -6   3  572.62   24.16
  -2  -6   4  849.41   29.35
   2  -6   4  925.63   31.59
  -2   6   4  907.26   25.55
   2   6   4  898.35   32.94
   2   6   5   78.24    8.62
  -2   6   5   79.71    7.91
   2  -6   5   62.42    8.15
   2   6   5   49.61    7.54
  -2  -6   5   53.29    7.55
  -2   6   6   19.80    4.92
   2  -6   6   16.00    4.23
   2   6   6   12.36    3.97
  -2  -6   6   26.41    5.03
   2   6   6   21.37    4.80
   2   6   7  850.03   29.16
   2  -6   7  821.75   29.55
   2   6   7  806.46   31.63
  -2   6   7  788.99   26.47
  -2  -6   7  745.96   27.54
   2   6   8  456.73   23.90
   2   6   8  463.42   22.18
   2  -6   8  473.94   22.67
  -2   6   8  521.71   22.22
  -2  -6   8  500.01   22.38
   2  -6   9  827.68   29.52
  -2   6   9  887.40   29.86
   2   6   9  870.29   33.38
  -2  -6   9  924.13   30.59
  -2  -6  10   80.58    9.07
   2   6  10   62.56    9.26
   2  -6  10   91.23    9.76
   2   6  10   76.97    9.64
  -2   6  10   63.53    9.08
   2   6  11  179.69   15.68
  -2   6  11  164.81   13.86
  -2  -6  11  163.50   12.86
   2  -6  11  165.52   13.33
   2   6  11  164.78   13.91
   2   6  12   32.51    6.95
   2   6  12   32.61    6.76
  -2  -6  12   29.44    5.71
   2  -6  12   33.01    5.94
   2   6  13 1163.52   37.79
   2  -6  13 1065.63   35.12
   2   6  13 1145.70   40.23
  -2   6  13 1111.00   36.47
   2  -6  14   73.26    9.62
   2   6  14   87.05   10.65
   2   6  14   89.39   11.49
  -2   6  14   81.45   10.43
   2   6  15  302.92   20.33
  -2   6  15  315.13   20.50
   2   6  15  293.74   20.92
  -2   6  16   22.05    6.27
   2   6  16   24.00    6.00
  -2   6  17  163.06   14.79
   2   6  17  126.58   13.50
  -2   6  18   20.33    5.97
   2   6  18   19.76    5.39
  -2   6  19  453.91   25.33
   2   6  19  435.80   25.37
   2   6  20   39.31    7.52
  -2   6  20   32.05    7.05
   2   6  21   28.31    6.45
  -2   6  21   44.42    8.71
  -2   6  22   64.41    9.98
   2   6  22   63.89   10.09
  -2   6  23   34.88    7.83
   2   6  23   35.86    7.85
   2   6  24   25.96    7.19
  -2   6  24   39.89    8.72
  -2   6  25  113.00   13.61
   2   6  25  108.31   13.41
  -2   6  26    4.61    3.71
   2   6  26    7.15    3.13
   2  -7 -24   -0.72    2.11
  -2  -7 -24   -1.60    2.64
  -2  -7 -23    5.75    4.57
   2  -7 -23   -1.48    2.35
  -2  -7 -22    7.54    4.61
   2  -7 -22   10.86    4.78
  -2  -7 -22    1.25    2.50
  -2  -7 -21   17.78    7.22
   2  -7 -21   10.46    4.93
  -2  -7 -21    8.73    6.21
   2  -7 -20  121.24   13.92
   2  -7 -20  152.79   15.76
  -2  -7 -20  118.64   14.34
  -2  -7 -20  144.63   16.20
  -2  -7 -19    8.41    3.58
   2  -7 -19   32.70    8.09
   2  -7 -19   30.10    6.73
  -2  -7 -19   23.75    6.14
  -2  -7 -18   41.44    8.29
   2  -7 -18   28.43    7.13
   2  -7 -17    5.37    3.82
   2  -7 -17    8.82    3.57
  -2  -7 -17    4.80    3.77
  -2  -7 -16   27.02    6.37
   2  -7 -16   21.55    5.18
   2  -7 -16   33.94    6.67
   2  -7 -15    0.67    1.91
   2  -7 -15    1.20    2.19
  -2  -7 -15    2.54    3.61
   2  -7 -14  176.10   16.10
  -2  -7 -14  169.66   15.39
   2  -7 -14  168.73   15.32
  -2  -7 -13   54.84    9.00
   2  -7 -13   49.08    8.98
   2  -7 -13   37.45    7.15
   2  -7 -12  110.56   12.80
   2  -7 -12  114.80   12.54
  -2  -7 -12  116.90   12.87
   2  -7 -11  111.79   12.43
   2  -7 -11  105.05   12.22
   2   7 -11   98.81   10.98
   2   7 -10  101.68   10.90
   2  -7 -10  118.98   13.13
   2  -7 -10  111.02   12.09
   2  -7  -9   94.67   10.92
  -2  -7  -9  137.65   13.05
   2  -7  -9  112.61   12.50
   2   7  -9  114.27   11.32
   2  -7  -8  300.16   19.62
   2  -7  -8  251.10   17.96
   2   7  -8  265.42   18.25
  -2  -7  -8  289.74   19.30
   2  -7  -7   -0.24    2.50
  -2  -7  -7    1.03    1.96
   2   7  -7   -2.74    3.25
   2   7  -6  268.50   18.01
  -2  -7  -6  243.42   17.68
   2  -7  -6  261.15   17.69
   2  -7  -5  247.98   17.57
   2   7  -5  225.91   17.00
  -2  -7  -5  254.25   17.80
  -2  -7  -4   13.04    5.32
   2  -7  -4    8.36    1.86
   2   7  -4   19.97    5.99
   2   7  -3  465.46   19.34
   2   7  -3  471.38   24.31
   2  -7  -3  501.76   24.44
   2   7  -2   61.57    7.00
   2   7  -2   72.73    9.36
  -2  -7  -2   76.15    9.59
   2  -7  -2   67.45    9.62
   2   7  -1   43.46    7.14
   2   7  -1   38.91    5.99
   2  -7  -1   38.25    6.46
  -2  -7  -1   37.89    6.67
  -2  -7   0    1.79    1.59
   2   7   0    5.92    2.31
   2  -7   0    4.66    2.61
   2   7   0    1.76    2.16
  -2  -7   1   39.88    7.02
   2   7   1   30.93    6.66
  -2   7   1   38.99    4.99
   2  -7   1   43.76    7.26
   2   7   1   30.45    5.68
   2  -7   2   78.47    9.84
  -2   7   2   49.50    6.02
   2   7   2   74.76    8.38
   2   7   2   63.68    9.69
  -2  -7   2   54.41    8.11
   2  -7   3  516.46   25.20
  -2  -7   3  531.00   25.10
   2   7   3  548.73   23.57
  -2   7   3  563.36   20.92
   2   7   3  487.49   25.30
   2  -7   4   10.57    4.00
   2   7   4    9.06    3.92
  -2  -7   4    9.31    3.14
   2   7   4   11.39    4.96
  -2   7   4    3.80    2.49
   2   7   5  272.24   16.86
  -2  -7   5  220.87   16.27
  -2   7   5  223.60   14.18
   2   7   5  235.97   17.64
   2  -7   5  219.12   16.60
   2   7   6  281.20   17.58
  -2  -7   6  271.26   17.77
   2  -7   6  312.40   19.38
   2   7   6  310.85   21.01
  -2   7   6  270.41   15.93
  -2   7   7    0.88    1.87
   2   7   7    1.34    3.67
   2   7   7   -0.56    2.74
   2  -7   7   -1.18    1.54
  -2  -7   7   -0.51    2.02
   2   7   8  296.25   20.49
   2  -7   8  306.22   19.40
  -2  -7   8  292.11   18.70
   2   7   8  322.55   19.17
  -2   7   8  296.52   17.99
   2   7   9  121.65   13.21
  -2  -7   9  105.36   11.16
  -2   7   9  114.35   11.32
   2   7   9  118.69   11.93
   2  -7   9  111.98   12.06
   2   7  10  108.36   11.41
   2   7  10  138.48   14.12
   2  -7  10  106.99   11.48
  -2  -7  10  105.00   11.85
  -2   7  10  129.22   12.57
   2   7  11  110.03   12.66
  -2   7  11  117.35   11.75
   2   7  11  121.59   12.19
  -2  -7  11  111.25   11.81
   2  -7  11  122.59   12.48
   2   7  12  104.41   12.92
   2   7  12  139.29   13.07
  -2   7  12  129.15   12.69
   2  -7  12  116.09   12.28
   2  -7  13   47.37    8.10
   2   7  13   49.68    9.42
  -2   7  13   47.45    8.15
   2   7  13   61.11    9.39
   2   7  14  156.37   15.70
  -2   7  14  142.10   14.23
   2   7  14  172.52   15.75
   2   7  15    1.68    2.95
  -2   7  15    1.31    3.32
   2   7  16   36.52    7.23
  -2   7  16   42.95    7.98
  -2   7  17    5.87    3.74
   2   7  17   10.98    3.76
  -2   7  18   41.39    7.97
   2   7  18   71.54   10.45
   2   7  19   18.47    5.83
  -2   7  19   15.96    5.28
  -2   7  20  120.98   13.17
   2   7  20  121.97   13.56
  -2   7  21    9.86    3.64
   2   7  21   10.20    5.24
   2   7  22    1.74    2.61
  -2   7  22    6.04    4.42
  -2   7  23   12.92    5.28
   2   7  23   12.27    6.63
   2   7  24   -2.00    2.34
  -2   7  24    5.76    4.16
   2  -8 -22   39.16    8.82
  -2  -8 -22   37.39    7.91
  -2  -8 -22   34.97    9.23
  -2  -8 -21    0.35    3.26
  -2  -8 -21    2.70    3.25
  -2  -8 -20   18.06    6.44
   2  -8 -20   14.45    5.53
   2  -8 -20   14.62    5.26
  -2  -8 -20   14.45    5.55
   2  -8 -19   56.40   10.85
  -2  -8 -19   58.00    9.83
   2  -8 -19   60.12   10.34
  -2  -8 -19   58.62   10.58
   2  -8 -18   -2.39    2.82
   2  -8 -18   -1.33    3.16
  -2  -8 -18    0.12    4.67
   2  -8 -17   63.69   10.54
  -2  -8 -17   61.69    9.98
   2  -8 -17   77.08   10.87
  -2  -8 -16   62.69   10.06
   2  -8 -16   42.43    8.61
   2  -8 -16   47.52    9.06
  -2  -8 -15    4.53    3.90
   2  -8 -15    3.46    2.81
   2  -8 -15    5.99    3.77
   2  -8 -14   15.03    5.53
  -2  -8 -14   28.02    7.08
   2  -8 -14   13.12    5.16
   2  -8 -13   67.43    9.90
  -2  -8 -13   52.88    8.92
   2  -8 -13   42.95    7.90
   2  -8 -12    7.82    3.95
  -2  -8 -12    7.56    4.47
   2  -8 -12    4.33    4.11
   2  -8 -11    9.72    4.90
  -2  -8 -11    6.53    3.27
   2  -8 -11    8.99    5.05
  -2  -8 -10   22.73    5.53
   2  -8 -10   19.55    5.91
   2  -8 -10   19.98    4.94
   2   8 -10   21.60    6.29
   2  -8  -9   91.01   10.95
   2  -8  -9  104.53   12.70
   2   8  -9   86.39   10.85
  -2  -8  -9   76.95   10.42
   2  -8  -8   14.80    5.05
  -2  -8  -8   13.89    3.80
   2  -8  -8   21.49    5.88
   2   8  -8   18.57    4.70
  -2  -8  -7  126.56   13.57
   2  -8  -7   94.97   12.02
   2  -8  -7  133.78   13.87
   2   8  -7  127.60   13.39
   2  -8  -6   35.71    7.58
  -2  -8  -6   27.51    6.40
   2   8  -6   32.20    6.47
   2   8  -5   41.27    7.55
   2  -8  -5   32.18    6.76
  -2  -8  -5   56.91    9.09
  -2  -8  -4  109.32   12.43
   2   8  -4  126.46   13.71
   2  -8  -4  136.03   13.89
   2   8  -3  447.89   25.29
   2  -8  -3  410.27   23.56
  -2  -8  -3  455.56   24.51
   2  -8  -2   10.95    4.45
   2   8  -2   21.01    5.62
  -2  -8  -2   14.87    4.65
   2  -8  -1   19.22    5.19
   2   8  -1   13.41    4.71
  -2  -8  -1   14.17    4.36
  -2  -8   0   27.96    5.58
   2  -8   0   21.20    5.82
   2   8   0    9.46    4.08
   2  -8   1   13.49    4.18
   2   8   1   17.50    5.07
  -2  -8   1   11.93    4.20
   2  -8   2    7.83    3.82
  -2  -8   2   14.77    3.95
   2   8   2   15.55    4.46
   2   8   2   10.34    4.05
   2  -8   3  479.53   25.62
  -2  -8   3  483.35   25.20
   2   8   3  439.71   25.46
   2   8   4  138.99   14.11
   2  -8   4  132.25   13.43
   2   8   4  130.28   12.49
  -2  -8   4  114.39   12.50
   2  -8   5   40.83    8.24
  -2  -8   5   56.34    8.61
   2   8   5   55.40    8.44
   2   8   5   52.60    8.40
   2   8   6   35.89    7.94
   2  -8   6   23.74    6.31
  -2   8   6   31.05    6.12
   2   8   6   14.60    4.79
  -2  -8   6   22.51    5.94
   2   8   7  145.76   14.96
   2  -8   7  130.70   13.79
  -2   8   7  128.08   12.09
   2   8   7  117.27   11.97
  -2  -8   7  130.51   13.42
   2   8   8   13.73    4.57
  -2  -8   8   10.46    3.72
  -2   8   8   14.17    3.67
   2   8   8   14.07    4.57
   2  -8   8   19.32    5.64
  -2  -8   9   81.31   11.23
  -2   8   9   98.68   11.22
   2  -8   9  109.33   11.95
   2   8   9  108.72   12.22
   2   8   9   92.27   11.81
   2  -8  10   15.83    4.41
   2   8  10   28.60    7.10
  -2  -8  10   30.78    6.90
  -2   8  10   35.44    7.06
   2   8  10   15.28    4.96
   2   8  11   12.25    5.09
  -2   8  11    9.64    5.17
  -2  -8  11   22.54    7.29
   2   8  11    8.62    3.27
   2  -8  11    8.68    3.68
   2   8  12    8.26    4.35
  -2   8  12    4.92    3.63
   2  -8  12    2.33    2.68
   2   8  12   13.73    5.33
   2   8  13   45.58    8.67
  -2   8  13   43.04    8.02
   2   8  13   61.37    9.86
   2  -8  13   53.76    9.85
   2   8  14   20.00    5.98
  -2   8  14   13.65    5.17
  -2   8  15    7.19    4.40
   2   8  15    3.62    2.98
   2   8  16   59.17    9.98
  -2   8  16   56.70    9.06
   2   8  17   66.65    9.83
  -2   8  17   47.66    8.34
  -2   8  18    3.97    3.52
   2   8  18   -0.62    2.73
  -2   8  19   75.36   11.46
   2   8  19   54.10    9.11
   2   8  20    8.29    4.54
  -2   8  20   12.03    5.67
   2   8  21    7.98    4.65
  -2   8  21   10.54    5.32
  -2   8  22   37.60    7.68
   2   8  22   44.76    8.44
   2  -9 -19    2.65    3.87
   2  -9 -19    1.47    4.12
  -2  -9 -19    4.52    3.19
  -2  -9 -19   -0.30    3.21
   2  -9 -18    4.50    3.43
   2  -9 -18    2.62    2.99
  -2  -9 -18    7.30    4.73
  -2  -9 -18   13.32    4.78
   2  -9 -17    3.25    2.63
  -2  -9 -17    3.13    4.28
   2  -9 -17    3.43    4.87
  -2  -9 -16    4.19    3.82
   2  -9 -16    9.42    4.21
   2  -9 -16    9.49    4.93
   2  -9 -15    2.96    3.28
   2  -9 -15    3.01    3.20
  -2  -9 -15   -0.80    2.31
  -2  -9 -14   23.79    6.54
   2  -9 -14    7.78    4.64
   2  -9 -14   15.35    6.46
   2  -9 -13    5.97    3.19
   2  -9 -13    7.92    4.02
  -2  -9 -13    5.11    4.14
   2  -9 -12   -0.52    2.30
   2  -9 -12    1.33    2.42
  -2  -9 -12    1.89    1.96
   2  -9 -11    6.89    3.76
   2  -9 -11    6.93    4.10
  -2  -9 -11    1.08    2.07
   2  -9 -10   35.84    7.72
  -2  -9 -10   40.51    7.76
   2  -9 -10   28.36    6.01
   2   9  -9    1.63    2.58
   2  -9  -9   -4.16    4.34
   2  -9  -9    3.62    4.03
  -2  -9  -8    5.97    4.44
   2  -9  -8    1.99    2.59
   2   9  -8    0.10    2.62
   2  -9  -8    1.04    2.72
   2  -9  -7    9.69    3.88
   2   9  -7    9.25    4.57
   2  -9  -7    5.97    3.86
  -2  -9  -7    0.67    2.22
  -2  -9  -6   38.16    7.66
   2  -9  -6   26.92    6.55
   2   9  -6   38.48    7.58
   2  -9  -6   43.94    8.57
   2  -9  -5   25.03    6.44
   2   9  -5   35.02    7.40
   2  -9  -5   36.99    7.10
  -2  -9  -5   46.21    8.36
   2  -9  -4   27.62    6.77
  -2  -9  -4   18.38    4.97
   2   9  -4    8.98    4.39
   2  -9  -3   74.73   10.49
  -2  -9  -3   60.18    9.72
   2   9  -3   55.14    9.44
   2   9  -2   19.69    5.84
  -2  -9  -2   18.94    5.83
   2  -9  -2   20.04    6.01
  -2  -9  -1   18.27    5.07
   2  -9  -1   14.41    4.64
   2   9  -1   16.71    5.68
   2  -9   0   13.58    4.46
  -2  -9   0   17.69    4.78
   2   9   0   24.45    6.00
   2  -9   1   15.44    4.14
  -2  -9   1   17.48    4.93
   2   9   1   21.36    6.25
   2   9   2   24.94    5.98
   2  -9   2   24.16    6.95
  -2  -9   2   17.61    5.63
  -2  -9   3   53.81    9.04
   2  -9   3   71.24   10.66
   2   9   3   78.55   11.31
   2  -9   4    9.47    4.18
  -2  -9   4   13.87    4.48
   2   9   4    9.18    4.43
  -2  -9   5   33.21    7.13
   2  -9   5   47.10    8.36
   2   9   5   46.66    8.68
   2   9   6   30.81    7.50
   2  -9   6   36.46    7.66
  -2  -9   6   45.57    8.02
   2   9   7    6.78    4.93
   2  -9   7    4.61    1.99
  -2  -9   7    5.87    2.84
   2   9   7    3.48    2.68
   2  -9   8    1.32    2.64
   2   9   8    4.32    3.50
   2   9   8   -2.98    2.67
  -2  -9   8    3.54    3.32
  -2  -9   9    4.98    3.78
   2   9   9   -1.23    2.18
   2  -9   9    1.35    1.81
   2   9   9    4.02    4.14
   2   9  10   25.22    5.96
  -2  -9  10   39.98    8.11
   2   9  10   29.63    7.49
   2  -9  10   26.63    6.71
   2  -9  11    2.49    3.82
   2   9  11   -0.85    2.81
   2   9  11    9.92    4.57
   2   9  12   -3.00    2.00
   2  -9  12   -4.67    3.48
  -2   9  12    1.82    3.73
   2   9  12    3.15    2.38
   2   9  13    5.46    3.84
  -2   9  13    9.91    4.97
  -2   9  14   22.12    6.68
   2   9  14   21.13    6.37
  -2   9  15    7.09    5.19
   2   9  15    5.29    4.43
   2   9  16    1.03    3.59
  -2   9  16   12.08    4.82
  -2   9  17    0.46    3.37
   2   9  17   -6.21    4.97
   2   9  18   14.37    5.97
  -2   9  18   10.59    6.31
  -2   9  19    2.98    4.97
   2   9  19   -2.00    5.54
   2 -10 -15   18.08    5.93
  -2 -10 -15   29.78    6.60
   2 -10 -15   35.12    8.87
  -2 -10 -14   41.73    8.17
   2 -10 -14   33.31    8.45
   2 -10 -14   53.91   10.15
  -2 -10 -13   81.03   12.08
   2 -10 -13  100.51   13.29
   2 -10 -13  100.88   12.99
   2 -10 -12    2.67    2.70
  -2 -10 -12    2.30    3.57
   2 -10 -12    2.07    2.37
   2 -10 -11   48.97    8.92
  -2 -10 -11   42.79    8.88
   2 -10 -11   48.62    9.26
   2 -10 -10    7.88    3.87
  -2 -10 -10   14.15    4.95
   2 -10 -10    6.70    4.19
  -2 -10  -9   32.96    7.58
   2 -10  -9   27.69    7.02
   2 -10  -8   17.59    6.56
   2 -10  -8   16.39    4.92
  -2 -10  -8   15.96    5.44
   2  10  -7  232.34   20.27
  -2 -10  -7  191.40   17.83
   2 -10  -7  213.49   18.74
   2 -10  -7  222.99   19.44
   2 -10  -6   40.09    8.78
   2  10  -6   43.25    9.90
   2 -10  -6   34.08    8.49
  -2 -10  -6   24.71    6.81
   2 -10  -5   14.98    6.24
   2 -10  -5    5.66    2.29
   2  10  -5    0.07    2.75
  -2 -10  -5   17.47    5.18
   2  10  -4   38.77    8.16
   2 -10  -4   24.76    6.53
   2 -10  -4   34.98    7.62
  -2 -10  -4   44.43    8.95
   2 -10  -3  107.35   13.17
  -2 -10  -3   98.15   12.58
   2 -10  -3  124.23   14.79
   2  10  -3   85.68   12.75
  -2 -10  -2   39.84    8.38
   2 -10  -2   30.75    7.63
   2 -10  -2   59.09   10.05
   2  10  -2   49.73    9.56
   2 -10  -1    2.81    1.85
   2 -10  -1    1.23    3.37
  -2 -10  -1    1.20    2.86
   2  10  -1   -1.97    3.54
   2 -10   0    7.75    4.44
   2 -10   0    4.37    1.96
  -2 -10   0    8.70    2.93
   2  10   0    5.19    3.86
   2 -10   1    4.91    2.83
  -2 -10   1    7.73    4.80
   2 -10   1   -3.52    3.32
   2  10   1    6.35    3.64
   2 -10   2   56.92    9.32
  -2 -10   2   57.58    9.83
   2 -10   2   30.92    7.95
   2  10   2   48.80    9.81
   2  10   3  115.34   14.67
   2 -10   3  109.80   14.02
  -2 -10   3  147.10   15.60
   2 -10   3  108.57   13.57
   2  10   4   44.49    9.04
   2 -10   4   39.43    8.59
  -2 -10   4   18.79    5.72
   2 -10   4   27.08    8.85
   2 -10   5    5.27    1.77
  -2 -10   5    9.45    3.58
   2  10   5   12.64    5.40
  -2 -10   6   39.13    7.63
   2  10   6   42.67    8.60
   2 -10   6   24.24    6.60
   2 -10   7  192.68   17.75
   2  10   7  193.92   18.86
  -2 -10   7  182.81   17.92
  -2 -10   8    5.98    3.65
   2  10   8   18.60    7.04
   2 -10   8   15.99    4.94
   2  10   9   32.11    7.70
   2 -10   9   45.42    8.18
  -2 -10   9   38.32    8.48
   2  10  10   13.06    5.98
   2 -10  10    3.06    2.60
   2 -10  11   46.94    9.58
   2  10  15   29.22    7.42
   2 -11 -10    2.31    3.03
   2 -11 -10   -1.93    2.85
   2 -11  -9    0.63    3.08
   2 -11  -9    1.08    3.35
  -2 -11  -9    2.98    3.96
   2 -11  -8    0.25    3.76
  -2 -11  -8   -0.56    2.00
   2 -11  -8   -0.27    2.06
  -2 -11  -7   -2.18    1.81
   2 -11  -7    0.13    3.22
   2 -11  -6   21.32    5.57
   2 -11  -6   14.92    5.99
  -2 -11  -6   15.73    5.42
   2  11  -5    6.03    3.06
   2 -11  -5    0.55    2.06
   2 -11  -5    0.58    2.07
  -2 -11  -5   -2.35    1.97
   2 -11  -4   -1.08    2.76
  -2 -11  -4    0.97    2.78
   2 -11  -4    4.64    4.44
   2  11  -4    2.52    4.49
   2  11  -3    7.09    3.98
  -2 -11  -3   10.50    5.67
   2 -11  -3    5.12    2.40
   2 -11  -2    6.25    4.89
   2  11  -2    3.02    3.26
   2 -11  -2    9.74    4.98
  -2 -11  -2    4.73    5.04
   2 -11  -1    9.23    4.95
  -2 -11  -1   11.69    4.44
   2 -11  -1    8.37    3.91
   2  11  -1   20.25    6.30
   2 -11   0    1.45    2.75
   2 -11   0   -2.99    2.60
   2  11   0    1.90    3.14
  -2 -11   0    3.44    3.49
   2 -11   1    9.41    4.33
  -2 -11   1   16.92    5.95
   2  11   1   14.52    4.42
   2 -11   1    5.33    4.26
  -2 -11   2    9.06    4.61
   2 -11   2   11.65    5.06
   2 -11   2    3.46    3.60
   2  11   2    4.81    4.14
   2  11   3   21.62    7.54
   2 -11   3   10.85    5.58
  -2 -11   3   29.94    8.41
   2  11   4    9.69    5.02
   2 -11   4    4.93    4.24
  -2 -11   4    0.58    4.74
   2  11   5    9.61    5.16
   2 -11   5    5.39    3.35
  -2 -11   5   -2.59    4.21
   2 -11   6   18.95    6.36
   2  11   6   14.94    5.34
  -2 -11   6   12.95    4.80
   2  11   7    6.75    4.89
   2 -11   7    2.01    3.65
  -2 -11   7   -1.17    2.02
  -2 -11   8    2.21    4.00
   2 -11   8    2.53    2.63
   2 -11   9    4.47    4.25
   2 -11  10   12.14    5.89
   3   0 -20   -0.75    1.88
   3   0 -19    1.37    2.26
   3   0 -18    0.76    1.31
  -3   0 -17   -0.10    1.09
   3   0 -17   -0.81    1.65
   3   0 -16    0.60    1.45
  -3   0 -16   -0.16    0.95
  -3   0 -15   -0.70    1.09
   3   0 -15    1.50    1.45
   3   0 -14   -0.06    1.00
  -3   0 -14    1.56    1.43
   3   0 -13   -0.26    0.98
   3   0 -12    1.01    1.08
   3   0 -11   -0.41    0.83
   3   0 -10   -0.33    0.59
   3   0  -9   -0.22    0.71
   3   0  -9   -0.16    0.30
   3   0  -8    0.15    0.39
   3   0  -8   -0.05    0.47
   3   0  -7    0.75    1.01
   3   0  -7    0.30    0.25
   3   0  -6   -0.40    0.40
   3   0  -6    1.31    1.04
   3   0  -5    0.25    0.30
   3   0  -5    0.65    1.29
   3   0  -4   -0.11    0.71
   3   0  -4    0.31    0.66
   3   0  -3   -0.61    0.78
   3   0  -3   -0.29    0.89
   3   0  -2    0.37    0.85
   3   0  -2    0.34    0.36
   3   0  -1    1.21    0.73
   3   0  -1    0.68    0.87
   3   0   0   -0.54    0.74
   3   0   0    0.54    1.02
   3   0   1    0.31    0.94
   3   0   1   -0.17    0.64
   3   0   1    0.25    0.68
   3   0   2    0.74    0.94
   3   0   2    0.17    0.46
   3   0   2   -0.24    0.46
   3   0   3    0.77    0.53
   3   0   3    0.51    0.56
   3   0   3    1.69    1.14
   3   0   4   -0.62    0.63
   3   0   4    0.26    0.84
   3   0   4    0.81    0.71
   3   0   5    0.37    1.05
   3   0   5    2.61    0.99
   3   0   5    0.27    0.93
   3   0   6    0.56    1.29
   3   0   6    0.49    0.74
   3   0   6   -0.20    0.42
   3   0   7   -0.53    1.19
   3   0   7    0.23    0.56
   3   0   8    0.34    0.61
   3   0   8    0.68    1.46
   3   0   9    0.99    1.35
   3   0   9    0.52    0.60
   3   0  10    1.13    1.22
   3   0  10    0.42    1.44
   3   0  11   -0.81    1.20
   3   0  11   -0.45    0.91
   3   0  12   -0.36    1.22
   3   0  12    0.71    1.06
   3   0  13    0.59    1.84
   3   0  14    0.33    1.09
   3   0  15    0.59    1.92
   3   0  16   -1.04    1.41
   3   0  17    1.34    1.36
   3   0  18    1.07    2.26
   3   0  19    1.00    3.28
   3   0  20    0.23    1.43
   3   0  21    0.01    1.67
   3   0  22    0.66    2.04
   3   0  23    2.72    1.50
   3   0  24   -0.40    1.98
   3   0  25   -1.49    1.63
   3   0  26   -1.97    2.52
   3   0  27    0.87    2.76
   3   0  28    1.13    2.93
   3   0  29   -5.63    2.58
   3   0  30   -5.62    2.95
   3  -1 -22   82.02   10.64
   3  -1 -21   14.62    4.12
   3  -1 -20  108.42   10.78
   3   1 -19  209.87   13.65
   3  -1 -19  230.94   15.32
   3  -1 -18   30.29    5.47
   3   1 -18   29.90    5.19
  -3  -1 -18   39.83    5.68
  -3  -1 -17  243.09   13.18
   3  -1 -17  229.37   14.56
   3   1 -17  239.44   13.89
   3  -1 -16   98.90    9.10
   3  -1 -16   86.24    5.44
   3   1 -16   82.29    7.98
   3   1 -15   63.23    6.74
   3  -1 -15   62.84    7.12
   3  -1 -15   47.26    4.14
   3  -1 -14  178.82   11.84
   3   1 -14  161.10   10.46
   3  -1 -14  160.87    7.37
   3   1 -13  680.07   20.88
   3  -1 -13  642.72   22.09
   3  -1 -13  666.30   14.98
   3  -1 -12  543.93   20.35
   3  -1 -12  557.55   13.70
   3   1 -12  586.94   18.85
   3  -1 -11  168.30   10.51
   3  -1 -11  165.74    7.38
   3   1 -11  155.99    9.69
   3  -1 -10  248.34    8.90
   3   1 -10  252.27   11.82
   3  -1 -10  254.03   12.71
   3  -1  -9  940.85   24.00
   3   1  -9  912.63   22.53
   3   1  -8  336.74   12.84
   3  -1  -8  348.05   10.36
   3  -1  -8  309.40   13.18
   3   1  -7  484.74   15.09
   3  -1  -7  480.14   15.94
   3  -1  -7  478.38   12.16
   3   1  -6 1498.25   25.71
   3  -1  -6 1517.41   21.47
   3  -1  -6 1495.93   27.48
   3  -1  -5  124.96    7.66
   3  -1  -5  125.67    6.22
   3   1  -5  121.28    7.34
   3  -1  -4  865.95   16.53
   3   1  -4  904.94   19.58
   3  -1  -4  888.34   19.52
   3  -1  -3 4661.95   38.42
   3  -1  -3 4693.44   43.55
   3   1  -3 4627.16   44.17
   3   1  -2 1644.07   25.52
   3  -1  -2 1626.93   24.79
   3  -1  -1  892.21   17.62
   3   1  -1  908.44   18.88
   3  -1   0  900.62   17.05
   3   1   0  933.58   19.04
   3  -1   0  953.75   18.02
   3   1   0  971.69   19.50
   3  -1   1  953.55   16.64
   3   1   1  978.60   19.70
   3  -1   2 1692.15   21.10
   3   1   2 1679.58   25.99
   3  -1   2 1619.90   20.35
   3   1   2 1675.07   26.45
   3  -1   3 4743.53   33.24
   3   1   3 4658.19   45.82
   3   1   3 4641.51   43.46
   3  -1   3 4677.15   35.64
   3   1   4  891.72   19.30
   3  -1   4  875.86   13.60
   3  -1   4  872.24   18.78
   3   1   4  871.37   20.42
   3  -1   4  841.85   15.35
   3  -1   5  111.94    4.62
   3  -1   5  107.12    5.87
   3   1   5  110.31    6.90
   3   1   5  110.77    7.79
   3  -1   5  113.82    6.84
   3  -1   6 1490.12   23.46
   3  -1   6 1473.36   15.91
   3   1   6 1523.16   28.70
   3   1   6 1569.46   26.64
   3  -1   6 1543.55   25.86
  -3   1   7  492.49   16.47
   3  -1   7  519.10   14.56
   3  -1   7  493.28    8.57
   3  -1   7  478.42   15.02
   3   1   7  484.12   15.25
   3   1   7  525.89   17.58
   3   1   8  315.03   12.83
   3  -1   8  337.23   12.82
   3   1   8  307.61   13.89
   3  -1   8  330.60   12.23
  -3   1   8  304.18   13.71
  -3   1   9  901.04   24.73
   3   1   9  980.44   22.59
   3  -1   9  899.73   21.70
   3  -1   9  992.09   22.17
   3   1   9  961.85   25.83
  -3   1  10  234.91   13.02
   3  -1  10  228.81   11.01
   3   1  10  269.34   12.05
   3  -1  10  255.40   11.80
   3   1  10  238.43   13.12
  -3   1  11  157.99   10.94
   3  -1  11  167.49    9.46
   3  -1  11  161.09    9.95
   3   1  11  165.31    9.58
   3   1  11  182.99   11.85
   3   1  12  554.40   18.61
   3  -1  12  596.42   18.42
   3  -1  12  602.09   20.16
   3   1  12  593.94   22.21
  -3   1  12  599.60   22.39
   3   1  13  667.75   20.35
  -3   1  13  629.04   23.91
   3  -1  13  646.13   22.62
   3   1  13  600.24   23.17
   3   1  14  154.52   10.18
   3  -1  14  178.19   11.74
   3   1  14  164.70   12.37
  -3   1  14  161.38   12.30
   3   1  15   47.66    6.62
   3  -1  15   46.04    6.47
  -3   1  15   59.93    7.93
   3  -1  16   90.52    9.02
  -3   1  16   93.30    9.83
  -3   1  17  248.92   16.57
   3   1  17  252.63   16.93
   3  -1  17  270.49   16.09
   3  -1  18   26.95    5.94
  -3   1  18   33.56    6.34
   3   1  18   13.97    4.19
   3  -1  19  216.41   15.54
   3   1  19  215.93   16.00
  -3   1  19  257.22   17.73
   3   1  20  135.90   12.74
   3  -1  20  108.75   11.18
  -3   1  20  104.70   11.52
  -3   1  21   12.38    4.97
   3  -1  21    9.18    3.91
   3   1  21   13.36    4.14
  -3   1  22   83.60   10.71
   3  -1  22   83.98   10.46
   3   1  22   71.25    9.66
   3   1  23  266.82   19.43
   3  -1  23  244.82   18.43
   3   1  24   68.73   10.24
   3  -1  24   54.48    9.08
   3   1  25   97.13   12.36
   3  -1  25   80.57   11.29
   3  -1  26   18.12    5.60
   3   1  26   26.02    6.70
   3  -1  27   35.75    7.59
   3   1  27   43.62    8.26
   3   1  28   71.94   11.46
   3   1  29   80.79   11.77
   3   1  30   19.18    6.26
   3  -2 -23   43.98    8.58
   3  -2 -22    6.92    3.98
   3  -2 -21   69.65    8.97
   3  -2 -20   21.73    5.06
  -3  -2 -20   23.42    4.87
  -3  -2 -19   53.17    7.79
   3  -2 -19   41.56    6.91
  -3  -2 -18   14.31    4.00
   3   2 -18   18.87    3.64
   3  -2 -18   25.25    4.36
   3  -2 -17    0.05    1.32
   3   2 -17    8.99    2.89
   3  -2 -17    7.85    3.04
   3  -2 -16   25.88    4.05
   3   2 -16   19.56    3.67
   3  -2 -16   23.72    4.74
   3   2 -15   57.03    6.42
   3  -2 -15   77.12    8.23
   3  -2 -15   60.66    5.84
   3   2 -14    3.15    1.76
   3  -2 -14    5.10    1.51
   3  -2 -14    2.67    1.87
   3  -2 -13    3.38    1.77
   3   2 -13    1.54    1.27
   3  -2 -13    1.51    2.24
   3  -2 -12   46.50    5.95
   3   2 -12   51.77    5.79
   3  -2 -12   53.68    5.37
   3   2 -11  353.39   14.36
   3  -2 -11  356.23   16.41
   3  -2 -11  344.28   13.42
   3  -2 -10  112.87    9.04
   3   2 -10  107.53    7.86
   3  -2 -10  115.76    7.63
   3  -2  -9   21.04    3.19
   3  -2  -9   23.22    3.93
   3   2  -9   22.87    3.58
   3  -2  -8  104.82    7.17
   3   2  -8  100.03    7.54
   3  -2  -8   99.48    8.10
   3  -2  -7   60.35    5.43
   3   2  -7   49.42    5.26
   3  -2  -7   70.30    6.63
   3  -2  -6  252.99   11.07
   3  -2  -6  249.64   12.22
   3   2  -6  240.16   11.27
   3   2  -5  376.20   13.84
   3  -2  -5  349.67   13.01
   3  -2  -5  354.62   14.18
   3   2  -4   67.95    5.82
   3  -2  -4   57.26    5.10
   3  -2  -4   61.61    5.80
   3  -2  -3 1985.36   32.14
   3  -2  -3 1983.19   30.70
   3   2  -2 1129.18   22.55
   3  -2  -2 1131.93   22.86
   3  -2  -2 1102.41   23.16
   3   2  -2 1105.07   23.63
   3   2  -1  444.62   15.13
   3  -2  -1  427.81   13.91
   3   2  -1  424.69   13.97
   3   2   0  380.95   13.38
   3   2   0  386.46   14.34
   3  -2   0  378.69   13.11
   3  -2   0  373.04   12.40
   3   2   1  442.23   15.28
   3  -2   1  434.77   14.21
   3  -2   1  450.64   13.11
   3   2   1  479.46   15.36
   3   2   2 1133.02   25.15
   3  -2   2 1071.36   22.43
   3   2   2 1102.98   23.82
   3  -2   2 1095.02   19.57
   3  -2   3 2090.94   31.77
   3  -2   3 2060.76   25.04
   3   2   3 2082.41   34.96
   3   2   4   71.25    6.42
  -3   2   4   71.73    5.67
   3   2   4   68.34    6.49
   3  -2   4   65.00    3.39
   3  -2   4   65.22    4.22
   3  -2   5  343.23    9.16
   3   2   5  358.18   14.76
   3  -2   5  341.72    8.52
   3  -2   5  380.39   13.73
   3   2   5  329.26   14.05
  -3   2   5  352.76   13.05
   3   2   6  243.37   12.45
   3  -2   6  249.60    7.10
   3   2   6  247.16   12.61
  -3   2   6  255.09   11.79
   3  -2   6  259.07   11.42
   3  -2   6  270.10    8.20
   3   2   7   63.87    6.70
   3  -2   7   64.69    4.41
  -3   2   7   56.50    5.79
  -3  -2   7   58.84    4.03
   3  -2   7   63.44    5.69
   3  -2   7   63.89    3.18
   3   2   7   76.49    7.34
   3   2   8   92.83    8.29
  -3  -2   8  101.58    5.07
   3   2   8  111.46    8.74
   3  -2   8  114.81    7.85
  -3   2   8  103.08    8.18
   3  -2   8   95.45    5.80
   3  -2   9   21.83    3.58
   3   2   9   22.20    4.16
  -3  -2   9   20.04    2.11
  -3   2   9   16.86    3.63
   3  -2   9   22.03    2.87
   3   2   9   23.17    4.20
  -3   2  10   93.89    8.10
  -3  -2  10  100.06    4.43
   3   2  10  121.82   10.01
   3  -2  10  107.56    7.39
   3  -2  10   87.99    7.31
   3   2  10  110.84    9.05
   3   2  11  342.58   17.02
   3   2  11  347.96   16.34
   3  -2  11  335.69   13.33
   3  -2  11  347.39   14.40
  -3   2  11  293.60   15.30
   3  -2  12   50.99    5.70
  -3   2  12   42.12    5.85
   3   2  12   62.58    7.60
   3   2  12   51.19    6.16
   3  -2  12   45.89    5.26
   3  -2  13    1.49    1.91
  -3   2  13    5.64    2.83
   3   2  13    2.02    1.80
   3   2  13    3.84    1.64
   3  -2  13    4.35    1.82
   3   2  14    7.87    3.23
   3  -2  14    5.09    2.34
   3   2  14    3.94    1.64
  -3   2  14    9.00    3.17
   3  -2  14    2.41    1.27
   3   2  15   74.28    8.59
   3  -2  15   69.83    7.50
  -3   2  15   77.38    8.76
   3   2  15   75.07    9.06
   3  -2  15   64.59    6.75
   3   2  16   15.52    3.89
  -3   2  16   29.97    5.67
   3  -2  16   18.33    3.45
   3  -2  16   20.68    4.01
   3   2  17    9.32    3.86
   3  -2  17    3.12    1.29
  -3   2  17   12.22    4.00
   3  -2  18   26.04    5.11
   3   2  18   18.53    5.22
  -3   2  18   23.67    5.63
   3   2  19   53.00    8.39
   3  -2  19   42.65    7.31
  -3   2  19   32.27    6.67
  -3   2  20   28.72    6.66
   3  -2  20   25.53    5.76
   3   2  20   29.97    5.99
   3   2  21   58.75    9.22
  -3   2  21   83.00   10.43
   3  -2  21   75.72    9.66
   3   2  22    4.13    3.74
   3  -2  22    5.54    3.05
  -3   2  22    4.38    3.21
   3  -2  23   59.53    9.97
   3   2  23   45.47    8.74
  -3   2  23   63.07    9.23
   3   2  24    7.42    4.83
  -3   2  24   17.58    5.15
  -3   2  25    1.60    4.16
   3   2  25    8.42    3.87
   3   2  26    4.41    2.55
  -3   2  26    5.10    2.20
   3   2  27   35.10    7.60
   3   2  28   19.66    6.78
   3   2  29   59.03    9.88
   3   2  30   -1.33    3.70
   3  -3 -24    6.19    4.16
   3  -3 -23  178.02   16.25
   3  -3 -22   30.63    6.22
  -3  -3 -21    5.72    2.54
   3  -3 -21    2.48    3.27
  -3  -3 -20   17.17    4.61
   3  -3 -20   14.03    4.95
   3  -3 -19  135.18   12.80
   3  -3 -18  141.71   11.05
   3  -3 -18  158.87   13.58
   3  -3 -17  132.09   11.90
   3  -3 -17  116.81    9.61
   3  -3 -16   98.67   10.17
   3  -3 -16   93.59    8.48
   3   3 -16   76.03    7.48
   3  -3 -15  201.91   14.49
   3   3 -15  179.59   11.84
   3  -3 -15  190.64   12.30
   3  -3 -14   29.76    5.29
   3  -3 -14   25.09    4.25
   3   3 -14   24.09    4.34
   3  -3 -13  700.57   25.88
   3  -3 -13  718.53   22.96
   3  -3 -12 1141.64   32.53
   3  -3 -12 1107.70   27.98
   3   3 -11  100.95    8.16
   3  -3 -11  118.69    9.15
   3  -3 -11  108.44    9.82
   3   3 -10  306.07   14.42
   3  -3 -10  355.61   17.60
   3  -3 -10  343.15   15.32
   3   3  -9 1564.22   32.03
   3  -3  -9 1623.71   33.11
   3  -3  -8   46.21    5.57
   3  -3  -8   41.01    5.82
   3   3  -8   36.65    5.01
   3  -3  -7 1087.31   29.45
   3   3  -7 1174.16   27.36
   3  -3  -7 1127.90   26.97
   3  -3  -6 1300.37   28.80
   3   3  -6 1275.97   28.49
   3  -3  -6 1265.10   31.14
   3  -3  -5  168.04   10.25
   3  -3  -5  185.67   11.55
   3   3  -5  165.54   10.24
   3   3  -4 2345.92   39.31
   3  -3  -4 2345.79   38.31
   3   3  -4 2450.23   36.03
   3  -3  -4 2346.71   40.24
   3   3  -3 4549.96   53.83
   3  -3  -3 4523.14   53.47
   3  -3  -3 4468.27   53.85
   3   3  -3 4375.34   49.13
   3  -3  -2  835.48   22.70
   3   3  -2  790.09   22.78
   3   3  -2  832.07   21.14
   3  -3  -1 1152.56   26.14
   3  -3  -1 1099.14   25.86
   3   3  -1 1164.08   27.62
   3  -3   0  825.77   21.57
   3   3   0  754.80   20.51
   3   3   0  760.91   22.75
   3  -3   0  743.42   21.27
   3   3   1 1159.59   28.48
   3  -3   1 1146.78   26.25
   3   3   1 1136.62   25.68
   3  -3   1 1108.09   24.13
   3  -3   2  861.06   20.56
   3   3   2  888.08   23.07
  -3   3   2  891.44   18.11
   3  -3   2  864.87   22.69
   3   3   2  897.69   25.05
   3  -3   3 4499.15   45.47
   3  -3   3 4471.69   52.25
   3   3   4 2334.09   39.37
   3  -3   4 2303.34   37.77
   3  -3   4 2290.96   31.59
   3   3   4 2307.42   41.95
  -3   3   5  158.33    9.10
   3  -3   5  152.89    7.78
   3  -3   5  153.79    9.83
   3   3   5  148.74   10.98
  -3  -3   5  156.39    8.75
  -3   3   6 1336.93   27.90
   3  -3   6 1247.54   28.29
   3   3   6 1379.45   31.59
   3   3   6 1287.40   32.44
   3  -3   6 1239.72   20.81
  -3  -3   6 1312.24   24.97
   3   3   7 1102.81   29.24
  -3   3   7 1094.08   26.50
   3  -3   7 1127.99   18.40
   3  -3   7 1085.59   13.62
   3   3   7 1115.59   30.15
   3  -3   7 1085.34   26.80
  -3  -3   7 1126.33   22.87
   3  -3   8   47.85    5.59
  -3   3   8   48.19    6.02
   3  -3   8   54.37    3.60
   3   3   8   53.60    6.59
   3  -3   8   48.51    3.50
  -3  -3   8   55.35    4.98
   3   3   8   51.37    6.73
   3  -3   9 1675.29   32.93
  -3   3   9 1559.72   34.07
   3   3   9 1603.36   37.01
   3  -3   9 1636.58   21.98
  -3  -3   9 1614.06   26.08
   3   3   9 1640.12   37.58
  -3  -3  10  343.35   11.62
   3   3  10  347.56   17.63
   3  -3  10  350.93   11.32
  -3   3  10  312.47   15.93
  -3   3  11  111.94    9.65
   3  -3  11  109.31    9.04
  -3  -3  11   99.98    6.17
   3   3  11  101.72    9.81
   3  -3  11   85.79    6.12
   3   3  11   92.87    9.37
   3   3  12 1134.48   33.10
   3  -3  12 1133.61   28.21
   3  -3  12 1058.92   23.01
   3   3  12 1146.84   33.44
  -3   3  12 1090.73   31.08
   3   3  13  704.33   26.78
   3   3  13  610.40   25.39
   3  -3  13  616.63   18.64
  -3   3  13  689.93   25.51
   3  -3  13  735.06   22.86
   3  -3  14   28.27    4.31
   3   3  14   30.71    6.15
   3   3  14   34.51    5.98
  -3   3  14   33.96    6.12
   3  -3  14   32.67    4.80
   3   3  15  195.47   14.42
   3   3  15  201.34   15.00
   3  -3  15  178.73   11.33
  -3   3  15  171.24   13.44
   3  -3  15  180.28   11.72
  -3   3  16  109.42   11.17
   3   3  16   94.86   10.67
   3  -3  16   75.37    7.89
   3   3  16   80.55    9.12
   3  -3  16   77.13    7.82
   3   3  17  124.28   12.40
   3  -3  17  119.44   10.30
  -3   3  18  146.74   13.28
   3   3  18  165.17   14.74
   3   3  19  145.01   13.83
  -3   3  19  125.51   12.58
  -3   3  20   10.57    4.49
   3   3  20   14.16    4.76
   3   3  21   -1.06    2.32
  -3   3  21    3.74    4.49
  -3   3  22   28.33    6.59
   3   3  22   31.21    6.42
   3   3  23  182.17   16.62
  -3   3  23  201.76   17.19
   3   3  24    2.86    2.31
  -3   3  24    9.32    3.63
   3   3  25  117.46   13.46
  -3   3  25  125.87   14.26
  -3   3  26   67.44   10.60
   3   3  26  112.58   13.56
  -3   3  27  134.17   14.71
   3   3  27  118.53   13.95
  -3   3  28   63.56   10.48
   3   3  28   61.70    9.67
   3   3  29  155.29   15.99
   3  -4 -25   57.39    9.98
   3  -4 -24   12.66    5.45
   3  -4 -23   19.30    5.21
  -3  -4 -22   13.65    4.26
   3  -4 -22   15.19    5.28
  -3  -4 -21   41.82    7.30
  -3  -4 -21   48.10    8.23
   3  -4 -21   38.88    7.58
   3  -4 -20    9.80    3.83
  -3  -4 -20    8.97    4.30
  -3  -4 -20    9.95    3.78
   3  -4 -19   78.95   10.25
  -3  -4 -19   85.01   10.44
   3  -4 -18   11.09    4.06
   3  -4 -18   25.36    5.97
   3  -4 -17    3.62    2.59
   3  -4 -17    9.07    3.82
   3  -4 -16   23.19    4.93
   3  -4 -16   18.88    4.80
   3  -4 -15   47.64    7.52
   3   4 -15   38.59    6.07
   3  -4 -15   36.91    5.94
   3  -4 -14    2.59    3.32
   3  -4 -14    3.06    1.91
   3   4 -14   -0.37    1.20
   3   4 -13   52.42    6.65
   3  -4 -13   58.09    7.63
   3  -4 -13   62.45    7.99
   3  -4 -12   20.64    4.45
   3   4 -12   17.57    3.86
   3  -4 -12   17.20    4.57
   3  -4 -11   98.19    9.15
   3  -4 -11   91.98    9.82
   3   4 -11  101.37    8.90
   3   4 -10  179.43   11.73
   3  -4 -10  157.39   11.60
   3  -4  -9  101.46    9.82
   3   4  -9  106.32    9.07
   3  -4  -9   94.22    9.04
   3  -4  -8   60.55    7.20
   3  -4  -8   44.65    6.50
   3   4  -8   62.94    7.13
   3  -4  -7   84.72    8.91
   3  -4  -7   75.66    7.92
   3   4  -7   74.21    7.53
   3   4  -6   98.71    7.94
   3  -4  -6  117.73   10.24
   3   4  -6   85.55    8.18
   3  -4  -6  110.83    9.31
   3   4  -5  470.49   19.32
   3  -4  -5  484.41   20.29
   3  -4  -5  474.18   19.33
   3   4  -5  466.55   17.32
   3  -4  -4  331.66   16.39
   3  -4  -4  310.73   15.43
   3   4  -4  315.07   13.90
   3   4  -4  276.06   15.01
   3   4  -3  228.93   11.71
   3  -4  -3  212.25   12.78
   3   4  -3  222.75   13.48
   3  -4  -3  210.37   12.97
   3  -4  -2  382.00   17.32
   3   4  -2  413.07   15.87
   3  -4  -2  413.88   17.72
   3   4  -1  640.98   20.16
   3  -4  -1  579.85   21.24
   3  -4  -1  610.72   21.30
   3   4  -1  607.87   22.55
   3  -4   0  225.30   12.70
   3  -4   0  229.15   13.53
   3   4   0  235.46   12.15
   3   4   0  250.39   14.36
  -3   4   1  585.03   14.71
   3   4   1  559.27   19.39
   3  -4   1  666.17   22.67
   3   4   1  602.53   22.79
  -3  -4   1  647.14   21.37
   3  -4   1  595.95   20.36
   3  -4   2  403.55   16.32
   3  -4   2  376.90   17.17
   3   4   2  414.36   16.91
  -3   4   2  433.02   13.50
  -3  -4   2  412.90   17.03
   3  -4   3  210.95   12.60
   3   4   3  217.03   12.48
   3   4   3  200.98   13.81
   3  -4   3  226.79   11.90
  -3   4   3  215.75   10.18
  -3  -4   3  222.17   12.30
   3  -4   4  296.15   15.00
  -3   4   4  300.38   12.71
   3   4   4  301.30   16.81
   3   4   4  340.17   15.75
   3  -4   4  287.80   13.00
  -3  -4   4  310.29   14.55
   3  -4   5  462.95   15.95
   3  -4   5  458.51   18.62
  -3   4   5  424.13   15.87
  -3  -4   5  480.13   17.96
   3   4   5  420.15   18.26
   3   4   5  444.22   20.44
  -3   4   6   90.30    7.63
   3  -4   6  100.40    8.82
   3   4   6  118.04    9.86
   3  -4   6   95.11    7.13
  -3  -4   6   95.98    7.95
   3   4   6  103.58   10.09
   3  -4   7   72.90    5.96
   3  -4   7   70.61    7.32
   3   4   7   57.70    7.14
  -3  -4   7   74.01    6.97
   3   4   7   78.14    8.67
  -3   4   7   81.35    7.41
  -3   4   8   53.76    6.43
   3  -4   8   64.71    5.49
   3  -4   8   64.56    7.12
   3   4   8   63.73    7.41
   3   4   8   69.20    8.49
  -3  -4   8   65.45    6.44
   3   4   9  105.52    9.98
   3  -4   9  101.90    9.10
  -3  -4   9  109.57    8.20
   3  -4   9  103.15    6.40
   3   4   9  126.26   11.32
  -3   4   9   91.78    8.72
   3   4  10  176.94   13.52
  -3  -4  10  181.29   10.48
   3  -4  10  169.49    7.62
   3   4  10  169.84   12.88
  -3   4  10  183.81   12.57
   3  -4  10  167.45   11.69
   3  -4  11   88.18    8.56
  -3   4  11  101.46    9.82
   3   4  11   84.50    9.70
   3   4  11  119.11   11.45
  -3  -4  11  102.22    7.85
   3  -4  12   15.90    3.83
  -3   4  12   18.05    4.21
  -3  -4  12   22.83    3.83
   3   4  12   27.97    5.74
   3   4  12   16.97    4.57
  -3   4  13   61.79    7.87
   3   4  13   52.11    7.41
   3  -4  13   47.84    6.55
   3   4  13   44.98    7.18
   3   4  14    0.89    1.64
   3   4  14    2.93    4.35
   3  -4  14    0.34    1.21
  -3   4  14   -1.38    3.30
   3   4  15   55.84    8.33
  -3   4  15   45.93    7.47
   3  -4  15   42.06    5.93
   3   4  15   53.63    7.83
  -3   4  16   16.84    3.56
   3   4  16   12.32    3.73
   3   4  16    8.02    3.23
   3   4  17    3.25    2.51
   3   4  17    0.33    2.79
  -3   4  17    6.27    2.77
  -3   4  18   17.27    4.34
   3   4  18   19.84    5.51
   3   4  19   71.42    9.84
  -3   4  19   70.26    9.87
   3   4  20    8.46    4.45
  -3   4  20    1.84    2.29
   3   4  21   45.38    7.75
  -3   4  21   61.90    9.69
   3   4  22   11.49    5.18
  -3   4  22   23.04    6.93
   3   4  23    5.43    3.46
  -3   4  23    8.09    3.25
  -3   4  24   11.31    3.04
   3   4  24   17.09    5.84
  -3   4  25   65.10   10.69
   3   4  25   50.30    9.24
  -3   4  26    2.60    2.31
   3   4  26   12.75    5.21
   3   4  27   85.88   11.90
  -3   4  27   68.07   10.51
  -3   4  28   18.42    6.71
   3   4  28   15.31    5.78
   3  -5 -26   30.85    7.39
   3  -5 -25   90.92   12.91
   3  -5 -24   32.09    7.30
  -3  -5 -23   37.28    8.65
   3  -5 -23   46.47    8.40
   3  -5 -22   38.45    7.95
  -3  -5 -22   31.15    7.22
  -3  -5 -22   56.38    9.71
  -3  -5 -21   19.03    6.45
  -3  -5 -21   10.40    4.17
   3  -5 -21   16.41    5.85
   3  -5 -20   68.03   10.52
  -3  -5 -20   65.86   10.09
  -3  -5 -19  126.22   13.26
   3  -5 -19  128.63   13.71
   3  -5 -19  135.00   13.54
  -3  -5 -18   71.12    9.39
   3  -5 -18   43.76    7.54
   3  -5 -18   63.38    8.66
   3  -5 -17  101.71   10.97
   3  -5 -17  117.36   12.74
  -3  -5 -17  121.60   12.50
  -3  -5 -16   78.17   10.08
   3  -5 -16   73.76    9.31
   3  -5 -16   75.19   10.29
   3  -5 -15  143.82   12.58
  -3  -5 -15  161.61   14.03
   3  -5 -15  152.43   14.25
   3  -5 -14  110.13   11.27
  -3  -5 -14  104.23   11.86
   3  -5 -14  117.71   12.25
   3   5 -14  113.08   10.80
   3  -5 -13  479.93   22.68
   3  -5 -13  458.39   23.59
   3   5 -13  477.85   21.56
   3  -5 -12  250.84   17.35
   3   5 -12  200.02   13.97
   3  -5 -12  209.29   15.11
  -3  -5 -12  206.71   15.21
   3  -5 -11   90.19   10.26
   3   5 -11   68.84    7.98
  -3  -5 -11   72.21    8.97
   3  -5 -11   68.73    8.63
  -3  -5 -10  124.79   11.71
   3  -5 -10   99.10    9.78
   3  -5 -10   96.55   10.88
   3  -5  -9  446.22   22.14
   3  -5  -9  434.73   20.90
   3   5  -9  450.04   21.22
   3   5  -9  408.23   17.83
  -3  -5  -8   25.65    4.89
   3  -5  -8   16.29    4.22
   3   5  -8   27.39    5.20
   3  -5  -8   24.65    5.01
   3   5  -8   25.93    3.96
   3   5  -7  184.91   11.64
   3  -5  -7  197.55   13.68
   3   5  -7  163.33   12.56
  -3  -5  -7  152.35   12.09
   3  -5  -7  175.00   13.50
   3  -5  -6  139.18   11.84
   3   5  -6  128.11    9.38
   3   5  -6  149.96   11.87
  -3  -5  -6  123.71   11.14
   3  -5  -6  157.25   12.25
   3   5  -5   11.67    3.60
  -3  -5  -5    5.70    3.28
   3  -5  -5   17.91    4.34
   3   5  -5   10.74    2.76
   3  -5  -5    6.78    2.86
   3  -5  -4  111.86   10.35
   3  -5  -4  112.09   10.04
  -3  -5  -4  101.15    9.74
   3   5  -4  111.08   10.27
   3   5  -4  101.96    8.54
   3   5  -3  339.76   18.23
  -3  -5  -3  380.55   18.64
   3   5  -3  349.23   15.72
   3  -5  -3  343.11   17.78
   3  -5  -2   11.97    3.63
   3  -5  -2    7.38    1.94
  -3  -5  -2   11.72    3.23
   3   5  -2   14.25    3.11
   3   5  -2    5.45    3.53
   3   5  -1  421.84   17.53
   3   5  -1  368.96   19.34
   3  -5  -1  416.13   19.22
  -3  -5  -1  416.63   19.28
   3  -5  -1  467.93   20.88
   3  -5   0  225.47   13.82
  -3  -5   0  225.79   14.12
   3  -5   0  206.96   14.08
  -3   5   0  215.22    9.08
   3   5   0  213.08   14.78
   3   5   0  187.80   11.91
   3   5   1  436.63   21.37
   3   5   1  477.88   19.22
   3  -5   1  497.66   21.61
  -3   5   1  435.94   13.76
  -3  -5   1  439.31   19.50
   3  -5   1  458.23   19.28
   3   5   2    5.96    1.27
  -3   5   2    9.71    2.59
  -3  -5   2   15.06    3.63
   3   5   2   10.71    3.34
   3  -5   2   10.81    3.64
   3  -5   2    9.59    2.60
  -3   5   3  363.62   14.01
  -3  -5   3  343.58   17.04
   3   5   3  357.24   17.05
   3  -5   3  357.59   18.11
   3   5   3  337.29   18.62
   3  -5   3  347.56   16.53
   3   5   4  100.95   10.62
  -3  -5   4   96.88    8.91
   3  -5   4   99.04    9.59
   3   5   4   95.85    9.42
  -3   5   4  108.99    8.04
   3  -5   4  105.70    8.88
  -3  -5   5   14.23    4.13
  -3   5   5   16.40    3.21
   3  -5   5    9.45    3.05
   3  -5   5   15.30    3.64
   3   5   5    4.69    2.48
   3   5   5    9.42    2.62
   3  -5   6  140.54    9.96
  -3  -5   6  144.10   10.70
   3   5   6  153.18   11.95
   3  -5   6  129.41   10.64
  -3   5   6  140.22   10.22
   3   5   6  133.57   12.00
   3   5   7  187.95   13.33
  -3  -5   7  199.40   12.92
   3   5   7  164.93   13.75
   3  -5   7  187.28   13.16
  -3   5   7  195.69   12.37
   3  -5   7  189.08   11.33
   3   5   8   29.01    5.46
   3  -5   8   27.67    4.21
   3  -5   8   25.06    4.73
  -3  -5   8   18.92    4.32
   3   5   8   21.84    5.19
  -3   5   8   17.02    3.39
   3  -5   9  427.76   20.12
   3   5   9  363.40   19.40
  -3   5   9  373.25   18.33
   3  -5   9  415.08   15.87
   3   5   9  399.24   21.71
  -3  -5   9  411.89   18.47
   3   5  10   81.04   10.24
  -3  -5  10   94.67    8.60
  -3   5  10  109.81   10.37
   3  -5  10  110.89   10.18
   3   5  10   95.24   10.16
   3  -5  11   92.15    9.39
  -3  -5  11   75.27    7.61
  -3   5  11   71.78    8.32
   3   5  11   91.35   10.15
   3   5  11   79.94    9.98
   3  -5  12  222.33   14.83
  -3  -5  12  192.35   12.67
   3   5  12  202.26   15.23
   3   5  12  206.98   16.45
  -3   5  12  186.93   13.84
   3   5  13  439.66   22.58
   3   5  13  479.22   24.96
   3  -5  13  460.84   21.50
  -3   5  13  418.98   21.53
   3  -5  14  109.13   10.41
   3   5  14  107.69   11.62
  -3   5  14  120.67   12.07
   3   5  14  132.73   13.30
   3   5  15  154.39   13.96
   3   5  15  159.95   14.67
  -3   5  15  144.51   13.31
   3   5  16  108.20   11.85
  -3   5  16   70.91    9.82
   3   5  16   89.63   11.20
   3   5  17  119.68   12.92
  -3   5  17   91.17   10.82
   3   5  17  129.33   13.81
  -3   5  18   46.53    7.35
   3   5  18   69.93   10.28
   3   5  19  125.31   13.86
  -3   5  19  154.70   14.65
  -3   5  20   65.85    9.50
   3   5  20   58.72    9.36
  -3   5  21   22.36    6.18
   3   5  21   11.21    5.74
   3   5  22   45.77    8.07
  -3   5  22   34.75    7.55
  -3   5  23   35.96    7.32
   3   5  23   36.37    7.53
   3   5  24   24.58    6.20
  -3   5  24   31.28    7.31
  -3   5  25   85.22   11.58
   3   5  25   85.65   11.83
  -3   5  26   21.91    6.38
   3   5  26   47.39    9.49
   3   5  27   28.31    7.34
  -3   5  27   20.07    6.46
   3  -6 -26   12.00    5.37
   3  -6 -25   32.01    7.22
   3  -6 -24   23.34    7.26
  -3  -6 -24   11.67    5.56
   3  -6 -23   10.83    4.46
  -3  -6 -23    1.81    4.10
  -3  -6 -22   -6.66    4.51
  -3  -6 -22   -1.04    2.79
  -3  -6 -21   55.45    9.73
  -3  -6 -21   42.30    8.87
   3  -6 -21   44.03    8.45
  -3  -6 -20    3.65    3.24
   3  -6 -20   12.23    5.27
   3  -6 -19  110.15   12.57
   3  -6 -19  110.90   12.94
  -3  -6 -19  111.71   12.69
   3  -6 -18   53.96    9.16
  -3  -6 -18   56.58    9.73
   3  -6 -18   58.99    9.50
   3  -6 -17   18.50    6.06
   3  -6 -17   16.36    4.48
  -3  -6 -17   16.28    4.86
   3  -6 -16   69.57    9.87
  -3  -6 -16   65.48    9.89
   3  -6 -16   72.74   10.18
  -3  -6 -15  125.83   13.10
   3  -6 -15  141.95   13.45
   3  -6 -15  150.07   14.61
   3  -6 -14   46.33    8.16
   3  -6 -14   64.74    9.30
  -3  -6 -14   50.64    7.83
   3   6 -13  324.43   19.59
   3  -6 -13  361.70   22.33
  -3  -6 -13  403.01   22.49
   3  -6 -13  355.56   21.01
   3   6 -12   27.10    5.68
  -3  -6 -12   32.89    6.89
   3  -6 -12   22.48    5.18
   3  -6 -12   22.99    6.26
   3   6 -11  116.15   11.27
   3  -6 -11  116.14   12.68
   3  -6 -11  128.92   12.42
  -3  -6 -11  129.23   12.95
   3  -6 -10   82.11   10.26
   3  -6 -10   86.53   10.06
  -3  -6 -10   85.90    9.95
   3   6 -10   57.34    7.07
   3   6 -10   80.26   10.17
   3   6  -9   88.32    8.62
  -3  -6  -9   72.95    9.43
   3  -6  -9   78.91    9.82
   3  -6  -9   76.13    9.28
   3   6  -9   57.95    8.31
  -3  -6  -8   45.76    7.52
   3   6  -8   47.12    6.55
   3   6  -8   39.58    6.93
   3  -6  -8   52.87    7.72
   3  -6  -8   46.69    7.52
   3  -6  -7  229.23   15.80
   3  -6  -7  215.24   15.69
   3   6  -7  222.19   16.27
   3   6  -7  203.79   12.94
  -3  -6  -7  211.75   15.58
  -3  -6  -6   32.39    6.22
   3   6  -6   37.68    7.32
   3  -6  -6   23.83    5.25
   3  -6  -6   31.66    5.68
   3   6  -6   34.53    5.61
  -3  -6  -5  124.45   11.89
   3  -6  -5  120.69   11.95
   3  -6  -5  141.93   12.07
   3   6  -5  120.20   10.02
   3   6  -5  134.08   12.35
  -3  -6  -4   27.35    5.36
   3   6  -4    9.64    3.42
   3  -6  -4   25.46    5.70
   3   6  -4   25.07    4.38
   3  -6  -4   24.75    5.44
   3  -6  -3  175.66   13.75
   3   6  -3  174.26   14.10
  -3  -6  -3  189.63   14.42
   3   6  -3  170.66   11.63
   3  -6  -3  161.46   13.12
  -3  -6  -2  204.26   14.66
   3  -6  -2  186.26   14.57
   3   6  -2  194.45   14.87
   3   6  -2  169.45   11.63
   3  -6  -2  179.35   13.71
   3  -6  -1  220.60   15.60
   3   6  -1  214.91   13.28
   3  -6  -1  215.27   14.97
  -3  -6  -1  210.90   14.90
   3   6  -1  196.62   14.84
   3  -6   0    1.39    2.35
  -3   6   0    1.14    0.58
  -3  -6   0   -0.62    1.22
   3   6   0    1.17    1.25
   3   6   0    3.53    2.88
   3   6   1  203.08   13.15
   3   6   1  217.70   16.12
   3  -6   1  206.94   15.22
  -3   6   1  185.05   10.11
  -3  -6   1  213.48   14.69
  -3  -6   2  185.74   13.88
   3   6   2  181.96   12.62
   3  -6   2  175.87   13.91
   3   6   2  201.03   15.13
  -3   6   2  168.52    9.78
  -3  -6   3  135.52   11.98
   3  -6   3  147.65   12.78
  -3   6   3  166.19   10.37
   3   6   3  166.72   12.42
   3  -6   4   20.96    4.87
  -3  -6   4   23.66    5.43
   3   6   4   18.50    4.18
  -3   6   4   21.65    4.03
   3   6   4   33.44    6.73
   3  -6   4   18.78    4.56
  -3   6   5  104.60    8.82
   3  -6   5  132.89   10.87
   3   6   5  118.86   11.05
   3   6   5  115.73   12.05
   3  -6   5  126.25   11.42
  -3  -6   5  123.05   11.42
  -3  -6   6   24.83    5.12
  -3   6   6   29.14    4.72
   3   6   6   47.60    7.16
   3  -6   6   25.13    4.71
   3   6   6   43.53    7.57
   3  -6   6   34.42    6.02
  -3  -6   7  193.72   14.11
  -3   6   7  226.85   14.09
   3   6   7  237.33   15.65
   3  -6   7  212.22   14.97
   3   6   7  226.88   17.13
   3  -6   7  209.56   13.65
   3  -6   8   44.38    5.99
  -3   6   8   50.23    7.16
   3  -6   8   54.34    8.10
   3   6   8   59.73    7.75
   3   6   8   51.73    8.24
  -3  -6   8   40.31    6.41
   3   6   9   77.45    9.57
   3  -6   9   71.94    9.10
  -3  -6   9   71.89    8.73
   3   6   9   87.29   10.44
  -3  -6  10   59.83    7.99
  -3   6  10   93.41    9.75
   3   6  10   98.88   11.70
   3   6  10   66.93    8.90
   3  -6  10   85.27    9.88
   3  -6  11  137.07   12.48
  -3  -6  11  115.24   10.58
   3   6  11  145.09   13.48
  -3   6  11  127.81   12.13
   3   6  11  116.06   12.99
  -3   6  12   33.20    6.21
   3  -6  12   29.93    6.48
   3   6  12   26.90    6.36
   3   6  12   19.67    5.65
   3   6  13  376.34   21.60
   3   6  13  360.84   22.90
   3  -6  13  359.57   20.18
  -3   6  13  344.04   20.28
   3   6  14   37.15    7.67
   3  -6  14   51.67    8.55
  -3   6  14   48.18    7.51
   3   6  14   41.01    8.19
   3   6  15  156.90   14.65
   3   6  15  149.99   15.01
  -3   6  15  144.84   13.72
   3   6  16   45.94    8.81
  -3   6  16   65.82    9.54
   3   6  16   68.12    9.98
  -3   6  17   19.80    5.68
   3   6  17   11.28    4.46
   3   6  17   13.78    5.32
  -3   6  18   52.26    8.32
   3   6  18   92.63   11.60
   3   6  19  113.78   13.32
  -3   6  19  130.55   13.54
  -3   6  20    7.71    3.34
   3   6  20    3.21    3.08
  -3   6  21   32.08    6.54
   3   6  21   53.65    8.77
  -3   6  22    7.77    4.71
   3   6  22   15.00    5.90
   3   6  23    3.79    3.82
  -3   6  23    4.75    3.49
   3   6  24   17.24    5.46
  -3   6  24   17.44    5.69
  -3   6  25   16.09    5.68
   3   6  25   22.24    7.02
   3   6  26    2.10    2.72
  -3   6  26    8.81    2.73
   3  -7 -24   21.58    5.66
  -3  -7 -24   37.94    8.11
  -3  -7 -23   49.66    9.66
   3  -7 -23   26.70    7.22
   3  -7 -22   55.36    9.44
  -3  -7 -22   71.25   11.30
  -3  -7 -22   56.77   10.48
  -3  -7 -21   14.54    4.65
  -3  -7 -21   24.35    6.26
   3  -7 -21   23.13    5.36
   3  -7 -20   36.63    6.82
  -3  -7 -20   18.68    6.04
   3  -7 -20   30.95    6.30
   3  -7 -19  115.51   13.92
   3  -7 -19   98.69   12.70
   3  -7 -18   15.54    5.48
   3  -7 -18    3.68    3.21
  -3  -7 -18    8.44    4.41
   3  -7 -17   58.43   10.24
  -3  -7 -17   82.13   11.46
   3  -7 -17   75.12   10.41
  -3  -7 -16  108.87   12.98
   3  -7 -16  136.92   14.15
   3  -7 -16  147.01   15.06
   3  -7 -15   27.49    7.09
   3  -7 -15   41.56    8.51
  -3  -7 -15   45.53    7.81
   3  -7 -14   41.43    7.71
  -3  -7 -14   29.78    6.34
   3  -7 -14   38.52    7.36
   3  -7 -13  153.44   15.17
   3  -7 -13  161.35   14.68
  -3  -7 -13  149.13   13.97
   3  -7 -12   49.82    8.38
  -3  -7 -12   50.52    8.36
   3   7 -12   57.60    8.55
   3  -7 -12   40.63    7.78
  -3  -7 -11   -0.43    1.52
   3  -7 -11    2.84    2.31
   3  -7 -11    4.02    3.19
   3   7 -11    5.43    2.98
   3  -7 -10   50.36    8.58
   3  -7 -10   73.70    9.96
  -3  -7 -10   75.02   10.14
   3   7 -10   68.72    9.53
   3  -7  -9  238.08   18.05
   3  -7  -9  260.72   18.33
  -3  -7  -9  277.93   18.97
   3   7  -9  262.23   18.27
  -3  -7  -8   15.79    5.23
   3  -7  -8   24.52    5.95
   3  -7  -8   14.92    4.26
   3   7  -8   31.91    5.65
   3  -7  -7   85.26   10.28
  -3  -7  -7   93.22   10.87
   3  -7  -7   73.23   10.06
   3   7  -7   80.41   10.57
   3  -7  -6  108.19   11.53
   3  -7  -6  129.24   13.04
   3   7  -6  111.64   12.01
  -3  -7  -6  117.53   12.23
   3  -7  -5   68.39    9.27
  -3  -7  -5   62.86    8.62
   3  -7  -5   52.80    8.69
   3   7  -5   44.49    6.37
   3   7  -5   60.08    8.99
   3   7  -4  230.21   14.29
  -3  -7  -4  246.80   17.28
   3  -7  -4  270.73   18.57
   3  -7  -4  229.73   17.01
   3   7  -4  241.31   17.33
   3  -7  -3  273.21   18.11
   3   7  -3  223.91   14.36
   3  -7  -3  263.72   18.47
  -3  -7  -3  251.83   17.26
   3   7  -3  256.49   18.13
   3  -7  -2  165.69   14.36
  -3  -7  -2  145.36   13.43
   3   7  -2  139.01   11.31
   3   7  -2  134.70   13.44
   3  -7  -2  128.77   12.56
   3  -7  -1  533.66   25.67
   3   7  -1  522.08   26.31
  -3  -7  -1  578.12   26.47
   3   7  -1  580.31   23.07
   3  -7  -1  552.04   25.58
   3   7   0  336.46   17.89
   3  -7   0  347.78   20.45
  -3  -7   0  378.59   21.38
   3   7   0  361.90   21.84
   3  -7   0  342.81   20.65
  -3  -7   1  517.17   24.68
   3  -7   1  515.47   25.61
   3   7   1  457.93   21.65
   3  -7   1  563.94   25.56
   3   7   1  536.90   26.73
   3  -7   2  134.55   12.48
   3   7   2  135.65   11.77
   3  -7   2  150.53   13.82
  -3  -7   2  128.66   12.46
  -3   7   2  103.67    8.30
   3   7   2  116.80   12.71
   3  -7   3  246.07   17.47
  -3   7   3  230.59   12.87
  -3  -7   3  221.71   16.15
   3   7   3  229.27   15.58
   3  -7   3  249.14   16.86
   3   7   3  248.70   18.37
   3  -7   4  260.01   17.94
   3  -7   4  260.29   16.97
  -3   7   4  217.70   13.60
   3   7   4  230.03   17.54
  -3  -7   4  268.44   17.92
  -3   7   5   59.18    7.24
   3   7   5   61.22    8.82
   3   7   5   45.38    8.23
  -3  -7   5   64.80    8.79
   3  -7   5   58.36    8.69
   3  -7   5   54.29    8.11
   3  -7   6  127.18   11.67
  -3  -7   6  132.89   12.61
  -3   7   6  150.27   11.61
   3   7   6  121.92   11.93
   3   7   6  129.61   13.41
   3  -7   6  117.84   12.06
   3  -7   7   68.51    9.07
   3  -7   7   72.14    8.53
  -3  -7   7   79.80    9.58
  -3   7   7   69.92    8.45
   3   7   7   56.01    8.00
   3   7   7   83.46   10.78
   3   7   8   27.61    6.03
   3   7   8   25.74    5.96
   3  -7   8   28.37    6.17
  -3  -7   8   22.10    5.71
  -3   7   8   22.13    5.34
  -3  -7   9  228.99   16.70
   3   7   9  246.69   17.38
  -3   7   9  217.82   15.29
   3   7   9  230.22   18.24
   3  -7   9  235.03   17.13
   3   7  10   54.66    8.95
   3   7  10   46.32    7.71
  -3  -7  10   53.52    8.08
  -3   7  10   75.92    9.17
   3  -7  10   79.97   10.32
   3  -7  11    4.07    3.19
  -3  -7  11    1.35    2.78
   3   7  11    7.38    3.92
  -3   7  11    3.46    2.72
   3   7  11    4.41    3.56
   3   7  12   56.99    9.27
  -3   7  12   45.12    7.54
   3  -7  12   44.19    7.94
   3   7  12   45.07    7.98
   3  -7  13  150.07   14.29
   3   7  13  147.90   14.98
  -3   7  13  128.91   12.97
   3   7  13  136.27   13.59
   3  -7  14   46.66    8.40
   3   7  14   33.10    6.81
  -3   7  14   43.35    8.38
   3   7  14   42.58    8.45
   3   7  15   44.33    8.38
  -3   7  15   47.27    8.12
   3   7  15   37.48    8.26
   3   7  16  133.65   14.65
  -3   7  16  159.11   14.83
   3   7  16  137.23   14.65
  -3   7  17   83.20   11.47
   3   7  17   92.18   11.58
  -3   7  18    9.37    4.93
   3   7  18    9.93    4.27
  -3   7  19  108.21   13.02
   3   7  19   89.42   11.37
   3   7  20   25.14    7.19
  -3   7  20   28.03    6.56
  -3   7  21   33.03    7.42
   3   7  21   16.46    5.46
  -3   7  22   70.28   10.01
   3   7  22   58.36    9.60
   3   7  23   48.91    9.12
  -3   7  23   37.64    8.33
  -3   7  24   39.75    8.53
   3   7  24   41.82    8.89
   3  -8 -22    4.60    2.86
  -3  -8 -22    6.22    2.73
  -3  -8 -22   10.13    6.51
  -3  -8 -21   11.44    5.89
   3  -8 -21   15.59    5.60
  -3  -8 -21   13.21    5.35
  -3  -8 -20    7.36    5.36
  -3  -8 -20    8.44    5.47
   3  -8 -20    5.39    4.12
   3  -8 -20   -3.57    4.01
  -3  -8 -19   17.15    5.86
   3  -8 -19   13.25    3.72
   3  -8 -19   26.00    6.32
   3  -8 -18    6.64    3.17
  -3  -8 -18    6.43    4.02
  -3  -8 -17   29.74    6.35
   3  -8 -17   48.90    9.73
   3  -8 -17   28.87    7.41
   3  -8 -16   24.05    5.79
   3  -8 -16   40.75    8.08
  -3  -8 -16   34.83    7.75
   3  -8 -15   61.99    9.71
  -3  -8 -15   67.17   10.40
   3  -8 -15   45.23    8.67
  -3  -8 -14   47.55    8.51
   3  -8 -14   30.29    7.42
   3  -8 -14   44.68    9.23
   3  -8 -13  150.01   15.46
   3  -8 -13  134.49   14.81
  -3  -8 -13  121.73   13.96
  -3  -8 -12   53.11    9.18
   3  -8 -12   48.02    8.57
   3  -8 -12   44.17    8.23
   3  -8 -11    2.14    2.50
   3  -8 -11    3.67    3.58
  -3  -8 -11   12.17    3.64
   3   8 -11    1.99    3.17
   3  -8 -10   21.60    6.36
   3  -8 -10   22.48    5.64
   3   8 -10   24.60    5.92
  -3  -8 -10   23.04    5.54
   3  -8  -9   90.76   11.43
   3  -8  -9   72.49   10.32
   3   8  -9   79.91   10.76
  -3  -8  -9   90.07   11.40
   3  -8  -8   13.89    4.47
   3  -8  -8   24.91    6.59
   3   8  -8   14.32    4.66
  -3  -8  -8   23.48    5.82
  -3  -8  -7   44.37    8.11
   3  -8  -7   31.13    7.15
   3  -8  -7   36.06    7.23
   3   8  -7   33.35    7.00
   3  -8  -6   18.89    5.26
  -3  -8  -6   10.09    4.65
   3  -8  -6   14.93    4.18
   3   8  -6   14.85    5.64
   3  -8  -5   20.75    5.52
  -3  -8  -5   28.89    5.83
   3   8  -5   26.85    7.06
   3  -8  -5   15.44    5.82
   3  -8  -4   66.24    9.37
  -3  -8  -4   73.90    9.91
   3  -8  -4   88.08   11.18
   3   8  -4   75.44   10.52
   3  -8  -3   69.15    9.70
  -3  -8  -3   54.67    8.76
   3  -8  -3   56.64    8.88
   3   8  -3   72.24   10.50
   3  -8  -2   12.63    4.89
   3  -8  -2    8.41    4.20
  -3  -8  -2   17.21    5.10
   3   8  -2    6.68    3.66
  -3  -8  -1   88.81   11.05
   3  -8  -1   78.48   10.52
   3   8  -1   79.57   10.38
   3  -8  -1   94.68   11.28
  -3  -8   0   21.25    5.49
   3   8   0   27.40    6.34
   3  -8   0   19.84    5.32
   3  -8   0   27.55    6.45
   3   8   0   20.30    5.24
  -3  -8   1   91.10   11.11
   3  -8   1   68.07   10.41
   3   8   1   81.34    9.16
   3   8   1   66.31   10.04
   3  -8   1   61.39    9.10
   3  -8   2   14.24    4.14
   3   8   2   21.57    5.80
   3   8   2    8.81    2.65
   3  -8   2   17.17    4.66
  -3  -8   2   11.83    4.80
   3   8   3   66.75   10.27
   3  -8   3   57.66    9.03
   3  -8   3   69.57    9.78
   3   8   3   63.57    8.72
  -3  -8   3   74.19   10.13
   3  -8   4   73.22   10.69
   3   8   4   69.88    9.77
  -3  -8   4   89.27   10.78
   3  -8   4   64.49    9.33
   3   8   4   61.41   10.35
   3  -8   5   23.24    5.16
   3  -8   5   14.86    4.47
  -3  -8   5   22.08    5.17
   3   8   5   27.52    6.65
   3   8   5   26.93    6.36
   3  -8   6   18.19    6.16
   3  -8   6   10.50    4.17
  -3  -8   6    5.98    3.73
   3   8   6    2.76    3.66
   3   8   6    7.03    2.96
   3  -8   7   30.30    7.38
  -3   8   7   42.45    7.12
  -3  -8   7   49.89    8.72
   3   8   7   22.94    6.49
   3   8   7   38.13    7.04
   3  -8   8   25.60    6.10
  -3   8   8   31.06    5.91
   3   8   8    7.21    2.39
   3   8   8   13.57    4.71
  -3  -8   8   23.21    5.64
   3   8   9  102.12   12.75
   3   8   9   79.54   10.74
  -3  -8   9   91.80   11.28
  -3   8   9   63.85    9.27
   3  -8   9   85.82   10.91
   3   8  10   39.18    8.18
   3  -8  10   19.05    5.15
  -3  -8  10   20.46    5.52
  -3   8  10   32.53    6.95
   3   8  10   23.15    6.04
   3   8  11    8.26    3.25
  -3   8  11    4.05    2.38
   3  -8  11    3.32    3.44
   3   8  11    4.52    3.34
   3  -8  12   33.02    7.12
  -3   8  12   43.87    7.43
   3   8  12   56.32    9.56
   3   8  12   45.28    9.31
   3  -8  13  139.91   14.31
  -3   8  13  114.10   13.04
   3   8  13  161.70   15.70
   3   8  13  147.75   15.64
   3   8  14   35.02    8.04
  -3   8  14   52.30    9.17
   3   8  14   43.92    8.45
   3   8  15   62.55    9.45
   3   8  15   53.85    9.99
  -3   8  15   61.86    9.72
   3   8  16   35.84    7.85
  -3   8  16   27.03    6.02
   3   8  17   22.01    6.49
  -3   8  17   36.73    7.24
  -3   8  18   -0.19    2.10
   3   8  18    6.06    3.67
  -3   8  19   28.44    7.28
   3   8  19   23.94    6.62
  -3   8  20    5.01    4.99
   3   8  20    6.18    4.48
  -3   8  21   11.06    3.82
   3   8  21    6.87    2.98
  -3   8  22   10.93    5.39
   3   8  22   19.71    5.93
  -3  -9 -19   75.35   12.38
   3  -9 -19   67.78   11.75
   3  -9 -19   86.01   12.81
   3  -9 -18   18.02    6.97
   3  -9 -18   11.99    6.25
  -3  -9 -18   17.78    4.77
   3  -9 -17    7.70    3.67
   3  -9 -17    2.03    2.07
  -3  -9 -17    5.46    5.51
   3  -9 -16   20.48    6.07
  -3  -9 -16   37.71    7.83
   3  -9 -16   20.99    5.94
   3  -9 -15   24.74    6.60
  -3  -9 -15   32.72    7.69
   3  -9 -15   41.65    8.93
   3  -9 -14   26.31    7.38
  -3  -9 -14   12.71    4.56
   3  -9 -14   16.76    5.87
   3  -9 -13   44.34    9.26
   3  -9 -13   34.59    7.80
  -3  -9 -13   49.30    9.79
  -3  -9 -12    3.18    2.85
   3  -9 -12    5.45    3.26
   3  -9 -12    2.69    2.89
  -3  -9 -11   19.02    4.88
   3  -9 -11    9.11    4.47
   3  -9 -11   22.92    6.69
   3  -9 -10   48.37    8.26
   3  -9 -10   45.83    8.66
  -3  -9 -10   65.92    9.62
   3   9  -9  186.22   17.67
   3  -9  -9  177.84   17.22
   3  -9  -9  178.39   17.23
  -3  -9  -9  153.08   15.55
   3  -9  -8   58.12    9.60
   3  -9  -8   93.00   12.21
  -3  -9  -8   65.38    9.91
   3   9  -8   67.64   11.13
  -3  -9  -7  173.44   16.43
   3  -9  -7  157.42   16.00
   3   9  -7  172.68   16.87
   3  -9  -7  165.74   15.64
   3  -9  -6  100.51   13.17
  -3  -9  -6  101.05   12.68
   3  -9  -6  118.71   13.46
   3   9  -6  110.10   13.52
   3  -9  -5  133.68   14.48
  -3  -9  -5  144.30   14.58
   3   9  -5  121.55   14.04
   3  -9  -4  178.76   16.83
  -3  -9  -4  159.61   15.66
   3  -9  -4  175.70   16.47
   3  -9  -3  251.24   19.71
   3  -9  -3  278.16   21.05
   3   9  -3  275.18   20.69
  -3  -9  -3  229.91   18.43
   3  -9  -2   35.71    7.72
   3  -9  -2   48.64    9.08
  -3  -9  -2   29.15    6.87
   3   9  -2   43.54    8.06
   3  -9  -1  164.79   15.34
   3  -9  -1  152.55   15.13
   3   9  -1  155.35   15.35
  -3  -9  -1  163.18   15.61
   3  -9   0  102.03   12.48
   3   9   0   98.37   12.61
   3  -9   0  110.59   12.71
  -3  -9   0  114.18   13.06
   3  -9   1  175.70   16.52
   3  -9   1  162.51   15.54
  -3  -9   1  175.47   16.23
   3   9   1  157.00   16.19
  -3  -9   2   30.30    7.02
   3  -9   2   51.24    8.84
   3   9   2   39.72    8.44
   3  -9   2   42.65    8.69
   3   9   3  240.77   19.82
  -3  -9   3  233.54   18.80
   3  -9   3  259.86   19.99
   3  -9   3  257.51   19.90
   3  -9   4  185.42   16.87
  -3  -9   4  187.96   16.79
   3  -9   4  206.53   17.32
   3   9   4  187.21   17.64
   3  -9   5  117.06   13.26
  -3  -9   5  134.42   14.56
   3   9   5  125.86   14.18
   3  -9   5  135.73   14.13
   3   9   6  136.30   14.05
   3  -9   6  119.75   13.89
  -3  -9   6  116.66   13.21
   3   9   6  117.83   14.20
   3   9   7  173.79   15.52
  -3  -9   7  167.40   15.86
   3  -9   7  138.04   14.46
   3   9   7  182.80   17.92
   3  -9   8   66.31   10.27
  -3  -9   8   73.44   10.76
   3   9   8   70.88   10.06
   3   9   8   81.63   12.15
  -3  -9   9  166.51   15.73
   3   9   9  188.86   16.50
   3   9   9  180.27   17.51
   3  -9   9  189.83   17.29
   3   9  10   69.83   10.76
   3  -9  10   63.04   10.28
   3   9  10   62.58    9.11
   3  -9  11   22.57    5.58
   3   9  11   21.87    7.58
   3   9  11   12.20    4.80
   3   9  12    4.07    2.77
   3  -9  12    2.88    3.07
   3   9  12    7.42    5.43
   3   9  13   49.84   10.18
   3   9  13   51.46   10.12
   3   9  14   23.83    7.40
  -3   9  14   35.46    7.85
   3   9  14   19.32    6.14
   3   9  15   21.08    6.23
  -3   9  15   29.38    7.26
  -3   9  16   22.24    6.49
   3   9  16   29.49    6.91
  -3   9  17    6.87    4.54
   3   9  17    3.10    3.04
  -3   9  18   12.26    4.84
   3   9  18   12.80    5.03
   3   9  19   73.43   11.98
  -3   9  19   90.26   13.45
   3 -10 -15    8.21    4.56
  -3 -10 -15    8.52    4.29
   3 -10 -14    8.52    4.92
   3 -10 -14    5.04    4.65
  -3 -10 -14    3.97    3.68
   3 -10 -13    8.07    3.31
  -3 -10 -13   14.96    5.18
   3 -10 -13    8.41    4.82
   3 -10 -12    7.61    3.41
  -3 -10 -12    9.06    3.14
   3 -10 -12   12.82    5.10
   3 -10 -11   68.16   10.94
  -3 -10 -11   97.36   12.73
   3 -10 -11   98.60   13.45
   3 -10 -10   17.34    6.10
  -3 -10 -10   23.78    6.61
   3 -10 -10   17.42    5.72
   3 -10  -9   37.06    8.29
  -3 -10  -9   40.99    8.77
   3 -10  -9   40.28    8.15
   3 -10  -8   59.52   10.29
   3  10  -8   41.80    8.85
  -3 -10  -8   43.25    8.64
   3 -10  -8   68.48   11.09
   3 -10  -7    4.66    4.12
  -3 -10  -7    3.56    2.98
   3 -10  -7    4.26    4.28
   3  10  -7    4.86    3.90
   3 -10  -6    6.66    4.57
   3 -10  -6    4.74    4.94
  -3 -10  -6    8.19    3.23
   3  10  -6    9.34    4.73
   3 -10  -5   77.82   11.94
   3 -10  -5   72.45   10.34
   3  10  -5   71.48   10.58
  -3 -10  -5   77.02   11.09
   3 -10  -4   92.66   12.43
   3 -10  -4   93.95   12.06
  -3 -10  -4   99.57   12.75
   3  10  -4   97.17   12.74
  -3 -10  -3  290.65   21.40
   3 -10  -3  302.51   22.23
   3 -10  -3  264.09   21.26
   3  10  -3  277.36   22.27
   3  10  -2   45.66    9.80
   3 -10  -2   36.35    8.14
  -3 -10  -2   53.86    9.91
   3 -10  -2   42.49    8.66
   3 -10  -1   22.80    5.66
  -3 -10  -1   25.93    6.50
   3 -10  -1   23.87    6.11
   3  10  -1   16.74    3.32
   3 -10   0   25.53    6.70
   3 -10   0   27.85    7.10
  -3 -10   0   28.08    7.71
   3  10   0   31.73    8.69
   3 -10   1   20.66    5.87
  -3 -10   1   15.71    5.24
   3  10   1   20.97    6.68
   3 -10   1   16.94    6.11
   3  10   2   47.38    9.81
   3 -10   2   35.29    7.53
  -3 -10   2   34.69    7.39
   3 -10   2   37.70    7.68
   3  10   3  327.16   24.48
  -3 -10   3  289.76   21.73
   3 -10   3  296.06   22.72
   3 -10   3  324.84   23.28
   3 -10   4   83.85   11.74
  -3 -10   4   74.08   11.07
   3  10   4   73.92   10.72
   3  10   5  101.10   13.93
  -3 -10   5   91.00   12.49
   3 -10   5   81.63   11.00
   3 -10   6   10.37    4.91
  -3 -10   6   10.84    4.12
   3  10   6    9.56    6.21
  -3 -10   7    5.47    4.52
   3  10   7    3.47    4.16
   3 -10   7    2.41    3.10
   3 -10   8   57.34   10.48
  -3 -10   8   36.50    8.12
   3  10   8   51.36   10.06
  -3 -10   9   35.93    9.66
   3  10   9   50.35    9.67
   3 -10   9   44.04    8.75
   3 -10  10   18.98    6.34
   3  10  10   12.21    5.35
   3 -10  11   55.52    9.97
   3  10  11   72.17   11.25
   3 -10  12    1.07    1.84
   3  10  12    5.17    4.43
   3  10  13    2.71    2.96
   3  10  14   -8.24    4.99
   3  10  15   19.03    6.86
   3 -11  -9   39.93    8.21
  -3 -11  -9   45.56    9.88
   3 -11  -9   36.49    8.01
   3 -11  -8   77.45   12.08
   3 -11  -8  103.50   13.04
  -3 -11  -8   92.77   12.65
   3 -11  -7  114.41   14.32
   3 -11  -7   80.56   11.89
  -3 -11  -7   93.50   13.05
  -3 -11  -6   17.23    6.03
   3 -11  -6   17.84    5.92
   3 -11  -6   25.36    7.97
   3  11  -6    7.86    5.31
   3  11  -5   24.64    7.42
   3 -11  -5   25.39    6.95
  -3 -11  -5   39.86    8.02
   3 -11  -5   18.35    5.38
   3 -11  -4   36.83    9.65
   3 -11  -4   37.82    8.58
   3  11  -4   16.45    5.54
  -3 -11  -4   26.10    7.18
   3 -11  -3   12.94    4.41
  -3 -11  -3    9.32    4.68
   3  11  -3   12.69    3.69
   3 -11  -3   11.92    4.64
  -3 -11  -2   -0.92    3.03
   3 -11  -2    6.07    3.71
   3  11  -2    6.11    6.01
   3 -11  -2    1.81    3.72
   3 -11  -1    8.94    3.85
  -3 -11  -1    3.66    3.38
   3  11  -1   11.83    4.66
   3 -11  -1   15.96    6.74
   3 -11   0    8.12    4.86
  -3 -11   0   -1.97    2.72
   3 -11   0    5.93    4.47
   3  11   0   -1.17    3.79
   3 -11   1    4.24    3.42
   3  11   1   -1.53    3.68
  -3 -11   1    4.67    4.08
   3 -11   1    3.48    2.54
   3 -11   2   -3.36    2.58
  -3 -11   2    8.88    5.28
   3  11   2    5.59    4.19
   3 -11   2    6.00    3.72
   3  11   3   14.69    5.07
  -3 -11   3    6.83    3.41
   3 -11   3   14.42    5.09
   3 -11   4   32.05    7.01
  -3 -11   4   40.74    8.39
   3  11   4   43.62    9.07
  -3 -11   5   39.81    8.44
   3  11   5   26.23    8.22
   3 -11   5   26.53    6.94
  -3 -11   6   18.90    5.55
   3 -11   6   20.29    6.30
   3  11   6   27.45    7.72
  -3 -11   7  103.99   14.11
   3 -11   7  106.47   13.65
   3  11   7   74.95   12.13
   3 -11   8   78.37   11.99
   3  11   8  106.86   14.33
   3  11   9   27.41    8.42
   3 -11   9   15.09    6.04
   4   0 -21  188.55   14.77
   4   0 -20  193.67   14.69
   4   0 -19  225.06   15.19
   4   0 -18  241.09   15.27
   4   0 -17 1184.20   33.34
   4   0 -16  195.75   13.48
  -4   0 -16  205.18   10.05
   4   0 -15  385.85   18.34
   4   0 -14  326.60   16.21
   4   0 -13  247.38   13.78
   4   0 -12  199.86   12.12
   4   0 -11 1402.15   15.54
   4   0 -11 1691.89   34.35
   4   0 -10  123.25    9.12
   4   0 -10  123.95    4.89
   4   0  -9 1489.41   30.62
   4   0  -9 1413.47   17.72
   4   0  -8  503.80   10.87
   4   0  -8  446.93   16.24
   4   0  -7   60.10    3.87
   4   0  -7   63.62    6.11
   4   0  -6  261.78   11.90
   4   0  -6  223.09    7.76
   4   0  -5  388.63   14.09
   4   0  -5  409.91   10.90
   4   0  -4  190.58    9.79
   4   0  -4  181.95    7.65
   4   0  -3 1760.12   28.88
   4   0  -3 1810.99   24.17
   4   0  -2 1210.48   20.44
   4   0  -2 1275.57   23.79
   4   0  -1  682.91   17.25
   4   0  -1  666.61   15.92
   4   0   0  978.96   20.30
   4   0   0  961.10   19.32
   4   0   1  658.30   16.22
   4   0   1  660.25   16.39
   4   0   2 1270.79   23.65
   4   0   2 1288.94   22.41
   4   0   3 1735.24   27.72
   4   0   3 1774.26   28.19
   4   0   4  199.99    9.59
   4   0   4  181.22    9.29
   4   0   4  194.77    8.56
   4   0   5  358.25   13.18
   4   0   5  382.95   13.94
   4   0   6  193.98    8.44
   4   0   6  205.16   10.33
   4   0   6  202.37   10.09
   4   0   7   60.07    4.77
   4   0   7   51.47    5.26
   4   0   7   55.90    5.52
   4   0   8  434.58   16.21
   4   0   8  457.87   13.46
   4   0   9 1599.30   32.22
   4   0   9 1607.20   25.02
   4   0  10  142.20    9.98
   4   0  10  147.75    7.76
   4   0  11 1625.61   35.21
   4   0  11 1629.70   26.09
   4   0  12  188.17    9.10
   4   0  12  189.85   12.35
   4   0  13  226.52   13.74
   4   0  13  215.29    9.78
   4   0  14  309.78   12.02
   4   0  14  335.01   17.39
   4   0  15  406.28   19.53
   4   0  16  193.84   13.87
   4   0  17 1124.55   34.75
   4   0  18  271.93   17.65
   4   0  19  237.21   16.76
   4   0  20  181.73   14.94
   4   0  21  195.12   15.94
   4   0  22  178.35   15.45
   4   0  23  124.06   13.34
   4   0  24   29.51    6.98
   4   0  25   39.84    7.40
   4   0  26  254.34   20.27
   4   0  27   93.65   12.05
   4   0  28   12.76    4.37
   4   0  29   -2.18    2.00
   4   0  30   25.42    6.94
   4  -1 -22   20.67    4.46
   4  -1 -21   14.53    4.45
   4   1 -20    7.22    2.87
   4  -1 -20    7.62    3.90
   4  -1 -19   71.84    9.04
   4   1 -19   84.44    9.38
   4  -1 -18  114.51   11.20
  -4  -1 -18  103.25    8.79
   4   1 -18  103.27    9.77
   4  -1 -17   19.35    4.64
   4   1 -17   31.54    5.96
   4  -1 -16  440.36   20.19
   4   1 -16  456.07   20.04
   4  -1 -15   15.95    2.45
   4  -1 -15   14.62    3.82
   4   1 -15   21.17    4.55
   4  -1 -14   40.95    3.68
   4  -1 -14   31.36    5.21
   4   1 -14   48.58    6.33
   4   1 -13   66.81    7.25
   4  -1 -13   85.92    5.51
   4  -1 -13   90.68    8.68
   4  -1 -12  122.62    6.60
   4  -1 -12  125.49    9.94
   4   1 -12  108.60    8.79
   4  -1 -11  159.43   10.81
   4  -1 -11  144.02    7.15
   4   1 -11  138.10    9.72
   4   1 -10  953.77   24.85
   4  -1 -10  969.65   18.63
   4  -1 -10  950.30   25.84
   4   1  -9    6.54    1.55
   4  -1  -9    6.39    1.86
   4  -1  -9    4.62    1.93
   4  -1  -8  271.44   10.02
   4   1  -8  274.90   12.70
   4  -1  -8  253.77   12.84
   4  -1  -7  106.16    6.31
   4   1  -7   81.96    6.89
   4  -1  -7   96.43    7.67
   4  -1  -6  142.24    7.25
   4  -1  -6  143.61    9.12
   4   1  -6  118.66    8.08
   4  -1  -5  140.48    8.83
   4  -1  -5  142.45    7.40
   4   1  -5  129.81    8.41
   4   1  -4  498.86   16.06
   4  -1  -4  520.63   16.72
   4  -1  -4  544.77   14.66
   4  -1  -3   58.75    5.38
   4   1  -3   60.36    5.57
   4  -1  -3   59.67    4.90
   4  -1  -2  101.84    6.90
   4   1  -2  111.11    7.45
   4  -1  -2  104.94    6.33
   4  -1  -1   15.64    2.49
   4  -1  -1   23.64    3.27
   4   1  -1   19.78    3.12
   4  -1   0  303.66   11.20
   4  -1   0  309.22   11.50
   4   1   0  308.22   12.36
   4   1   0  321.33   12.54
   4  -1   1   25.35    3.09
   4  -1   1   26.27    3.55
   4   1   1   27.73    3.70
   4   1   1   28.35    3.64
   4  -1   2   92.67    5.95
   4   1   2  101.40    6.97
   4  -1   2  110.54    7.11
   4   1   2   99.63    7.11
   4  -1   2  110.56    6.41
   4  -1   3   49.27    4.89
   4   1   3   63.24    5.93
   4   1   3   57.55    5.28
   4  -1   3   64.57    4.88
   4  -1   3   56.19    4.44
   4  -1   4  526.83   13.14
   4   1   4  503.91   15.85
   4   1   4  545.57   17.69
   4  -1   4  547.96   16.25
   4  -1   4  523.18   14.05
   4   1   5  148.74    8.56
   4  -1   5  167.09    7.08
   4  -1   5  143.85    7.60
   4   1   5  152.94    9.45
   4  -1   5  141.98    8.59
   4  -1   6  137.13    7.80
   4  -1   6  129.33    5.97
   4   1   6  140.07    9.39
   4  -1   6  138.50    8.58
   4   1   6  137.45    8.45
   4  -1   7  100.36    5.18
   4   1   7   85.03    7.44
   4  -1   7   80.28    6.31
   4   1   7   93.48    7.13
   4  -1   8  258.42    7.98
   4  -1   8  238.11   11.28
   4   1   8  262.20   12.20
   4  -1   8  265.67   12.49
   4   1   8  240.81   13.41
   4  -1   9    4.85    1.59
   4  -1   9    7.26    1.31
   4   1   9    4.98    2.19
   4   1   9    8.73    2.31
   4  -1   9    6.92    2.09
   4  -1  10  976.34   24.48
   4  -1  10  927.78   14.50
   4  -1  10  920.68   24.08
   4   1  10  988.48   27.70
   4   1  10  960.96   24.16
   4   1  11  141.85    9.41
   4   1  11  140.01   10.89
   4  -1  11  157.35   10.08
   4  -1  11  160.28   10.14
   4  -1  12  117.42    9.09
   4   1  12  122.06   10.37
   4  -1  12  122.62    9.44
   4  -1  12   85.82    4.13
   4   1  12  117.15    8.67
   4  -1  13   91.64    8.25
   4   1  13   77.67    8.46
   4  -1  13   79.44    7.54
   4   1  14   42.86    5.37
   4  -1  14   47.19    6.29
   4   1  14   51.08    6.79
   4  -1  15   16.88    4.04
   4   1  15   20.02    4.91
   4   1  15   18.42    4.05
   4  -1  16  459.12   20.99
   4   1  16  438.38   18.10
   4   1  17   34.54    6.18
   4  -1  17   24.41    5.07
   4  -1  18  100.71   10.09
   4  -1  19   70.35    8.95
   4   1  19   84.16   10.34
   4  -1  20    5.52    2.92
   4   1  20    7.32    2.86
   4  -1  21    6.08    3.21
   4   1  21   17.92    4.99
   4   1  22   16.86    5.12
   4  -1  22   19.60    5.64
   4  -1  23   12.02    5.04
   4   1  23   14.02    4.46
   4   1  24   92.05   11.64
   4  -1  24  112.14   13.12
   4   1  25    7.61    3.17
   4  -1  25    8.31    3.78
   4  -1  26   12.71    4.66
   4   1  26    6.11    3.14
   4   1  27   -5.95    5.28
   4  -1  27   -9.37    3.85
   4   1  28   18.07    6.03
   4   1  29    9.67    4.98
   4   1  30    1.29    4.22
   4  -2 -23    8.59    4.33
   4  -2 -22   87.37   11.11
   4  -2 -21  125.90   12.65
   4  -2 -20   23.36    5.45
   4  -2 -19  187.33   14.95
   4   2 -18   31.05    5.53
   4  -2 -18   21.74    4.77
   4  -2 -17   28.90    6.06
   4   2 -17   21.64    4.33
   4  -2 -16  361.59   19.77
   4   2 -16  348.02   17.48
   4  -2 -16  334.77   14.12
   4  -2 -15  204.60   10.88
   4  -2 -15  191.06   13.74
   4   2 -15  196.23   12.73
   4   2 -14   54.53    6.98
   4  -2 -14   62.74    6.08
   4  -2 -14   60.95    7.64
   4  -2 -13  173.08    9.93
   4  -2 -13  171.45   12.38
   4   2 -13  167.81   11.52
   4  -2 -12  345.79   13.79
   4   2 -12  337.44   15.92
   4  -2 -12  330.66   17.03
   4  -2 -11   79.66    6.65
   4  -2 -11   63.76    7.35
   4   2 -11   68.95    7.06
   4  -2 -10  304.44   12.72
   4   2 -10  325.10   14.80
   4  -2 -10  301.12   15.52
   4  -2  -9  122.65    9.69
   4  -2  -9  120.27    7.94
   4   2  -9  118.64    8.95
   4  -2  -8   30.57    4.78
   4  -2  -8   28.41    3.87
   4   2  -8   28.28    4.32
   4  -2  -7    5.57    2.48
   4  -2  -7    4.23    1.42
   4   2  -7    5.79    2.34
   4  -2  -6    8.76    2.00
   4   2  -6   12.49    3.05
   4  -2  -6    4.91    1.86
   4  -2  -5   50.80    5.55
   4   2  -5   45.42    5.30
   4  -2  -5   55.52    5.36
   4  -2  -4 1041.95   25.01
   4  -2  -4 1037.12   22.87
   4   2  -4 1042.89   25.14
   4  -2  -3  352.04   13.97
   4  -2  -3  348.11   13.29
   4   2  -3  316.99   13.62
   4  -2  -2  139.81    8.59
   4   2  -2  135.65    9.05
   4  -2  -2  123.51    7.96
   4  -2  -1   73.95    6.06
   4   2  -1   89.17    7.18
   4  -2  -1   81.74    6.43
   4  -2   0  128.73    8.24
   4   2   0  121.56    8.55
   4   2   0  140.17    8.90
   4  -2   0  115.71    7.35
   4   2   1   76.91    6.64
   4  -2   1   88.02    6.71
   4   2   1   74.62    6.55
   4  -2   1   82.94    6.19
   4  -2   2  133.94    8.34
   4   2   2  140.13    9.33
   4  -2   2  146.95    7.84
   4   2   2  142.52    9.35
   4   2   3  306.08   14.01
   4  -2   3  328.51   13.36
   4  -2   3  341.98   11.45
   4   2   3  330.15   14.45
   4   2   4 1054.45   26.23
   4  -2   4 1061.00   24.15
   4  -2   4 1030.04   19.28
   4   2   4 1062.96   26.31
   4  -2   5   42.80    5.03
   4  -2   5   59.81    4.28
   4   2   5   69.24    6.84
   4   2   5   53.01    6.04
   4   2   6    9.16    2.94
   4   2   6   15.20    3.39
   4  -2   6   13.12    2.01
   4  -2   6    6.03    1.23
   4  -2   6   11.05    2.55
   4  -2   7    9.27    2.56
   4   2   7    4.34    1.51
   4  -2   7    5.66    1.16
   4   2   7    5.92    2.40
   4  -2   7    4.30    1.38
   4  -2   8   25.00    3.98
   4   2   8   26.62    4.78
   4  -2   8   37.19    4.04
   4  -2   8   30.95    2.54
   4   2   8   29.20    4.61
   4  -2   9  122.66    7.42
  -4  -2   9  126.86    5.80
   4   2   9  115.91    9.51
  -4   2   9  131.47    9.85
   4  -2   9  118.99    4.28
   4   2   9  132.55   10.42
   4  -2   9  137.32    9.46
  -4   2  10  295.25   15.55
   4  -2  10  340.85   13.10
  -4  -2  10  314.30    8.50
   4   2  10  310.18   15.88
   4   2  10  325.01   16.81
   4  -2  10  324.91   14.72
   4   2  11   65.46    7.40
  -4   2  11   71.87    7.93
   4  -2  11   74.89    6.61
  -4  -2  11   57.16    3.20
   4   2  11   67.18    7.79
   4  -2  11   67.71    6.78
   4  -2  12  345.63   14.58
   4   2  12  350.48   18.55
   4   2  12  333.57   16.46
  -4   2  12  331.01   17.20
   4  -2  12  317.80   15.16
  -4   2  13  191.12   13.60
   4   2  13  157.79   12.63
   4  -2  13  175.63   11.33
   4   2  13  171.18   12.18
   4  -2  13  191.37   11.40
  -4   2  14   67.94    8.46
   4  -2  14   56.44    6.71
   4  -2  14   62.17    7.16
   4   2  14   65.65    7.82
   4   2  14   63.47    7.80
  -4   2  15  210.64   14.96
   4   2  15  203.48   14.90
   4   2  15  208.91   13.69
   4  -2  15  192.01   12.43
   4  -2  15  183.34   11.96
   4   2  16  354.30   18.81
   4  -2  16  353.78   17.41
  -4   2  16  392.59   20.64
   4   2  16  368.01   20.39
   4  -2  16  370.72   17.69
  -4   2  17   19.33    4.63
   4   2  17   26.91    5.42
   4  -2  17   24.76    4.83
   4  -2  17   28.69    5.28
   4   2  17   27.88    5.87
   4  -2  18   27.65    5.37
  -4   2  18   32.81    6.38
   4   2  18   31.29    6.03
  -4   2  19  169.93   14.52
   4   2  19  200.29   17.39
   4  -2  19  199.46   14.62
   4   2  20    5.27    3.00
   4  -2  20    8.77    2.95
  -4   2  20    6.38    3.86
   4   2  21  102.80   12.42
   4  -2  21  119.82   11.87
  -4   2  21  125.11   12.97
   4  -2  22  106.39   12.40
   4   2  22  101.66   11.90
   4   2  23   14.62    4.68
   4   2  24   20.94    5.06
   4   2  25  127.67   14.02
   4   2  26  117.76   13.56
   4   2  27  111.64   13.93
   4   2  28   14.36    5.58
   4   2  29    2.09    2.10
   4   2  30   20.73    6.73
   4  -3 -24    5.83    3.43
   4  -3 -23    6.36    2.65
   4  -3 -22    6.74    2.72
   4  -3 -21    0.57    1.54
  -4  -3 -21   -0.25    2.18
   4  -3 -20    1.15    1.40
   4  -3 -19    2.93    2.49
   4  -3 -18   31.93    6.16
   4  -3 -17   62.65    7.39
   4   3 -17   45.17    6.60
   4  -3 -17   48.75    7.61
   4   3 -16   35.89    5.64
   4  -3 -16   34.43    6.14
   4  -3 -16   23.47    4.39
   4  -3 -15   92.81    9.98
   4  -3 -15   79.06    7.99
   4   3 -15   79.72    8.54
   4  -3 -14    5.16    3.21
   4  -3 -14    5.24    3.02
   4   3 -14    1.09    1.07
   4  -3 -13   40.60    6.20
   4  -3 -13   43.72    5.89
   4   3 -13   34.24    5.31
   4  -3 -12   59.28    6.69
   4   3 -12   59.54    6.94
   4  -3 -12   77.22    8.83
   4  -3 -11   20.46    4.58
   4  -3 -11   12.34    2.80
   4   3 -11   24.54    4.32
   4   3 -10   34.32    5.37
   4  -3 -10   24.87    4.83
   4  -3 -10   28.84    4.67
   4  -3  -9   49.39    6.14
   4   3  -9   63.16    6.98
   4  -3  -9   60.48    7.27
   4  -3  -8    9.85    3.07
   4   3  -8    7.35    2.48
   4  -3  -8    6.35    1.91
   4   3  -7   70.46    7.05
   4  -3  -7   66.66    6.56
   4  -3  -7   62.06    7.00
   4   3  -6  514.79   19.28
   4  -3  -6  540.82   19.00
   4  -3  -6  534.88   20.41
   4   3  -5   92.50    8.34
   4  -3  -5   89.42    7.77
   4  -3  -5   71.70    7.43
   4  -3  -4   28.92    4.44
   4  -3  -4   22.96    4.05
   4   3  -4   32.20    4.94
   4   3  -4   28.76    4.25
   4   3  -3   76.64    7.37
   4  -3  -3   80.57    7.14
   4   3  -3   71.22    6.75
   4  -3  -3   79.78    7.42
   4   3  -2   83.65    7.69
   4   3  -2   90.72    7.59
   4  -3  -2   88.30    7.67
   4  -3  -2   87.95    7.61
   4  -3  -1  160.43   10.23
   4   3  -1  183.13   11.47
   4   3  -1  196.39   11.14
   4  -3  -1  195.36   11.07
   4  -3   0  531.21   18.62
   4  -3   0  524.94   17.58
   4   3   0  562.59   20.42
   4  -3   1  198.19   11.40
   4  -3   1  189.02   10.39
   4   3   1  199.67   11.54
   4   3   1  178.76   11.67
   4   3   2   96.91    8.09
   4  -3   2   84.21    6.64
   4  -3   2   87.56    7.65
   4   3   2  101.97    8.85
   4   3   3   83.39    7.55
   4  -3   3   78.54    6.21
   4  -3   3   79.84    4.14
   4  -3   3   76.69    7.20
   4   3   3   85.15    8.12
   4  -3   4   24.78    2.13
   4   3   4   28.98    4.61
   4  -3   4   26.39    3.48
   4   3   4   18.51    3.86
   4  -3   4   22.63    4.06
   4   3   5   91.96    8.69
   4  -3   5   97.41    8.11
   4  -3   5   87.91    3.90
   4  -3   5   92.87    6.28
   4   3   5   88.73    8.46
   4   3   6  543.44   20.78
   4  -3   6  551.85   19.68
  -4   3   6  492.45   17.76
   4  -3   6  523.44   14.22
   4   3   6  571.38   21.96
   4  -3   6  510.19   10.04
   4  -3   7   61.92    6.69
  -4  -3   7   73.11    6.03
  -4   3   7   70.78    6.92
   4  -3   7   66.99    3.92
   4   3   7   58.69    6.99
   4  -3   7   67.12    4.81
   4   3   7   73.02    7.95
   4   3   8    8.83    3.43
   4  -3   8   10.32    2.44
  -4   3   8    9.14    2.54
  -4  -3   8    5.38    1.79
   4  -3   8    7.17    1.48
   4  -3   8    4.03    0.98
   4   3   8    4.74    1.91
   4  -3   9   54.51    6.37
   4  -3   9   55.73    3.78
  -4  -3   9   59.84    5.21
   4  -3   9   58.90    4.49
  -4   3   9   62.32    7.10
   4   3   9   68.46    7.98
   4   3   9   48.79    6.43
   4  -3  10   30.02    4.88
   4   3  10   28.52    5.55
  -4   3  10   22.98    4.46
  -4  -3  10   28.51    3.46
   4  -3  10   26.71    3.50
   4  -3  10   25.03    2.13
   4   3  10   30.80    5.28
   4   3  11   13.85    4.09
   4  -3  11   10.29    2.90
  -4   3  11   15.31    3.80
   4   3  11   15.96    4.18
  -4  -3  11   12.00    2.22
   4  -3  11   14.43    2.67
   4  -3  12   60.63    5.65
   4  -3  12   68.88    7.38
  -4   3  12   76.01    8.25
   4   3  12   63.28    7.85
  -4  -3  12   53.05    4.48
   4   3  12   65.74    8.35
   4   3  13   36.15    6.41
   4  -3  13   37.33    4.78
   4   3  13   42.59    6.21
   4  -3  13   46.40    6.30
   4  -3  14    7.58    2.20
   4   3  14    5.83    2.64
   4  -3  14    5.38    2.17
  -4   3  14    3.58    3.14
   4   3  14    5.36    2.62
   4   3  15   83.88    9.32
  -4   3  15   92.70   10.33
   4  -3  15   92.52    8.35
   4  -3  15   78.34    8.41
   4   3  15   77.88    9.32
   4   3  16   32.91    6.11
   4  -3  16   31.41    5.86
  -4   3  16   26.99    5.09
   4   3  16   26.75    6.36
   4  -3  16   35.50    5.58
   4   3  17   58.94    8.11
   4   3  17   61.25    8.36
  -4   3  17   53.54    7.92
   4   3  18   13.87    4.57
   4   3  18    9.84    3.68
  -4   3  18   21.00    6.08
  -4   3  19   10.38    3.79
   4   3  19    8.04    2.68
   4   3  20    0.57    2.17
  -4   3  20    1.12    2.47
   4   3  21    4.83    3.94
  -4   3  21    0.16    1.39
  -4   3  22   10.75    4.81
   4   3  22    7.19    3.61
  -4   3  23    7.93    3.90
   4   3  23    6.37    4.29
   4   3  24    5.87    4.34
  -4   3  24    9.58    4.10
   4   3  25    2.99    3.05
   4   3  26    9.02    4.24
   4   3  27    2.67    3.14
   4   3  28   17.37    5.31
   4   3  29   16.06    5.80
   4  -4 -25   41.81    8.45
   4  -4 -24   28.13    6.92
   4  -4 -23   61.29    9.48
  -4  -4 -22   36.71    7.82
   4  -4 -22   45.88    8.48
  -4  -4 -22   35.83    6.28
   4  -4 -21  124.43   13.45
   4  -4 -20   89.45   10.91
   4  -4 -19   10.37    4.41
   4  -4 -18   16.86    4.28
   4  -4 -18   20.02    5.02
   4  -4 -17   18.67    4.62
   4  -4 -17    9.47    3.29
   4  -4 -16  260.67   17.69
   4  -4 -16  281.81   17.06
   4   4 -16  237.30   15.15
   4  -4 -15  934.90   30.59
   4   4 -15  968.99   30.06
   4  -4 -15  948.25   33.50
   4   4 -14  141.34   11.78
   4  -4 -14  164.45   13.86
   4  -4 -14  167.86   12.80
   4   4 -13  100.84    9.66
   4  -4 -13  102.52    9.80
   4  -4 -13   90.22    9.95
   4  -4 -12  283.54   17.55
   4   4 -12  276.73   15.75
   4  -4 -12  263.83   15.59
   4  -4 -11  236.92   14.63
   4   4 -11  214.61   13.86
   4  -4 -11  221.85   15.45
   4  -4 -10  254.99   15.04
   4   4 -10  224.35   14.01
   4  -4 -10  252.99   16.23
   4  -4  -9  147.30   11.96
   4  -4  -9  172.25   12.35
   4   4  -9  167.91   12.03
   4  -4  -8   30.69    5.13
   4   4  -8   25.48    4.78
   4  -4  -8   33.20    5.74
   4   4  -7  254.51   14.83
   4  -4  -7  269.33   15.83
   4  -4  -7  258.82   14.84
   4   4  -6   30.47    5.18
   4   4  -6   35.11    5.15
   4  -4  -6   46.93    6.02
   4  -4  -6   36.00    5.66
   4   4  -5  124.60   10.40
   4  -4  -5  118.04   10.17
   4   4  -5  144.40   10.26
   4  -4  -4  502.79   20.30
   4   4  -4  514.53   19.22
   4   4  -4  469.43   20.26
   4   4  -3  174.79   12.49
   4   4  -3  155.10   10.50
   4  -4  -3  179.28   12.28
   4   4  -2   10.28    3.29
   4  -4  -2   14.30    3.76
   4  -4  -2   13.07    3.03
   4   4  -2   12.57    3.02
   4   4  -1   11.41    3.48
   4   4  -1    6.64    2.28
   4  -4  -1    5.13    2.26
   4  -4  -1    5.96    2.61
   4   4   0   17.83    4.37
   4  -4   0    9.27    3.22
   4  -4   0   14.35    3.12
   4   4   0   15.09    3.64
   4   4   1   10.03    2.95
   4  -4   1    6.98    2.52
   4  -4   1   14.38    3.02
   4   4   1   13.49    3.46
   4  -4   2    9.92    3.26
   4   4   2    3.77    2.06
   4   4   2   10.50    2.72
   4  -4   3  188.67   12.34
   4   4   3  192.74   12.39
   4   4   3  192.19   13.46
   4  -4   3  195.53   11.20
   4  -4   4  488.54   19.79
   4  -4   4  468.19   17.15
   4   4   4  475.91   21.45
  -4   4   4  452.02   16.39
   4   4   4  456.76   19.82
   4   4   5  133.10   10.85
   4  -4   5  123.91   10.07
  -4   4   5  153.64    9.93
   4  -4   5  164.98    9.63
  -4  -4   5  171.81   10.76
   4   4   5  158.29   12.51
   4  -4   6   29.72    5.14
  -4  -4   6   30.27    4.49
  -4   4   6   28.91    4.31
   4  -4   6   31.47    3.95
   4   4   6   37.90    6.59
   4   4   6   28.73    4.96
   4  -4   7  245.33   11.26
   4  -4   7  254.04   14.55
   4   4   7  255.96   15.42
  -4  -4   7  265.35   13.36
   4   4   7  248.20   15.85
  -4   4   7  267.40   13.98
  -4  -4   8   32.34    4.63
   4  -4   8   25.17    5.05
  -4   4   8   17.49    3.85
   4   4   8   26.30    5.39
   4   4   8   27.06    4.83
   4  -4   8   25.42    3.58
   4  -4   9  157.62   11.60
  -4   4   9  153.11   11.38
  -4  -4   9  170.67   10.48
   4   4   9  147.57   12.25
   4   4   9  150.50   12.47
   4  -4   9  138.15    7.48
  -4  -4  10  244.39   12.36
   4  -4  10  218.96   13.73
  -4   4  10  236.29   14.48
   4   4  10  244.13   16.31
   4   4  10  196.93   14.27
   4   4  11  255.54   16.35
  -4   4  11  223.63   14.51
   4   4  11  217.93   15.60
  -4  -4  11  229.73   11.90
   4  -4  11  213.62   13.67
   4   4  12  296.67   18.37
   4  -4  12  290.26   16.23
   4   4  12  239.08   16.57
  -4   4  12  266.16   16.28
   4   4  13  100.62   11.26
  -4   4  13   98.10   10.15
   4  -4  13   96.85    9.52
   4   4  13   99.82   10.61
   4  -4  14  175.54   12.85
   4   4  14  167.62   14.52
  -4   4  14  128.55   12.09
   4   4  14  151.95   13.84
   4   4  15  952.18   34.73
   4   4  15 1008.82   34.90
  -4   4  15  879.96   31.63
   4  -4  15  948.71   30.25
   4   4  16  276.26   18.94
   4   4  16  275.53   18.61
   4  -4  16  245.33   15.78
  -4   4  16  315.63   19.04
   4   4  17   14.88    4.29
  -4   4  17   15.74    4.61
   4   4  17   21.65    5.37
  -4   4  18   26.80    5.45
   4   4  18   26.86    6.61
   4   4  18   18.55    4.82
  -4   4  19   10.59    4.86
   4   4  19   19.48    6.13
  -4   4  20  111.42   12.18
   4   4  20   63.77    9.71
  -4   4  21  166.54   15.48
   4   4  21  127.50   13.72
   4   4  22   53.17    8.85
  -4   4  22   50.51    8.68
   4   4  23   46.27    8.52
  -4   4  23   57.97    9.60
   4   4  24   27.89    7.18
  -4   4  24   21.78    6.14
  -4   4  25   42.99    8.53
   4   4  25   36.06    7.77
   4   4  26   78.39   11.56
   4   4  27   56.08   10.67
   4   4  28    2.34    2.35
   4  -5 -26   -0.15    4.71
   4  -5 -25   11.35    5.21
   4  -5 -24   43.38    9.29
  -4  -5 -23    0.05    2.84
   4  -5 -23    2.39    3.64
  -4  -5 -22    4.32    3.23
  -4  -5 -22   10.65    3.90
  -4  -5 -21   11.12    5.38
   4  -5 -21    7.96    3.44
   4  -5 -20   35.31    7.27
  -4  -5 -20   37.64    7.52
   4  -5 -19   13.55    4.09
  -4  -5 -19    4.68    2.75
   4  -5 -18   46.94    8.08
   4  -5 -18   43.11    7.45
  -4  -5 -18   54.86    8.64
   4  -5 -17  133.59   13.86
   4  -5 -17  127.61   12.40
   4  -5 -16  181.94   14.76
   4  -5 -16  175.23   15.25
   4  -5 -15  327.98   20.36
   4  -5 -15  362.83   20.40
   4   5 -15  318.93   18.63
   4  -5 -14   35.41    6.38
   4   5 -14   25.17    5.67
   4  -5 -14   31.33    6.86
   4  -5 -13  207.25   14.86
   4   5 -13  213.49   15.12
   4  -5 -12  230.06   16.82
   4   5 -12  269.72   17.14
   4  -5 -12  266.88   17.14
   4  -5 -11    2.23    2.07
   4   5 -11    8.29    3.11
   4  -5 -11    7.41    3.37
   4   5 -10  124.61   11.74
   4  -5 -10  123.37   11.70
   4  -5 -10  139.50   12.61
   4   5  -9   45.76    6.60
   4   5  -9   36.90    5.92
   4  -5  -9   34.58    5.85
   4  -5  -9   43.62    6.67
   4   5  -8   24.16    5.24
   4  -5  -8   35.44    6.44
   4  -5  -8   32.71    5.65
   4   5  -8   27.44    4.97
   4  -5  -7   53.72    6.96
   4  -5  -7   53.67    7.51
   4   5  -7   52.23    7.03
   4   5  -7   51.40    7.64
   4  -5  -6   21.65    4.97
   4   5  -6    7.58    1.83
   4   5  -6   17.54    3.76
   4  -5  -6   31.52    6.13
   4   5  -5   26.33    4.86
   4  -5  -5   42.44    6.44
   4   5  -5   31.05    5.18
   4  -5  -5   40.44    6.51
   4  -5  -4  169.26   12.92
   4  -5  -4  157.01   12.05
   4   5  -4  186.04   12.30
   4   5  -4  145.18   12.25
   4  -5  -3   55.23    7.29
   4  -5  -3   51.66    7.04
   4   5  -3   54.29    6.74
   4   5  -2   10.65    3.44
   4  -5  -2   14.74    4.03
   4  -5  -2    5.01    3.03
   4   5  -2    3.46    1.58
   4  -5  -1  113.69   10.51
   4   5  -1  108.35    9.38
   4   5  -1  119.21   10.99
   4  -5  -1  127.20   11.01
  -4  -5   0   43.21    6.21
   4  -5   0   43.43    6.67
   4   5   0   37.58    6.19
   4   5   0   46.20    6.15
   4  -5   0   40.13    6.11
   4   5   1  146.27   12.37
  -4  -5   1  104.29    9.81
   4  -5   1  109.18   10.11
   4   5   1  116.31   10.09
   4  -5   1  142.86   11.03
   4  -5   2    5.77    2.18
   4   5   2    4.85    2.90
   4   5   2    5.90    2.59
  -4  -5   2   12.32    3.82
   4  -5   2    2.73    1.63
   4  -5   3   41.29    6.13
  -4  -5   3   53.96    6.94
   4   5   3   44.58    6.98
   4   5   3   48.82    6.70
   4  -5   3   48.45    6.27
   4  -5   4  156.59   11.96
   4   5   4  200.81   13.56
   4   5   4  161.08   13.68
  -4  -5   4  171.75   12.28
  -4   5   4  150.05    9.96
   4  -5   4  175.32   11.70
   4   5   5   33.39    5.83
  -4   5   5   25.24    4.05
  -4  -5   5   38.75    5.86
   4  -5   5   36.89    5.58
   4  -5   5   24.59    4.53
   4   5   5   34.39    6.18
   4  -5   6   26.27    5.35
   4  -5   6   20.47    3.63
  -4   5   6   22.72    4.50
   4   5   6   26.17    4.91
   4   5   6   26.00    5.63
  -4  -5   6   20.58    4.20
   4  -5   7   50.66    6.89
  -4   5   7   50.04    6.40
  -4  -5   7   41.80    6.19
   4   5   7   49.21    7.09
   4   5   7   46.43    7.53
   4  -5   7   55.90    6.16
   4   5   8   23.15    5.83
   4  -5   8   41.02    6.10
  -4  -5   8   24.21    4.75
   4  -5   8   23.03    3.98
  -4   5   8   26.05    4.71
   4   5   8   25.89    5.16
   4  -5   9   48.44    6.93
  -4   5   9   58.01    7.28
   4  -5   9   44.12    5.66
   4   5   9   49.21    7.06
   4   5   9   43.00    7.29
  -4  -5   9   39.00    5.77
  -4   5  10  107.27   10.04
   4  -5  10  103.83   10.54
   4   5  10  109.08   11.36
  -4  -5  10  104.97    9.74
   4   5  10  133.76   13.03
   4   5  11    5.86    3.36
  -4   5  11    8.13    4.13
  -4  -5  11    0.88    2.05
   4   5  11    8.05    3.22
   4  -5  11    4.17    2.62
   4  -5  12  218.46   14.96
  -4   5  12  233.88   15.45
   4   5  12  257.43   17.45
   4   5  12  243.61   18.26
   4  -5  13  181.56   13.74
  -4   5  13  183.11   14.13
   4   5  13  166.30   14.29
   4   5  13  172.24   15.29
  -4   5  14   25.23    5.74
   4   5  14   30.01    6.59
   4   5  14   31.09    7.18
   4  -5  14   29.86    6.55
  -4   5  15  299.82   19.09
   4  -5  15  325.70   19.26
   4   5  15  296.71   20.74
   4   5  15  330.77   20.77
   4   5  16  173.70   15.91
   4   5  16  169.57   14.75
  -4   5  16  154.88   14.16
  -4   5  17  116.35   12.23
   4   5  17  116.79   13.25
   4   5  17  114.54   12.46
  -4   5  18   45.17    7.89
   4   5  18   48.99    8.45
   4   5  18   45.30    8.29
  -4   5  19   21.69    5.62
   4   5  19   15.41    5.48
   4   5  19    8.09    3.81
   4   5  20   32.22    7.34
  -4   5  20   31.13    6.99
   4   5  21   10.49    4.31
  -4   5  21   10.00    3.77
   4   5  22   28.33    7.29
  -4   5  22   33.35    6.94
  -4   5  23    5.13    3.01
   4   5  23    4.12    3.30
   4   5  24   36.89    7.63
  -4   5  24   65.36   10.39
  -4   5  25   12.75    4.58
   4   5  25    9.24    4.00
  -4   5  26    3.30    3.48
   4   5  26   -0.53    3.26
   4   5  27   21.17    6.77
   4  -6 -26   34.41    7.50
   4  -6 -25   24.73    7.17
  -4  -6 -24   21.15    7.22
   4  -6 -24   41.12    8.84
  -4  -6 -23   72.92   11.38
   4  -6 -23   48.47    9.43
  -4  -6 -22   58.15   10.35
   4  -6 -22   63.50   10.50
   4  -6 -21  151.75   15.85
  -4  -6 -21  139.52   14.62
  -4  -6 -20  280.28   20.58
   4  -6 -20  272.91   20.47
   4  -6 -19   31.13    7.09
  -4  -6 -19   33.04    6.52
   4  -6 -19   25.47    6.13
  -4  -6 -18   15.34    5.29
   4  -6 -18   19.61    6.20
   4  -6 -18   20.67    5.56
   4  -6 -17  138.17   14.07
   4  -6 -17  151.65   14.92
  -4  -6 -17  143.04   14.59
   4  -6 -16   50.62    9.35
   4  -6 -16   39.66    7.53
  -4  -6 -16   41.72    8.89
  -4  -6 -15  741.26   32.39
   4  -6 -15  760.21   32.81
   4  -6 -15  730.90   31.08
  -4  -6 -14  191.18   16.54
   4  -6 -14  203.67   16.05
   4  -6 -14  175.74   15.81
   4   6 -14  167.84   14.38
  -4  -6 -13   39.56    7.81
   4  -6 -13   51.47    8.28
   4  -6 -13   61.55    9.72
   4   6 -13   39.30    7.53
   4   6 -12   50.96    7.45
   4  -6 -12   47.88    7.70
  -4  -6 -12   58.43    8.62
   4   6 -12   45.48    7.53
   4  -6 -12   47.27    8.02
   4  -6 -11  563.72   26.19
   4   6 -11  583.18   25.02
   4   6 -11  618.87   27.34
   4  -6 -10  162.17   14.24
   4  -6 -10  147.70   13.39
   4   6 -10  158.24   12.57
   4   6 -10  193.36   15.31
  -4  -6 -10  164.32   14.23
   4  -6  -9  195.33   15.35
  -4  -6  -9  246.79   17.32
   4   6  -9  240.80   15.29
   4  -6  -9  242.42   17.36
   4   6  -9  221.58   16.02
  -4  -6  -8   69.94    8.96
   4  -6  -8   81.37    9.51
   4  -6  -8   78.97   10.11
   4   6  -8   59.99    7.52
   4   6  -8   67.24    9.18
   4   6  -7   25.33    5.68
  -4  -6  -7   25.32    6.24
   4  -6  -7   37.62    6.55
   4  -6  -7   31.26    6.40
   4   6  -7   31.60    5.51
   4  -6  -6  313.47   19.24
  -4  -6  -6  316.65   18.84
   4  -6  -6  343.68   19.89
   4   6  -6  301.10   16.82
   4   6  -6  294.13   18.32
   4  -6  -5  393.74   21.25
   4   6  -5  422.18   19.83
   4  -6  -5  417.63   22.12
  -4  -6  -5  382.53   20.72
   4   6  -5  376.82   21.24
  -4  -6  -4    6.82    2.64
   4  -6  -4    9.57    3.14
   4   6  -4    5.12    1.88
   4  -6  -4    5.04    3.03
   4  -6  -3  143.26   12.54
   4  -6  -3  132.32   12.29
  -4  -6  -3  137.02   12.31
   4   6  -3  130.98   12.82
   4   6  -3  119.00   10.59
   4   6  -2   28.94    5.46
   4  -6  -2   38.46    6.75
   4  -6  -2   39.75    6.70
  -4  -6  -2   40.02    6.82
   4   6  -2   34.99    6.30
  -4  -6  -1  211.73   15.16
   4  -6  -1  173.74   13.88
   4   6  -1  202.69   15.42
   4   6  -1  194.69   13.38
   4  -6  -1  204.75   14.64
   4  -6   0  300.75   18.21
  -4  -6   0  305.16   18.18
   4   6   0  300.55   16.74
   4   6   0  281.00   18.85
   4  -6   0  261.63   16.73
  -4  -6   1  236.17   15.88
   4  -6   1  183.84   13.74
   4  -6   1  177.04   13.82
   4   6   1  188.80   13.92
   4   6   1  257.44   17.77
   4  -6   2   28.42    5.39
  -4  -6   2   22.69    4.80
   4   6   2   28.31    4.90
   4   6   2   31.55    6.35
   4  -6   2   29.51    5.67
   4   6   3  121.43   12.28
   4  -6   3  120.64   11.01
   4  -6   3  130.34   11.95
  -4   6   3  167.29   10.38
  -4  -6   3  138.50   12.10
   4   6   3  129.82   11.38
  -4   6   4   12.22    3.40
   4   6   4    9.61    3.14
   4  -6   4    6.90    3.46
   4  -6   4    6.64    2.96
   4   6   4    9.68    3.82
  -4  -6   4    5.73    2.98
   4  -6   5  410.68   19.67
  -4  -6   5  418.26   20.93
   4  -6   5  406.89   20.95
  -4   6   5  385.09   17.48
   4   6   5  382.38   20.26
   4   6   5  432.55   23.53
  -4   6   6  292.59   15.90
  -4  -6   6  290.96   17.33
   4   6   6  324.94   19.09
   4   6   6  330.20   20.59
   4  -6   6  292.25   16.53
   4  -6   6  320.59   18.65
   4  -6   7   33.04    6.17
  -4   6   7   43.47    6.11
   4   6   7   43.38    7.43
   4   6   7   37.58    6.95
  -4  -6   7   35.45    6.63
   4  -6   7   41.27    5.94
   4   6   8   58.47    8.83
   4   6   8   66.07    8.84
  -4  -6   8   60.05    8.01
  -4   6   8   63.82    8.03
   4  -6   8   77.28    9.02
   4  -6   8   58.41    7.32
  -4  -6   9  223.13   15.24
  -4   6   9  205.76   14.35
   4   6   9  235.19   17.81
   4   6   9  224.91   16.33
   4  -6   9  226.90   16.31
   4  -6  10  198.65   15.31
  -4  -6  10  156.28   12.68
   4   6  10  176.59   14.51
   4   6  10  146.79   14.43
  -4   6  10  158.44   13.05
  -4  -6  11  534.60   23.67
  -4   6  11  675.90   27.15
   4   6  11  534.27   27.46
   4   6  11  636.40   28.50
   4  -6  11  580.35   26.30
   4  -6  12   44.68    7.57
   4   6  12   41.67    8.02
  -4   6  12   58.73    8.33
   4   6  12   64.14    9.11
   4  -6  13   57.96    8.82
  -4   6  13   42.94    7.54
   4   6  13   47.50    7.61
   4   6  13   49.52    9.27
   4   6  14  168.36   15.18
   4  -6  14  179.37   15.25
  -4   6  14  185.56   15.33
   4   6  14  185.24   16.73
   4  -6  15  673.37   29.11
  -4   6  15  778.68   31.53
   4   6  15  781.27   32.68
   4   6  15  699.15   32.87
   4   6  16   42.76    9.00
  -4   6  16   43.21    7.89
   4   6  16   46.13    8.34
   4   6  17  128.88   13.66
  -4   6  17  137.32   13.57
   4   6  17  175.48   16.60
   4   6  18   14.91    5.36
   4   6  18   13.97    5.02
  -4   6  18   18.11    6.06
   4   6  19   38.73    8.13
  -4   6  19   32.88    7.39
  -4   6  20  248.94   19.55
   4   6  20  277.82   21.31
  -4   6  21  119.51   14.00
   4   6  21  131.06   14.48
  -4   6  22   58.25    9.63
   4   6  22   56.03   10.10
  -4   6  23   52.22    9.68
   4   6  23   80.09   11.72
  -4   6  24   36.49    8.28
   4   6  24   37.85    8.57
  -4   6  25   24.15    7.29
   4   6  25    8.58    4.07
   4   6  26   61.77   10.67
  -4   6  26   45.03    9.24
  -4  -7 -24    2.41    4.45
   4  -7 -24    1.95    2.43
  -4  -7 -23    6.90    4.50
  -4  -7 -23    7.77    3.55
   4  -7 -22   19.22    5.62
  -4  -7 -22    8.39    4.87
  -4  -7 -22   22.68    6.74
   4  -7 -21    1.02    2.28
  -4  -7 -21    3.67    4.23
   4  -7 -20   39.84    8.27
  -4  -7 -20   37.60    8.89
   4  -7 -19   55.47    9.68
   4  -7 -19   70.63   10.91
  -4  -7 -19   52.38    9.77
   4  -7 -18  102.96   12.79
   4  -7 -18   89.14   11.56
  -4  -7 -18   81.38   11.34
   4  -7 -17   26.46    6.16
   4  -7 -17   45.91    8.25
  -4  -7 -17   29.42    7.27
   4  -7 -16   46.43    8.50
  -4  -7 -16   35.67    7.88
   4  -7 -16   24.83    6.22
  -4  -7 -15   42.17    6.95
   4  -7 -15   27.21    7.01
   4  -7 -15   46.22    8.92
   4  -7 -14   25.04    6.75
  -4  -7 -14   35.72    7.14
   4  -7 -14   11.01    4.09
   4  -7 -13  117.11   13.08
  -4  -7 -13  107.62   12.75
   4  -7 -13   87.51   11.44
   4  -7 -12   23.23    5.70
   4  -7 -12   30.48    6.79
   4   7 -12   17.98    5.27
  -4  -7 -12   25.06    6.06
   4  -7 -11   75.76   10.43
  -4  -7 -11   95.82   11.42
   4   7 -11   61.01    9.83
   4  -7 -11   76.63   10.74
   4   7 -10  129.27   13.94
   4  -7 -10  115.74   12.64
  -4  -7 -10  121.27   13.01
   4  -7 -10  153.80   14.53
   4   7  -9   16.88    4.86
   4  -7  -9   15.76    4.57
   4  -7  -9   20.74    6.06
  -4  -7  -9   16.59    4.91
   4  -7  -8  181.69   15.27
  -4  -7  -8  151.58   13.95
   4  -7  -8  156.54   14.82
   4   7  -8  146.29   14.91
   4   7  -7    2.86    3.19
  -4  -7  -7    4.71    3.22
   4  -7  -7    3.32    2.48
   4  -7  -7    3.85    2.67
   4   7  -6   32.56    6.75
   4  -7  -6   44.14    7.66
   4  -7  -6   37.63    6.66
  -4  -7  -6   40.40    7.87
   4   7  -6   45.11    6.81
   4   7  -5   50.47    9.07
  -4  -7  -5   57.54    9.05
   4  -7  -5   54.21    8.19
   4   7  -5   53.29    7.24
   4  -7  -5   37.40    7.23
   4  -7  -4   17.22    4.48
   4  -7  -4   20.71    5.49
  -4  -7  -4   13.78    4.23
   4   7  -4   10.31    3.49
   4   7  -4   22.31    5.11
  -4  -7  -3   28.88    6.39
   4   7  -3   38.39    6.39
   4  -7  -3   22.51    5.80
   4  -7  -3   44.64    7.20
   4   7  -3   39.29    7.35
   4   7  -2   20.09    4.46
  -4  -7  -2   19.24    5.21
   4  -7  -2   11.53    4.15
   4  -7  -2   14.74    4.24
   4   7  -2   15.41    3.50
   4  -7  -1   17.56    5.28
   4  -7  -1   21.02    5.16
   4   7  -1   10.46    3.83
  -4  -7  -1   15.80    4.01
   4   7  -1   12.59    4.66
   4  -7   0   73.33    9.31
   4  -7   0   84.22    9.82
   4   7   0   80.45    9.15
  -4  -7   0   84.43   10.09
   4   7   0   80.49   10.63
   4   7   1   11.32    4.76
   4  -7   1   15.10    5.04
   4  -7   1   16.81    4.94
  -4  -7   1    6.93    2.50
   4   7   1   23.31    5.16
   4   7   2   17.22    5.27
   4  -7   2   15.79    4.91
   4   7   2   21.21    5.28
   4  -7   2   20.02    5.15
  -4  -7   2   23.56    5.72
   4  -7   3   23.52    6.36
   4  -7   3   25.95    5.66
  -4  -7   3   24.35    5.09
   4   7   3   22.49    3.99
   4   7   3   38.92    7.30
   4   7   4   16.08    4.42
  -4  -7   4   23.68    5.58
  -4   7   4    8.65    3.30
   4   7   4   19.48    5.07
   4  -7   4   21.20    4.86
   4  -7   4   12.09    3.50
   4  -7   5   59.22    8.13
  -4  -7   5   53.59    8.22
   4   7   5   36.94    6.67
  -4   7   5   39.56    5.69
   4   7   5   45.59    8.50
   4  -7   6   35.36    6.66
  -4  -7   6   32.39    6.05
   4  -7   6   41.46    7.47
  -4   7   6   39.53    6.22
   4   7   6   38.16    6.87
   4   7   6   30.77    6.53
   4  -7   7    5.25    3.64
  -4   7   7    3.68    2.89
  -4  -7   7   13.03    5.76
   4  -7   7    8.68    4.88
   4   7   7   12.71    4.99
   4   7   7   13.43    5.29
   4  -7   8  154.62   14.14
  -4  -7   8  148.68   13.49
  -4   7   8  147.40   12.67
   4   7   8  127.39   14.14
   4   7   8  138.45   13.00
  -4   7   9   19.65    4.68
   4   7   9   20.23    5.83
   4  -7   9   22.13    5.76
  -4  -7   9   12.75    4.43
   4   7   9   22.21    6.31
  -4  -7  10  150.66   13.46
  -4   7  10  139.62   12.51
   4   7  10  130.52   13.50
   4  -7  10  146.26   13.73
   4   7  10  123.47   13.79
   4  -7  11   76.28   10.23
   4   7  11   76.12    9.79
  -4   7  11   80.31   10.02
   4   7  11   70.98   10.22
   4  -7  12   23.40    5.74
  -4   7  12   25.92    5.56
   4   7  12   28.53    6.22
   4   7  12   17.69    5.77
   4  -7  13  124.03   12.93
   4   7  13  110.08   13.66
  -4   7  13   97.39   11.33
   4   7  13  136.59   14.33
   4  -7  14   31.66    7.14
   4   7  14   25.92    5.91
  -4   7  14   23.97    5.34
   4   7  14   32.06    7.06
  -4   7  15   44.58    7.53
   4   7  15   28.86    6.41
   4   7  15   35.13    7.58
  -4   7  16   34.19    7.88
   4   7  16   27.91    6.86
   4   7  16   30.36    6.66
   4   7  17   22.01    6.30
  -4   7  17   21.93    5.21
   4   7  17   17.15    5.60
   4   7  18   78.63   11.07
   4   7  18   95.60   13.13
  -4   7  18  111.41   13.40
  -4   7  19   65.36   10.33
   4   7  19   72.51   11.14
  -4   7  20   38.69    7.77
   4   7  20   35.99    7.46
  -4   7  21    0.94    3.31
   4   7  21    2.13    1.89
  -4   7  22   31.49    8.36
   4   7  22   15.92    4.64
   4   7  23   18.96    6.76
  -4   7  23   16.49    5.33
   4   7  24    5.73    4.48
  -4   7  24    5.78    4.57
  -4  -8 -21   53.97   10.32
   4  -8 -21   72.88   11.80
   4  -8 -20   53.87   10.16
  -4  -8 -20   61.69   10.68
   4  -8 -19   77.72   12.31
   4  -8 -19   74.59   11.37
  -4  -8 -19   90.12   12.83
   4  -8 -18   88.69   11.97
   4  -8 -18  119.98   14.29
  -4  -8 -18  110.25   13.56
   4  -8 -17    4.47    4.64
  -4  -8 -17    0.17    1.99
   4  -8 -17    3.05    4.58
   4  -8 -16   32.90    7.54
   4  -8 -16   34.64    8.75
  -4  -8 -16   17.29    5.12
   4  -8 -15    7.30    2.55
  -4  -8 -15    2.03    2.78
   4  -8 -15   11.72    4.94
   4  -8 -14   -0.31    2.41
   4  -8 -14    4.42    2.23
  -4  -8 -14    7.80    4.14
  -4  -8 -13   42.43    8.69
   4  -8 -13   43.39    8.46
   4  -8 -13   38.43    8.08
   4  -8 -12    2.74    4.13
  -4  -8 -12    6.57    3.14
   4  -8 -11    4.72    1.57
   4  -8 -11    8.64    4.88
  -4  -8 -11    9.62    4.15
   4   8 -11   12.00    5.80
   4  -8 -10  246.25   19.04
  -4  -8 -10  241.75   18.68
   4   8 -10  210.48   17.99
   4  -8 -10  233.64   18.85
   4  -8  -9   63.81    9.92
   4  -8  -9   61.45    9.89
  -4  -8  -9   65.08    9.50
   4   8  -9   48.22    9.04
   4  -8  -8   18.65    5.31
   4  -8  -8    4.46    2.30
  -4  -8  -8   12.13    4.97
   4   8  -8    5.18    4.71
   4  -8  -7  136.46   13.92
   4  -8  -7  104.93   12.39
  -4  -8  -7  138.89   14.12
   4   8  -7  133.05   13.99
   4  -8  -6  315.16   21.47
   4  -8  -6  280.98   20.05
  -4  -8  -6  279.30   19.96
   4   8  -6  280.16   20.43
   4   8  -5   69.44   10.29
   4  -8  -5   65.39    9.74
  -4  -8  -5   74.36   10.56
   4  -8  -5   71.06   10.28
   4  -8  -4   31.16    7.18
   4  -8  -4   37.87    8.15
  -4  -8  -4   12.37    4.52
   4   8  -4   28.19    6.77
   4  -8  -3   21.70    5.34
   4  -8  -3   16.74    3.92
  -4  -8  -3   15.21    5.17
   4   8  -3   26.91    5.94
   4  -8  -2   16.59    4.97
  -4  -8  -2   17.60    5.04
   4   8  -2   15.26    4.76
   4  -8  -2   16.04    5.13
   4   8  -1  220.83   16.04
   4  -8  -1  183.82   15.96
   4  -8  -1  233.44   17.96
  -4  -8  -1  184.84   16.13
   4   8  -1  160.92   15.72
   4  -8   0  308.64   20.72
   4   8   0  330.61   19.79
   4  -8   0  321.57   21.11
  -4  -8   0  301.04   20.39
   4   8   0  261.19   19.83
   4   8   1  208.61   17.41
   4  -8   1  220.36   17.47
   4  -8   1  189.23   16.48
   4   8   1  216.55   16.11
  -4  -8   1  217.39   17.35
   4  -8   2   15.67    4.78
   4  -8   2   16.98    5.31
   4   8   2   11.66    4.72
   4   8   2   10.85    4.83
  -4  -8   2   12.09    4.62
   4  -8   3   26.17    5.85
   4  -8   3   13.79    3.63
   4   8   3   12.70    4.83
  -4  -8   3   16.00    5.52
   4   8   3   16.49    5.49
  -4  -8   4   32.97    7.38
   4  -8   4   30.33    6.33
   4  -8   4   35.99    7.50
   4   8   4   28.66    6.38
   4   8   4   19.72    5.26
   4  -8   5   61.99    9.12
   4  -8   5   60.40    9.63
   4   8   5   62.77    9.77
   4   8   5   78.52   11.31
  -4  -8   5   70.52    9.64
   4  -8   6  249.66   18.66
  -4  -8   6  270.07   19.37
   4   8   6  241.81   18.07
   4   8   6  278.62   21.14
  -4  -8   7  131.80   13.59
   4   8   7  135.91   14.82
   4   8   7  147.05   14.50
   4  -8   7  156.28   14.76
   4   8   8   17.38    4.28
   4  -8   8    6.31    3.70
  -4   8   8   20.40    4.94
  -4  -8   8   12.64    4.22
   4   8   8   16.80    5.50
   4  -8   9   55.83    8.85
  -4  -8   9   55.41    9.13
  -4   8   9   58.54    8.35
   4   8   9   42.87    7.96
   4   8   9   36.02    7.56
   4  -8  10  242.82   18.41
   4   8  10  249.38   20.45
  -4  -8  10  259.95   19.70
  -4   8  10  236.03   17.91
   4   8  10  254.19   19.01
   4  -8  11   11.97    5.20
  -4   8  11    5.83    3.78
   4   8  11    3.33    3.14
   4   8  11    4.51    4.12
   4  -8  12    6.58    4.28
   4   8  12   11.50    4.09
  -4   8  12   11.62    3.79
   4   8  12   16.62    6.57
   4  -8  13   39.24    7.79
  -4   8  13   24.12    6.89
   4   8  13   35.96    6.78
   4   8  13   31.17    7.31
  -4   8  14    0.96    2.35
   4   8  14    3.88    3.04
   4   8  14   -0.20    3.58
  -4   8  15    5.46    3.21
   4   8  15    3.37    4.30
   4   8  15    5.45    4.33
  -4   8  16   25.13    6.47
   4   8  16   16.19    4.98
   4   8  17   -0.85    4.21
  -4   8  17    2.33    2.66
   4   8  17   -0.40    3.84
  -4   8  18   90.38   12.69
   4   8  18  107.36   13.24
  -4   8  19   98.24   12.90
   4   8  19   91.90   12.49
  -4   8  20   47.04    9.19
   4   8  20   42.98    8.45
  -4   8  21   44.65    8.95
   4   8  21   80.83   12.07
  -4  -9 -18    3.50    3.27
   4  -9 -18    2.81    3.46
   4  -9 -17   24.46    7.30
  -4  -9 -17   21.19    6.98
   4  -9 -17   18.99    6.43
   4  -9 -16    3.49    2.98
   4  -9 -16    2.28    2.72
  -4  -9 -16    2.41    3.36
   4  -9 -15    5.03    2.82
   4  -9 -15   11.01    5.21
   4  -9 -14    1.22    1.76
  -4  -9 -14    6.56    2.35
   4  -9 -13   37.38    8.37
   4  -9 -13   22.64    5.90
  -4  -9 -13   44.81    8.98
   4  -9 -12   76.19   10.92
   4  -9 -12   66.16   10.92
  -4  -9 -12   54.13    9.45
   4  -9 -11   13.08    5.14
   4  -9 -11   10.03    4.61
  -4  -9 -11    2.61    3.59
   4  -9 -10    3.81    2.38
   4  -9 -10    3.04    3.62
  -4  -9 -10    1.77    2.57
   4   9 -10    5.35    4.85
   4  -9  -9   29.77    7.20
   4  -9  -9   36.86    7.56
  -4  -9  -9   34.01    7.60
   4   9  -9   58.59   10.25
  -4  -9  -8   47.57    8.41
   4  -9  -8   45.74    8.57
   4  -9  -8   49.18    9.37
   4   9  -8   46.90    9.01
   4  -9  -7   45.07    8.54
  -4  -9  -7   37.94    7.59
   4  -9  -7   37.44    8.25
   4   9  -7   48.98   10.08
   4  -9  -6   11.48    5.47
  -4  -9  -6   15.24    4.89
   4  -9  -6    7.29    4.23
   4   9  -6    6.32    4.10
   4  -9  -5    5.56    3.58
   4  -9  -5   12.50    4.53
  -4  -9  -5    5.65    3.40
   4   9  -5    7.12    3.98
   4  -9  -4   24.70    5.52
  -4  -9  -4   39.42    7.43
   4   9  -4   26.04    7.03
   4  -9  -4   43.01    8.48
  -4  -9  -3   22.33    5.86
   4  -9  -3   22.90    6.47
   4   9  -3   40.05    7.99
   4  -9  -2    5.60    4.34
  -4  -9  -2    8.74    4.26
   4  -9  -2   -0.80    2.52
   4   9  -2    3.31    3.79
   4  -9  -1   45.17    8.42
   4  -9  -1   38.94    7.63
  -4  -9  -1   65.23   10.12
   4   9  -1   35.18    7.66
   4  -9   0  153.38   15.41
   4  -9   0  157.43   15.33
  -4  -9   0  159.49   15.60
   4   9   0  154.30   16.47
   4  -9   1   44.73    7.93
  -4  -9   1   18.98    4.94
   4  -9   1   45.95    8.83
   4   9   1   37.37    8.63
   4  -9   2    4.99    4.06
  -4  -9   2    1.47    2.54
   4   9   2   10.19    5.21
   4  -9   2    5.39    4.30
   4  -9   3   31.00    6.93
  -4  -9   3   32.09    7.30
   4  -9   3   24.54    6.17
   4   9   3   24.99    5.25
   4   9   4   26.96    6.88
   4  -9   4   18.84    5.57
   4  -9   4   27.66    6.68
  -4  -9   4   30.08    6.92
   4   9   5    7.03    3.75
   4  -9   5    5.78    3.64
  -4  -9   5    5.73    2.35
   4   9   5   14.54    5.60
  -4  -9   6   17.16    5.59
   4  -9   6    8.02    3.91
   4   9   6   17.62    5.54
   4   9   6    5.33    3.49
   4  -9   7   39.76    7.69
  -4  -9   7   41.83    8.53
   4   9   7   34.05    7.96
   4   9   7   37.43    7.65
   4  -9   8   60.38    9.92
  -4  -9   8   57.95    9.74
   4   9   8   64.53    9.99
   4   9   8   62.50   10.78
  -4  -9   9   39.49    7.80
   4  -9   9   32.09    6.67
   4   9   9   34.18    7.76
   4   9   9   47.20    8.34
   4  -9  10   -1.80    3.56
   4   9  10    2.41    3.04
   4   9  10    0.28    2.52
   4  -9  11    4.32    3.70
   4   9  11    9.89    4.70
   4   9  11    1.69    3.79
   4  -9  12   54.09    9.35
   4   9  12   54.04   10.94
   4   9  12   48.16    8.32
   4  -9  13   32.78    7.06
   4   9  13   26.68    7.24
   4   9  13   26.48    6.76
   4   9  14   10.56    4.95
   4   9  14    5.52    3.70
   4   9  15   10.63    3.05
  -4   9  15   11.47    3.34
   4   9  15   13.20    4.00
   4   9  16    4.18    4.69
   4   9  16    5.89    3.34
  -4   9  16    4.33    4.01
  -4   9  17    6.92    3.32
   4   9  17   14.41    5.13
  -4   9  18   -3.14    3.68
   4   9  18    2.80    2.44
   4 -10 -14   18.67    6.64
  -4 -10 -14    8.37    4.52
   4 -10 -14   15.76    4.93
   4 -10 -13   14.61    6.28
   4 -10 -13   23.49    7.82
  -4 -10 -13   23.50    6.86
   4 -10 -12   15.44    5.20
   4 -10 -12   16.09    4.74
  -4 -10 -12   10.19    4.04
   4 -10 -11   32.80    7.63
   4 -10 -11   46.36    9.35
  -4 -10 -11   48.08    8.31
   4 -10 -10   39.20    7.85
   4 -10 -10   61.93   10.18
  -4 -10 -10   50.90    8.59
  -4 -10  -9  127.82   14.98
   4 -10  -9  130.90   15.50
   4 -10  -9  139.40   15.34
   4 -10  -8   17.84    5.08
   4 -10  -8   31.02    7.35
  -4 -10  -8   30.18    6.75
   4  10  -8   32.26    7.25
   4 -10  -7   30.71    6.88
   4 -10  -7   24.64    6.85
   4  10  -7   31.15    7.67
   4 -10  -6   68.09   10.64
   4 -10  -6   51.78    9.24
   4  10  -6   60.72   10.95
  -4 -10  -6   66.94   10.20
   4  10  -5   65.34   10.58
   4 -10  -5   90.36   12.61
  -4 -10  -5   79.18   11.21
   4 -10  -5   69.74   11.03
  -4 -10  -4   46.08    9.21
   4 -10  -4   25.89    7.33
   4  10  -4   32.41    7.82
   4 -10  -4   56.18   10.00
   4 -10  -3   16.94    4.96
  -4 -10  -3   23.26    6.94
   4 -10  -3   16.24    5.89
   4  10  -3   22.36    6.46
   4 -10  -2   -0.01    3.44
  -4 -10  -2   17.33    6.36
   4 -10  -2   19.99    7.68
   4  10  -2    2.08    2.71
   4 -10  -1   35.43    8.18
  -4 -10  -1   33.74    6.60
   4  10  -1   39.90    8.24
   4 -10  -1   30.76    6.80
   4 -10   0  142.16   15.64
   4 -10   0  120.83   14.08
  -4 -10   0  116.43   14.16
   4  10   0  119.34   14.46
  -4 -10   1   29.43    7.24
   4 -10   1   34.01    7.69
   4 -10   1   33.29    7.29
   4  10   1   26.90    7.79
   4 -10   2    5.94    4.11
   4 -10   2   16.92    5.32
  -4 -10   2    6.67    5.17
   4  10   2    3.47    3.88
  -4 -10   3   11.80    5.39
   4 -10   3   19.29    5.79
   4  10   3   15.17    4.41
   4 -10   4   31.91    7.39
  -4 -10   4   29.41    6.91
  -4 -10   5   65.18   10.96
   4 -10   5   87.60   11.50
   4  10   5   80.44   11.57
   4 -10   6   45.50    8.71
   4  10   6   67.13   11.34
  -4 -10   6   48.86    8.64
  -4 -10   7   47.60    9.91
   4  10   7   33.32    8.32
   4 -10   7   33.40    7.91
   4 -10   8   41.15    8.88
  -4 -10   8   30.43    7.23
   4  10   8   40.61    8.39
   4 -10   9  130.18   14.93
   4  10   9  138.50   15.73
   4 -10  10   50.56    8.43
   4  10  10   66.00   10.94
   4 -10  11   35.71    7.83
   4  10  11   40.69    8.65
   4  10  12    6.55    2.46
   4  10  12    3.28    2.87
   4  10  13    8.55    4.04
   4  10  13   11.14    4.68
   4  10  14    3.62    2.21
   4  10  14    7.11    4.98
   4 -11  -8    9.68    3.89
  -4 -11  -8   17.53    5.69
   4 -11  -8    6.69    3.95
  -4 -11  -7   51.15    9.22
   4 -11  -7   51.37    9.47
   4 -11  -7   49.85   10.06
   4 -11  -6   23.51    6.48
   4 -11  -6   14.17    5.64
  -4 -11  -6   15.21    6.16
   4  11  -6   20.29    6.91
  -4 -11  -5    1.86    2.27
   4 -11  -5    3.12    3.44
   4 -11  -5   12.13    4.64
   4  11  -5    2.22    3.47
  -4 -11  -4   -1.94    2.15
   4  11  -4    0.91    2.25
   4 -11  -4    5.07    4.72
   4 -11  -4   -0.40    2.88
   4 -11  -3   -1.91    3.15
  -4 -11  -3    6.61    2.08
   4 -11  -3   12.08    5.48
   4  11  -3   -3.13    4.35
   4 -11  -2   13.19    5.12
  -4 -11  -2    7.93    5.29
   4  11  -2   12.87    6.45
   4 -11  -2    6.54    3.13
   4 -11  -1   31.91    7.44
  -4 -11  -1   42.58    8.76
   4 -11  -1   49.41   10.16
   4  11  -1   30.03    7.88
   4 -11   0   36.26    8.26
  -4 -11   0   20.57    6.06
   4 -11   0   32.63    8.21
   4  11   0   23.02    6.98
   4 -11   1   53.53   10.62
   4 -11   1   34.79    8.10
  -4 -11   1   48.54    9.77
   4  11   1   32.80    8.60
   4  11   2    0.11    3.55
   4 -11   2    0.94    3.03
  -4 -11   2    3.86    3.65
   4 -11   3    5.16    2.47
  -4 -11   3    5.99    3.06
   4  11   3    5.98    4.47
   4 -11   4   -1.84    3.42
   4  11   4   -0.85    4.89
  -4 -11   5    4.44    2.99
   4 -11   5    7.77    3.91
   4  11   5    1.59    3.02
  -4 -11   6   23.52    6.21
   4  11   6   23.23    7.20
   4 -11   6   10.21    4.35
   4 -11   7   63.92   11.14
  -4 -11   7   46.42    9.95
   4  11   7   67.49   11.30
   4 -11   8    6.69    3.15
   4  11   8   13.16    5.22
   5   0 -22    0.93    2.26
   5   0 -21    0.48    2.89
   5   0 -20   -2.42    3.38
   5   0 -19   -1.11    1.33
   5   0 -18   -0.61    1.62
   5   0 -17    1.82    2.70
   5   0 -16   -0.42    2.47
   5   0 -15   -0.54    1.47
   5   0 -14   -0.99    1.23
   5   0 -13    0.26    2.01
   5   0 -13    0.11    0.50
   5   0 -12    1.31    1.67
   5   0 -12    0.32    0.37
   5   0 -11    0.56    0.55
   5   0 -11   -0.79    1.11
   5   0 -10    0.87    1.87
   5   0 -10   -0.03    0.54
   5   0  -9    1.15    0.97
   5   0  -9    0.42    0.65
   5   0  -8   -0.14    0.95
   5   0  -8   -0.37    0.86
   5   0  -7    0.55    0.70
   5   0  -7   -1.00    1.24
   5   0  -6    1.51    1.84
   5   0  -6    0.20    0.76
   5   0  -5   -0.70    1.27
   5   0  -5    1.26    1.82
   5   0  -4    0.23    0.82
   5   0  -4    1.12    1.59
   5   0  -3    0.17    1.03
   5   0  -3   -0.44    1.24
   5   0  -2   -0.12    0.53
   5   0  -2    0.17    0.53
   5   0  -1    1.35    1.27
   5   0  -1    0.21    0.82
   5   0   0   -0.51    0.71
   5   0   0   -0.03    0.62
   5   0   1    0.38    0.47
   5   0   1    0.55    0.82
   5   0   1   -0.14    1.03
   5   0   2    0.83    1.49
   5   0   2   -0.01    0.67
   5   0   2   -0.07    0.81
   5   0   3    0.25    0.57
   5   0   3   -0.43    1.25
   5   0   3   -0.11    1.21
   5   0   4    1.16    1.25
   5   0   4   -0.37    0.73
   5   0   4   -0.10    1.28
   5   0   5    0.97    0.95
   5   0   5    0.83    1.71
   5   0   5   -0.58    1.30
   5   0   6    0.13    1.01
   5   0   6    1.49    1.83
   5   0   6   -0.38    1.54
   5   0   7   -0.39    1.08
   5   0   7    0.67    0.96
   5   0   7   -0.31    1.07
   5   0   8   -0.41    1.25
   5   0   8   -0.10    1.13
   5   0   8    2.14    1.55
   5   0   9    0.40    0.63
   5   0   9    1.68    1.81
   5   0  10    0.09    0.93
   5   0  10    1.05    1.33
   5   0  11    0.67    1.23
   5   0  11    0.96    2.40
   5   0  12    0.09    1.91
   5   0  12   -0.09    1.15
   5   0  13   -0.19    1.00
   5   0  13    0.61    1.17
   5   0  14    1.55    2.17
   5   0  14    1.00    1.63
   5   0  15    2.30    2.01
   5   0  16    0.87    2.18
   5   0  17   -0.01    2.27
   5   0  18   -0.40    2.24
   5   0  19   -0.86    2.95
   5   0  20    1.21    2.13
   5   0  21   -0.94    2.15
   5   0  22    4.85    4.01
   5   0  23   -2.80    1.65
   5   0  24   -0.09    1.77
   5   0  25   -2.56    3.99
   5   0  26    3.28    3.14
   5   0  27    1.31    2.76
   5   0  28   10.23    5.63
   5   0  29    0.33    2.08
   5   0  30   -8.97    4.03
   5  -1 -23   21.86    6.36
   5  -1 -22   52.87    8.57
   5  -1 -21   80.57   10.08
   5   1 -20    0.15    1.99
   5  -1 -20    1.97    1.79
   5  -1 -19   45.64    7.61
   5   1 -19   51.24    7.72
   5  -1 -18   56.04    8.43
   5   1 -18   57.98    8.10
   5  -1 -17   79.58    9.13
   5   1 -17   77.19    9.67
   5  -1 -16  985.01   31.99
   5   1 -16  951.24   30.44
   5  -1 -15  394.59   19.80
   5  -1 -15  366.67   12.03
   5   1 -15  396.94   19.17
   5   1 -14  299.12   16.34
   5  -1 -14  274.44   16.04
   5  -1 -14  278.35   10.37
   5  -1 -13  131.68    7.29
   5  -1 -13  123.61   10.53
   5   1 -13  123.21   10.12
   5  -1 -12  219.71   13.71
   5  -1 -12  219.85    9.36
   5   1 -12  221.20   13.35
   5  -1 -11  280.87   10.67
   5  -1 -11  286.08   15.29
   5   1 -11  268.42   14.55
   5   1 -10  690.00   22.72
   5  -1 -10  750.02   24.31
   5  -1  -9   30.37    3.61
   5   1  -9   29.99    4.63
   5  -1  -9   32.94    4.91
   5  -1  -8   35.23    3.88
   5  -1  -8   40.06    5.49
   5   1  -8   39.25    5.24
   5  -1  -7   11.63    2.51
   5   1  -7   12.95    3.22
   5  -1  -7   11.80    3.08
   5  -1  -6 1519.28   25.83
   5   1  -6 1456.00   31.09
   5  -1  -6 1509.45   31.38
   5   1  -5  427.98   16.53
   5  -1  -5  427.53   16.64
   5  -1  -5  444.12   14.23
   5  -1  -4 2396.24   33.87
   5  -1  -4 2420.83   38.50
   5   1  -4 2457.03   39.34
   5  -1  -3  301.04   13.27
   5   1  -3  280.43   13.20
   5   1  -2   37.01    4.63
   5  -1  -2   38.92    4.33
   5  -1  -2   31.18    4.27
   5  -1  -1   61.87    5.68
   5  -1  -1   61.78    5.72
   5   1  -1   48.61    5.35
   5   1   0   47.54    5.31
   5  -1   0   46.82    4.90
   5   1   0   42.94    5.12
   5  -1   0   43.09    4.76
   5  -1   1   55.64    5.22
   5   1   1   64.53    6.21
   5  -1   1   62.97    5.88
   5   1   1   57.69    5.94
   5  -1   2   30.28    4.05
   5   1   2   31.55    4.28
   5   1   2   31.66    4.26
   5  -1   2   36.14    4.13
   5  -1   2   29.73    3.62
   5   1   3  283.59   12.83
   5   1   3  269.58   13.47
   5  -1   3  300.11   11.97
   5  -1   3  289.65   11.35
   5  -1   3  283.49   12.42
   5  -1   4 2508.77   38.05
   5   1   4 2560.70   38.31
   5  -1   4 2486.38   32.56
   5   1   4 2532.37   40.92
   5  -1   4 2509.82   35.07
   5  -1   5  433.40   16.06
   5  -1   5  386.41   12.72
   5   1   5  406.12   15.62
   5   1   5  381.59   15.97
   5  -1   5  390.84   14.06
   5   1   6 1406.30   31.64
   5   1   6 1479.86   29.96
   5  -1   6 1458.04   24.24
   5  -1   6 1426.17   30.06
   5  -1   7   13.31    2.85
   5  -1   7    9.78    1.92
   5   1   7    9.98    2.77
   5   1   7   13.06    3.41
   5  -1   7   15.26    2.97
   5  -1   8   44.07    3.98
   5   1   8   27.30    4.79
   5  -1   8   39.50    4.82
   5  -1   8   38.93    5.18
   5   1   8   39.64    5.10
   5  -1   9   36.19    4.75
   5   1   9   28.17    4.57
   5  -1   9   33.89    4.54
   5  -1   9   25.41    2.93
   5   1   9   23.53    4.88
   5  -1  10  683.71   15.26
   5  -1  10  752.97   22.60
   5   1  10  718.49   24.55
   5  -1  10  750.23   23.13
   5   1  10  766.32   22.49
   5   1  11  293.98   16.17
   5  -1  11  278.42   14.17
   5  -1  11  271.31    9.30
   5   1  11  314.20   14.80
   5  -1  11  279.51   14.19
   5  -1  12  223.13   13.15
   5   1  12  211.85   14.07
   5  -1  12  229.06   13.35
   5   1  12  209.56   12.07
   5   1  13  126.69    9.42
   5  -1  13  119.46    9.97
   5   1  13  119.21   10.84
   5  -1  13  128.74   10.07
   5   1  14  308.69   17.76
   5   1  14  268.13   14.22
   5  -1  14  293.23   15.91
   5   1  15  399.84   20.99
   5   1  15  403.46   17.81
   5  -1  15  386.91   18.86
   5   1  16 1000.26   33.45
   5   1  16  905.44   27.31
   5  -1  16  996.98   30.63
   5   1  17   68.86    8.83
   5  -1  18   53.63    8.05
   5   1  18   50.37    7.46
   5  -1  19   65.30    8.80
   5   1  19   45.79    7.58
   5   1  20    3.95    3.29
   5  -1  20    8.19    3.73
   5  -1  21   73.85    9.44
   5   1  21   65.76    9.73
   5   1  22   53.36    8.81
   5  -1  22   47.82    8.02
   5  -1  23   17.50    6.01
   5   1  23   15.17    4.56
   5   1  24   34.01    7.11
   5  -1  24   20.31    5.23
   5  -1  25  113.86   13.58
   5   1  25  114.16   13.74
   5  -1  26   12.99    4.54
   5   1  26  200.62   17.74
   5   1  27  101.30   13.23
   5   1  28   14.61    5.58
   5   1  29   49.57    9.23
   5   1  30    9.82    4.75
   5  -2 -24   29.08    7.46
   5  -2 -23   98.81   12.09
   5  -2 -22   54.98    8.90
   5  -2 -21    5.95    3.96
   5  -2 -20   34.45    6.39
   5  -2 -19  263.07   18.12
   5   2 -19  233.57   16.38
   5  -2 -18   61.17    8.84
   5   2 -18   37.74    6.51
   5  -2 -17   61.14    8.49
   5   2 -17   64.03    7.98
   5  -2 -16  120.35   11.55
   5   2 -16  146.16   12.03
   5  -2 -16  125.78    8.69
   5  -2 -15 1177.90   26.67
   5   2 -15 1169.09   33.38
   5  -2 -14  191.65   10.67
   5  -2 -14  196.19   14.05
   5   2 -14  177.93   12.64
   5  -2 -13  608.09   19.00
   5  -2 -13  602.46   24.08
   5   2 -13  631.00   23.53
   5  -2 -12   21.63    3.59
   5  -2 -12   12.28    3.86
   5   2 -12   12.18    3.18
   5  -2 -11  102.28    9.64
   5   2 -11  108.62    9.28
   5  -2 -11  100.06    7.68
   5  -2 -10    3.11    2.08
   5   2 -10    0.67    0.72
   5  -2 -10    3.02    1.83
   5  -2  -9   16.91    3.10
   5  -2  -9   20.96    4.21
   5   2  -9   17.11    3.55
   5  -2  -8  123.47    8.40
   5   2  -8  118.79    9.74
   5  -2  -8  136.02   10.26
   5  -2  -7  858.61   22.04
   5  -2  -7  801.71   24.66
   5   2  -7  850.40   24.75
   5  -2  -6  421.04   15.55
   5   2  -6  426.08   17.33
   5  -2  -6  418.68   17.47
   5  -2  -5  142.72    9.05
   5   2  -5  129.85    9.57
   5  -2  -5  136.11    9.79
   5  -2  -4   67.76    6.25
   5   2  -4   60.47    6.56
   5  -2  -4   66.44    6.57
   5  -2  -3  381.99   14.97
   5   2  -3  383.54   16.37
   5  -2  -3  368.46   15.30
   5  -2  -2  214.80   11.18
   5   2  -2  208.25   11.96
   5   2  -2  187.42   11.09
   5  -2  -2  183.73   10.57
   5   2  -1   64.26    6.47
   5  -2  -1   70.45    6.15
   5   2  -1   70.35    6.88
   5  -2  -1   66.00    6.29
   5   2   0  549.90   19.10
   5   2   0  548.38   19.15
   5  -2   0  551.78   17.51
   5  -2   1   70.10    6.44
   5   2   1   65.29    6.64
   5  -2   1   71.16    6.16
   5   2   1   61.06    6.31
   5  -2   2  192.55   10.86
   5  -2   2  180.63    9.52
   5   2   2  195.48   11.64
   5   2   2  184.76   11.28
   5  -2   3  417.38   16.06
   5   2   3  419.51   17.30
   5  -2   3  406.83   13.86
   5  -2   3  405.18   12.86
   5   2   3  405.66   17.12
   5  -2   4   71.64    6.85
   5   2   4   62.24    6.68
   5  -2   4   64.06    5.39
   5  -2   4   59.07    4.88
   5   2   4   57.18    6.47
   5  -2   5  128.25    7.70
   5  -2   5  152.92    7.91
   5  -2   5  112.82    9.05
   5   2   5  153.60   10.73
   5   2   5  119.19    9.59
   5   2   6  447.78   18.45
   5  -2   6  436.68   13.65
   5  -2   6  413.35   16.72
   5   2   6  442.41   18.81
   5  -2   7  805.61   23.54
   5  -2   7  805.54   16.99
   5  -2   7  798.04   18.96
   5   2   7  769.77   25.32
   5   2   7  804.82   25.27
   5  -2   8  124.04    7.67
   5  -2   8  138.60    6.74
   5   2   8  128.11   10.24
   5   2   8  128.33   10.24
   5  -2   8  130.27    9.73
   5  -2   9   13.25    2.98
   5  -2   9   17.09    3.65
   5   2   9   16.17    3.34
   5  -2   9   18.14    2.33
   5   2   9   16.74    3.91
   5  -2  10    4.46    1.90
   5  -2  10    4.31    1.28
   5   2  10    2.40    2.25
   5   2  10    0.77    1.27
   5  -2  10    2.13    2.01
   5  -2  11  121.38   10.09
  -5  -2  11  110.82    5.43
   5   2  11  115.09   10.45
   5   2  11  147.81   11.37
   5  -2  11  122.45    8.77
   5  -2  12   11.59    3.27
   5   2  12    8.00    2.86
   5   2  12    9.38    3.07
   5  -2  12   10.35    2.72
   5   2  13  613.09   23.75
   5   2  13  596.88   25.07
   5  -2  13  606.15   20.94
   5  -2  13  599.68   22.47
   5   2  14  171.11   13.61
   5  -2  14  168.66   11.46
   5  -2  14  197.77   13.02
   5   2  14  166.73   12.60
   5  -2  15 1184.67   32.05
   5   2  15 1150.28   33.69
   5   2  15 1249.30   37.31
   5  -2  15 1161.50   32.07
   5   2  16  127.32   11.34
   5  -2  16  131.52   11.04
   5   2  16  126.31   12.34
   5  -2  16  120.99   10.77
   5  -2  17   77.54    8.40
   5   2  17   70.82    9.61
   5   2  17   56.07    7.99
   5  -2  17   60.15    7.40
   5  -2  18   51.78    7.65
   5   2  18   53.58    8.34
   5  -2  19  260.10   17.32
   5   2  19  269.55   18.55
   5  -2  20   26.03    5.79
   5   2  20   21.24    5.21
   5   2  21   13.10    4.89
   5  -2  21    8.43    4.01
   5   2  22   28.49    7.08
   5   2  23   70.19   10.06
   5   2  24   19.86    5.45
   5   2  25   64.03   10.24
   5   2  26   67.62   10.01
   5   2  27    6.32    4.03
   5   2  28   10.87    4.82
   5   2  29    2.75    3.27
   5  -3 -25  210.12   18.86
   5  -3 -24   23.24    6.31
   5  -3 -23    5.08    1.93
   5  -3 -22  257.42   19.50
   5  -3 -21  176.14   15.97
   5  -3 -20  160.12   14.83
   5  -3 -19  215.54   16.64
   5   3 -18   42.72    6.99
   5  -3 -18   47.45    7.63
   5  -3 -17   20.23    4.53
   5   3 -17   36.61    6.39
   5  -3 -17   41.27    7.24
   5   3 -16  216.90   15.10
   5  -3 -16  237.72   16.61
   5  -3 -16  205.87   13.14
   5  -3 -15  797.09   25.30
   5   3 -15  736.59   27.34
   5  -3 -15  770.31   29.53
   5   3 -14  136.28   11.62
   5  -3 -14  137.39   12.28
   5  -3 -14  153.66   11.06
   5  -3 -13   43.95    5.80
   5   3 -13   36.48    5.74
   5  -3 -13   51.57    7.15
   5  -3 -12   80.19    7.91
   5   3 -12   81.62    8.78
   5  -3 -12   77.86    8.90
   5  -3 -11  171.31   11.20
   5   3 -11  161.24   12.17
   5  -3 -11  132.55   11.46
   5  -3 -10  351.17   15.99
   5   3 -10  326.54   17.14
   5  -3 -10  345.89   18.41
   5  -3  -9   59.82    7.25
   5   3  -9   73.53    7.78
   5  -3  -9   70.54    7.24
   5  -3  -8   40.12    5.63
   5  -3  -8   38.03    5.46
   5   3  -8   38.22    5.73
   5  -3  -7  178.06   12.28
   5  -3  -7  159.21   10.61
   5   3  -7  179.88   12.12
   5  -3  -6  784.32   25.02
   5  -3  -6  783.98   23.68
   5   3  -6  826.87   25.73
   5  -3  -5  632.65   22.07
   5  -3  -5  663.16   21.75
   5   3  -5  583.65   21.67
   5   3  -4  306.74   15.13
   5   3  -4  306.37   15.54
   5  -3  -4  276.49   14.42
   5  -3  -4  331.06   15.21
   5  -3  -3  234.96   13.20
   5  -3  -3  196.76   11.98
   5   3  -3  231.58   13.57
   5   3  -3  212.46   12.69
   5  -3  -2  495.44   18.82
   5   3  -2  498.54   19.98
   5  -3  -2  484.67   18.59
   5   3  -2  487.93   19.05
   5  -3  -1 1718.17   34.30
   5  -3  -1 1806.46   35.80
   5   3  -1 1762.91   36.32
   5  -3   0 1377.17   29.80
   5   3   0 1398.16   34.11
   5   3   0 1352.72   31.91
   5  -3   0 1466.08   32.46
   5  -3   1 1640.97   34.59
   5   3   1 1693.97   35.56
   5   3   1 1718.80   37.15
   5  -3   1 1682.51   32.32
   5  -3   2  493.56   18.94
   5   3   2  516.15   20.89
   5   3   2  477.34   19.26
   5  -3   2  499.44   17.13
   5   3   3  209.51   13.27
   5  -3   3  246.90   13.45
   5   3   3  215.99   13.10
   5  -3   3  201.17   10.65
   5  -3   3  212.17    8.52
   5   3   4  305.31   15.94
   5  -3   4  303.77   14.90
   5  -3   4  313.64   12.88
   5  -3   4  276.39    9.14
   5   3   4  316.63   16.58
   5  -3   5  648.53   22.38
   5  -3   5  598.00   13.66
   5   3   5  641.00   23.32
   5  -3   5  657.70   18.18
   5   3   5  664.45   24.49
   5  -3   6  899.22   16.77
   5   3   6  911.99   28.21
   5  -3   6  838.63   19.86
   5   3   6  863.58   27.85
   5  -3   6  834.86   25.09
   5  -3   7  160.82    8.28
   5  -3   7  162.18    7.26
   5  -3   7  162.47   11.37
   5   3   7  152.40   11.91
   5   3   7  170.16   12.43
   5  -3   8   38.07    5.79
   5   3   8   23.27    4.71
   5  -3   8   28.50    3.17
   5   3   8   28.63    5.58
   5  -3   8   26.98    3.11
   5  -3   9   71.18    7.39
   5   3   9   65.95    8.12
   5   3   9   70.93    8.62
   5  -3   9   75.72    5.62
  -5  -3   9   75.91    6.21
   5  -3   9   71.97    4.97
   5  -3  10  348.16   17.14
  -5  -3  10  368.41   13.18
   5  -3  10  316.50    9.46
   5   3  10  333.68   18.24
   5  -3  10  355.15   12.57
   5   3  10  377.77   19.34
   5   3  11  129.10   11.77
  -5  -3  11  146.54    7.97
   5  -3  11  154.13    8.79
   5   3  11  154.38   12.78
   5  -3  12   80.03    6.89
   5   3  12   61.27    8.20
   5   3  12   93.34   10.07
   5  -3  12   80.20    8.44
   5  -3  13   34.47    5.75
   5  -3  13   43.57    5.20
   5   3  13   37.49    6.48
   5   3  13   39.48    7.07
   5   3  14  183.58   14.56
   5   3  14  164.87   13.52
   5  -3  14  169.04   12.80
   5   3  15  793.54   30.66
   5   3  15  799.33   30.08
   5  -3  15  772.82   27.58
   5   3  16  253.35   17.10
   5   3  16  250.00   17.28
   5  -3  16  255.60   15.84
   5   3  17   20.53    5.56
   5   3  17   24.91    5.19
   5  -3  17   36.73    6.14
   5   3  18   49.27    7.96
   5   3  18   32.16    6.43
   5   3  19  239.40   17.74
   5   3  19  226.29   17.85
   5   3  20  157.41   15.02
   5   3  22  313.61   21.62
   5   3  23    9.78    4.56
   5   3  24   10.14    3.50
   5   3  25  238.41   19.58
   5   3  26   44.69    8.21
   5   3  27  208.92   19.21
   5   3  28   53.11   10.86
   5   3  29   18.93    5.51
   5  -4 -26    2.05    2.53
   5  -4 -25   15.99    6.11
   5  -4 -24  108.57   13.74
   5  -4 -23   59.32    9.90
   5  -4 -22    9.65    3.95
   5  -4 -21   31.51    7.04
   5  -4 -20  134.36   14.02
   5  -4 -19   11.30    4.26
   5  -4 -18   25.52    5.98
   5  -4 -17  393.68   22.73
   5  -4 -17  433.10   21.30
   5  -4 -16  171.76   14.83
   5   4 -16  172.98   14.19
   5  -4 -16  177.67   13.50
   5  -4 -15   85.37   10.59
   5   4 -15   92.68   10.32
   5  -4 -15   88.82    9.32
   5  -4 -14   33.95    6.40
   5  -4 -14   33.16    6.03
   5   4 -14   24.57    5.62
   5  -4 -13  175.62   14.16
   5   4 -13  172.69   13.18
   5  -4 -13  161.07   12.57
   5  -4 -12  287.89   17.66
   5  -4 -12  297.92   16.78
   5   4 -12  274.02   16.69
   5  -4 -11   60.81    7.96
   5  -4 -11   56.22    7.18
   5   4 -11   62.06    8.04
   5  -4 -10   17.41    4.29
   5  -4 -10   30.20    5.84
   5   4 -10   26.54    5.00
   5  -4  -9  171.38   12.39
   5   4  -9  163.41   12.55
   5   4  -8   33.15    5.64
   5  -4  -8   43.21    5.96
   5  -4  -8   32.37    5.86
   5   4  -7  105.89    9.96
   5  -4  -7  112.01   10.49
   5  -4  -7   99.63    9.17
   5   4  -6  304.20   16.15
   5   4  -6  306.41   17.03
   5  -4  -6  281.00   16.33
   5  -4  -6  309.95   16.42
   5   4  -5   82.85    9.02
   5   4  -5   85.03    8.56
   5  -4  -5   81.92    8.35
   5  -4  -5   84.54    8.67
   5   4  -4  176.53   12.83
   5  -4  -4  166.58   11.92
   5  -4  -4  179.50   12.67
   5   4  -4  178.52   12.22
   5   4  -3   10.36    3.58
   5  -4  -3    6.16    2.82
   5  -4  -3    8.07    3.22
   5   4  -3    8.21    2.64
   5   4  -2   48.91    6.90
   5  -4  -2   39.30    5.60
   5  -4  -2   54.13    6.73
   5   4  -2   37.86    5.59
   5  -4  -1    3.55    2.40
   5   4  -1    3.54    2.00
   5   4  -1    4.86    1.93
   5  -4  -1    2.57    2.02
   5   4   0  136.25   11.25
   5  -4   0  144.11   11.03
   5  -4   0  122.43    9.70
   5   4   0  132.89   10.49
   5   4   1    1.94    1.76
   5  -4   1    4.74    2.22
   5  -4   1    4.36    2.34
   5   4   1    1.64    1.66
   5  -4   2   46.01    6.20
   5  -4   2   34.04    4.94
   5   4   2   40.50    5.86
   5   4   2   55.06    7.58
   5  -4   3    6.13    2.02
   5   4   3    9.65    3.65
   5  -4   3    7.97    2.60
   5   4   3    6.81    2.82
   5  -4   3    6.78    1.35
   5  -4   4  180.99   12.37
   5  -4   4  180.25   10.95
   5   4   4  171.00   12.48
   5   4   4  186.88   13.80
   5  -4   5   67.23    6.58
   5   4   5   86.14    9.37
   5   4   5  103.51    9.85
   5  -4   5   94.01    9.10
   5  -4   6  304.88   16.49
   5   4   6  331.77   17.79
   5   4   6  299.96   17.78
   5  -4   6  290.53   13.05
   5   4   7   78.34    8.92
   5  -4   7   92.62    9.17
  -5  -4   7  106.73    8.73
   5  -4   7  101.23    7.50
   5   4   7   90.68   10.01
   5  -4   8   33.64    5.97
   5   4   8   35.81    6.57
  -5  -4   8   38.68    5.25
   5   4   8   40.33    6.50
   5  -4   8   35.41    4.41
   5  -4   9  193.27   13.35
   5  -4   9  165.31    8.76
  -5  -4   9  179.56   11.08
   5   4   9  171.31   13.99
   5  -4  10   35.88    5.97
  -5   4  10   34.41    5.77
  -5  -4  10   26.36    4.36
   5   4  10   28.22    6.04
   5   4  10   28.27    5.67
   5  -4  11   62.07    8.17
  -5   4  11   67.66    8.52
  -5  -4  11   57.38    6.11
   5   4  11   64.24    8.64
   5   4  11   60.97    8.22
  -5   4  12  274.10   17.13
   5  -4  12  263.17   16.21
   5   4  12  300.69   18.78
   5   4  12  276.72   17.79
   5  -4  13  156.74   12.64
  -5   4  13  164.66   13.57
   5   4  13  191.77   15.32
   5   4  13  171.37   14.77
   5  -4  14   21.75    4.79
  -5   4  14   28.83    5.99
   5   4  14   27.87    5.80
   5   4  14   34.63    7.07
   5  -4  15   82.83    9.66
  -5   4  15   91.93   10.98
   5   4  15  108.83   11.74
   5   4  15   75.95   10.14
   5  -4  16  167.94   13.53
  -5   4  16  179.99   15.01
   5   4  16  153.17   14.17
   5   4  16  167.19   15.11
   5   4  17  435.18   24.20
  -5   4  17  459.62   24.10
   5   4  17  394.49   22.60
   5   4  18   28.23    5.89
  -5   4  18   23.39    5.55
   5   4  18   14.63    4.91
   5   4  19   11.22    4.40
  -5   4  19    9.77    4.33
   5   4  19   22.49    6.08
  -5   4  20  132.54   13.42
   5   4  20  133.11   14.00
   5   4  20  119.52   13.74
   5   4  21   40.58    7.66
   5   4  22   16.58    6.13
   5   4  23   59.72    9.91
   5   4  24  119.51   13.98
   5   4  25   13.50    5.12
   5   4  26    0.24    3.61
   5   4  27    1.45    2.27
   5   4  28    1.15    1.73
   5  -5 -27   16.73    6.35
   5  -5 -26   24.42    6.23
   5  -5 -25   38.04    8.44
   5  -5 -24   98.63   12.98
  -5  -5 -23    7.08    4.62
   5  -5 -23   12.21    4.71
   5  -5 -22   29.18    6.97
  -5  -5 -22   35.37    8.18
  -5  -5 -21   80.71   10.36
   5  -5 -21   67.05   10.60
   5  -5 -20  249.25   19.27
   5  -5 -19   16.43    5.46
   5  -5 -18   17.04    5.93
   5  -5 -18   24.33    6.30
   5  -5 -17   94.60   11.36
   5  -5 -17   99.80   11.18
   5  -5 -16    0.99    3.76
   5  -5 -16   -1.76    3.78
   5  -5 -15  177.05   15.65
   5   5 -15  197.93   15.64
   5   5 -14   99.23   10.88
   5  -5 -14  104.72   11.69
   5  -5 -14  113.71   11.41
   5   5 -13    8.11    4.40
   5  -5 -13    7.43    3.43
   5  -5 -13    1.91    3.09
   5   5 -12   14.25    4.74
   5  -5 -12   14.94    4.20
   5   5 -11  196.54   14.68
   5  -5 -11  241.76   16.31
   5  -5 -11  222.10   16.25
   5   5 -10   87.14   10.05
   5  -5 -10   88.27   10.21
   5  -5 -10   97.06   10.37
   5   5  -9  156.50   13.18
   5  -5  -9  152.67   12.96
   5  -5  -9  180.97   14.06
   5   5  -9  149.49   12.20
   5   5  -8   33.14    5.70
   5   5  -8   24.23    5.30
   5  -5  -8   41.50    6.84
   5  -5  -8   30.22    6.18
   5  -5  -7   34.53    7.05
   5   5  -7   35.82    5.80
   5   5  -7   39.61    6.73
   5  -5  -7   32.43    6.29
   5   5  -6  523.64   23.90
   5  -5  -6  536.63   23.90
   5   5  -6  483.82   21.55
   5  -5  -5  201.76   14.26
   5   5  -5  238.43   16.26
   5   5  -5  226.81   14.36
   5  -5  -5  238.76   15.66
   5   5  -4   21.27    4.70
   5  -5  -4   13.68    3.57
   5  -5  -4   34.85    6.15
   5   5  -4   27.02    4.97
   5  -5  -3   62.05    7.18
   5  -5  -3   43.90    6.46
   5   5  -3   50.30    6.99
   5   5  -3   49.37    7.35
   5  -5  -2   28.94    5.07
   5  -5  -2   40.10    6.33
   5   5  -2   27.92    5.02
   5   5  -2   33.30    5.98
   5  -5  -1   69.17    8.31
   5  -5  -1   65.80    7.84
   5   5  -1   77.87    8.49
   5   5  -1   58.59    8.13
   5  -5   0  259.16   15.40
   5  -5   0  266.93   16.43
   5   5   0  286.69   17.76
   5   5   0  252.49   15.59
   5   5   1   73.05    8.49
   5  -5   1   84.14    8.91
   5  -5   1   48.86    6.69
   5   5   1   61.43    8.38
   5   5   2   36.07    5.82
   5  -5   2   47.39    7.05
   5  -5   2   31.92    5.15
   5   5   2   35.24    5.96
   5  -5   3   60.84    7.62
   5  -5   3   39.98    6.07
  -5  -5   3   36.20    5.74
   5   5   3   43.83    6.52
   5   5   3   51.26    7.77
   5  -5   4   20.29    4.56
  -5  -5   4   20.42    4.85
   5  -5   4   22.98    4.35
   5   5   4   21.79    5.17
   5   5   4   12.83    3.46
   5  -5   5  251.18   15.84
  -5  -5   5  248.96   14.87
   5   5   5  252.23   16.01
   5  -5   5  255.06   14.20
   5   5   5  239.68   17.08
   5  -5   6  493.58   22.28
   5  -5   6  495.73   19.19
   5   5   6  472.72   22.03
  -5  -5   6  517.71   21.57
   5   5   6  506.77   25.03
   5  -5   7   27.23    4.46
   5  -5   7   32.77    5.64
  -5  -5   7   35.26    5.70
   5   5   7   20.90    5.20
   5   5   7   38.33    6.84
   5  -5   8   47.09    7.23
   5   5   8   31.09    5.72
  -5   5   8   32.42    5.73
  -5  -5   8   35.55    5.58
   5   5   8   37.88    7.16
   5  -5   8   29.87    4.44
   5  -5   9  146.16   12.49
  -5   5   9  145.05   11.91
  -5  -5   9  159.62   11.97
   5   5   9  153.22   13.52
   5   5   9  134.51   13.18
   5   5  10   87.31   10.96
   5  -5  10  100.34   10.45
  -5   5  10   85.73    9.99
  -5  -5  10   72.96    8.21
   5   5  10   82.71   10.08
   5  -5  11  228.98   15.62
  -5  -5  11  254.12   14.89
   5   5  11  227.70   16.41
   5   5  11  254.47   18.19
  -5   5  11  222.57   15.42
   5  -5  12   34.08    6.28
   5   5  12   27.38    6.25
  -5   5  12   23.38    5.03
   5   5  12   33.51    6.92
   5  -5  13    6.92    3.17
  -5   5  13    7.46    2.28
   5   5  13   11.10    3.87
   5   5  13   12.89    5.12
   5  -5  14   99.56   10.64
  -5   5  14   97.71   10.82
   5   5  14  121.40   12.69
   5   5  14  122.41   12.78
   5  -5  15  211.29   15.99
  -5   5  15  229.27   17.00
   5   5  15  193.65   16.84
   5   5  15  210.11   16.47
   5  -5  16    0.89    1.62
  -5   5  16    9.10    4.94
   5   5  16    3.00    3.23
   5   5  16    2.04    2.13
   5   5  17  125.51   13.41
  -5   5  17  104.44   11.82
   5   5  17  100.85   12.51
  -5   5  18   19.41    4.58
   5   5  18   25.14    6.59
   5   5  18   30.09    6.78
  -5   5  19   15.66    4.98
   5   5  19   17.95    5.92
   5   5  19   24.90    6.71
  -5   5  20  199.74   17.41
   5   5  20  225.80   19.21
   5   5  20  231.67   18.82
   5   5  21   72.30   12.19
  -5   5  21   68.68   10.12
   5   5  22   28.12    7.18
   5   5  23   20.39    6.03
   5   5  24   85.33   11.80
   5   5  25   21.19    5.08
   5   5  26   32.39    7.51
   5   5  27   21.52    6.11
   5  -6 -25   12.05    6.11
   5  -6 -24   23.66    6.43
  -5  -6 -23   -5.62    4.47
   5  -6 -23    1.64    2.67
  -5  -6 -22   23.61    6.25
   5  -6 -22   11.36    4.60
  -5  -6 -21    3.24    4.57
   5  -6 -21    1.63    1.76
   5  -6 -20    4.13    1.87
  -5  -6 -20    5.10    4.12
   5  -6 -19    4.66    2.54
  -5  -6 -19   -6.64    4.24
   5  -6 -18   15.16    5.76
   5  -6 -18   10.91    4.34
  -5  -6 -18   17.57    5.15
  -5  -6 -17   32.36    6.67
   5  -6 -17   25.99    6.26
   5  -6 -17   34.10    7.46
   5  -6 -16   67.13   10.01
   5  -6 -16   73.51    9.67
  -5  -6 -16   92.55   11.44
   5  -6 -15   72.94    9.99
  -5  -6 -15   75.61    9.90
   5  -6 -15   64.28    9.38
   5  -6 -14   17.09    4.22
   5   6 -14   21.11    6.53
   5  -6 -14   19.22    5.41
   5   6 -13   24.91    6.13
   5  -6 -13   29.63    6.21
   5  -6 -13   20.85    5.85
   5   6 -13   18.30    4.87
   5  -6 -12  177.56   15.08
   5   6 -12  143.80   13.01
   5  -6 -12  153.17   14.23
   5   6 -12  148.74   14.58
   5   6 -11   15.20    4.58
   5  -6 -11   15.26    4.34
   5   6 -11   10.20    2.40
   5  -6 -11   24.65    5.10
   5   6 -10   15.93    4.55
   5  -6 -10   13.54    4.55
   5   6 -10   11.59    4.53
   5  -6 -10   11.40    4.46
   5  -6  -9   39.98    7.40
   5   6  -9   39.31    6.84
   5   6  -9   60.16    8.34
   5  -6  -9   43.11    7.39
   5   6  -8   41.54    7.70
   5  -6  -8   50.85    8.03
   5  -6  -8   61.72    9.24
   5   6  -8   44.66    7.11
   5  -6  -7  178.49   14.50
   5  -6  -7  177.64   14.90
   5   6  -7  203.14   16.12
   5   6  -7  147.12   12.45
   5   6  -6    2.94    3.01
   5  -6  -6   14.83    4.33
   5  -6  -6   10.48    3.31
   5   6  -6    8.30    3.26
   5   6  -5   17.20    4.40
   5  -6  -5   21.31    5.05
   5  -6  -5   31.28    6.25
   5   6  -5   25.22    5.01
   5  -6  -4  209.04   15.42
   5   6  -4  246.04   16.30
   5  -6  -4  212.26   15.70
   5   6  -3   33.07    6.47
   5  -6  -3   41.36    7.02
   5  -6  -3   48.52    7.30
   5   6  -3   47.77    7.30
   5  -6  -2  100.49   10.45
   5   6  -2  106.89   11.31
  -5  -6  -2   89.81   10.17
   5   6  -2   77.77    9.04
   5  -6  -2   97.86   10.61
   5  -6  -1  122.58   11.65
   5   6  -1  130.13   11.51
   5  -6  -1  112.91   11.16
  -5  -6  -1  149.15   13.07
   5   6  -1  155.90   14.03
   5  -6   0  122.60   11.30
   5  -6   0  120.96   11.64
   5   6   0  115.22   11.01
   5   6   0  122.69   12.47
  -5  -6   0  137.49   12.23
   5  -6   1  122.43   11.56
  -5  -6   1  128.58   12.21
   5   6   1  118.48   11.18
   5  -6   1  119.57   11.14
   5   6   1  133.26   13.27
   5  -6   2   85.44    9.64
   5  -6   2  101.96   10.70
  -5  -6   2  105.19   10.60
   5   6   2   90.17    9.84
   5   6   2  100.82   11.95
   5  -6   3   38.10    6.63
   5  -6   3   46.56    6.85
  -5  -6   3   52.39    7.85
   5   6   3   49.89    8.53
   5   6   3   48.68    7.46
  -5  -6   4  262.91   16.93
   5   6   4  213.08   15.19
   5  -6   4  223.81   14.82
   5  -6   4  226.77   16.03
   5   6   4  238.61   17.59
   5   6   5   19.42    5.81
  -5  -6   5   27.76    5.39
   5  -6   5   35.41    6.38
   5   6   5   25.78    6.00
   5  -6   5   18.00    4.34
   5  -6   6   13.78    3.79
   5  -6   6   14.37    3.90
   5   6   6    9.03    4.30
   5   6   6    8.14    4.50
  -5  -6   6    5.10    2.70
   5  -6   7  136.69   11.13
  -5  -6   7  173.06   13.51
   5   6   7  152.45   13.62
   5  -6   7  166.84   13.90
   5   6   7  162.58   14.78
   5  -6   8   54.29    8.36
  -5   6   8   70.02    8.21
  -5  -6   8   55.34    7.75
   5   6   8   67.78   10.05
   5   6   8   67.83    9.17
   5  -6   9   41.85    7.12
   5   6   9   48.28    8.60
  -5   6   9   43.16    6.87
  -5  -6   9   46.79    7.26
   5   6   9   54.87    8.76
   5  -6  10   17.86    4.42
  -5   6  10    9.63    4.38
  -5  -6  10    7.86    3.54
   5   6  10   13.46    3.63
   5   6  10   11.62    4.60
   5  -6  11   17.11    4.57
  -5   6  11   20.39    5.01
   5   6  11   24.43    5.80
   5   6  11   25.50    5.76
   5   6  12  155.86   14.82
   5  -6  12  173.48   14.56
  -5   6  12  154.71   13.62
   5   6  12  150.58   14.90
   5   6  13   26.94    6.69
   5  -6  13   17.53    5.25
   5   6  13   33.58    7.53
  -5   6  13   26.42    6.39
   5  -6  14   13.25    4.31
   5   6  14   26.70    6.24
   5   6  14   15.36    5.04
  -5   6  14   13.98    5.12
   5  -6  15   72.13   10.05
  -5   6  15   61.27    9.06
   5   6  15   77.80   10.33
   5   6  15   67.00   10.64
   5   6  16   88.72   12.37
  -5   6  16  100.12   11.46
   5   6  16  102.89   12.37
   5   6  17   30.88    7.26
  -5   6  17   35.70    8.15
   5   6  17   32.81    7.43
  -5   6  18   12.59    3.65
   5   6  18   15.02    5.01
   5   6  18   13.78    5.96
   5   6  19    2.60    2.02
  -5   6  19   -3.15    3.54
   5   6  19    2.01    3.04
   5   6  20    8.35    4.31
  -5   6  20   14.30    5.71
   5   6  20    1.27    2.82
   5   6  21   -1.51    2.25
  -5   6  21    0.86    2.95
   5   6  22   12.99    6.73
  -5   6  22   19.93    5.41
   5   6  23    6.13    4.40
   5   6  24   16.79    5.03
   5   6  25   15.70    5.09
  -5  -7 -23   -0.75    4.40
   5  -7 -23    1.25    4.57
   5  -7 -22   43.95    8.59
  -5  -7 -22   28.20    7.80
   5  -7 -21  112.59   14.24
  -5  -7 -21   98.19   14.01
  -5  -7 -20   53.84    9.54
   5  -7 -20   36.52    7.89
   5  -7 -19   88.00   11.92
   5  -7 -19   66.86   10.12
  -5  -7 -19   77.91   11.85
   5  -7 -18  122.87   14.23
  -5  -7 -18   82.26   11.66
   5  -7 -18  106.91   12.62
   5  -7 -17  121.14   13.96
   5  -7 -17   99.45   12.54
  -5  -7 -17   89.45   11.94
  -5  -7 -16  112.34   13.39
   5  -7 -16  112.04   12.89
   5  -7 -15    2.55    1.90
  -5  -7 -15   -1.88    2.94
   5  -7 -14   36.83    6.93
   5  -7 -14   53.33    9.25
  -5  -7 -14   49.05    8.70
   5   7 -13   51.45    8.58
   5  -7 -13   56.36    9.52
  -5  -7 -13   55.31    9.21
   5  -7 -13   52.78    8.99
   5   7 -12   53.50    8.81
   5  -7 -12   80.14   11.02
   5  -7 -12   63.06    9.54
  -5  -7 -12   70.03    9.95
   5  -7 -11  166.38   15.22
   5  -7 -11  151.73   14.90
   5  -7 -10  277.52   19.24
   5  -7 -10  250.52   18.61
  -5  -7 -10  267.64   18.88
   5   7 -10  240.49   18.89
   5  -7  -9  156.03   14.78
  -5  -7  -9  159.04   14.67
   5  -7  -9  157.34   15.08
   5   7  -9  166.92   15.27
   5  -7  -8  136.58   13.56
  -5  -7  -8  187.08   16.20
   5   7  -8  164.88   15.50
   5  -7  -8  124.01   13.03
   5  -7  -7  206.24   16.58
  -5  -7  -7  178.99   15.52
   5   7  -7  181.04   14.83
   5  -7  -7  203.04   16.69
   5   7  -7  196.62   16.48
  -5  -7  -6   81.32   10.15
   5  -7  -6   87.48   10.38
   5   7  -6   94.40   10.40
   5  -7  -6   97.11   11.29
   5   7  -6   96.30   11.83
   5   7  -5  167.26   14.29
   5  -7  -5  191.05   15.80
  -5  -7  -5  176.18   15.19
   5   7  -5  212.11   17.60
   5  -7  -5  203.95   16.22
   5  -7  -4   53.72    8.66
  -5  -7  -4   60.36    8.93
   5  -7  -4   63.74    9.25
   5   7  -4   73.28   10.57
   5   7  -4   67.86    8.43
  -5  -7  -3    1.69    2.87
   5   7  -3    2.82    4.29
   5  -7  -3    1.36    2.80
   5  -7  -3   -1.69    1.61
   5   7  -3    3.50    2.45
   5   7  -2   39.68    7.64
   5  -7  -2   48.46    7.78
   5   7  -2   49.84    7.55
  -5  -7  -2   36.26    7.04
   5  -7  -2   37.86    7.05
   5   7  -1  141.73   14.02
   5  -7  -1  113.71   12.02
  -5  -7  -1  141.62   13.16
   5   7  -1  143.08   12.87
   5  -7  -1  134.86   12.98
  -5  -7   0   21.97    5.32
   5  -7   0   19.92    5.01
   5   7   0   24.27    5.83
   5  -7   0   35.41    6.40
   5   7   0   15.27    4.81
   5  -7   1  144.81   13.49
  -5  -7   1  133.18   12.93
   5   7   1  107.24   11.56
   5  -7   1  144.24   13.40
   5   7   1  143.13   14.38
   5  -7   2   47.74    7.30
   5  -7   2   44.14    7.67
   5   7   2   54.99    9.03
  -5  -7   2   58.93    8.91
   5   7   2   40.18    6.67
   5   7   3    3.50    1.66
   5  -7   3   -1.18    2.13
  -5  -7   3    2.54    2.19
   5   7   3    1.33    2.71
   5  -7   3   -0.29    1.34
   5  -7   4   74.67    9.92
  -5  -7   4   47.70    7.31
   5   7   4   64.91    8.88
   5  -7   4   65.59    8.77
   5   7   4   59.70    9.04
   5   7   5  139.50   13.53
   5  -7   5  155.18   14.09
  -5  -7   5  184.14   14.97
   5  -7   5  166.75   13.84
   5   7   5  207.90   17.50
  -5  -7   6   96.66   10.98
   5  -7   6   94.51   10.55
   5   7   6   82.09    9.92
   5   7   6   94.51   12.01
   5  -7   6   71.41    9.98
   5   7   7  195.15   16.78
   5  -7   7  195.37   16.00
  -5  -7   7  204.77   15.88
   5   7   7  182.62   15.33
   5  -7   8  163.52   14.54
  -5  -7   8  165.70   14.30
   5   7   8  180.20   16.51
   5   7   8  147.50   13.76
   5   7   9  159.89   15.01
   5  -7   9  133.37   13.06
  -5  -7   9  138.85   13.37
  -5   7   9  141.91   12.87
   5   7   9  120.91   13.36
   5  -7  10  236.82   18.04
  -5  -7  10  247.54   17.53
  -5   7  10  300.63   19.29
   5   7  10  264.52   19.60
   5   7  10  266.61   20.40
   5   7  11  140.10   14.27
   5  -7  11  148.86   14.86
  -5   7  11  143.62   13.68
   5   7  11  161.13   15.66
  -5   7  12   67.61    9.49
   5  -7  12   66.63   10.44
   5   7  12   62.61   10.33
   5   7  12   64.15   10.08
   5  -7  13   48.59    8.51
  -5   7  13   54.90    8.32
   5   7  13   69.20   10.16
   5   7  13   53.28    9.95
   5  -7  14   60.62    9.57
  -5   7  14   39.64    7.39
   5   7  14   43.17    8.06
   5   7  14   32.86    7.86
   5  -7  15    4.21    3.05
  -5   7  15   15.17    5.69
   5   7  15   12.71    4.70
   5   7  15   14.29    5.31
  -5   7  16  108.92   12.54
   5   7  16  100.94   13.03
   5   7  16  118.69   13.45
   5   7  17   91.89   13.11
  -5   7  17   95.87   12.54
   5   7  17  111.62   13.78
   5   7  18  118.38   14.54
  -5   7  18  112.54   12.79
   5   7  18  106.58   13.17
  -5   7  19   72.79   11.39
   5   7  19   57.95   10.81
   5   7  19   76.14   12.24
  -5   7  20   46.67    8.97
   5   7  20   48.35    8.88
  -5   7  21   82.89   11.42
   5   7  21   98.69   12.65
   5   7  22   21.79    6.10
   5   7  23   -0.86    3.82
   5  -8 -21   -3.62    2.53
  -5  -8 -21   -2.17    3.24
  -5  -8 -20    5.89    3.36
   5  -8 -20    1.22    3.54
   5  -8 -19    4.76    5.24
  -5  -8 -19   10.97    5.37
   5  -8 -19    2.42    4.06
   5  -8 -18    0.39    2.74
   5  -8 -18    3.01    2.72
  -5  -8 -18   -2.70    3.19
   5  -8 -17   24.05    7.46
   5  -8 -17   16.69    5.75
  -5  -8 -17   26.11    6.31
   5  -8 -16    5.98    3.74
   5  -8 -16    9.77    4.14
   5  -8 -15   76.65   11.40
  -5  -8 -15   60.90    9.98
   5  -8 -15   43.08    8.28
  -5  -8 -14    8.70    4.46
   5  -8 -14    4.37    4.17
   5  -8 -14   11.15    6.03
   5  -8 -13    3.20    2.03
  -5  -8 -13   10.41    4.51
   5  -8 -13    4.63    3.64
  -5  -8 -12   40.19    8.53
   5  -8 -12   39.66    7.73
   5  -8 -12   30.86    7.38
  -5  -8 -11    1.29    3.64
   5  -8 -11   -1.21    1.48
   5  -8 -11    0.06    2.27
   5   8 -11   -3.97    3.19
   5  -8 -10   10.79    4.11
   5  -8 -10   30.26    6.63
  -5  -8 -10   29.59    7.14
   5   8 -10   28.97    7.08
   5  -8  -9   -2.29    2.67
   5  -8  -9   -0.38    2.45
  -5  -8  -9    2.17    2.49
   5   8  -9   -1.22    3.24
   5  -8  -8   39.24    8.03
   5  -8  -8   43.14    7.80
  -5  -8  -8   39.24    8.10
   5   8  -8   36.02    7.51
   5   8  -7   42.24    8.53
   5  -8  -7   52.90    8.59
  -5  -8  -7   67.63    9.67
   5  -8  -7   47.63    8.34
   5  -8  -6   81.28   11.29
  -5  -8  -6   71.70   10.33
   5  -8  -6   84.88   11.03
   5   8  -6   75.25   10.87
   5  -8  -5    2.06    2.63
   5  -8  -5    2.09    1.40
  -5  -8  -5    2.67    1.65
   5   8  -5    4.20    2.11
   5   8  -4   50.72    8.53
   5  -8  -4   41.67    7.49
  -5  -8  -4   34.04    6.99
   5  -8  -4   49.90    8.81
   5  -8  -3   14.27    4.72
   5  -8  -3    6.86    3.37
  -5  -8  -3   13.01    4.72
   5   8  -3   19.63    6.11
   5  -8  -2   20.33    6.29
   5  -8  -2   38.88    7.27
  -5  -8  -2   31.87    6.53
   5   8  -2   34.46    8.30
   5   8  -2   50.60    9.00
   5  -8  -1   14.63    5.51
  -5  -8  -1    8.27    3.31
   5  -8  -1   11.59    3.79
   5   8  -1    4.43    1.76
   5   8  -1    7.31    4.62
   5  -8   0  194.52   16.48
   5  -8   0  198.00   16.22
   5   8   0  212.51   17.85
  -5  -8   0  204.97   16.98
   5   8   0  171.94   15.19
  -5  -8   1   17.98    5.49
   5  -8   1    9.35    4.08
   5  -8   1    5.59    3.52
   5   8   1    9.49    4.64
   5   8   1   14.12    4.68
   5  -8   2   41.40    7.81
  -5  -8   2   35.41    7.01
   5  -8   2   25.09    6.62
   5   8   2   33.32    6.40
   5   8   2   43.66    8.60
   5  -8   3   16.86    4.83
   5  -8   3   13.36    4.90
  -5  -8   3   12.84    3.69
   5   8   3   17.76    5.12
   5   8   3    5.38    4.49
  -5  -8   4   49.78    8.82
   5  -8   4   62.33    8.75
   5   8   4   33.46    7.38
   5  -8   4   46.67    8.11
   5   8   4   33.65    7.89
   5  -8   5   -0.19    1.58
   5  -8   5    2.11    3.09
  -5  -8   5    2.41    3.18
   5   8   5    1.71    1.95
   5   8   5    3.29    3.36
   5  -8   6   88.55   11.23
  -5  -8   6   88.00   11.17
   5   8   6   88.87   11.13
   5   8   6   58.47    9.19
   5   8   7   58.84    9.38
   5  -8   7   40.10    7.75
  -5  -8   7   56.15    9.47
   5   8   7   47.55    9.77
   5   8   8   31.80    7.09
   5  -8   8   34.26    6.75
  -5  -8   8   37.17    7.11
   5   8   8   29.94    6.96
   5  -8   9   -0.72    1.60
  -5  -8   9    1.12    2.47
   5   8   9   -0.16    1.90
   5   8   9   -0.92    2.55
   5  -8  10   23.87    5.59
   5   8  10   24.41    6.01
   5   8  10   18.60    6.54
   5  -8  11    1.77    2.46
  -5   8  11    1.98    1.85
   5   8  11   -4.01    2.47
   5   8  11   -0.18    1.66
   5  -8  12   28.04    6.99
  -5   8  12   33.19    6.56
   5   8  12   32.01    7.54
   5   8  12   27.29    7.05
   5  -8  13   -3.46    3.35
  -5   8  13   -0.89    2.34
   5   8  13    4.27    4.27
   5   8  13    0.33    3.11
   5   8  14    7.26    3.92
   5  -8  14    7.55    4.43
  -5   8  14    1.73    2.26
   5   8  14    6.57    4.71
  -5   8  15   49.09    9.09
   5   8  15   55.55   10.16
  -5   8  16   15.82    4.34
   5   8  16   11.27    4.79
   5   8  16   26.16    7.18
  -5   8  17   29.07    6.43
   5   8  17   17.56    5.50
   5   8  17   14.03    6.54
   5   8  18    2.85    2.35
   5   8  18    2.58    2.81
  -5   8  19   -0.59    2.80
   5   8  19    2.09    2.29
   5   8  19    2.65    3.29
   5   8  20    8.26    5.05
   5   8  21    4.64    5.32
  -5  -9 -18   36.27    8.11
   5  -9 -18   39.93    9.09
   5  -9 -18   47.93    9.35
  -5  -9 -17   62.56   11.32
   5  -9 -17   54.58   10.22
   5  -9 -17   46.88   10.29
   5  -9 -16   91.48   12.62
   5  -9 -16   94.20   12.64
   5  -9 -15   12.62    5.09
   5  -9 -15   15.61    6.49
  -5  -9 -15   22.85    6.45
   5  -9 -14   11.36    5.49
  -5  -9 -14   19.83    6.01
   5  -9 -14   19.28    6.61
   5  -9 -13   23.84    6.67
   5  -9 -13   32.41    7.65
  -5  -9 -13   38.11    7.88
   5  -9 -12   98.34   12.21
   5  -9 -12   81.61   11.86
  -5  -9 -12  109.40   13.30
   5  -9 -11  101.98   13.13
  -5  -9 -11  112.51   13.40
   5  -9 -11  112.91   13.98
   5  -9 -10  103.50   12.69
  -5  -9 -10  105.07   13.08
   5   9 -10  120.53   14.71
   5  -9 -10  112.98   13.93
   5  -9  -9   90.90   12.24
  -5  -9  -9  100.66   13.06
   5   9  -9   82.26   11.87
   5  -9  -9   64.07   10.38
   5  -9  -8   51.27    9.56
  -5  -9  -8   57.05    9.63
   5  -9  -8   46.11    9.31
   5   9  -8   74.96   11.36
   5  -9  -7  174.10   16.68
  -5  -9  -7  136.85   14.60
   5  -9  -7  161.97   16.09
   5   9  -7  148.18   16.06
   5  -9  -6   54.86    9.32
   5  -9  -6   27.83    6.94
  -5  -9  -6   61.16    9.44
   5   9  -6   48.52    9.21
   5  -9  -5  225.90   18.21
  -5  -9  -5  186.66   16.68
   5  -9  -5  159.77   16.24
   5   9  -5  186.77   18.00
   5  -9  -4  113.09   13.40
  -5  -9  -4   96.30   12.67
   5   9  -4   88.09   12.61
   5  -9  -4   80.99   11.23
   5  -9  -3    3.45    3.45
   5  -9  -3    5.22    3.76
  -5  -9  -3   11.11    4.18
   5   9  -3    5.38    4.27
   5  -9  -2   37.39    7.95
   5  -9  -2   32.91    7.13
  -5  -9  -2   44.25    8.07
   5   9  -2   36.64    7.91
   5  -9  -1  268.86   20.00
  -5  -9  -1  222.23   18.42
   5  -9  -1  225.97   19.16
   5   9  -1  232.81   19.74
   5  -9   0   89.13   11.72
  -5  -9   0   77.88   10.72
   5   9   0   76.99   11.64
   5  -9   0   71.07   10.90
   5  -9   1  229.21   18.65
  -5  -9   1  221.13   17.92
   5   9   1  224.04   20.01
   5  -9   1  220.52   18.46
   5  -9   2   54.94    8.80
   5  -9   2   28.81    6.69
  -5  -9   2   34.27    6.87
   5   9   2   36.34    8.25
   5  -9   3    1.93    1.61
   5  -9   3    1.03    2.35
  -5  -9   3    2.77    2.16
   5   9   3    2.23    3.02
   5  -9   4   87.39   11.93
  -5  -9   4   89.56   11.84
   5   9   4   82.92   12.07
   5   9   4   80.75   11.14
   5  -9   5  186.03   16.69
  -5  -9   5  176.14   16.45
   5   9   5  182.11   16.48
   5  -9   6   50.82    8.70
  -5  -9   6   38.78    8.33
   5   9   6   46.32    8.85
   5   9   6   44.00    8.91
   5  -9   7  159.67   15.50
  -5  -9   7  130.71   14.44
   5   9   7  155.97   15.51
   5   9   7  169.05   17.60
   5  -9   8   77.48   11.22
  -5  -9   8   52.21    8.71
   5   9   8   58.30    9.95
   5   9   8   72.43   11.14
   5  -9   9   76.54   10.62
   5   9   9   72.25   11.15
   5   9   9   85.30   12.12
   5  -9  10   99.26   12.69
   5   9  10   95.64   13.16
   5   9  10   93.03   12.92
   5   9  11   95.76   12.83
   5  -9  11   94.66   12.44
   5   9  11   88.03   12.67
   5   9  12  102.94   12.73
   5   9  12   81.59   11.99
   5  -9  12   79.34   11.38
   5  -9  13   21.83    6.98
   5   9  13   20.21    5.89
   5   9  13   33.53    7.58
   5   9  14   14.99    5.20
   5   9  14   23.38    6.97
   5   9  15   17.90    5.59
   5   9  15   31.05    8.28
   5   9  16  122.40   15.09
   5   9  16  118.25   15.54
   5   9  17   33.73    7.85
   5   9  17   47.16    9.75
   5   9  18   46.70   10.42
   5   9  18   36.93    9.44
  -5 -10 -14   -1.69    3.51
   5 -10 -14    1.58    2.79
   5 -10 -14    1.46    2.55
   5 -10 -13   -5.64    5.91
  -5 -10 -13    5.94    3.43
   5 -10 -13   -1.87    3.31
   5 -10 -12   17.25    5.55
   5 -10 -12   20.80    6.72
  -5 -10 -12    5.64    4.70
   5 -10 -11   -0.02    4.19
   5 -10 -11    3.76    2.50
  -5 -10 -11    1.90    4.20
   5 -10 -10   46.00    8.97
   5 -10 -10   53.43   10.25
  -5 -10 -10   71.87   10.50
   5 -10  -9    2.71    4.56
   5 -10  -9    2.28    3.21
  -5 -10  -9    6.99    3.56
   5 -10  -8    6.66    5.00
  -5 -10  -8    7.66    2.91
   5 -10  -8    5.52    4.16
   5  10  -8    1.96    2.50
   5 -10  -7   17.14    6.08
   5 -10  -7    9.47    4.22
  -5 -10  -7   15.19    3.95
   5  10  -7    9.42    5.69
  -5 -10  -6    1.98    2.04
   5 -10  -6    4.32    3.87
   5 -10  -6   -0.99    2.50
   5  10  -6    3.91    3.41
   5 -10  -5   18.00    6.12
   5 -10  -5   10.11    3.45
  -5 -10  -5   16.37    6.42
   5  10  -5   11.75    4.47
   5 -10  -4    0.19    2.75
   5 -10  -4   -5.20    5.40
  -5 -10  -4    1.40    2.85
   5  10  -4    0.14    5.06
  -5 -10  -3    5.38    3.05
   5 -10  -3    9.24    5.13
   5 -10  -3    4.10    2.98
   5  10  -3    9.56    4.23
   5 -10  -2   16.80    5.64
   5 -10  -2   26.50    6.37
  -5 -10  -2   12.84    5.24
   5 -10  -1   33.60    7.99
   5 -10  -1   30.89    7.68
  -5 -10  -1   27.86    6.98
   5  10  -1   31.75    7.80
   5 -10   0   -0.66    4.15
   5 -10   0    4.44    4.29
  -5 -10   0   -2.12    3.15
   5  10   0    4.76    4.08
   5 -10   1   22.66    7.55
  -5 -10   1   36.45    8.00
   5  10   1   39.45    8.54
   5 -10   1   22.01    5.48
   5  10   2   25.00    7.65
   5 -10   2   31.73    7.12
   5 -10   2   25.54    6.48
  -5 -10   2   16.13    5.20
   5 -10   3    9.11    4.76
  -5 -10   3   13.17    5.59
   5  10   3   15.04    4.58
   5 -10   4    0.25    2.76
  -5 -10   4   -1.83    3.74
   5  10   4    6.68    3.98
   5 -10   5   21.30    6.20
  -5 -10   5   20.43    6.72
   5  10   5   11.35    4.76
   5 -10   6    3.51    2.92
  -5 -10   6   -0.62    2.27
   5  10   6   -0.98    2.51
   5 -10   7   10.36    4.15
  -5 -10   7    6.21    5.09
   5  10   7    8.52    5.27
   5 -10   8    3.43    4.22
  -5 -10   8   -3.90    4.45
   5  10   8    2.87    3.99
   5 -10   9    4.45    5.18
   5  10   9   -6.84    5.33
   5 -10  10   51.07   10.63
   5  10  10   83.33   12.89
   5  10  11   10.21    5.80
   5 -10  11    3.75    4.23
   5  10  11   11.02    5.19
   5 -10  12    6.86    4.20
   5  10  12   14.10    5.59
   5  10  12   18.64    6.87
   5  10  13    2.82    4.40
   5  10  13    1.42    4.31
   5  10  14   11.76    5.62
   5  10  14    0.32    3.28
   5 -11  -7    0.29    3.03
  -5 -11  -7    0.39    3.21
   5 -11  -7    4.47    4.50
   5  11  -7    4.37    4.37
   5 -11  -6   15.11    5.90
  -5 -11  -6    9.20    3.65
   5 -11  -6   14.59    5.49
   5  11  -6   25.43    7.32
   5 -11  -5   60.31   10.35
   5 -11  -5   38.23    7.96
  -5 -11  -5   47.56    9.07
   5  11  -5   44.90   10.08
  -5 -11  -4    4.90    4.09
   5 -11  -4    4.11    3.55
   5 -11  -4   14.15    4.43
   5  11  -4    0.96    2.99
   5 -11  -3    1.77    2.05
   5 -11  -3    6.61    4.63
  -5 -11  -3    5.71    3.57
   5  11  -3   -0.73    4.85
   5 -11  -2   16.18    7.00
   5 -11  -2   14.46    5.12
  -5 -11  -2    8.74    4.76
   5  11  -2   16.05    5.57
   5 -11  -1    2.13    3.77
   5 -11  -1    4.80    3.23
  -5 -11  -1   -0.94    2.71
   5  11  -1    2.70    4.77
   5 -11   0   77.09   11.10
   5 -11   0   47.34    9.55
  -5 -11   0   59.45   10.40
   5  11   0   61.27   10.51
   5 -11   1    1.77    1.97
  -5 -11   1   15.04    6.36
   5  11   1    8.70    3.67
   5 -11   2   15.39    6.23
  -5 -11   2   17.98    6.09
   5  11   2   -1.29    4.00
  -5 -11   3   -2.73    4.18
   5  11   3    0.30    3.33
   5 -11   4    8.47    4.86
  -5 -11   4   11.84    7.03
   5  11   4   14.95    5.98
   5 -11   5   30.24    7.58
  -5 -11   5   39.90    9.13
   5  11   5   34.35    9.19
   5 -11   6   24.92    7.10
  -5 -11   6   15.22    6.52
   5  11   6   11.43    4.32
   5 -11   7   -1.19    3.29
  -5 -11   7   -2.53    2.62
   5  11   7    3.30    4.75
   6   0 -22  228.42   18.38
   6   0 -21   84.00   10.75
   6   0 -20    4.11    1.82
   6   0 -19   69.02    9.84
   6   0 -18   27.51    6.64
   6   0 -17  246.23   16.62
   6   0 -16 2390.16   52.09
   6   0 -15  633.57   25.52
   6   0 -14 1386.46   37.38
   6   0 -13  353.83   18.70
   6   0 -13  314.35    9.52
   6   0 -12  251.48   15.45
   6   0 -12  256.56    9.28
   6   0 -11  172.04   12.25
   6   0 -11  173.84    7.96
   6   0 -10  813.85   26.26
   6   0 -10  670.38   15.68
   6   0  -9  622.58   23.03
   6   0  -9  657.55   16.52
   6   0  -8  179.00   11.98
   6   0  -8  188.89    9.09
   6   0  -7  147.52   10.57
   6   0  -7  137.68    7.87
   6   0  -6  825.95   24.82
   6   0  -6  819.04   19.53
   6   0  -5 2714.23   43.84
   6   0  -5 2502.76   34.92
   6   0  -4 1513.15   32.38
   6   0  -4 1487.41   27.54
   6   0  -3 1135.88   27.39
   6   0  -3 1131.96   24.54
   6   0  -2 6148.84   63.33
   6   0  -2 6076.55   57.57
   6   0  -1 2331.54   38.68
   6   0  -1 2499.72   37.18
   6   0   0  732.03   21.45
   6   0   0  840.03   21.83
   6   0   1 2352.15   39.34
   6   0   1 2318.64   37.54
   6   0   1 2367.58   37.52
   6   0   2 6253.22   61.44
   6   0   2 6128.65   60.95
   6   0   2 6295.90   63.26
   6   0   3 1122.23   25.90
   6   0   3 1157.51   27.50
   6   0   4 1480.42   29.34
   6   0   4 1453.27   31.12
   6   0   4 1503.70   31.22
   6   0   5 2549.25   38.48
   6   0   5 2511.87   40.86
   6   0   5 2463.63   41.56
   6   0   6  832.64   21.85
   6   0   6  883.61   25.18
   6   0   6  857.04   24.21
   6   0   7  131.26    9.66
   6   0   7  151.97    9.30
   6   0   7  139.56   10.12
   6   0   8  229.84   11.59
   6   0   8  203.32   12.55
   6   0   8  207.18   12.38
   6   0   9  689.68   19.88
   6   0   9  654.27   22.86
   6   0  10  877.86   27.00
   6   0  10  852.14   22.43
   6   0  11  161.63   11.86
   6   0  11  183.70   10.54
   6   0  12  276.75   15.81
   6   0  12  254.14   12.63
   6   0  13  368.12   18.71
   6   0  13  337.03   14.51
   6   0  14 1409.07   38.06
   6   0  14 1386.82   28.86
   6   0  15  668.74   26.84
   6   0  16 2332.86   50.64
   6   0  17  299.84   18.63
   6   0  18   13.74    4.18
   6   0  19   52.01    8.36
   6   0  20    9.98    4.75
   6   0  21   74.40   10.27
   6   0  22  238.63   18.39
   6   0  23   23.71    6.16
   6   0  24  284.02   20.79
   6   0  25   54.43    9.34
   6   0  26   11.47    5.20
   6   0  27  147.25   15.88
   6   0  28  418.99   27.38
   6   0  29   -8.76    3.45
   6  -1 -23   81.39   11.13
   6  -1 -22   43.44    7.90
   6  -1 -21   45.99    8.01
   6   1 -21   54.25    8.84
   6  -1 -20  191.32   16.04
   6   1 -20  177.15   15.51
   6  -1 -19   88.62   11.43
   6   1 -19   87.66   10.41
   6   1 -18   20.34    4.66
   6  -1 -18   25.91    5.80
   6  -1 -17   41.97    7.00
   6   1 -17   34.16    6.07
   6   1 -16   25.43    4.94
   6  -1 -16   25.27    5.25
   6   1 -15  170.22   13.56
   6  -1 -15  179.44   13.76
   6  -1 -14  510.54   15.28
   6  -1 -14  530.59   23.35
   6   1 -14  507.17   22.57
   6  -1 -13   34.38    4.04
   6  -1 -13   29.97    5.40
   6   1 -13   34.06    6.00
   6  -1 -12  115.99    7.41
   6  -1 -12  106.38    9.99
   6   1 -12  116.65   10.32
   6  -1 -11  147.87    8.55
   6  -1 -11  146.80   11.57
   6   1 -11  154.95   11.65
   6  -1 -10    9.96    1.83
   6   1 -10    7.73    2.79
   6  -1 -10    6.09    2.74
   6  -1  -9   84.19    6.53
   6  -1  -9   66.68    7.45
   6   1  -9   69.85    7.36
   6  -1  -8   56.04    6.64
   6   1  -8   60.32    7.12
   6  -1  -8   60.98    5.57
   6  -1  -7  412.04   14.91
   6  -1  -7  412.44   17.93
   6   1  -7  447.63   18.72
   6   1  -6  669.82   22.48
   6  -1  -6  685.79   18.94
   6  -1  -5  872.96   25.32
   6  -1  -5  871.51   21.84
   6   1  -5  853.63   25.16
   6  -1  -4  192.15   10.41
   6  -1  -4  168.21   11.17
   6   1  -4  208.44   12.46
   6  -1  -3  136.32    8.87
   6  -1  -3  136.38    9.54
   6   1  -3  146.19   10.29
   6  -1  -2    3.63    1.31
   6   1  -2    7.99    2.01
   6  -1  -2    4.84    2.03
   6  -1  -1   19.99    3.26
   6  -1  -1   21.69    3.55
   6   1  -1   23.92    4.08
   6  -1   0    0.31    1.27
   6   1   0   -0.62    1.07
   6  -1   0    0.77    0.88
   6   1   0    0.69    0.92
   6  -1   1   18.03    3.41
   6   1   1   20.92    3.94
   6  -1   1   17.90    3.35
   6   1   1   22.98    4.17
   6  -1   2    3.53    1.12
   6  -1   2    1.86    0.65
   6   1   2    2.33    1.06
   6   1   2    4.31    1.65
   6  -1   2    3.86    1.69
   6   1   3  130.91    9.63
   6   1   3  148.76    9.98
   6  -1   3  147.72    9.28
   6  -1   3  154.43    9.22
   6  -1   3  123.11    9.05
   6   1   4  195.00   11.37
   6   1   4  211.67   12.75
   6  -1   4  185.15    9.80
   6  -1   4  207.63   11.72
   6  -1   4  206.45   11.16
   6   1   5  814.79   23.62
   6   1   5  775.66   24.84
   6  -1   5  852.17   21.09
   6  -1   5  793.97   22.10
   6   1   6  683.08   21.91
   6  -1   6  700.26   18.79
   6   1   6  625.03   22.23
   6  -1   6  658.87   20.64
   6   1   7  425.92   17.13
   6  -1   7  449.93   14.92
   6  -1   7  420.62   16.61
   6   1   7  421.89   18.46
   6  -1   7  431.30   17.85
   6   1   8   65.22    6.87
   6   1   8   68.54    7.57
   6  -1   8   60.18    5.42
   6  -1   8   65.64    6.62
   6  -1   8   58.62    6.79
   6   1   9   62.13    7.00
   6  -1   9   61.14    6.53
   6  -1   9   79.20    6.06
   6   1   9   73.64    8.08
   6  -1   9   89.73    8.46
   6  -1  10    9.35    2.16
   6   1  10   14.02    3.13
   6  -1  10   10.70    2.34
   6  -1  10   12.67    2.92
   6   1  10   10.16    3.68
   6  -1  11  160.20    8.38
   6  -1  11  140.45   10.55
   6   1  11  149.40   11.71
   6  -1  11  152.17   11.45
   6   1  11  178.69   11.65
   6  -1  12  113.95    9.86
   6   1  12  104.62    9.09
   6   1  12  111.69   10.68
   6  -1  12  128.64   10.63
   6   1  13   33.48    6.71
   6  -1  13   32.95    5.29
   6   1  13   33.77    5.35
   6  -1  13   28.08    5.02
   6   1  14  470.49   19.72
   6  -1  14  522.85   22.31
   6   1  14  470.94   22.82
   6   1  15  162.22   13.84
   6  -1  15  184.32   13.62
   6   1  15  165.80   11.68
   6  -1  16   31.70    6.45
   6   1  16   36.57    6.54
   6  -1  17   43.58    6.72
   6   1  17   43.15    7.17
   6  -1  18   37.28    6.68
   6   1  18   24.47    6.02
   6  -1  19   89.31   10.58
   6   1  19   74.41    9.86
   6  -1  20  190.70   15.63
   6   1  20  209.10   16.84
   6   1  21   42.46    7.71
   6  -1  21   58.89    8.80
   6  -1  22   22.83    6.10
   6   1  22   36.54    7.31
   6  -1  23   70.88   10.22
   6   1  23   87.95   11.43
   6  -1  24   15.54    5.94
   6   1  24   27.02    5.95
   6  -1  25   -3.89    2.55
   6   1  25   42.07    8.58
   6   1  26   39.88    7.24
   6   1  27   -3.36    2.70
   6   1  28   33.16    7.24
   6   1  29    8.87    4.57
   6  -2 -24  112.89   13.50
   6  -2 -23   14.44    4.86
   6  -2 -22    6.13    3.04
   6  -2 -21   13.65    4.75
   6  -2 -20   57.20    9.05
   6   2 -20   61.43    8.82
   6   2 -19    6.91    4.24
   6  -2 -19    6.86    2.46
   6  -2 -18   41.95    7.46
   6   2 -18   30.55    6.30
   6   2 -17    1.80    1.44
   6  -2 -17    6.19    3.07
   6   2 -16  246.20   16.66
   6  -2 -16  284.75   18.04
   6  -2 -15  248.86   16.70
   6  -2 -15  236.52   12.49
   6   2 -15  270.53   17.13
   6  -2 -14  793.13   22.98
   6  -2 -14  787.70   29.20
   6   2 -14  765.87   27.91
   6  -2 -13   84.61    7.40
   6  -2 -13   82.11    9.05
   6   2 -13   75.11    8.51
   6  -2 -12  103.38   10.54
   6  -2 -12   94.53    7.82
   6   2 -11   90.07    9.38
   6  -2 -11  106.30    8.30
   6  -2 -11  104.36   10.02
   6  -2 -10   68.68    8.06
   6  -2 -10   87.12    7.42
   6   2 -10   79.47    8.40
   6  -2  -9    6.63    2.55
   6  -2  -9    7.76    1.83
   6   2  -9   11.87    3.05
   6   2  -8   29.36    5.46
   6  -2  -8   23.10    3.98
   6  -2  -8   35.26    5.70
   6  -2  -7   17.24    4.03
   6  -2  -7   14.67    3.12
   6   2  -7   22.90    4.29
   6  -2  -6  257.92   12.87
   6  -2  -6  259.23   14.42
   6   2  -6  280.59   15.12
   6  -2  -5  121.17    8.82
   6   2  -5  108.17    9.22
   6  -2  -5   94.23    8.44
   6  -2  -4   11.55    2.81
   6  -2  -4   15.64    3.54
   6   2  -4   11.49    3.32
   6   2  -3   62.56    7.07
   6  -2  -3   66.68    6.89
   6  -2  -3   48.18    5.73
   6   2  -2  440.55   18.54
   6  -2  -2  470.82   17.41
   6   2  -2  425.72   18.21
   6  -2  -2  453.26   17.72
   6  -2  -1   88.94    7.64
   6   2  -1   89.28    8.20
   6  -2  -1   92.52    7.65
   6   2  -1   75.11    7.86
   6   2   0    2.27    2.08
   6  -2   0    3.15    2.11
   6   2   0    5.66    1.64
   6  -2   0    4.37    1.87
   6   2   1   99.09    8.68
   6  -2   1  101.15    7.97
   6  -2   1   92.93    8.18
   6  -2   2  493.77   18.65
   6  -2   2  478.73   16.01
   6  -2   2  448.53   16.39
   6   2   2  491.92   19.69
   6   2   2  484.78   19.29
   6  -2   3   51.57    6.32
   6  -2   3   63.64    6.05
   6   2   3   53.97    6.48
   6  -2   3   70.57    5.94
   6   2   3   50.41    6.55
   6  -2   4   11.98    3.22
   6   2   4   10.93    2.97
   6   2   4    6.19    2.85
   6  -2   4   10.89    2.35
   6  -2   4    9.76    2.38
   6  -2   5  105.03    8.91
   6   2   5  109.26    9.66
   6   2   5  102.74    9.48
   6  -2   5  123.53    7.93
   6  -2   5  106.76    7.40
   6   2   6  298.99   15.71
   6  -2   6  306.37   12.87
   6  -2   6  284.43   11.86
   6  -2   6  286.80   14.65
   6   2   6  286.72   15.75
   6   2   7   27.67    5.37
   6  -2   7   19.19    3.78
   6  -2   7   18.29    2.89
   6   2   7   17.49    4.30
   6  -2   7   17.66    3.10
   6  -2   8   30.99    3.71
   6  -2   8   24.84    4.04
   6   2   8   19.05    4.46
   6  -2   8   31.03    5.08
   6   2   8   29.40    5.30
   6  -2   9   10.88    2.76
   6   2   9    3.72    2.66
   6   2   9    9.42    3.40
   6  -2   9   10.50    2.23
   6  -2   9    8.40    2.68
   6  -2  10   82.70    5.60
   6  -2  10   79.76    7.28
   6   2  10   72.13    8.58
   6   2  10   71.71    8.10
   6  -2  10   82.04    8.19
   6   2  11  106.34    9.88
   6  -2  11  105.90    9.56
   6  -2  11   92.13    5.48
   6  -2  11  109.38    8.69
   6   2  11   97.88   10.20
   6  -2  12  100.62    8.67
   6   2  12   79.36    9.20
   6   2  12   99.01    9.87
   6  -2  12   71.79    8.09
   6  -2  13   83.74    8.03
   6   2  13   90.21   10.03
   6   2  13   79.09    8.78
   6  -2  13   83.35    9.05
   6   2  14  793.59   30.11
   6  -2  14  783.70   25.88
   6  -2  14  795.87   27.95
   6   2  14  770.59   27.68
   6   2  15  220.01   16.41
   6  -2  15  210.71   13.82
   6   2  15  233.33   15.70
   6  -2  15  239.91   15.46
   6  -2  16  280.78   16.40
   6   2  16  293.00   19.29
   6  -2  16  277.03   16.87
   6  -2  17    1.96    1.66
   6   2  17   -1.45    1.80
   6  -2  17   -0.90    1.20
   6   2  18   38.50    7.15
   6  -2  18   33.35    6.48
   6  -2  19   11.57    3.66
   6   2  19    9.00    4.04
   6   2  20   61.30    9.20
   6  -2  20    3.00    3.22
   6   2  21   11.37    4.31
   6   2  22    2.72    3.59
   6   2  23    0.36    1.95
   6   2  24   97.54   11.95
   6   2  25    5.32    3.30
   6   2  26    5.18    3.09
   6   2  27   16.54    5.72
   6   2  28  140.83   15.81
   6   2  29    8.34    4.39
   6  -3 -25   98.33   13.67
   6  -3 -24   11.08    4.37
   6  -3 -23   12.89    4.92
   6  -3 -22    2.09    3.83
   6  -3 -21   10.40    3.38
   6  -3 -20   82.37   11.28
   6  -3 -19  216.21   16.91
   6   3 -18  116.87   11.56
   6  -3 -18  120.97   12.35
   6   3 -17  268.82   17.79
   6  -3 -17  262.45   18.40
   6  -3 -16   91.14    9.06
   6   3 -16  107.86   11.26
   6  -3 -16  102.23   11.24
   6  -3 -15   73.75    7.90
   6   3 -15   58.88    8.05
   6  -3 -15   64.63    9.17
   6  -3 -14  317.00   16.04
   6   3 -14  326.61   18.65
   6  -3 -14  298.97   18.70
   6   3 -13   86.04    9.55
   6  -3 -13   67.12    7.65
   6  -3 -13   92.45   10.34
   6   3 -12  116.87   10.80
   6  -3 -12   92.11    8.66
   6  -3 -12  116.27   11.03
   6   3 -11  237.34   15.25
   6  -3 -11  248.76   15.97
   6  -3 -11  213.20   13.02
   6  -3 -10   25.17    4.55
   6   3 -10   29.77    5.46
   6  -3 -10   29.63    5.60
   6  -3  -9   92.32    9.61
   6   3  -9   82.38    8.99
   6  -3  -9   93.06    8.41
   6   3  -8  116.54   10.40
   6  -3  -8  104.28    9.12
   6  -3  -8  119.32   10.46
   6  -3  -7  424.35   18.00
   6   3  -7  459.29   20.48
   6  -3  -7  466.50   20.85
   6  -3  -6  477.20   19.16
   6   3  -6  457.84   20.36
   6  -3  -6  424.18   19.50
   6  -3  -5  505.84   19.83
   6   3  -5  569.78   22.38
   6  -3  -5  574.08   22.11
   6  -3  -4  452.90   18.59
   6  -3  -4  462.33   19.58
   6   3  -4  406.32   18.57
   6  -3  -3  940.44   27.07
   6   3  -3  952.79   28.89
   6   3  -3  980.44   28.95
   6  -3  -3  909.97   26.96
   6  -3  -2  114.47    9.23
   6  -3  -2  121.21    9.80
   6   3  -2  110.67    9.75
   6   3  -2  135.89   10.87
   6   3  -1   94.77    9.17
   6  -3  -1  117.59    9.48
   6   3  -1  100.28    9.13
   6  -3   0   60.93    6.90
   6   3   0   86.10    8.76
   6  -3   0   87.00    8.06
   6   3   0   67.72    7.51
   6   3   1   91.50    8.83
   6  -3   1  100.84    8.96
   6   3   1  100.41    9.51
   6  -3   1   95.16    8.10
   6  -3   2  115.33    9.46
   6   3   2  127.01   10.64
   6  -3   2  121.98    9.01
   6   3   2  128.71   10.43
   6   3   3  929.26   29.14
   6  -3   3  947.11   27.55
   6  -3   3  979.15   25.00
   6   3   3  899.42   28.52
   6  -3   3  911.65   20.84
   6   3   4  423.77   19.83
   6   3   4  432.14   19.75
   6  -3   4  429.70   18.52
   6  -3   4  448.91   16.41
   6  -3   4  488.71   14.69
   6   3   5  611.88   24.02
   6  -3   5  580.77   21.81
   6  -3   5  573.96   18.34
   6   3   5  586.33   23.25
   6  -3   5  548.73   15.24
   6  -3   6  449.93   19.60
   6  -3   6  463.80   15.99
   6   3   6  446.06   20.82
   6  -3   6  460.11   14.29
   6   3   6  448.27   21.28
   6  -3   7  430.68   19.98
   6  -3   7  426.95   15.32
   6  -3   7  455.79   14.19
   6   3   7  431.16   20.67
   6  -3   8   98.48    9.21
   6   3   8  118.43   10.79
   6  -3   8  112.46    7.06
   6   3   8  108.11   10.47
   6  -3   8  127.91    7.91
   6  -3   9   91.86    9.22
   6   3   9   99.41    9.95
   6   3   9  101.56   10.38
   6  -3   9   85.27    6.72
   6  -3   9   98.83    6.71
   6  -3  10   41.05    6.23
   6   3  10   28.44    5.67
   6   3  10   29.90    6.42
   6  -3  10   28.93    4.10
   6  -3  10   25.26    3.39
   6   3  11  234.58   15.92
   6  -3  11  238.79   11.68
   6   3  11  202.79   15.02
  -6  -3  11  227.57   10.79
   6  -3  11  242.25   15.08
   6   3  12  119.08   11.48
   6  -3  12  103.59    8.09
   6   3  12  107.87   11.17
   6  -3  12  113.68   10.41
   6  -3  13   77.23    7.29
   6   3  13   76.71    9.29
   6   3  13   69.31    8.87
   6  -3  13   73.57    8.36
   6   3  14  334.73   20.22
   6   3  14  317.82   19.26
   6  -3  14  326.51   18.28
   6   3  15   65.61    9.17
   6   3  15   88.91   10.50
   6  -3  15   86.30    9.27
   6   3  16   97.08   11.04
   6   3  16   90.37   11.20
   6  -3  16   93.65   10.31
   6   3  17  243.14   18.39
   6   3  17  243.27   17.71
   6  -3  17  245.50   16.43
   6   3  18  123.72   13.00
   6   3  18   91.72   11.43
   6  -3  18  112.45   12.30
   6   3  19  167.92   15.08
   6   3  20   77.03   10.05
   6   3  21   20.29    5.67
   6   3  22    5.70    4.53
   6   3  23   14.76    5.58
   6   3  24   10.58    5.21
   6   3  25   95.88   12.05
   6   3  26   45.64    8.95
   6   3  27   30.47    7.89
   6   3  28   -3.46    4.67
   6  -4 -26   12.60    4.17
   6  -4 -25   15.07    6.31
   6  -4 -24  130.90   14.87
   6  -4 -23   48.80    8.48
   6  -4 -22   42.15    8.83
   6  -4 -21   81.93   11.49
   6  -4 -20   61.46    9.85
   6  -4 -19    2.58    1.57
   6  -4 -18  318.85   20.99
   6  -4 -17  137.74   12.15
   6   4 -17  158.07   13.77
   6  -4 -16  107.70   10.42
   6   4 -16  102.78   11.07
   6  -4 -16   92.70   11.58
   6   4 -15   75.28    9.09
   6  -4 -15   68.56    8.29
   6  -4 -15   83.68   10.48
   6  -4 -14    8.19    3.04
   6   4 -14    7.94    3.22
   6  -4 -14    8.34    3.69
   6  -4 -13  129.94   11.32
   6   4 -13  131.22   11.87
   6  -4 -13  110.67   11.29
   6  -4 -12  568.55   25.70
   6  -4 -12  562.21   23.34
   6   4 -12  584.76   25.62
   6  -4 -11  238.48   16.28
   6  -4 -11  216.87   14.19
   6   4 -11  223.85   15.41
   6  -4 -10   45.05    7.34
   6  -4 -10   49.80    6.81
   6   4 -10   35.59    6.21
   6  -4  -9  192.53   14.28
   6  -4  -9  209.75   13.72
   6   4  -9  183.78   13.68
   6  -4  -8  725.33   27.30
   6  -4  -8  732.51   25.77
   6   4  -8  661.45   26.28
   6  -4  -7   60.41    7.79
   6   4  -7   46.50    6.50
   6  -4  -7   65.92    7.76
   6  -4  -6  107.07   10.07
   6  -4  -6  112.53    9.88
   6   4  -6  105.65   10.47
   6   4  -6   99.18    9.79
   6  -4  -5  684.33   25.33
   6   4  -5  681.74   26.20
   6  -4  -5  652.27   24.13
   6   4  -5  635.84   24.80
   6  -4  -4    0.37    1.78
   6  -4  -4    0.82    2.46
   6   4  -4    5.65    3.25
   6   4  -4    2.78    2.59
   6  -4  -3  289.31   16.14
   6   4  -3  293.22   17.21
   6  -4  -3  310.38   16.76
   6   4  -3  281.95   16.22
   6  -4  -2  161.89   11.81
   6  -4  -2  134.19   10.99
   6   4  -2  140.15   11.21
   6  -4  -1  103.17    9.39
   6   4  -1  101.19   10.09
   6  -4  -1  104.11    9.70
   6   4  -1  105.31    9.77
   6  -4   0  215.71   13.12
   6   4   0  210.27   14.70
   6  -4   0  209.66   13.70
   6   4   0  210.69   14.00
   6   4   1  106.42   10.56
   6  -4   1  104.08    9.41
   6   4   1  117.44   10.68
   6  -4   1  111.72    9.38
   6   4   2  134.65   11.65
   6  -4   2  116.89   10.24
   6   4   2  114.33   10.45
   6  -4   2  112.86    9.34
   6   4   3  255.62   15.74
   6  -4   3  283.25   16.24
   6  -4   3  282.10   10.57
   6  -4   3  297.84   14.97
   6   4   3  251.15   16.59
   6   4   4    0.48    1.76
   6  -4   4    2.86    2.51
   6  -4   4    2.58    1.69
   6   4   4    2.56    1.44
   6  -4   4    2.59    1.27
   6  -4   5  661.16   24.94
   6  -4   5  697.36   22.36
   6   4   5  660.31   25.89
   6   4   5  635.27   26.85
   6  -4   6  114.95    8.71
   6  -4   6  108.88   10.33
   6   4   6   93.75    9.91
   6   4   6  102.54   10.77
   6  -4   7   61.84    7.62
   6  -4   7   59.48    6.30
   6   4   7   62.86    7.95
   6   4   7   64.51    8.34
   6  -4   8  642.44   25.16
   6  -4   8  647.01   19.74
   6   4   8  703.06   27.17
   6   4   8  726.06   29.14
   6  -4   9  194.97   14.09
   6   4   9  204.35   15.05
   6  -4   9  165.06    9.57
  -6  -4   9  195.75   11.92
   6   4   9  185.74   15.19
  -6  -4  10   44.07    5.69
   6   4  10   47.33    7.83
   6   4  10   50.76    7.82
   6  -4  10   45.45    7.09
   6   4  11  230.10   16.91
   6  -4  11  234.23   15.33
  -6  -4  11  207.61   12.02
   6   4  11  221.07   16.32
   6  -4  12  535.59   24.34
   6   4  12  554.49   26.43
   6   4  12  595.93   26.73
   6  -4  13  143.35   12.23
   6   4  13  111.15   12.08
   6   4  13  109.79   12.09
   6  -4  14    5.55    1.62
   6   4  14   11.40    4.54
   6   4  15   67.77    9.65
   6   4  15   70.42    9.49
   6  -4  15   59.94    8.44
   6   4  16  119.74   12.62
   6   4  16   85.18   11.17
   6  -4  16  107.04   11.23
   6   4  17  148.94   14.24
   6   4  17  138.14   14.00
   6  -4  17  144.25   13.01
   6   4  18  338.73   22.74
   6   4  18  330.77   21.49
   6   4  19    1.82    2.47
   6   4  19    3.34    3.05
   6   4  20   48.88    8.36
   6   4  21   66.47    9.76
   6   4  22   48.10    9.02
   6   4  23   58.23    9.96
   6   4  24  118.99   14.03
   6   4  25    2.80    3.68
   6   4  26   24.65    7.27
   6   4  27    7.09    4.28
   6  -5 -26   22.55    7.10
   6  -5 -25   43.02    9.65
   6  -5 -24    0.87    3.40
   6  -5 -23    5.53    4.62
   6  -5 -22   39.50    7.86
   6  -5 -21   21.56    5.83
   6  -5 -20    7.60    2.95
   6  -5 -19    7.21    3.02
   6  -5 -18   21.81    5.66
   6  -5 -17   52.25    7.89
   6  -5 -17   61.69    9.55
   6   5 -16   39.61    8.57
   6  -5 -16   23.99    5.17
   6  -5 -16   35.59    7.63
   6  -5 -15   31.70    6.41
   6   5 -15   35.43    7.38
   6  -5 -15   13.72    4.00
   6   5 -14   36.46    7.45
   6  -5 -14   31.80    6.36
   6  -5 -14   28.83    6.34
   6   5 -13  101.53   11.41
   6  -5 -13  100.42   11.49
   6  -5 -13  111.43   11.45
   6  -5 -12   13.71    4.41
   6  -5 -12   11.74    4.39
   6   5 -12   19.14    5.71
   6  -5 -11   -1.54    2.87
   6   5 -11    0.10    1.56
   6  -5 -11   -0.98    2.23
   6  -5 -10   23.16    5.27
   6   5 -10   16.64    3.35
   6  -5 -10   28.19    5.41
   6   5  -9   57.65    7.56
   6  -5  -9   52.69    7.65
   6  -5  -9   65.18    8.12
   6   5  -9   51.37    7.57
   6  -5  -8   32.16    6.34
   6  -5  -8   35.61    6.68
   6   5  -8   30.01    5.60
   6   5  -8   34.82    6.50
   6   5  -7   40.77    6.53
   6  -5  -7   48.65    7.29
   6  -5  -7   33.26    6.37
   6   5  -7   39.24    6.81
   6   5  -6   19.31    3.78
   6  -5  -6   18.26    4.27
   6  -5  -6   15.43    4.39
   6   5  -6   18.93    4.86
   6   5  -5   60.02    8.23
   6   5  -5   64.02    8.26
   6  -5  -5   66.10    8.33
   6  -5  -5   51.47    7.41
   6   5  -4  134.72   12.40
   6  -5  -4  166.07   13.01
   6  -5  -4  157.12   12.78
   6   5  -4  170.32   13.35
   6   5  -3  123.60   12.12
   6  -5  -3  122.02   10.79
   6  -5  -3   97.48    9.83
   6   5  -3  123.19   11.18
   6   5  -2  104.81   11.37
   6  -5  -2  125.07   11.17
   6  -5  -2  106.15   10.51
   6   5  -2  102.89   10.27
   6  -5  -1   58.83    7.51
   6  -5  -1   34.35    6.01
   6   5  -1   49.25    7.18
   6   5  -1   48.86    8.08
   6  -5   0   27.58    5.27
   6   5   0   31.19    6.03
   6  -5   0   30.94    5.45
   6   5   0   32.91    6.07
   6  -5   1   36.47    6.24
   6  -5   1   43.93    6.27
   6   5   1   62.15    8.01
   6   5   1   64.66    8.90
   6  -5   2  104.84    9.74
   6  -5   2   94.51    9.90
   6   5   2   95.68   10.02
   6  -5   3  131.36   10.81
   6  -5   3  143.33   12.19
   6   5   3  128.88   11.59
   6   5   3  141.98   13.37
   6  -5   4  146.11   11.17
   6  -5   4  180.06   13.82
   6   5   4  157.44   13.18
   6   5   4  157.42   13.65
   6  -5   5   62.86    8.02
   6   5   5   51.22    8.16
   6  -5   5   51.66    6.65
   6   5   5   65.17    9.11
  -6  -5   6   12.74    4.01
   6   5   6   14.16    3.60
   6  -5   6   14.56    4.52
   6  -5   6   18.15    3.80
   6   5   6   16.76    4.42
   6  -5   7   46.68    7.22
  -6  -5   7   37.94    5.85
   6   5   7   32.58    6.04
   6  -5   7   35.32    5.50
   6   5   7   40.60    7.56
   6   5   8   26.24    5.97
   6  -5   8   25.02    4.33
  -6  -5   8   40.91    6.11
   6  -5   8   46.10    6.85
   6   5   8   54.11    7.86
   6  -5   9   54.03    7.92
  -6  -5   9   64.66    7.91
   6   5   9   52.73    7.98
   6   5   9   70.25    9.27
   6  -5  10   32.76    6.13
  -6  -5  10   19.41    4.07
   6   5  10   27.51    5.90
   6   5  10   28.19    6.78
   6   5  11    1.73    1.48
   6  -5  11    1.36    1.48
   6   5  11    2.70    2.70
   6  -5  12    8.80    2.91
   6   5  12   11.56    3.22
   6   5  12    5.18    1.97
   6   5  13  113.00   12.72
   6  -5  13  107.30   11.39
   6   5  13   92.35   11.46
   6  -5  14   29.60    5.96
   6   5  14   30.94    6.83
   6   5  14   15.20    5.40
   6  -5  15   19.43    5.14
   6   5  15   25.06    5.95
   6   5  15   38.92    8.07
   6  -5  16   39.36    6.82
   6   5  16   30.35    6.75
   6   5  16   30.84    7.29
   6   5  17   42.01    8.25
   6   5  17   58.44   10.19
   6   5  18   19.45    5.08
   6   5  18   22.36    6.17
   6   5  19    0.03    2.54
   6   5  19    1.28    1.91
   6   5  20    6.07    3.67
   6   5  20    3.05    1.90
   6   5  21   37.20    7.88
   6   5  21   -8.06    3.71
   6   5  22   31.81    7.17
   6   5  23    7.50    5.18
   6   5  24    8.67    5.35
   6   5  25   33.99    8.00
   6   5  26   30.43    7.65
   6  -6 -25   27.90    9.15
   6  -6 -24  127.68   15.36
   6  -6 -23    8.07    2.64
  -6  -6 -23   11.78    3.53
  -6  -6 -22  204.97   18.73
   6  -6 -22  187.78   17.54
  -6  -6 -21   77.94   11.98
   6  -6 -21   80.80   10.85
   6  -6 -20    1.36    3.35
  -6  -6 -20    0.96    2.05
  -6  -6 -19   48.33    8.92
   6  -6 -19   36.05    6.84
   6  -6 -18  332.82   22.36
   6  -6 -18  383.81   24.18
   6  -6 -17   78.01   11.46
   6  -6 -17   70.18    9.99
   6  -6 -16   12.03    5.21
   6  -6 -16    2.27    2.72
   6  -6 -15   26.46    6.54
   6   6 -15   17.59    5.50
   6  -6 -15   23.55    5.47
   6   6 -14    6.77    4.05
   6  -6 -14    2.47    1.57
   6  -6 -14    3.23    2.82
   6   6 -13   15.90    4.23
   6  -6 -13   41.83    7.61
   6  -6 -13   33.07    6.46
   6   6 -13   16.94    4.65
   6   6 -12  251.41   18.82
   6  -6 -12  221.20   17.33
   6  -6 -12  226.58   17.04
   6   6 -12  239.53   18.09
   6   6 -11   66.53    9.74
   6  -6 -11   64.18    8.80
   6  -6 -11   62.26    9.25
   6   6 -11   53.28    8.12
   6   6 -10    6.84    3.75
   6  -6 -10    4.09    3.58
   6  -6 -10    9.57    3.12
   6   6 -10    7.56    3.49
   6  -6  -9   54.51    8.62
   6  -6  -9   55.94    8.03
   6   6  -9   65.55    8.80
   6   6  -8  534.95   26.99
   6  -6  -8  575.73   26.34
   6  -6  -8  562.37   26.66
   6   6  -8  562.99   25.91
   6  -6  -7  132.46   12.83
   6  -6  -7  135.12   12.96
   6   6  -7  120.96   11.89
   6   6  -7  117.48   12.77
   6   6  -6    1.81    2.54
   6   6  -6    6.34    1.96
   6  -6  -6   -0.06    1.84
   6  -6  -6   -0.45    1.75
   6  -6  -5   79.51    9.93
   6  -6  -5   83.42    9.85
   6   6  -5   87.00    9.90
   6   6  -5   98.50   11.61
   6  -6  -4  236.65   16.95
   6  -6  -4  252.08   17.42
   6   6  -4  237.93   16.30
   6   6  -4  254.67   18.80
   6   6  -3    4.84    4.47
   6  -6  -3   -1.10    1.82
   6  -6  -3   -0.11    2.23
   6   6  -3    0.66    2.02
   6  -6  -2  504.79   24.07
   6  -6  -2  456.10   23.10
   6   6  -2  452.26   22.61
   6   6  -2  437.69   24.15
   6  -6  -1  115.40   11.29
   6  -6  -1  143.16   12.43
   6   6  -1  111.90   11.30
   6   6   0    7.79    4.47
   6  -6   0    5.11    3.01
   6  -6   0   14.54    4.30
   6   6   0    2.15    2.90
   6   6   1  115.85   10.93
   6  -6   1   94.43   10.52
   6  -6   1   95.68   10.15
  -6  -6   1  118.22   11.97
   6   6   1   86.97   10.96
  -6  -6   2  433.60   22.29
   6  -6   2  424.29   21.97
   6  -6   2  435.11   21.58
   6   6   2  441.67   22.79
   6   6   2  478.54   25.51
   6   6   3    4.10    2.95
   6  -6   3    2.91    2.81
   6  -6   3    2.29    3.03
   6   6   3    6.13    2.27
  -6  -6   3    2.37    2.55
   6   6   4  294.99   18.83
   6  -6   4  248.64   16.98
   6  -6   4  250.04   15.83
  -6  -6   4  238.41   16.61
   6   6   4  297.68   20.33
   6  -6   5   96.93    9.64
   6  -6   5   95.79   10.70
   6   6   5   85.48   10.14
   6   6   5   90.62   11.50
  -6  -6   5   92.76   10.25
   6  -6   6   -0.54    1.95
   6  -6   6    3.55    2.30
  -6  -6   6    3.17    1.55
   6   6   6    0.30    1.40
   6   6   6   -1.35    2.93
   6  -6   7  124.66   11.15
   6  -6   7  143.38   13.10
  -6  -6   7  130.08   12.24
   6   6   7  113.36   11.91
   6   6   7  118.93   12.96
   6  -6   8  546.44   26.06
  -6  -6   8  526.39   24.39
   6   6   8  558.65   26.58
   6   6   8  563.85   28.42
   6  -6   9   59.05    8.86
  -6  -6   9   55.71    7.89
   6   6   9   64.10    9.67
   6   6   9   66.47    9.62
   6  -6  10    4.55    2.74
  -6  -6  10    7.34    3.90
   6   6  10    7.33    4.65
   6   6  10    8.15    3.77
   6  -6  11   73.72    9.69
   6   6  11   73.59   10.03
   6   6  11   90.88   11.82
   6  -6  12  260.63   18.36
   6   6  12  268.34   19.38
   6   6  12  279.90   20.34
   6  -6  13   32.64    7.39
   6   6  13   36.82    7.49
   6   6  13   14.51    5.56
   6  -6  14   10.32    4.72
   6   6  14   12.48    5.05
   6   6  14   11.68    5.14
   6  -6  15   19.18    4.73
   6   6  15   11.67    3.67
   6   6  15   18.63    4.98
   6  -6  16    8.72    3.83
   6   6  16    8.28    2.35
   6   6  16    3.22    2.34
   6   6  17   79.39   11.88
   6   6  17   70.57   10.06
   6   6  18  344.98   23.30
   6   6  18  356.84   24.55
   6   6  19   23.91    7.42
   6   6  19   47.72    9.79
   6   6  20    2.97    3.65
   6   6  20   10.55    5.62
   6   6  21   88.50   11.92
   6   6  21   63.47   11.44
   6   6  22  220.24   19.19
   6   6  23    5.09    3.12
   6   6  24  123.41   14.71
   6   6  25   33.14    7.39
   6  -7 -23    7.07    2.21
  -6  -7 -23   13.98    5.39
  -6  -7 -22    5.44    5.39
   6  -7 -22    9.60    5.17
  -6  -7 -21   70.47   11.21
   6  -7 -21   53.37    9.77
   6  -7 -20   41.12    8.46
  -6  -7 -20   46.07    9.36
  -6  -7 -19   27.96    9.23
   6  -7 -19   29.59    6.81
   6  -7 -18  100.50   12.87
   6  -7 -18   77.07   11.63
   6  -7 -17   16.21    4.58
   6  -7 -17   33.72    7.66
  -6  -7 -17   23.61    6.23
  -6  -7 -16   34.12    9.16
   6  -7 -16   27.55    7.07
   6  -7 -16   34.61    7.50
   6  -7 -15   39.88    7.85
   6  -7 -15   37.46    7.91
  -6  -7 -15   45.34    8.64
  -6  -7 -14   22.30    5.40
   6  -7 -14    8.56    4.63
   6  -7 -14   19.49    6.32
   6  -7 -13   79.58   10.95
   6  -7 -13   60.79    9.25
  -6  -7 -13   87.71   11.46
   6   7 -13   91.03   12.06
   6   7 -12   31.96    6.85
   6  -7 -12   36.18    7.41
   6  -7 -12   37.83    7.55
  -6  -7 -12   32.82    6.99
  -6  -7 -11   31.24    6.33
   6   7 -11   16.54    5.02
   6  -7 -11   23.08    5.44
   6  -7 -11   26.78    6.60
   6  -7 -10  118.76   12.69
   6  -7 -10   91.71   11.40
  -6  -7 -10  101.17   12.25
   6   7 -10  116.22   13.53
   6   7  -9   11.69    4.24
   6  -7  -9   11.33    3.47
   6  -7  -9   20.44    5.62
  -6  -7  -9    9.33    4.50
   6   7  -9   10.58    3.32
   6   7  -8  140.11   14.17
   6   7  -8  134.38   12.78
   6  -7  -8  136.82   13.63
  -6  -7  -8  164.98   14.91
   6  -7  -8  146.39   14.18
   6   7  -7   29.90    7.06
  -6  -7  -7   39.03    7.81
   6  -7  -7   44.80    7.50
   6  -7  -7   40.64    7.85
   6   7  -7   51.50    8.24
   6   7  -6   14.62    5.00
  -6  -7  -6    6.98    3.41
   6  -7  -6   13.55    4.12
   6   7  -6   14.62    4.14
   6  -7  -6   12.77    4.54
   6   7  -5   26.08    4.74
   6   7  -5   44.62    8.38
   6  -7  -5   50.73    8.43
   6  -7  -5   44.30    7.83
  -6  -7  -5   53.56    8.42
  -6  -7  -4  128.93   12.93
   6  -7  -4  171.97   14.89
   6  -7  -4  155.56   14.41
   6   7  -4  142.72   13.43
   6   7  -4  167.92   15.50
   6  -7  -3   40.56    7.42
   6  -7  -3   64.82    9.39
  -6  -7  -3   48.28    8.40
   6   7  -3   52.35    8.90
   6   7  -3   67.28   10.39
   6   7  -2  179.38   15.10
   6  -7  -2  184.26   15.14
   6  -7  -2  224.35   17.11
  -6  -7  -2  203.88   16.26
   6   7  -2  209.45   17.82
   6  -7  -1   41.13    6.99
   6  -7  -1   38.53    7.18
  -6  -7  -1   44.48    8.03
   6   7  -1   34.05    7.00
   6   7  -1   38.03    7.70
   6   7   0    6.44    4.59
  -6  -7   0    7.12    3.09
   6  -7   0    3.98    3.91
   6   7   0    6.07    3.61
   6  -7   0    1.59    3.40
   6   7   1   40.40    7.89
   6  -7   1   37.52    7.19
   6  -7   1   40.12    7.33
   6   7   1   45.94    7.37
  -6  -7   1   38.16    6.85
   6  -7   2  209.28   16.38
   6  -7   2  198.25   15.39
   6   7   2  216.39   17.03
  -6  -7   2  207.39   16.42
   6   7   2  221.49   18.06
   6  -7   3   60.11    8.49
   6  -7   3   49.78    7.85
   6   7   3   61.51    8.88
  -6  -7   3   52.63    8.30
   6   7   3   53.97    9.79
   6  -7   4  160.67   14.14
   6   7   4  171.18   14.74
   6  -7   4  174.29   14.23
  -6  -7   4  152.00   13.93
   6   7   4  149.33   15.11
   6  -7   5   39.50    7.34
   6  -7   5   53.47    8.14
  -6  -7   5   39.76    7.26
   6   7   5   49.03    8.27
   6   7   5   28.38    6.50
   6  -7   6   13.24    3.19
   6  -7   6   15.87    4.90
   6   7   6    9.18    3.02
  -6  -7   6    6.03    3.41
   6   7   6    6.75    4.94
   6  -7   7   38.19    7.33
  -6  -7   7   45.47    8.03
   6   7   7   38.95    7.47
   6   7   7   38.68    8.01
   6  -7   8  151.21   14.23
  -6  -7   8  144.98   13.51
   6   7   8  133.75   13.96
   6   7   8  148.37   15.29
   6   7   9    6.44    4.23
   6  -7   9   12.55    4.08
  -6  -7   9   13.57    4.28
   6   7   9    7.87    3.94
   6  -7  10  108.75   12.42
   6   7  10   84.27   11.33
   6   7  10   95.91   12.39
   6  -7  11   15.22    5.53
   6   7  11   24.43    7.06
   6   7  11   27.08    6.33
   6  -7  12   41.07    7.69
   6   7  12   28.55    6.05
   6   7  12   37.00    8.27
   6  -7  13   71.45    9.87
   6   7  13   75.22   10.43
   6   7  13   76.33   11.49
   6   7  14   24.52    7.27
   6  -7  14   20.65    5.76
   6   7  14   19.42    5.40
   6   7  15   35.58    7.75
   6   7  15   33.45    7.58
   6  -7  15   48.04    9.57
   6   7  16   29.61    6.87
   6   7  16   27.86    7.46
   6   7  17   21.10    6.70
   6   7  17   18.18    5.35
   6   7  18   91.48   13.08
   6   7  18   97.44   12.62
   6   7  19   44.72    8.97
   6   7  19   42.18    8.80
   6   7  20   53.57    9.51
   6   7  20   34.02    8.86
   6   7  21   66.55   12.93
   6   7  21   82.81   13.43
   6   7  22    8.74    4.59
   6   7  23   16.87    4.97
  -6  -8 -20   18.21    6.29
   6  -8 -20   21.99    6.70
  -6  -8 -19   32.93    7.84
   6  -8 -19   52.94    9.35
   6  -8 -18   92.52   13.05
   6  -8 -18   65.54   11.18
  -6  -8 -18  104.43   13.45
   6  -8 -17   29.76    7.31
   6  -8 -17   14.38    4.50
   6  -8 -16   42.89    8.58
   6  -8 -16   23.40    6.46
  -6  -8 -16   52.85    9.05
   6  -8 -15   33.39    6.78
   6  -8 -15   37.10    8.23
  -6  -8 -15   35.60    7.31
   6  -8 -14   71.95   11.36
   6  -8 -14   52.92    9.66
  -6  -8 -14   54.52   10.21
   6  -8 -13  115.29   13.88
   6  -8 -13  118.87   13.73
  -6  -8 -13  129.39   14.02
   6  -8 -12   82.55   11.47
   6  -8 -12   93.12   12.24
  -6  -8 -12   78.24   11.61
   6   8 -12   74.97   11.58
   6   8 -11   61.91   10.20
   6  -8 -11   57.18    9.98
   6  -8 -11   55.75    9.08
  -6  -8 -11   53.97    8.95
   6   8 -10   51.37   10.23
   6  -8 -10   35.83    7.52
   6  -8 -10   55.71    9.01
  -6  -8 -10   65.35   10.11
   6   8  -9   22.10    7.57
  -6  -8  -9   24.67    5.94
   6  -8  -9   30.55    6.82
   6  -8  -9   27.60    6.80
   6  -8  -8  172.84   15.88
   6  -8  -8  149.09   15.09
  -6  -8  -8  187.52   16.49
   6   8  -8  155.09   16.49
   6  -8  -7   92.32   11.47
   6  -8  -7  106.46   12.71
  -6  -8  -7   94.32   12.03
   6   8  -7   91.17   12.53
   6  -8  -6   22.03    6.60
   6   8  -6   17.63    5.70
  -6  -8  -6   22.53    5.41
   6  -8  -6   17.33    5.78
   6  -8  -5   76.09   10.14
  -6  -8  -5   93.07   11.78
   6  -8  -5   76.50   10.72
   6   8  -5   86.89   11.60
   6  -8  -4  121.87   13.13
  -6  -8  -4  111.57   13.02
   6  -8  -4  101.97   12.74
   6   8  -4  120.12   13.85
   6  -8  -3    4.28    3.95
  -6  -8  -3    6.24    4.66
   6  -8  -3    5.46    3.75
   6   8  -3    0.78    3.12
   6   8  -3    0.07    2.37
   6   8  -2  127.45   13.20
   6  -8  -2  123.83   13.00
  -6  -8  -2  114.47   13.04
   6  -8  -2  117.66   13.38
   6   8  -2  135.20   15.10
   6  -8  -1   35.67    7.14
  -6  -8  -1   34.59    7.37
   6  -8  -1   38.64    7.46
   6   8  -1   46.78    8.16
   6   8  -1   22.30    5.50
   6  -8   0    5.46    2.63
   6  -8   0    5.86    2.46
  -6  -8   0    1.04    1.54
   6   8   0    2.88    2.12
   6   8   0    1.49    2.28
   6   8   1   28.77    6.13
   6  -8   1   41.81    7.63
   6  -8   1   41.83    8.17
  -6  -8   1   35.32    7.01
   6   8   1   46.09    8.38
   6  -8   2  120.57   13.26
   6  -8   2  126.41   13.47
  -6  -8   2  135.25   14.19
   6   8   2  116.26   12.91
   6   8   2  110.08   13.54
   6  -8   3    1.28    2.97
  -6  -8   3    2.17    2.56
   6   8   3    2.67    1.82
   6  -8   3    2.52    3.35
   6   8   3    0.53    3.39
   6  -8   4  119.86   13.11
   6  -8   4  104.26   11.67
  -6  -8   4   99.11   11.63
   6   8   4   80.90   10.74
   6   8   4  118.27   13.76
   6  -8   5   73.21    9.98
  -6  -8   5   69.33    9.82
   6   8   5   89.43   11.04
   6   8   5   66.56   10.76
   6  -8   6   22.51    5.41
  -6  -8   6   21.89    5.21
   6   8   6   16.64    5.73
   6   8   6   12.83    6.08
   6  -8   7  118.28   13.45
   6   8   7  111.26   13.07
  -6  -8   7   81.14   10.97
   6   8   7   95.02   12.63
   6  -8   8  201.36   17.04
  -6  -8   8  204.98   17.30
   6   8   8  187.85   17.05
   6   8   8  185.01   17.46
   6  -8   9   16.57    4.24
   6   8   9   23.75    6.70
  -6  -8   9   37.49    8.80
   6   8   9   27.47    6.50
   6  -8  10   55.68    9.54
   6   8  10   51.32    9.91
   6   8  10   61.66   10.53
   6   8  11   40.27    8.75
   6  -8  11   61.53    9.53
   6   8  11   38.85    7.10
   6  -8  12   75.42   11.07
   6   8  12   59.71    9.72
   6   8  12   94.03   12.90
   6  -8  13  108.31   13.23
   6   8  13  124.87   14.87
   6   8  13  126.46   14.07
   6  -8  14   75.04   11.37
   6   8  14   75.14   11.71
   6   8  14   63.65   10.30
   6   8  15   70.45   11.14
   6   8  15   53.60   10.43
   6   8  16   57.04   10.91
   6   8  16   37.31    8.38
   6   8  17   32.51    7.54
   6   8  17   53.49   10.15
   6   8  18  101.45   14.39
   6   8  18  115.95   13.90
   6   8  19   28.54    7.77
   6   8  19   56.90   11.66
   6   8  20   39.77    9.15
   6   8  20   31.28    9.00
   6  -9 -17   -4.31    4.51
   6  -9 -17   -5.72    4.92
  -6  -9 -17    9.56    4.90
   6  -9 -16   -1.15    3.14
   6  -9 -16    7.56    5.91
  -6  -9 -16    0.61    3.17
   6  -9 -15   -0.90    2.74
   6  -9 -15    3.21    2.02
   6  -9 -14   39.74    7.97
   6  -9 -14   37.54    7.38
  -6  -9 -14   17.52    4.59
   6  -9 -13    0.85    2.27
   6  -9 -13    2.46    3.95
  -6  -9 -13   -4.36    4.39
  -6  -9 -12   54.65    9.60
   6  -9 -12   63.47   10.31
   6  -9 -12   58.48    9.66
  -6  -9 -11    5.46    2.57
   6  -9 -11    0.71    2.89
   6  -9 -11   -2.51    1.85
   6  -9 -10   11.42    3.38
   6   9 -10   11.57    4.92
  -6  -9 -10   13.78    5.55
   6  -9 -10    1.21    2.76
   6  -9  -9    7.87    5.07
  -6  -9  -9   18.54    4.99
   6  -9  -9   20.50    5.95
   6   9  -9   16.04    6.41
   6  -9  -8   34.30    7.83
   6  -9  -8   38.35    7.83
  -6  -9  -8   29.08    7.16
   6   9  -8   32.66    7.85
   6  -9  -7   12.01    4.41
  -6  -9  -7   11.26    4.82
   6   9  -7   20.24    7.30
   6  -9  -7   17.74    6.30
   6  -9  -6   38.03    7.75
  -6  -9  -6   53.32    9.11
   6  -9  -6   51.19    9.99
   6   9  -6   48.24    9.79
   6  -9  -5   20.86    6.56
  -6  -9  -5   13.07    3.91
   6  -9  -5   13.59    4.67
   6   9  -5   25.39    7.14
   6  -9  -4   13.64    5.18
   6  -9  -4   12.54    5.20
  -6  -9  -4    6.86    3.75
   6   9  -4    3.39    2.47
   6  -9  -3   19.88    6.02
   6  -9  -3   22.03    5.65
  -6  -9  -3   27.68    5.87
   6   9  -3   27.72    7.07
   6  -9  -2    5.28    1.85
   6  -9  -2    2.90    3.07
  -6  -9  -2    7.68    4.54
   6   9  -2    3.62    3.89
   6  -9  -1   27.81    6.58
   6  -9  -1   36.81    7.30
  -6  -9  -1   38.33    8.00
   6   9  -1   39.25    8.71
   6   9   0   45.16    9.09
   6  -9   0   51.27    9.00
  -6  -9   0   34.97    8.03
   6  -9   0   34.87    7.35
   6  -9   1   36.91    7.62
  -6  -9   1   48.60    8.86
   6  -9   1   35.00    7.29
   6   9   1   26.32    7.48
   6  -9   2   -2.55    3.25
  -6  -9   2    0.71    1.91
   6  -9   2    6.39    4.41
   6   9   2    1.11    3.04
   6  -9   3   47.66    9.08
  -6  -9   3   45.27    8.45
   6  -9   3   25.08    6.59
   6   9   3   27.09    7.43
   6   9   3   25.11    6.44
   6   9   4    2.67    2.41
   6  -9   4    7.65    3.39
  -6  -9   4    5.23    3.79
   6   9   4    8.12    4.95
   6  -9   5   18.90    6.41
  -6  -9   5   28.73    7.25
   6   9   5   18.98    6.49
   6   9   5   26.22    7.03
   6  -9   6   37.77    8.14
   6   9   6   26.32    6.29
  -6  -9   6   19.18    5.57
   6   9   6   43.06    8.55
   6  -9   7   12.50    5.31
  -6  -9   7    8.65    4.52
   6   9   7   11.40    4.81
   6   9   7   10.36    4.11
   6  -9   8   34.67    8.04
  -6  -9   8   25.10    6.99
   6   9   8   29.20    6.22
   6   9   8   33.15    7.80
   6  -9   9    5.64    3.99
   6   9   9   17.81    6.47
   6   9   9   23.25    6.23
   6  -9  10    8.22    4.40
   6   9  10    4.56    3.25
   6   9  10   13.61    6.11
   6  -9  11   -2.85    3.51
   6   9  11    2.22    2.59
   6   9  11    2.92    2.39
   6  -9  12   39.24    9.08
   6   9  12   28.28    6.39
   6   9  12   35.47    8.81
   6   9  13   -1.82    3.81
   6  -9  13   -0.46    2.19
   6   9  13   -4.01    4.01
   6  -9  14   50.46   10.30
   6   9  14   27.83    7.51
   6   9  14   26.07    7.77
   6   9  15   -2.71    2.64
   6   9  15   -0.29    2.59
   6   9  16    0.14    3.20
   6   9  16   -0.99    2.38
   6   9  17   -0.05    4.08
   6   9  17    4.57    5.09
   6 -10 -13    4.68    2.86
   6 -10 -13    7.20    3.14
  -6 -10 -13   13.09    4.71
   6 -10 -12   35.11    7.70
  -6 -10 -12   52.68    9.37
   6 -10 -12   34.07    8.32
   6 -10 -11   13.59    6.09
  -6 -10 -11   15.74    5.14
   6 -10 -11   22.38    6.88
   6 -10 -10    3.50    1.95
  -6 -10 -10   11.48    5.54
   6 -10  -9    7.61    3.90
   6 -10  -9   14.53    5.71
  -6 -10  -9    7.86    3.75
   6  10  -9    8.96    3.70
   6 -10  -8   96.18   12.55
   6 -10  -8   83.08   12.24
  -6 -10  -8   82.77   11.52
   6  10  -8   78.29   12.55
   6 -10  -7   24.24    7.21
  -6 -10  -7    8.48    3.18
   6 -10  -7   16.10    5.99
   6  10  -7   18.42    5.52
   6 -10  -6   35.89    8.67
  -6 -10  -6   14.21    5.55
   6 -10  -6   32.74    7.90
   6  10  -6   21.28    7.57
   6 -10  -5   42.57    8.08
   6 -10  -5   28.93    7.63
  -6 -10  -5   43.90    8.68
   6  10  -5   31.22    8.39
   6 -10  -4   76.54   11.52
  -6 -10  -4   83.37   11.41
   6 -10  -4   88.38   12.08
   6  10  -4   49.75   10.10
   6 -10  -3   19.37    5.66
  -6 -10  -3   15.25    5.66
   6  10  -3   16.00    6.49
   6 -10  -3   19.16    7.03
   6 -10  -2   75.77   10.93
  -6 -10  -2   63.26    9.79
   6 -10  -2   67.98   11.33
   6  10  -2   78.50   12.23
  -6 -10  -1   18.40    6.00
   6 -10  -1   37.25    7.91
   6 -10  -1   24.46    7.58
   6  10  -1   19.43    6.57
   6 -10   0    8.69    3.18
  -6 -10   0    7.53    3.30
   6 -10   0    9.81    5.71
   6  10   0    5.76    2.70
   6 -10   1   39.81    8.27
  -6 -10   1   21.52    6.35
   6 -10   1   33.06    8.13
   6  10   1   30.77    7.51
   6 -10   2   74.10   10.94
  -6 -10   2   91.36   12.29
   6  10   2   70.51   11.69
   6 -10   3   21.76    6.45
  -6 -10   3   17.76    5.87
   6  10   3   17.98    6.81
   6 -10   4   74.86   11.13
  -6 -10   4   75.26   11.33
   6  10   4   56.69   10.22
   6 -10   5   45.22    8.96
  -6 -10   5   31.07    7.60
   6  10   5   33.80    7.76
   6 -10   6   26.85    6.49
  -6 -10   6   24.64    6.88
   6  10   6   28.15    7.53
   6 -10   7   16.04    6.00
  -6 -10   7   11.03    4.69
   6  10   7    8.65    4.56
   6 -10   8  101.95   13.42
   6  10   8   85.98   13.10
   6 -10   9   10.51    4.97
   6  10   9    5.88    3.88
   6 -10  10   10.08    6.08
   6  10  10    4.75    4.60
   6  10  10    8.11    4.42
   6 -10  11   14.44    5.23
   6  10  11   21.88    6.69
   6  10  11    9.68    5.32
   6 -10  12   45.01    8.93
   6  10  12   35.13    8.42
   6  10  12   28.22    7.54
   6  10  13    7.22    5.22
   6  10  13    6.18    2.74
   6 -11  -5   17.48    6.29
  -6 -11  -5    9.96    4.17
   6 -11  -5    4.68    2.75
   6  11  -5   10.86    6.52
  -6 -11  -4    5.17    4.73
   6 -11  -4   -0.63    3.25
   6  11  -4    4.49    2.60
   6 -11  -4    1.50    4.59
  -6 -11  -3   26.09    7.68
   6 -11  -3   14.33    3.70
   6  11  -3   10.29    5.43
   6 -11  -3   23.50    6.19
   6 -11  -2   -2.64    3.95
   6 -11  -2   14.90    6.55
  -6 -11  -2    2.94    4.06
   6  11  -2    9.24    5.96
   6 -11  -1   20.41    6.79
  -6 -11  -1   15.38    5.56
   6  11  -1    9.02    3.81
   6 -11   0   21.64    6.38
  -6 -11   0   36.31    9.07
   6 -11   0   30.25    9.75
   6  11   0   19.48    6.67
   6 -11   1   21.42    7.20
  -6 -11   1   18.93    5.43
   6  11   1   10.35    4.99
   6 -11   2   -2.55    3.39
  -6 -11   2   -0.29    2.98
   6  11   2    1.49    3.21
   6 -11   3    7.80    3.93
  -6 -11   3   18.03    6.44
   6  11   3   19.45    7.24
   6 -11   4    1.22    3.55
  -6 -11   4    7.78    3.53
   6  11   4    5.31    3.43
   6 -11   5    8.28    2.36
  -6 -11   5    3.25    2.46
   7   0 -22   -0.01    2.55
   7   0 -21    0.62    1.97
   7   0 -20    0.41    2.26
   7   0 -19    2.30    1.93
   7   0 -18   -1.10    2.30
   7   0 -17    1.27    2.78
   7   0 -16    1.53    1.93
   7   0 -15    3.99    2.93
   7   0 -14    3.46    2.95
   7   0 -13    1.67    2.66
   7   0 -13   -0.07    1.07
   7   0 -12   -1.21    1.27
   7   0 -12    0.50    1.70
   7   0 -11   -0.26    0.63
   7   0 -11   -0.75    0.94
   7   0 -10    1.71    2.66
   7   0 -10    0.22    0.71
   7   0  -9    1.68    2.29
   7   0  -9    0.09    0.72
   7   0  -8    0.28    0.91
   7   0  -8    0.42    1.07
   7   0  -7    0.85    1.69
   7   0  -7    0.49    0.73
   7   0  -6   -0.52    1.22
   7   0  -6   -1.02    1.10
   7   0  -5    1.41    1.71
   7   0  -5   -0.89    1.33
   7   0  -4    1.00    1.78
   7   0  -4    2.02    1.27
   7   0  -3    0.03    1.22
   7   0  -3   -0.68    1.27
   7   0  -2   -0.55    1.83
   7   0  -2   -1.07    2.00
   7   0  -1   -0.21    1.17
   7   0  -1    0.94    1.23
   7   0   0    0.85    0.82
   7   0   0   -0.15    1.12
   7   0   1    0.91    1.53
   7   0   1    0.21    1.63
   7   0   1    0.46    1.51
   7   0   2    0.69    1.56
   7   0   2    1.21    1.35
   7   0   2   -1.86    2.26
   7   0   3   -0.74    0.89
   7   0   3    0.32    1.81
   7   0   3    1.62    2.09
   7   0   4    1.04    1.16
   7   0   4   -0.71    1.74
   7   0   4   -0.70    1.03
   7   0   5    0.60    1.00
   7   0   5    0.47    0.74
   7   0   5    1.65    0.76
   7   0   6    1.02    2.65
   7   0   6    0.18    1.24
   7   0   6    1.20    1.43
   7   0   7    2.02    1.74
   7   0   7    0.05    1.21
   7   0   7    2.54    2.10
   7   0   8    0.30    1.83
   7   0   8   -0.38    1.48
   7   0   8    1.48    1.26
   7   0   9    1.15    0.79
   7   0   9    0.66    1.42
   7   0  10    0.21    1.56
   7   0  10   -1.51    2.13
   7   0  11   -0.50    1.63
   7   0  11    1.36    1.18
   7   0  12   -0.95    1.55
   7   0  12    0.16    1.91
   7   0  13   -0.24    1.11
   7   0  13    1.18    1.84
   7   0  14   -4.74    1.86
   7   0  14   -3.41    2.61
   7   0  15    1.13    2.24
   7   0  16    1.97    2.32
   7   0  17    1.18    3.09
   7   0  18    0.50    1.41
   7   0  19    0.21    1.66
   7   0  20    2.35    3.68
   7   0  21   -0.52    2.40
   7   0  22    5.00    4.14
   7   0  23   -2.40    2.14
   7   0  24   -4.00    3.62
   7   0  25    1.62    2.61
   7   0  26   -2.35    1.94
   7   0  27    2.46    2.38
   7   0  28   -1.23    4.07
   7  -1 -24  388.62   25.56
   7  -1 -23   44.86    8.11
   7  -1 -22  100.42   12.46
   7  -1 -21   94.83   11.80
   7   1 -21   50.36    9.11
   7  -1 -20  179.41   15.19
   7   1 -20  149.10   14.35
   7   1 -19  149.75   14.07
   7  -1 -19  114.09   12.35
   7  -1 -18  110.40   11.78
   7   1 -18   95.01   11.05
   7  -1 -17   77.27    9.78
   7   1 -17  105.71   11.24
   7  -1 -16  858.00   32.06
   7   1 -16  836.16   31.18
   7  -1 -15  155.77   13.27
   7   1 -15  136.30   12.35
   7  -1 -14 1429.81   39.94
   7   1 -14 1423.35   39.00
   7  -1 -14 1345.62   27.04
   7  -1 -13   50.50    7.78
   7   1 -13   55.92    7.69
   7  -1 -13   62.32    5.92
   7  -1 -12  160.65   12.79
   7   1 -12  144.28   12.13
   7  -1 -12  174.73    9.96
   7  -1 -11  244.83   15.65
   7   1 -11  249.78   15.49
   7  -1 -11  270.09   12.54
   7  -1 -10  140.66    9.07
   7   1 -10  158.18   12.23
   7   1  -9   11.11    3.36
   7  -1  -9   12.61    2.58
   7  -1  -9    9.41    3.54
   7  -1  -8  196.76   10.76
   7  -1  -8  200.87   13.41
   7   1  -8  179.07   12.66
   7  -1  -7  242.13   12.14
   7  -1  -7  252.40   14.69
   7   1  -7  235.25   14.33
   7  -1  -6  459.96   16.89
   7  -1  -6  399.92   18.50
   7   1  -6  404.28   18.77
   7  -1  -5  553.09   18.45
   7   1  -5  586.03   22.26
   7  -1  -5  519.18   20.83
   7  -1  -4  344.85   16.85
   7   1  -4  387.52   18.07
   7  -1  -4  365.21   15.26
   7  -1  -3  681.51   22.78
   7   1  -3  659.32   23.19
   7  -1  -3  676.46   21.01
   7  -1  -2 1429.39   32.75
   7  -1  -2 1414.85   30.49
   7  -1  -1   31.93    4.72
   7   1  -1   26.05    4.63
   7   1  -1   19.29    4.29
   7  -1  -1   31.65    4.49
   7  -1   0    0.69    1.18
   7  -1   0    1.82    1.78
   7   1   0    1.66    1.40
   7  -1   1   22.23    3.65
   7   1   1   36.34    5.26
   7   1   1   28.55    5.12
   7  -1   1   24.09    4.22
   7   1   2 1353.34   33.57
   7  -1   2 1367.93   31.09
   7  -1   2 1377.39   30.49
   7  -1   2 1296.41   30.83
   7   1   3  695.26   23.45
   7   1   3  648.69   23.19
   7  -1   3  654.58   20.82
   7  -1   3  647.40   21.30
   7  -1   3  625.77   22.01
   7   1   4  372.70   17.16
   7  -1   4  376.81   15.58
   7   1   4  415.25   18.78
   7  -1   4  406.22   16.85
   7  -1   4  391.47   17.09
   7   1   5  487.66   19.36
   7  -1   5  522.42   19.27
   7  -1   5  517.59   18.26
   7   1   5  524.33   21.36
   7  -1   5  564.05   20.75
   7   1   6  400.66   17.80
   7  -1   6  417.83   16.02
   7   1   6  419.41   19.30
   7  -1   6  386.94   16.91
   7  -1   6  418.44   18.64
   7   1   7  247.19   13.87
   7  -1   7  238.45   12.04
   7   1   7  248.03   14.98
   7  -1   7  248.09   13.61
   7  -1   7  263.97   14.66
   7   1   8  183.80   12.13
   7  -1   8  177.55   10.30
   7   1   8  163.36   12.30
   7  -1   8  185.72   12.42
   7  -1   8  166.26   11.93
   7   1   9    7.87    2.80
   7  -1   9    9.17    2.62
   7  -1   9   12.44    3.38
   7   1   9    9.57    2.76
   7  -1   9    9.25    3.16
   7   1  10  131.52   10.51
   7  -1  10  136.98    9.00
   7  -1  10  127.42   10.24
   7  -1  10  116.22   10.08
   7   1  10  114.47   10.82
   7  -1  11  259.57   11.95
   7  -1  11  244.36   14.70
   7   1  11  238.38   15.79
   7  -1  11  245.67   14.96
   7   1  11  252.12   14.89
   7  -1  12  171.92    9.93
   7  -1  12  169.29   12.45
   7   1  12  141.52   11.44
   7   1  12  143.11   12.53
   7  -1  12  176.58   13.01
   7  -1  13   63.09    8.47
   7   1  13   67.72    8.87
   7   1  13   60.32    7.57
   7  -1  13   69.36    8.13
   7  -1  14 1464.77   38.33
   7   1  14 1378.77   35.92
   7  -1  14 1511.09   39.27
   7   1  14 1426.82   40.27
   7  -1  15  172.06   13.56
   7   1  15  177.13   14.07
   7  -1  16  778.62   29.34
   7   1  16  754.26   30.56
   7  -1  17   78.06    9.42
   7   1  17   84.25   10.30
   7  -1  18   99.95   11.09
   7   1  18  103.25   11.86
   7  -1  19   93.07   10.98
   7   1  19  111.68   12.23
   7  -1  20  162.14   14.60
   7   1  20  179.42   15.57
   7  -1  21   50.70    8.91
   7   1  21   52.25    8.47
   7  -1  22  107.40   12.40
   7   1  22   94.28   11.88
   7  -1  23   53.73    8.63
   7   1  23   53.73    8.96
   7   1  24  349.95   23.40
   7  -1  24   10.72    4.00
   7   1  25   68.97   10.35
   7   1  26   22.32    7.53
   7   1  27   18.18    6.85
   7   1  28  208.73   19.26
   7   1  29    5.25    4.28
   7  -2 -25   48.58   10.20
   7  -2 -24   24.88    7.44
   7  -2 -23   61.20   10.40
   7  -2 -22    8.10    1.78
   7  -2 -21   55.30    9.12
   7  -2 -20   34.83    7.03
   7   2 -20   36.42    7.35
   7  -2 -19    2.76    1.93
   7   2 -19    0.46    3.97
   7  -2 -18  115.09   12.28
   7   2 -18  110.76   11.72
   7  -2 -17   52.20    8.30
   7   2 -17   65.33    8.53
   7  -2 -16  869.33   33.09
   7   2 -16  840.09   31.57
   7   2 -15  196.34   15.02
   7  -2 -15  152.34   10.16
   7  -2 -15  176.26   14.56
   7  -2 -14  244.45   13.07
   7  -2 -14  220.36   15.83
   7   2 -14  218.55   15.72
   7  -2 -13  127.26    9.45
   7   2 -13  135.05   12.32
   7  -2 -13  128.50   12.01
   7  -2 -12  362.95   16.00
   7  -2 -12  344.42   19.20
   7   2 -12  343.84   19.17
   7  -2 -11   17.12    3.80
   7   2 -11   18.79    4.53
   7  -2 -11   23.80    5.34
   7  -2 -10   69.01    6.99
   7   2 -10   76.72    8.72
   7  -2 -10   71.04    8.35
   7   2  -9  251.21   15.60
   7  -2  -9  256.25   13.32
   7  -2  -9  259.89   15.70
   7  -2  -8  661.97   21.87
   7  -2  -8  664.72   24.91
   7   2  -8  662.10   24.99
   7  -2  -7   19.27    3.69
   7   2  -7   15.46    3.84
   7  -2  -7   20.17    4.30
   7  -2  -6   45.45    5.81
   7  -2  -6   51.33    6.67
   7   2  -6   65.12    7.81
   7  -2  -5  314.00   14.93
   7  -2  -5  343.64   17.07
   7   2  -5  322.87   17.19
   7  -2  -4   47.87    5.84
   7  -2  -4   52.14    6.75
   7   2  -4   47.29    6.50
   7  -2  -3  361.67   16.17
   7  -2  -3  326.57   16.22
   7   2  -3  373.46   18.23
   7  -2  -2  122.21    9.51
   7  -2  -2  120.73    9.91
   7   2  -2  137.64   10.92
   7   2  -2  142.74   11.03
   7   2  -1   -0.69    1.14
   7  -2  -1    3.09    1.67
   7  -2  -1    2.93    2.06
   7   2  -1    3.16    1.66
   7  -2   0    4.47    2.89
   7   2   0    1.40    2.00
   7  -2   0    2.76    1.52
   7   2   0    1.51    1.96
   7  -2   1    2.06    1.60
   7   2   1    5.84    2.16
   7   2   1    4.57    2.58
   7  -2   1    1.40    1.58
   7  -2   2  131.96    9.99
   7  -2   2  146.47    9.99
   7   2   2  124.02   10.37
   7   2   2  140.43   11.08
   7  -2   2  135.01    9.46
   7  -2   3  345.75   16.51
   7  -2   3  355.11   15.36
   7   2   3  357.41   17.82
   7   2   3  366.19   18.09
   7  -2   3  388.80   15.78
   7  -2   4   46.93    6.15
   7   2   4   49.73    6.63
   7   2   4   59.41    7.79
   7  -2   4   50.73    5.71
   7  -2   4   61.66    6.48
   7   2   5  301.12   16.26
   7  -2   5  309.72   13.84
   7   2   5  309.17   17.09
   7  -2   5  316.51   14.08
   7  -2   5  306.01   15.86
   7   2   6   64.72    7.74
   7   2   6   67.73    7.64
   7  -2   6   61.03    6.20
   7  -2   6   54.53    5.78
   7  -2   6   62.49    7.23
   7  -2   7   26.32    4.72
   7   2   7   18.00    4.41
   7  -2   7   21.22    3.67
   7   2   7   19.72    4.52
   7  -2   7   16.47    3.34
   7   2   8  638.87   24.59
   7  -2   8  726.58   22.35
   7  -2   8  690.60   19.79
   7   2   8  658.12   25.89
   7  -2   8  714.62   24.94
   7  -2   9  261.56   11.81
   7  -2   9  261.18   13.59
   7   2   9  264.84   16.76
   7  -2   9  244.39   14.77
   7   2   9  276.31   16.48
   7  -2  10   76.37    6.27
   7   2  10   72.44    8.56
   7  -2  10   96.13    9.27
   7   2  10   82.29    9.12
   7  -2  10   65.17    7.21
   7  -2  11   22.10    4.59
   7   2  11   25.36    4.89
   7   2  11   17.78    4.57
   7  -2  11   21.74    3.69
   7  -2  11   20.74    3.62
   7  -2  12  335.48   16.84
   7   2  12  370.98   20.30
   7   2  12  364.25   19.60
   7  -2  12  344.76   18.65
   7  -2  13  116.49   10.39
   7   2  13  128.56   12.46
   7   2  13  136.72   12.07
   7  -2  13  107.50   10.33
   7  -2  14  232.93   14.84
   7   2  14  224.22   15.63
   7  -2  14  230.24   15.43
   7   2  14  236.43   16.89
   7  -2  15  151.85   12.10
   7   2  15  162.33   14.52
   7   2  15  153.12   12.94
   7  -2  15  132.28   12.11
   7   2  16  819.56   32.22
   7  -2  16  834.16   28.72
   7   2  16  814.91   30.42
   7  -2  16  791.44   29.88
   7  -2  17   59.70    8.14
   7  -2  17   56.56    8.44
   7   2  17   67.90    9.15
   7  -2  18   88.61   11.06
   7   2  18   99.35   11.54
   7   2  19   -3.56    3.32
   7  -2  19   -7.08    2.91
   7   2  20   35.76    7.34
   7   2  21   53.01    8.98
   7   2  22   10.30    4.65
   7   2  23   38.42    7.63
   7   2  24   13.85    5.57
   7   2  25   33.66    7.64
   7   2  26   -3.11    4.60
   7   2  27    7.85    4.84
   7   2  28   26.02    6.30
   7  -3 -26   51.77   10.11
   7  -3 -25    1.04    3.31
   7  -3 -24  263.75   21.26
   7  -3 -23   20.82    5.68
   7  -3 -22    0.10    2.25
   7  -3 -21    3.49    3.54
   7  -3 -20  409.37   24.72
   7  -3 -19   29.98    5.94
   7   3 -19   40.66    8.06
   7   3 -18  916.51   35.09
   7  -3 -18  886.51   34.77
   7  -3 -17   19.10    4.91
   7   3 -17   26.46    6.10
   7  -3 -16    9.64    3.59
   7  -3 -16   16.07    4.35
   7   3 -16   12.57    5.22
   7  -3 -15   41.43    6.16
   7  -3 -15   36.47    6.68
   7   3 -15   42.16    7.33
   7   3 -14 1692.21   45.17
   7  -3 -14 1750.32   45.81
   7  -3 -13   12.93    3.72
   7  -3 -13   11.63    3.77
   7   3 -13   13.14    5.00
   7  -3 -12 1678.01   38.38
   7   3 -12 1648.81   43.01
   7  -3 -12 1710.58   44.24
   7  -3 -11  131.74   10.65
   7   3 -11  109.34   10.91
   7  -3 -11  111.04   11.05
   7  -3 -10   74.50    8.01
   7   3 -10   53.18    7.54
   7  -3 -10   72.19    8.88
   7   3  -9   27.22    5.59
   7  -3  -9   30.87    5.13
   7  -3  -9   31.14    6.01
   7  -3  -8 1486.19   35.40
   7   3  -8 1600.50   40.69
   7  -3  -8 1502.43   39.17
   7  -3  -7   25.78    4.89
   7  -3  -7   28.79    5.17
   7   3  -7   24.72    4.99
   7  -3  -6  896.20   27.41
   7   3  -6  849.32   29.21
   7  -3  -6  925.56   29.44
   7  -3  -5   64.59    7.24
   7   3  -5   76.62    8.99
   7  -3  -5   60.63    7.68
   7  -3  -4    5.71    2.35
   7  -3  -4    5.46    2.71
   7   3  -4    7.59    2.65
   7   3  -4    2.54    2.41
   7  -3  -3   35.73    5.70
   7  -3  -3   33.49    5.09
   7   3  -3   31.33    5.67
   7   3  -3   36.64    5.77
   7   3  -2 1423.37   36.96
   7  -3  -2 1404.43   34.43
   7   3  -2 1472.74   37.37
   7  -3  -1   22.60    4.27
   7  -3  -1   18.80    3.73
   7   3  -1   17.12    4.08
   7   3  -1   29.34    5.29
   7  -3   0   -0.17    1.62
   7  -3   0   -0.03    1.99
   7   3   0    0.82    1.12
   7   3   0   -0.41    1.63
   7  -3   1   10.45    2.56
   7  -3   1   16.00    4.16
   7   3   1   21.31    4.79
   7   3   1   18.36    4.31
   7  -3   2 1417.86   34.99
   7  -3   2 1334.78   31.96
   7   3   2 1371.07   36.29
   7   3   3   40.36    6.45
   7  -3   3   25.52    4.60
   7  -3   3   24.71    4.61
   7   3   3   34.83    5.73
   7  -3   3   32.11    4.54
   7  -3   4    8.01    3.31
   7   3   4    8.50    3.25
   7  -3   4    8.04    2.54
   7   3   4   12.17    3.67
   7  -3   4    6.85    1.75
   7  -3   5   94.28    8.98
   7   3   5   62.35    7.82
   7  -3   5   74.29    6.91
   7   3   5  104.77   10.20
   7  -3   5   74.06    6.47
   7   3   6  848.17   29.92
   7  -3   6  936.28   29.33
   7  -3   6  874.55   23.75
   7   3   6  854.32   29.64
   7  -3   6  924.34   23.04
   7  -3   7   24.91    5.33
   7   3   7   26.40    5.47
   7  -3   7   26.00    3.95
   7   3   7   25.41    5.41
   7  -3   7   29.71    4.40
   7  -3   8 1364.35   36.14
   7  -3   8 1395.92   28.99
   7   3   8 1445.69   39.57
   7  -3   8 1470.92   29.54
   7   3   8 1433.40   40.35
   7  -3   9   33.77    5.81
   7  -3   9   24.45    3.92
   7  -3   9   32.44    4.69
   7   3   9   25.98    5.60
   7   3   9   41.16    6.56
   7  -3  10   57.83    6.10
   7   3  10   60.36    8.39
   7   3  10   60.05    8.12
   7  -3  10   52.24    7.21
   7   3  11  112.86   11.46
   7  -3  11  114.22    8.91
   7   3  11  119.93   12.02
   7  -3  11  131.04   11.38
   7  -3  12 1554.02   34.00
   7   3  12 1690.26   45.09
   7   3  12 1666.69   44.67
   7  -3  12 1544.66   39.82
   7  -3  13   10.04    4.06
   7   3  13   13.16    4.17
   7   3  13    2.84    1.86
   7   3  14 1828.85   48.45
   7  -3  14 1815.88   44.64
   7  -3  15   34.07    6.24
   7   3  15   37.03    7.39
   7   3  15   34.55    6.96
   7   3  16   23.58    5.70
   7   3  16   11.12    4.10
   7  -3  16   17.01    5.51
   7   3  17   12.93    4.99
   7   3  17   17.57    5.09
   7  -3  17   14.37    4.42
   7   3  18  966.34   36.79
   7   3  18  846.62   34.37
   7  -3  18  949.75   34.31
   7   3  19   28.81    7.03
   7   3  20  459.59   25.94
   7   3  21    3.29    1.96
   7   3  22    1.29    2.29
   7   3  23   11.28    4.97
   7   3  24  270.24   20.93
   7   3  25    8.04    4.97
   7   3  26   92.32   12.37
   7   3  27    7.06    4.88
   7   3  28   84.16   12.02
   7  -4 -26   -4.11    3.34
   7  -4 -25    8.85    5.92
   7  -4 -24   10.89    5.60
   7  -4 -23   -3.90    4.94
   7  -4 -22   66.04   10.22
   7  -4 -21   33.49    8.75
   7  -4 -20   -0.16    2.51
   7  -4 -19  353.78   22.67
   7   4 -18  126.23   13.29
   7  -4 -18  110.44   12.26
   7  -4 -17   30.78    6.89
   7   4 -17   20.83    5.55
   7  -4 -16   36.61    6.53
   7  -4 -16   32.07    7.13
   7   4 -16   26.14    6.76
   7  -4 -15   51.37    7.17
   7   4 -15   78.30   10.31
   7  -4 -15   67.69    9.44
   7  -4 -14  192.73   14.04
   7   4 -14  194.54   15.75
   7  -4 -14  173.62   14.89
   7  -4 -13  158.72   14.03
   7  -4 -13  130.66   11.58
   7   4 -13  166.15   14.17
   7  -4 -12   37.88    6.35
   7   4 -12   25.37    5.54
   7  -4 -12   27.86    5.60
   7  -4 -11  309.91   18.90
   7   4 -11  274.49   17.84
   7  -4 -11  291.07   17.02
   7  -4 -10   31.89    5.58
   7   4 -10   21.60    5.24
   7  -4 -10   15.74    4.29
   7  -4  -9    5.05    2.66
   7   4  -9    3.02    2.12
   7  -4  -9    2.98    2.73
   7  -4  -8   78.31    8.64
   7   4  -8   84.68    9.99
   7  -4  -8   96.71   10.05
   7  -4  -7  761.81   27.00
   7   4  -7  721.24   28.39
   7  -4  -7  757.96   28.16
   7  -4  -6  101.87    9.77
   7   4  -6  107.55   10.90
   7   4  -6   87.30    9.77
   7  -4  -6  100.16   10.16
   7  -4  -5   15.15    3.98
   7   4  -5   16.96    4.63
   7  -4  -5   16.89    4.01
   7   4  -5   23.07    5.01
   7  -4  -4    6.42    2.82
   7   4  -4   12.39    3.22
   7  -4  -4    7.91    1.16
   7   4  -4   12.99    3.96
   7  -4  -3  134.53   11.27
   7   4  -3  136.03   12.10
   7   4  -3  143.59   12.13
   7  -4  -3  135.17   11.21
   7  -4  -2   26.25    5.17
   7   4  -2   15.87    3.73
   7   4  -2   19.34    4.21
   7  -4  -2   25.20    4.98
   7   4  -1    9.75    2.83
   7  -4  -1   13.97    3.41
   7   4  -1    6.10    2.69
   7  -4   0    1.20    1.91
   7   4   0    1.87    2.28
   7  -4   0   -1.14    1.34
   7   4   0   -0.69    1.36
   7   4   1   16.28    4.72
   7  -4   1   14.83    4.09
   7   4   1   10.61    4.05
   7  -4   1   10.72    3.57
   7  -4   2   21.44    4.51
   7   4   2   25.77    5.10
   7  -4   2   15.62    3.83
   7   4   2   23.03    5.20
   7   4   3  139.02   12.23
   7  -4   3  145.85   10.93
   7  -4   3  135.05   11.40
   7   4   3  132.26   11.98
   7  -4   3  135.50    8.33
   7  -4   4    9.57    2.73
   7  -4   4    7.89    3.07
   7   4   4   13.18    3.90
   7   4   4    7.97    3.15
   7  -4   4   15.86    3.00
   7  -4   5   23.74    4.42
   7   4   5   13.30    4.41
   7  -4   5   17.82    4.17
   7   4   5   13.47    3.24
   7  -4   5   11.02    2.36
   7  -4   6   99.62    8.42
   7   4   6   93.71   10.06
   7   4   6   78.88    9.94
   7  -4   7  792.37   28.78
   7  -4   7  710.15   22.80
   7   4   7  745.92   29.44
   7   4   7  761.65   31.19
   7  -4   8   81.89    9.00
   7  -4   8   76.64    7.39
   7   4   8   91.01   10.43
   7   4   8   91.06   10.79
   7   4   9    3.87    2.84
   7  -4   9    4.33    2.79
   7  -4   9   -3.08    1.43
   7   4   9    1.25    1.64
   7   4  10   25.23    5.67
   7  -4  10   27.97    5.61
   7   4  10   30.38    6.14
   7  -4  11  290.72   17.78
   7   4  11  297.66   19.83
   7  -4  12   37.47    6.84
   7   4  12   28.33    6.06
   7   4  12   30.94    7.02
   7   4  13  143.34   13.73
   7   4  13  150.76   14.23
   7  -4  13  158.07   13.59
   7   4  14  184.64   15.83
   7   4  14  201.33   16.73
   7  -4  14  220.84   15.89
   7   4  15   75.51    9.89
   7   4  15   73.81   10.45
   7  -4  15   50.16    7.46
   7  -4  16   23.02    6.05
   7   4  16   26.84    7.14
   7   4  16   32.53    6.35
   7  -4  17   36.29    7.18
   7   4  17   41.19    8.30
   7   4  17   34.67    7.21
   7   4  18  128.92   13.84
   7   4  18  126.37   13.96
   7   4  19  341.95   22.22
   7   4  19  286.76   22.07
   7   4  20    5.31    3.07
   7   4  21   41.42    7.69
   7   4  22   69.60   10.84
   7   4  23   -2.01    3.54
   7   4  24    5.39    4.00
   7   4  25   13.11    5.42
   7   4  26   -1.04    3.28
   7   4  27   47.27    9.64
   7  -5 -26    3.57    2.79
   7  -5 -25   14.39    4.21
   7  -5 -24  173.15   17.90
   7  -5 -23    4.74    3.59
   7  -5 -22  116.03   13.66
   7  -5 -21   19.89    6.74
   7  -5 -20   28.14    6.66
   7  -5 -19   63.83   10.04
   7  -5 -18  464.45   26.42
   7  -5 -17  174.75   15.09
   7  -5 -17  150.61   14.94
   7  -5 -16   -2.03    2.43
   7   5 -16   -1.59    2.80
   7  -5 -16   -0.72    3.76
   7  -5 -15   13.10    4.04
   7   5 -15   14.10    5.52
   7  -5 -15   10.88    3.02
   7  -5 -14   21.20    5.14
   7   5 -14   16.29    5.25
   7  -5 -14   20.05    5.51
   7  -5 -13    4.27    4.13
   7   5 -13    3.80    3.24
   7  -5 -13    5.71    4.46
   7   5 -12  344.82   21.34
   7  -5 -12  358.00   20.39
   7  -5 -12  368.92   21.65
   7   5 -11   50.64    8.16
   7  -5 -11   59.56    8.44
   7  -5 -10   13.36    4.18
   7  -5 -10   11.62    3.90
   7   5 -10   14.11    4.45
   7   5 -10    9.93    4.31
   7  -5  -9   22.12    4.91
   7   5  -9   24.95    7.22
   7  -5  -9   21.36    5.64
   7   5  -9   13.78    5.06
   7  -5  -8  405.55   22.02
   7   5  -8  423.04   23.03
   7  -5  -8  412.94   21.07
   7   5  -8  434.95   22.75
   7  -5  -7  108.16   11.10
   7   5  -7  107.32   11.42
   7  -5  -7  101.62   10.74
   7   5  -7   94.63   10.51
   7  -5  -6   27.94    6.47
   7   5  -6   20.07    5.20
   7   5  -6   19.19    5.46
   7  -5  -6   18.01    4.66
   7  -5  -5   44.79    7.06
   7   5  -5   60.79    8.44
   7  -5  -5   59.29    8.19
   7   5  -5   69.48    8.74
   7  -5  -4   77.50    9.29
   7   5  -4   66.93    8.95
   7   5  -4   68.32    8.98
   7  -5  -4   80.16    9.30
   7  -5  -3   99.21   10.40
   7   5  -3   98.68   11.29
   7  -5  -3   95.72   10.00
   7   5  -3   83.54    9.61
   7  -5  -2  369.33   19.68
   7   5  -2  414.39   22.46
   7  -5  -2  411.48   20.72
   7   5  -2  349.53   19.91
   7   5  -1   14.55    4.61
   7  -5  -1   11.54    4.08
   7   5  -1   10.61    3.79
   7  -5  -1   15.75    4.20
   7   5   0   -0.83    2.72
   7  -5   0    1.47    3.04
   7   5   0    2.22    3.26
   7  -5   0    2.10    2.29
   7  -5   1    9.46    3.44
   7  -5   1   14.10    4.13
   7   5   1    7.07    1.30
   7   5   2  434.90   23.74
   7  -5   2  360.32   19.68
   7   5   2  368.60   20.45
   7  -5   2  401.51   19.59
   7   5   3  124.74   12.24
   7  -5   3  106.43    9.93
   7  -5   3  106.96   10.78
   7   5   3  100.00   11.87
   7  -5   4   92.36   10.49
   7   5   4   83.88   10.00
   7  -5   4   79.25    8.57
   7   5   4   77.65   10.31
   7  -5   5   58.51    8.30
   7   5   5   63.01    8.87
   7  -5   5   52.88    6.77
   7   5   5   33.37    6.67
   7   5   6   23.93    5.58
   7  -5   6   16.59    3.96
   7  -5   6   18.06    4.18
   7   5   6   21.13    5.62
   7  -5   7   81.11    9.99
   7  -5   7   84.47    8.41
   7   5   7   99.39   10.83
   7   5   7   91.91   11.23
   7  -5   8  424.64   22.00
  -7  -5   8  418.67   20.18
   7   5   8  486.14   24.12
   7   5   8  470.19   25.34
   7   5   9   22.89    6.35
   7  -5   9   23.86    5.34
  -7  -5   9   24.73    4.99
   7   5   9   21.24    5.21
   7  -5  10   13.84    4.06
  -7  -5  10   10.08    3.45
   7   5  10    9.22    2.56
   7   5  10    5.27    4.10
   7  -5  11   60.63    8.98
   7   5  11   70.03    9.49
   7   5  11   60.94    9.61
   7  -5  12  369.78   21.28
   7   5  12  354.26   21.71
   7   5  12  394.47   23.82
   7  -5  13   -0.10    2.54
   7   5  13    2.71    4.07
   7   5  13   -2.95    3.48
   7  -5  14   20.79    5.34
   7   5  14   23.13    5.89
   7   5  14   20.87    5.16
   7  -5  15   13.88    4.37
   7   5  15   16.23    5.11
   7   5  15    4.74    1.90
   7  -5  16    3.06    3.01
   7   5  16    1.27    3.41
   7   5  16    1.73    3.42
   7   5  17  158.46   14.85
   7  -5  17  153.74   14.63
   7   5  17  149.87   16.15
   7   5  18  458.15   26.15
   7   5  18  440.16   27.06
   7   5  19   81.19   11.57
   7   5  19   57.48    9.96
   7   5  20   24.01    6.60
   7   5  20   17.09    5.44
   7   5  21   20.07    5.44
   7   5  22  128.82   14.31
   7   5  23    9.78    5.56
   7   5  24  204.32   18.66
   7   5  25   22.73    5.77
   7   5  26   15.92    5.65
   7  -6 -24    1.74    5.13
  -7  -6 -24    3.09    3.82
   7  -6 -23   17.66    6.26
  -7  -6 -23   11.77    5.24
  -7  -6 -22    3.29    4.11
   7  -6 -22    7.12    3.45
   7  -6 -21   38.91    8.11
   7  -6 -20    2.83    3.48
   7  -6 -19    6.29    3.18
   7  -6 -18    1.30    1.68
   7  -6 -17    7.28    3.84
   7  -6 -17    2.71    1.81
   7  -6 -16    2.89    3.50
   7  -6 -16    4.83    3.29
   7   6 -15   10.10    3.44
   7  -6 -15   13.07    5.00
   7  -6 -15   13.04    3.86
   7   6 -14   35.58    7.89
   7  -6 -14   35.15    6.89
   7  -6 -14   34.10    7.24
   7   6 -14   45.23    8.18
   7  -6 -13   81.46   10.55
   7   6 -13   64.99   10.22
   7  -6 -13   77.39    9.86
   7   6 -13   55.40    9.62
   7  -6 -12   17.12    5.18
   7   6 -12   17.76    5.17
   7  -6 -12    6.90    4.02
   7   6 -12   24.06    7.07
   7  -6 -11   25.60    6.65
   7   6 -11   13.22    5.45
   7  -6 -11   18.27    5.18
   7   6 -11   27.93    6.72
   7  -6 -10   27.21    6.12
   7   6 -10   14.70    4.93
   7  -6 -10   18.17    4.91
   7   6 -10   14.03    3.22
   7  -6  -9    6.27    3.16
   7   6  -9   11.93    4.71
   7  -6  -9   12.87    3.64
   7   6  -9   14.08    5.08
   7  -6  -8   -0.35    1.31
   7   6  -8    1.12    2.51
   7  -6  -8   -1.48    3.07
   7   6  -8    2.01    2.40
   7  -6  -7   10.79    4.00
   7   6  -7   12.21    4.51
   7  -6  -7    6.27    2.82
   7   6  -7   13.31    4.35
   7  -6  -6    3.72    1.74
   7   6  -6   -1.83    2.06
   7  -6  -6    5.69    3.22
   7   6  -6    7.63    5.19
   7  -6  -5   58.08    8.11
   7  -6  -5   58.70    8.74
   7   6  -5   59.33    9.08
   7   6  -5   75.82   10.38
   7   6  -4   26.26    6.45
   7  -6  -4   33.50    6.04
   7  -6  -4   32.26    6.48
   7   6  -4   27.90    6.20
   7   6  -3   11.05    4.18
   7  -6  -3   11.31    3.36
   7  -6  -3   12.78    4.12
   7   6  -3   10.03    3.32
   7  -6  -2   40.18    6.66
   7   6  -2   44.50    7.79
   7  -6  -2   39.89    7.16
   7   6  -2   27.88    5.98
   7   6  -1   15.97    5.44
   7  -6  -1   16.56    4.35
   7  -6  -1   23.25    5.09
   7   6  -1   26.02    5.77
   7  -6   0   -1.02    1.50
   7   6   0    4.67    4.38
   7  -6   0   -0.62    1.63
   7   6   0    3.41    3.46
   7  -6   1   24.82    5.78
   7   6   1   25.82    6.70
   7  -6   1   28.01    5.63
   7   6   1   24.33    5.87
   7  -6   2   37.24    6.30
   7  -6   2   43.65    6.96
   7   6   2   30.67    6.25
   7   6   2   41.04    8.13
   7   6   3   11.01    3.89
   7  -6   3    8.56    3.62
   7  -6   3    9.77    4.88
   7   6   3   18.00    5.28
   7   6   4   36.88    7.29
   7  -6   4   19.13    4.87
  -7  -6   4   28.24    5.96
   7   6   4   18.33    5.39
   7  -6   4   24.50    5.60
   7  -6   5   74.80    9.70
   7   6   5   45.76    8.59
  -7  -6   5   54.72    7.76
   7   6   5   85.62   10.99
   7  -6   5   74.45    9.02
   7   6   6   -0.88    2.79
   7  -6   6    3.64    1.29
   7  -6   6    3.04    1.68
  -7  -6   6    2.74    3.16
   7   6   6    9.47    4.44
   7   6   7    8.64    3.03
   7  -6   7    6.69    3.94
   7   6   7    7.07    2.98
  -7  -6   7    8.91    3.75
   7  -6   8    1.55    3.13
  -7  -6   8   -0.14    1.48
   7   6   8    2.17    2.89
   7   6   8   -1.01    2.16
   7  -6   9   18.71    4.04
  -7  -6   9    5.58    1.25
   7   6   9   18.23    5.55
   7   6   9    6.40    3.79
   7  -6  10   19.94    5.60
   7   6  10   28.34    6.32
   7   6  10   31.25    6.98
   7  -6  11   21.47    5.51
   7   6  11   32.16    7.16
   7   6  11   41.29    8.38
   7  -6  12   21.17    5.02
   7   6  12   27.25    6.99
   7   6  12   27.50    6.23
   7  -6  13   68.53    9.79
   7   6  13   78.62   10.75
   7   6  13   71.79   10.49
   7  -6  14   34.93    7.20
   7   6  14   37.86    7.44
   7   6  14   45.77    7.88
   7  -6  15   20.15    5.70
   7   6  15   13.71    4.57
   7   6  15   11.81    4.32
   7  -6  16    0.42    2.00
   7   6  16   -3.17    4.00
   7   6  16    1.88    3.78
   7   6  17    0.68    3.11
   7   6  17   -0.45    2.99
   7   6  18    5.34    2.99
   7   6  18   -1.23    2.61
   7   6  19   11.56    4.56
   7   6  19   15.19    5.65
   7   6  20   -2.12    2.23
   7   6  20    2.37    3.16
   7   6  21   33.87    8.04
   7   6  21   35.46    8.76
   7   6  22   -1.86    2.59
   7   6  23    1.15    3.12
   7   6  24   -2.95    3.50
  -7  -7 -22   46.95    9.10
   7  -7 -22   51.24    9.87
   7  -7 -21   17.90    6.33
  -7  -7 -21   16.49    4.47
  -7  -7 -20   90.03   12.59
   7  -7 -20   84.85   12.50
  -7  -7 -19   -1.03    2.68
   7  -7 -19    4.81    3.50
   7  -7 -18  263.11   20.74
   7  -7 -18  237.04   19.67
  -7  -7 -18  241.36   20.20
   7  -7 -17   31.57    7.49
  -7  -7 -17   24.98    5.98
   7  -7 -17   32.44    6.82
   7  -7 -16    7.60    2.62
  -7  -7 -16   10.12    6.08
   7  -7 -16   13.87    5.11
   7  -7 -15    5.27    2.82
  -7  -7 -15    3.88    2.61
   7  -7 -15    3.44    1.54
   7  -7 -14   58.95   10.15
   7   7 -14   50.62    8.60
   7  -7 -14   56.12    8.61
   7  -7 -13   26.07    6.18
   7   7 -13   30.01    6.71
   7  -7 -13   17.38    5.16
   7  -7 -12  289.21   20.66
   7  -7 -12  250.10   18.84
   7   7 -11    6.73    3.56
   7  -7 -11    9.38    4.77
   7  -7 -11   18.87    5.43
   7   7 -10    1.39    2.66
   7   7 -10   -1.06    3.13
   7  -7 -10    0.92    2.69
   7  -7 -10    3.37    2.60
   7   7  -9    5.87    3.60
   7  -7  -9    5.50    3.30
   7  -7  -9    2.23    2.77
   7   7  -9    7.44    3.46
   7   7  -8  490.18   26.42
   7  -7  -8  465.55   25.34
   7  -7  -8  510.79   26.59
   7   7  -8  467.40   28.45
   7   7  -7   15.15    5.91
   7  -7  -7   14.59    3.91
   7  -7  -7   17.08    4.67
   7   7  -7   22.40    6.37
   7  -7  -6   46.43    8.34
   7  -7  -6   46.66    7.81
   7   7  -6   53.58    8.86
   7   7  -6   54.87    9.61
   7   7  -5   20.91    5.51
   7  -7  -5   20.75    5.04
   7  -7  -5   24.56    5.85
   7   7  -5   27.11    6.56
   7  -7  -4  208.75   16.77
   7  -7  -4  208.64   16.81
   7   7  -4  215.24   16.94
   7   7  -4  187.70   16.91
   7   7  -3    7.28    4.12
   7  -7  -3    3.40    1.77
   7  -7  -3    0.48    3.23
  -7  -7  -3    4.16    3.42
   7   7  -3    6.91    3.01
   7  -7  -2  236.52   17.47
   7  -7  -2  212.67   16.69
  -7  -7  -2  222.39   16.91
   7   7  -2  232.16   17.25
   7   7  -2  210.77   17.20
   7   7  -1   25.35    6.10
   7  -7  -1   34.80    6.87
   7  -7  -1   17.16    4.84
  -7  -7  -1   30.26    6.30
   7   7  -1   28.16    6.53
   7   7   0    3.10    1.79
   7  -7   0    2.62    3.56
   7  -7   0    1.66    1.40
  -7  -7   0   -0.76    1.71
   7   7   0    0.54    1.91
   7   7   1   22.86    6.33
  -7  -7   1   21.06    5.15
   7  -7   1   20.18    5.84
   7  -7   1   18.49    4.96
   7   7   1   10.32    3.93
   7  -7   2  225.26   16.85
   7  -7   2  211.13   16.64
  -7  -7   2  221.28   17.72
   7   7   2  213.87   16.95
   7   7   2  199.10   17.98
   7   7   3   -0.66    2.02
   7  -7   3    0.46    1.99
   7  -7   3    6.00    4.35
   7   7   3    1.54    3.01
  -7  -7   3    3.05    3.48
   7  -7   4  204.62   15.86
   7  -7   4  197.60   16.36
  -7  -7   4  195.32   16.13
   7   7   4  197.94   17.33
   7   7   4  166.24   14.89
   7  -7   5   24.69    5.54
   7   7   5   19.42    5.25
  -7  -7   5   21.83    5.95
   7  -7   5   24.44    5.65
   7   7   5   18.22    5.76
   7   7   6   70.65    9.60
   7  -7   6   69.32    9.60
  -7  -7   6   54.29    8.39
   7   7   6   39.86    8.04
   7  -7   7   20.62    5.18
   7   7   7   10.03    4.90
  -7  -7   7   14.94    4.34
   7   7   7   18.44    6.20
   7  -7   8  474.43   26.11
  -7  -7   8  498.40   26.02
   7   7   8  533.52   27.72
   7   7   8  500.41   28.44
   7  -7   9    8.37    5.18
  -7  -7   9    9.00    2.85
   7   7   9    9.83    5.07
   7   7   9    6.54    3.98
   7  -7  10    4.40    3.63
   7   7  10    1.94    2.87
   7   7  10    2.59    2.82
   7   7  11   15.77    5.80
   7  -7  11   17.33    4.90
   7   7  11   15.95    5.56
   7   7  12  273.63   20.26
   7   7  12  282.75   21.69
   7  -7  12  257.77   19.35
   7  -7  13   23.58    6.16
   7   7  13   19.95    6.23
   7   7  13   17.85    5.13
   7  -7  14   41.97    7.95
   7   7  14   58.62    9.88
   7   7  14   41.49    8.51
   7  -7  15   -0.04    1.99
   7   7  15    4.42    2.85
   7   7  15    5.75    3.83
   7  -7  16   27.56    8.02
   7   7  16   14.75    4.96
   7   7  16   12.17    4.82
   7   7  17   30.85    7.11
   7   7  17   43.94    8.84
   7   7  18  292.99   21.78
   7   7  18  269.73   22.50
   7   7  19   -4.60    4.07
   7   7  19    1.36    2.95
   7   7  20   72.19   11.47
   7   7  20   78.43   12.41
   7   7  21   12.13    2.31
   7   7  21   21.72    6.33
   7   7  22   55.97   10.41
   7   7  22   36.95   10.58
  -7  -8 -20    0.95    4.43
   7  -8 -20    1.40    3.46
  -7  -8 -19    4.32    2.34
   7  -8 -19    4.35    3.22
   7  -8 -18    0.02    4.03
  -7  -8 -18    1.55    2.39
   7  -8 -18    2.12    2.82
   7  -8 -17   14.47    3.27
  -7  -8 -17    7.63    4.93
   7  -8 -17   16.88    6.12
  -7  -8 -16   -0.54    1.89
   7  -8 -16   -0.28    3.17
   7  -8 -16    4.48    3.17
   7  -8 -15   10.41    4.60
   7  -8 -15   13.16    5.29
  -7  -8 -15    2.38    2.76
   7  -8 -14   53.69    9.93
   7  -8 -14   48.74    9.25
  -7  -8 -14   51.69    9.41
   7  -8 -13   19.23    5.30
   7  -8 -13   19.22    6.34
  -7  -8 -13   27.17    7.14
   7  -8 -12    4.44    2.98
   7  -8 -12    1.69    3.85
  -7  -8 -12   -0.44    3.31
   7   8 -12   -6.05    5.83
   7   8 -11    9.08    4.55
   7  -8 -11   11.65    3.13
   7  -8 -11   20.46    5.74
  -7  -8 -11    6.04    3.14
   7   8 -10    2.65    3.21
   7  -8 -10   -0.22    2.45
   7  -8 -10    5.84    3.89
  -7  -8 -10    3.29    4.33
   7   8  -9   29.35    7.76
   7  -8  -9   22.43    5.22
   7  -8  -9   29.59    6.63
  -7  -8  -9   30.81    6.70
   7   8  -8   -3.61    4.06
   7  -8  -8   -1.93    3.94
   7  -8  -8    7.32    4.12
  -7  -8  -8    2.44    2.88
   7   8  -7   26.13    6.45
   7  -8  -7    9.93    3.41
   7  -8  -7   12.17    5.52
  -7  -8  -7   15.96    5.46
   7   8  -6   29.90    7.44
   7  -8  -6   42.86    8.34
   7  -8  -6   41.24    8.11
  -7  -8  -6   24.40    5.90
   7   8  -5    7.43    2.83
   7  -8  -5   10.01    3.23
   7  -8  -5   16.84    4.60
  -7  -8  -5   13.77    5.20
   7   8  -4    1.43    1.96
   7  -8  -4    0.55    1.85
   7  -8  -4    1.05    3.55
   7   8  -4    5.74    3.85
  -7  -8  -4    2.64    2.30
   7   8  -3   10.25    4.16
   7  -8  -3    2.13    3.36
   7  -8  -3    7.95    5.07
   7   8  -3   10.43    2.99
  -7  -8  -3    4.69    2.93
   7   8  -2   12.29    5.31
   7  -8  -2    0.10    2.82
   7  -8  -2    4.25    2.07
   7   8  -2   10.94    4.62
  -7  -8  -2   11.41    4.17
   7   8  -1    5.30    3.35
   7  -8  -1    4.87    3.38
   7  -8  -1   12.86    5.09
  -7  -8  -1    3.83    2.48
   7   8  -1    6.50    2.21
   7   8   0   -1.21    2.54
   7  -8   0    2.47    1.68
   7  -8   0    6.76    3.07
  -7  -8   0    1.24    1.56
   7   8   0   -2.26    3.47
   7  -8   1    7.40    4.56
   7  -8   1    6.47    3.94
  -7  -8   1   17.22    5.84
   7   8   1    4.42    3.02
   7   8   1    6.53    3.81
  -7  -8   2    9.69    3.58
   7  -8   2   10.25    4.74
   7  -8   2    5.57    3.25
   7   8   2   11.96    4.05
   7   8   2    6.56    3.66
   7  -8   3    5.74    2.62
   7  -8   3   13.78    4.96
  -7  -8   3    3.19    2.54
   7   8   3   10.66    5.24
   7   8   3    8.73    4.87
   7   8   4    3.92    3.08
   7  -8   4    0.81    1.88
   7  -8   4    2.36    2.27
  -7  -8   4    8.04    4.37
   7   8   4    4.51    4.17
   7  -8   5    5.83    3.51
  -7  -8   5    6.66    4.18
   7   8   5    7.48    4.33
   7   8   5    7.23    3.88
   7  -8   6   24.16    6.16
   7   8   6   33.13    7.88
  -7  -8   6   25.60    5.32
   7   8   6   24.09    6.07
   7  -8   7    9.57    4.82
  -7  -8   7    9.34    4.01
   7   8   7   12.54    4.57
   7   8   7   10.66    4.09
   7  -8   8    7.58    4.02
   7   8   8    7.36    3.18
  -7  -8   8   -2.13    2.52
   7   8   8    3.46    1.67
   7   8   9   29.47    7.06
   7  -8   9   13.09    4.57
   7   8   9   24.98    6.93
   7  -8  10   -1.14    3.52
   7   8  10   -0.16    2.65
   7   8  10   -0.38    2.52
   7  -8  11   -0.88    3.63
   7   8  11   12.68    4.89
   7   8  11   13.28    4.74
   7   8  12   -1.01    2.91
   7  -8  12   -0.09    2.79
   7   8  12    0.91    4.05
   7  -8  13   16.24    6.05
   7   8  13   25.11    7.08
   7   8  13   30.70    7.90
   7  -8  14   39.17    8.63
   7   8  14   49.63   10.20
   7   8  14   50.84    9.60
   7  -8  15    8.72    5.67
   7   8  15    6.62    5.13
   7   8  15    7.04    4.51
   7   8  16   -0.64    3.70
   7   8  16   -2.01    3.92
   7   8  17   17.84    5.60
   7   8  17    7.74    3.76
   7   8  18    7.29    4.30
   7   8  18    9.21    5.03
   7   8  19    3.27    2.59
   7   8  19    5.33    3.51
   7   8  20   -1.60    4.00
   7   8  20   -0.19    2.65
   7  -9 -16    8.47    2.94
  -7  -9 -16   -2.15    4.19
   7  -9 -15   17.77    5.56
   7  -9 -15   18.20    5.01
  -7  -9 -15   12.08    4.08
   7  -9 -14  186.35   17.94
   7  -9 -14  154.04   16.57
  -7  -9 -14  181.43   18.03
   7  -9 -13    4.88    4.20
   7  -9 -13   11.66    4.81
  -7  -9 -13   11.53    4.67
   7  -9 -12  232.24   19.85
   7  -9 -12  279.68   21.18
  -7  -9 -12  213.78   19.51
   7  -9 -11    5.73    3.14
   7  -9 -11   13.44    5.45
  -7  -9 -11   14.17    4.56
   7   9 -11   17.87    7.02
   7  -9 -10    3.63    2.42
   7  -9 -10   12.85    4.85
  -7  -9 -10   22.96    7.98
   7   9 -10   19.67    7.55
   7  -9  -9   23.33    7.29
   7  -9  -9   11.88    4.43
  -7  -9  -9   31.88    7.24
   7   9  -9   14.61    5.78
   7  -9  -8  394.59   24.76
   7  -9  -8  370.73   24.72
  -7  -9  -8  427.86   26.55
   7   9  -8  412.79   28.06
  -7  -9  -7   11.87    4.84
   7  -9  -7    5.74    4.19
   7  -9  -7   20.41    6.82
   7   9  -7   11.37    3.66
   7  -9  -6  128.87   14.44
   7  -9  -6   89.53   12.67
  -7  -9  -6  117.79   13.84
   7   9  -6  109.63   13.95
  -7  -9  -5    8.96    4.89
   7  -9  -5   12.56    4.73
   7  -9  -5   18.59    6.44
   7   9  -5    6.57    3.21
  -7  -9  -4  130.45   13.90
   7  -9  -4  134.06   13.96
   7  -9  -4  134.99   14.05
   7   9  -4  131.96   16.26
   7  -9  -3   -1.50    2.63
   7  -9  -3   -1.32    1.95
  -7  -9  -3    0.48    2.31
   7   9  -3    5.09    4.95
   7  -9  -2  186.93   16.56
   7  -9  -2  226.10   18.86
  -7  -9  -2  179.79   17.08
   7   9  -2  194.66   18.39
   7  -9  -1   11.11    5.08
   7  -9  -1    6.55    4.56
  -7  -9  -1    5.38    2.19
   7   9  -1   17.28    6.11
   7  -9   0    2.52    2.92
   7  -9   0    3.98    3.39
  -7  -9   0    1.83    1.97
   7   9   0    1.49    2.71
   7  -9   1    5.96    3.06
  -7  -9   1    6.07    4.91
   7   9   1    1.84    3.53
   7  -9   2  199.60   17.98
   7  -9   2  237.02   19.37
  -7  -9   2  197.94   17.67
   7   9   2  201.21   18.06
   7   9   2  208.08   18.85
   7  -9   3    1.29    2.84
  -7  -9   3    2.25    2.19
   7   9   3    0.31    3.20
   7   9   3    8.74    5.93
   7  -9   4  138.02   14.95
  -7  -9   4  158.40   15.78
   7   9   4  131.07   14.73
   7   9   4  126.94   15.53
   7  -9   5   13.04    4.65
  -7  -9   5   12.15    4.99
   7   9   5   13.57    6.09
   7   9   5   13.52    5.46
   7   9   6  115.90   14.37
   7  -9   6   77.44   11.15
  -7  -9   6  120.58   13.93
   7   9   6  110.47   13.83
   7  -9   7    4.24    4.32
  -7  -9   7   13.10    5.32
   7   9   7    5.90    4.03
   7   9   7   13.64    5.46
   7  -9   8  405.14   25.86
   7   9   8  379.21   25.79
   7   9   8  352.89   25.24
   7  -9   9   14.12    5.15
   7   9   9   21.27    6.25
   7   9   9   21.67    6.38
   7  -9  10   18.46    5.72
   7   9  10   24.19    8.09
   7   9  10   11.00    4.21
   7  -9  11   18.52    5.61
   7   9  11   14.66    5.25
   7   9  11    0.13    2.64
   7  -9  12  256.23   20.83
   7   9  12  208.99   19.48
   7   9  12  234.72   20.84
   7  -9  13   14.68    5.58
   7   9  13    8.68    5.98
   7   9  13   20.85    7.40
   7  -9  14  136.44   15.73
   7   9  14  154.18   16.55
   7   9  14  135.67   16.96
   7   9  15   10.60    6.09
   7   9  15   33.35    8.32
   7   9  16   11.88    6.20
   7   9  16    3.67    3.93
  -7 -10 -12   13.78    5.46
   7 -10 -12    8.55    5.04
   7 -10 -12   -3.59    2.67
   7 -10 -11   37.22    8.11
   7 -10 -11   24.10    7.38
  -7 -10 -11   33.32    8.20
   7 -10 -10   -2.35    2.88
   7 -10 -10    9.50    5.60
  -7 -10 -10    6.95    4.42
   7 -10  -9    8.47    4.47
   7 -10  -9    0.80    2.16
  -7 -10  -9    9.24    4.93
   7  10  -9    5.79    5.29
   7 -10  -8    3.37    2.82
   7 -10  -8    1.31    2.23
  -7 -10  -8    7.79    4.41
   7  10  -8    3.37    3.99
   7 -10  -7   33.67    7.23
   7 -10  -7   33.83    7.06
  -7 -10  -7   49.89    9.69
   7  10  -7   42.82    9.74
   7 -10  -6    4.77    4.81
   7 -10  -6   -2.97    2.68
  -7 -10  -6    4.10    2.85
   7  10  -6    6.99    5.17
   7 -10  -5   83.54   12.08
   7 -10  -5   84.23   12.21
  -7 -10  -5   83.60   12.29
   7  10  -5   55.80   10.63
   7 -10  -4    2.11    2.94
   7 -10  -4    1.52    2.55
   7  10  -4    3.49    3.33
  -7 -10  -4    4.60    3.78
   7 -10  -3    6.12    3.06
   7 -10  -3   -0.55    2.28
  -7 -10  -3    0.84    3.69
   7  10  -3    4.35    3.16
   7 -10  -2    1.37    3.30
   7 -10  -2    1.43    1.92
  -7 -10  -2    0.39    3.07
   7  10  -2   -7.17    4.61
   7 -10  -1    1.19    3.39
   7 -10  -1   16.01    5.27
  -7 -10  -1   10.33    4.22
   7  10  -1    0.46    4.02
   7 -10   0   -0.29    3.62
   7 -10   0   -0.03    3.35
  -7 -10   0    0.62    3.98
   7  10   0    2.48    4.26
   7 -10   1    3.50    3.04
   7 -10   1    4.86    3.28
  -7 -10   1    8.22    4.70
   7  10   1    8.40    4.84
   7 -10   2    3.70    3.80
  -7 -10   2   -1.39    2.38
   7  10   2   -2.92    5.21
   7  10   3    5.36    4.43
   7 -10   3    1.48    2.87
  -7 -10   3   -2.71    3.55
   7 -10   4    0.63    2.03
  -7 -10   4    1.13    4.11
   7 -10   5   61.16    9.96
  -7 -10   5   86.92   12.73
   7  10   5   63.44   10.60
   7 -10   6    5.53    3.39
  -7 -10   6   -2.76    3.35
   7  10   6    3.06    3.56
   7 -10   7   40.45    8.55
   7  10   7   35.95    8.59
   7 -10   8   -1.52    4.91
   7  10   8   12.02    5.36
   7 -10   9    0.21    2.22
   7  10   9   -3.57    3.48
   7  10   9    4.66    4.60
   7 -10  10    6.33    4.77
   7  10  10    7.93    4.87
   7  10  10    6.66    5.52
   7 -10  11   24.21    6.27
   7  10  11   30.72    6.92
   7  10  11   33.49    8.57
   7 -10  12    4.38    4.72
   7  10  12    5.54    5.04
   7  10  12    3.35    3.60
   8   0 -23   16.17    6.49
   8   0 -22   26.58    7.50
   8   0 -21  121.52   13.87
   8   0 -20   21.82    5.80
   8   0 -19  100.81   12.13
   8   0 -18  330.35   21.12
   8   0 -17  457.48   24.65
   8   0 -16   37.91    7.22
   8   0 -15  299.23   19.21
   8   0 -14  210.45   15.61
   8   0 -13   98.43    7.42
   8   0 -13  111.37   11.18
   8   0 -12  844.22   21.69
   8   0 -12  935.22   32.16
   8   0 -11  794.43   21.43
   8   0 -11  836.79   30.01
   8   0 -10   75.36    6.83
   8   0 -10   82.03    9.25
   8   0  -9 1483.93   38.53
   8   0  -9 1572.38   31.25
   8   0  -8 1264.06   35.38
   8   0  -8 1195.99   27.79
   8   0  -7    9.75    3.12
   8   0  -7   14.21    2.77
   8   0  -6  560.36   22.80
   8   0  -6  514.25   19.01
   8   0  -5  101.06    8.17
   8   0  -5   98.93    9.84
   8   0  -4  906.79   28.38
   8   0  -4  823.16   23.96
   8   0  -3 2155.60   42.96
   8   0  -3 1956.21   38.51
   8   0  -2  969.71   28.59
   8   0  -2  911.54   25.65
   8   0  -1  120.79   10.05
   8   0  -1  148.24   10.43
   8   0   0 1330.27   33.38
   8   0   0 1341.55   33.89
   8   0   0 1305.26   31.67
   8   0   1  122.03    9.94
   8   0   1  132.84   10.64
   8   0   1  132.06    9.97
   8   0   2  917.81   27.36
   8   0   2  869.37   27.43
   8   0   2  836.54   25.49
   8   0   3 2047.19   40.45
   8   0   3 2146.53   41.31
   8   0   3 2111.41   42.76
   8   0   4  929.12   27.10
   8   0   4  985.81   28.48
   8   0   4  902.79   27.95
   8   0   5  100.58    9.10
   8   0   5  102.58    9.75
   8   0   5  106.17    9.64
   8   0   6  528.33   20.65
   8   0   6  551.45   22.35
   8   0   6  562.68   22.27
   8   0   7   26.60    4.89
   8   0   7   25.75    4.58
   8   0   7   24.05    4.99
   8   0   8 1073.23   32.05
   8   0   8 1119.89   31.87
   8   0   9 1544.42   35.26
   8   0   9 1468.57   37.88
   8   0  10   75.31    7.75
   8   0  10   94.28    9.82
   8   0  11  829.92   25.75
   8   0  11  800.98   28.61
   8   0  12  876.40   26.87
   8   0  12  876.89   30.85
   8   0  13  100.82   10.68
   8   0  13  117.29   10.13
   8   0  14  206.25   15.24
   8   0  15  340.95   20.36
   8   0  16   39.13    7.06
   8   0  17  423.24   23.32
   8   0  18  319.21   20.67
   8   0  19   78.30   11.09
   8   0  20   33.95    7.63
   8   0  21   85.26   11.17
   8   0  22   20.14    5.12
   8   0  23    8.48    4.56
   8   0  24   41.92    8.03
   8   0  25   63.16   10.79
   8   0  26  127.33   15.53
   8   0  27   31.98    8.38
   8  -1 -24   26.28    7.45
   8  -1 -23    8.11    3.95
   8   1 -22   13.01    4.14
   8  -1 -22   17.94    5.49
   8   1 -21    3.34    3.08
   8  -1 -21   17.37    5.44
   8   1 -20   14.92    4.97
   8  -1 -20    9.92    4.11
   8   1 -19   26.03    6.02
   8  -1 -19   23.15    6.71
   8  -1 -18   89.49   10.77
   8   1 -18   63.43    9.65
   8  -1 -17   84.44   10.65
   8   1 -17   74.82   10.23
   8  -1 -16   43.88    7.64
   8   1 -16   55.01    8.60
   8   1 -15   10.76    3.75
   8  -1 -15   14.26    4.33
   8  -1 -14    2.16    1.91
   8   1 -14    6.87    3.67
   8  -1 -14    2.68    1.70
   8  -1 -13    3.93    1.94
   8   1 -13    2.53    2.88
   8  -1 -13    8.87    3.38
   8  -1 -12    9.70    2.36
   8   1 -12    4.79    2.53
   8  -1 -12    3.41    2.28
   8  -1 -11   67.17    8.83
   8   1 -11   51.04    7.40
   8  -1 -11   61.00    6.53
   8  -1 -10   40.39    6.32
   8   1 -10   42.05    7.14
   8  -1 -10   35.35    4.94
   8   1  -9   19.76    4.77
   8  -1  -9   28.23    5.62
   8  -1  -9   23.25    4.20
   8  -1  -8   45.76    6.50
   8   1  -8   60.14    7.51
   8  -1  -8   55.86    6.39
   8   1  -7   68.29    8.10
   8  -1  -7   65.82    8.21
   8  -1  -7   67.03    6.96
   8  -1  -6   12.77    3.03
   8  -1  -6   11.54    3.22
   8   1  -6   11.12    3.50
   8  -1  -5   15.18    3.31
   8  -1  -5   16.86    3.91
   8   1  -5   13.05    4.16
   8  -1  -4   29.34    4.95
   8   1  -4   24.29    5.16
   8  -1  -4   24.49    3.94
   8  -1  -3   58.24    7.24
   8   1  -3   72.22    8.10
   8  -1  -3   68.75    7.18
   8   1  -2  127.72   10.99
   8  -1  -2  140.65   10.22
   8  -1  -2  137.17   10.83
   8   1  -1  100.73    9.38
   8   1  -1  110.97    9.82
   8  -1  -1  117.67    9.92
   8  -1  -1  109.69    9.35
   8  -1   0    1.26    1.49
   8  -1   0    1.04    1.25
   8   1   0    1.94    1.68
   8   1   0    0.47    2.05
   8   1   1  125.75   10.40
   8   1   1  113.45   10.26
   8  -1   1  112.10    9.49
   8  -1   1  113.79    9.61
   8  -1   1  118.34    9.98
   8   1   2  124.41   10.48
   8   1   2  114.47   10.20
   8  -1   2  113.91    9.22
   8  -1   2  132.06   10.37
   8  -1   2  143.22   10.85
   8  -1   3   63.88    7.22
   8   1   3   67.82    7.58
   8  -1   3   64.03    6.95
   8   1   3   84.29    8.77
   8  -1   3   78.51    8.06
   8  -1   4   23.54    3.96
   8  -1   4   19.30    4.10
   8   1   4   21.56    4.57
   8  -1   4   26.63    5.09
   8   1   4   22.36    4.22
   8  -1   5   13.61    3.63
   8   1   5   14.74    3.42
   8   1   5   13.84    3.89
   8  -1   5   12.44    3.42
   8  -1   5   11.14    3.11
   8  -1   6   18.27    4.21
   8   1   6   17.33    3.92
   8   1   6   12.10    4.15
   8  -1   6   18.93    3.96
   8  -1   6   15.60    3.68
   8   1   7   76.72    8.14
   8  -1   7   73.90    7.30
   8   1   7   72.52    8.68
   8  -1   7   70.61    7.75
   8  -1   7   65.50    7.91
   8   1   8   48.28    6.49
   8  -1   8   52.61    6.14
   8   1   8   46.08    6.83
   8  -1   8   50.09    6.84
   8  -1   8   46.35    7.30
   8   1   9   20.72    4.79
   8  -1   9   21.57    4.21
   8   1   9   26.08    5.56
   8  -1   9   18.56    4.07
   8  -1   9   26.21    4.73
   8   1  10   34.72    5.76
   8  -1  10   36.79    5.30
   8   1  10   31.81    6.67
   8  -1  10   27.43    5.03
   8  -1  10   36.85    6.26
   8   1  11   54.52    7.50
   8  -1  11   61.70    7.73
   8  -1  11   49.02    5.92
   8   1  11   50.91    7.55
   8  -1  11   52.88    7.43
   8   1  12    3.21    2.78
   8  -1  12   11.27    3.87
   8   1  12    8.45    3.23
   8  -1  12    9.00    3.35
   8  -1  12    3.52    1.11
   8   1  13    2.70    1.66
   8  -1  13    4.68    1.65
   8   1  13    5.79    2.99
   8  -1  13    5.44    3.64
   8   1  14    6.35    2.88
   8  -1  14    8.18    3.85
   8   1  14    6.10    2.80
   8  -1  14    4.68    3.11
   8   1  15    5.17    3.32
   8   1  15   20.41    5.48
   8  -1  15   14.19    3.92
   8   1  16   55.00    8.46
   8  -1  16   51.43    8.11
   8  -1  17   77.28    9.74
   8   1  17   83.16   10.65
   8  -1  18   51.55    8.22
   8   1  18   75.53   10.20
   8  -1  19   40.66    7.68
   8   1  19   19.44    4.91
   8  -1  20   18.11    6.26
   8   1  20   20.19    5.74
   8  -1  21    2.90    2.27
   8   1  21    9.38    4.23
   8  -1  22   12.83    5.08
   8   1  22   17.93    5.13
   8   1  23    8.36    5.19
   8  -1  23   -7.62    3.41
   8   1  24   17.79    6.74
   8   1  25   -3.05    2.89
   8   1  26    8.61    3.69
   8   1  27   20.91    6.84
   8   1  28   15.62    4.39
   8  -2 -25   55.58    9.65
   8  -2 -24  110.33   14.06
   8  -2 -23   49.52    9.63
   8  -2 -22   66.51   10.30
   8  -2 -21  144.76   15.28
   8   2 -21  149.85   15.40
   8  -2 -20   27.90    6.86
   8   2 -20   22.39    6.11
   8  -2 -19   26.22    5.44
   8   2 -19   19.13    5.17
   8  -2 -18  119.89   12.85
   8   2 -18  129.93   13.90
   8  -2 -17  111.94   12.26
   8   2 -17   97.70   11.84
   8  -2 -16   88.70   10.66
   8   2 -16   95.32   11.25
   8  -2 -15  256.52   14.42
   8  -2 -15  245.90   17.63
   8   2 -15  241.38   17.35
   8  -2 -14  123.77   10.04
   8  -2 -14  138.55   12.98
   8   2 -14  129.26   12.65
   8  -2 -13   37.79    5.74
   8  -2 -13   38.57    7.15
   8   2 -13   39.42    6.96
   8  -2 -12  211.65   12.87
   8  -2 -12  221.60   15.95
   8   2 -12  231.40   16.26
   8  -2 -11  356.67   16.93
   8  -2 -11  392.15   21.26
   8   2 -11  358.62   20.25
   8  -2 -10   59.09    6.66
   8  -2 -10   52.75    7.72
   8   2 -10   68.60    8.55
   8  -2  -9  137.58   10.49
   8  -2  -9  145.60   12.38
   8   2  -9  122.58   11.48
   8  -2  -8  295.42   15.19
   8  -2  -8  256.11   16.11
   8   2  -8  275.77   17.02
   8  -2  -7  196.87   12.58
   8  -2  -7  173.82   13.37
   8   2  -7  182.09   13.66
   8  -2  -6   14.55    3.46
   8  -2  -6    8.18    2.87
   8   2  -6   10.07    3.05
   8  -2  -5  310.00   15.81
   8  -2  -5  301.29   16.97
   8   2  -5  323.95   17.75
   8  -2  -4  365.76   17.19
   8  -2  -4  354.95   18.16
   8   2  -4  340.20   18.35
   8  -2  -3  314.76   16.15
   8  -2  -3  332.19   17.41
   8   2  -3  317.42   17.77
   8  -2  -2  716.36   24.30
   8   2  -2  686.15   26.02
   8  -2  -2  741.38   25.47
   8   2  -2  745.82   26.77
   8  -2  -1  554.39   21.36
   8  -2  -1  544.02   21.54
   8   2  -1  567.78   23.47
   8   2  -1  597.75   24.41
   8  -2   0  190.29   12.58
   8  -2   0  183.08   12.35
   8   2   0  182.91   13.48
   8   2   0  192.27   13.61
   8  -2   1  574.41   21.67
   8   2   1  557.81   23.20
   8   2   1  527.35   22.90
   8  -2   2  674.31   24.20
   8  -2   2  682.46   23.52
   8   2   2  688.23   25.72
   8   2   2  685.32   25.83
   8  -2   2  673.24   22.75
   8   2   3  326.22   17.73
   8   2   3  346.36   18.46
   8  -2   3  367.16   16.93
   8  -2   3  325.79   15.91
   8  -2   3  339.21   17.20
   8   2   4  341.34   18.31
   8   2   4  349.42   18.94
   8  -2   4  375.08   16.72
   8  -2   4  353.94   16.28
   8  -2   4  328.74   17.06
   8   2   5  305.42   17.53
   8   2   5  322.12   17.93
   8  -2   5  294.38   14.95
   8  -2   5  318.39   15.52
   8  -2   5  287.22   16.27
   8  -2   6   14.42    4.31
   8  -2   6    8.54    2.46
   8   2   6   12.85    3.70
   8   2   6   15.45    4.30
   8  -2   6    6.76    2.63
   8   2   7  195.68   13.98
   8   2   7  181.65   14.01
   8  -2   7  182.93   12.50
   8  -2   7  182.28   11.66
   8  -2   7  172.10   12.83
   8   2   8  267.10   16.69
   8  -2   8  278.48   14.22
   8   2   8  236.91   16.19
   8  -2   8  256.26   14.41
   8  -2   8  281.98   16.60
   8   2   9  140.02   11.97
   8  -2   9  151.55   10.19
   8  -2   9  141.21   10.73
   8   2   9  129.40   12.19
   8  -2   9  155.22   12.50
   8  -2  10   67.43    6.63
   8  -2  10   59.15    7.16
   8   2  10   52.04    7.44
   8  -2  10   64.47    8.29
   8   2  10   69.90    8.68
   8  -2  11  429.41   21.17
   8  -2  11  394.57   18.91
   8   2  11  371.10   20.63
   8   2  11  424.59   22.00
   8   2  12  195.46   15.40
   8  -2  12  200.45   13.61
   8  -2  12  204.82   14.87
   8   2  12  182.50   14.38
   8   2  13   37.01    7.03
   8  -2  13   33.46    5.56
   8   2  13   42.64    7.38
   8  -2  13   36.72    6.31
   8  -2  14  129.22   12.01
   8   2  14  140.07   13.65
   8   2  14  150.49   13.35
   8  -2  14  122.55   11.12
   8  -2  15  264.84   16.91
   8   2  15  254.85   18.39
   8   2  15  240.18   17.02
   8  -2  15  257.68   17.32
   8  -2  16   84.97    9.36
   8   2  16   86.56   10.90
   8   2  16   59.85    9.62
   8  -2  16   91.43   10.93
   8  -2  17  119.88   11.63
   8   2  17  122.04   12.94
   8  -2  17  101.44   11.49
   8   2  18  134.96   13.78
   8   2  19    7.30    2.42
   8   2  20   41.59    8.07
   8   2  21  151.18   15.18
   8   2  22   45.41    8.51
   8   2  23   55.74    9.65
   8   2  24  118.66   15.00
   8   2  25   38.77    8.17
   8   2  26   41.71    8.46
   8   2  27   55.49   10.14
   8   2  28   55.42    9.95
   8  -3 -26    4.42    4.93
   8  -3 -25    0.13    2.42
   8  -3 -24    7.89    3.60
   8  -3 -23    3.32    4.29
   8  -3 -22    8.50    3.56
   8  -3 -21    3.03    3.71
   8  -3 -20    2.54    2.90
   8   3 -19   24.77    7.04
   8  -3 -19   26.75    6.08
   8   3 -18   29.33    6.79
   8  -3 -18   42.14    7.56
   8  -3 -17  228.13   18.10
   8   3 -17  180.18   16.15
   8   3 -16  194.41   16.75
   8  -3 -16  205.02   16.54
   8  -3 -15   97.32    9.83
   8   3 -15   95.94   11.64
   8  -3 -15  102.11   11.57
   8  -3 -14   93.86    9.31
   8   3 -14   93.38   11.42
   8  -3 -14   91.01   10.55
   8  -3 -13   64.74    7.90
   8   3 -13   67.02    9.28
   8  -3 -13   59.69    8.63
   8  -3 -12    4.92    3.33
   8  -3 -12    4.24    2.84
   8   3 -12    4.18    2.79
   8  -3 -11   56.07    7.18
   8  -3 -11   48.60    8.19
   8  -3 -10   82.83    8.74
   8   3 -10   75.91    9.64
   8  -3 -10   83.11    9.90
   8  -3  -9   71.67    8.06
   8   3  -9   69.05    8.50
   8  -3  -9   64.15    8.41
   8  -3  -8  109.17   10.10
   8   3  -8   81.75    9.57
   8  -3  -8  105.67   10.42
   8  -3  -7  114.43   10.03
   8   3  -7  117.69   11.43
   8  -3  -7  105.34   10.61
   8  -3  -6   46.26    6.74
   8   3  -6   53.65    8.09
   8  -3  -6   44.27    6.68
   8  -3  -5   14.65    3.56
   8  -3  -5   29.36    5.26
   8   3  -5   22.89    4.98
   8  -3  -4    0.28    0.97
   8  -3  -4    0.37    1.53
   8   3  -4    1.12    1.19
   8   3  -4    2.93    2.64
   8  -3  -3   57.48    6.95
   8   3  -3   46.44    7.20
   8  -3  -3   57.13    7.78
   8   3  -3   40.01    6.49
   8  -3  -2   64.86    7.77
   8   3  -2   64.35    8.09
   8  -3  -2   64.19    7.78
   8   3  -2   67.72    8.35
   8  -3  -1   19.10    4.84
   8   3  -1   19.20    4.13
   8   3  -1   22.66    4.97
   8  -3  -1   24.13    4.13
   8  -3   0    0.51    1.31
   8   3   0    3.06    2.27
   8   3   0    5.63    3.90
   8  -3   0    9.90    2.94
   8  -3   1   11.52    3.38
   8   3   1   28.64    5.85
   8  -3   1   21.71    4.30
   8   3   1   21.92    4.92
   8  -3   2   58.49    7.44
   8   3   2   65.12    8.27
   8  -3   2   65.59    7.49
   8   3   2   59.75    8.06
   8  -3   2   59.12    6.44
   8  -3   3   53.54    7.39
   8   3   3   51.30    7.39
   8  -3   3   57.34    6.71
   8   3   3   62.69    8.28
   8  -3   3   52.12    6.20
   8  -3   4   -1.08    2.48
   8   3   4   -0.23    2.19
   8  -3   4   -0.37    1.33
   8   3   4    2.55    2.04
   8  -3   4    3.09    1.83
   8  -3   5   19.82    5.28
   8   3   5   11.05    3.32
   8  -3   5   18.42    4.04
   8   3   5   22.23    5.32
   8  -3   5   19.95    3.38
   8  -3   6   33.79    5.94
   8   3   6   31.37    6.28
   8   3   6   44.53    7.24
   8  -3   6   41.58    5.46
   8   3   7  135.18   12.31
   8   3   7  113.70   11.55
   8  -3   7  120.69    9.13
   8  -3   7  110.48    9.28
   8   3   8   91.20   10.55
   8  -3   8   96.07    8.13
   8  -3   8   92.74    8.27
   8  -3   8   93.07    9.82
   8   3   8   95.67   10.39
   8   3   9   68.76    8.97
   8  -3   9   71.49    7.45
   8  -3   9   69.39    6.71
   8   3   9   89.19   10.40
   8  -3   9   74.91    9.10
   8  -3  10   66.90    7.20
   8   3  10   71.71    9.66
   8   3  10   77.93    9.65
   8  -3  10   98.00   10.45
   8  -3  11   46.92    7.46
   8  -3  11   66.52    7.79
   8   3  11   55.59    8.27
   8   3  11   64.92    9.14
   8  -3  12    5.10    3.04
   8   3  12    5.74    2.75
   8   3  12    2.30    1.38
   8   3  13   86.31   10.15
   8   3  13   89.35   10.69
   8  -3  13   63.39    8.67
   8   3  14   82.29   10.53
   8   3  14  104.20   11.58
   8  -3  14   90.51   10.71
   8   3  15  108.61   12.13
   8   3  15  103.52   11.88
   8  -3  15   81.67   10.19
   8   3  16  195.75   16.60
   8   3  16  206.03   16.86
   8  -3  16  195.84   15.75
   8   3  17  200.88   16.75
   8   3  17  235.08   18.23
   8  -3  17  206.09   16.67
   8   3  18   32.15    7.37
   8  -3  18   33.15    7.41
   8   3  19   23.34    6.16
   8  -3  19   40.74    8.77
   8   3  20    4.43    1.74
   8   3  21    4.04    3.60
   8   3  22    9.64    4.11
   8   3  23    9.43    4.38
   8   3  24   15.93    6.09
   8   3  25    3.61    2.82
   8   3  26    0.30    1.85
   8   3  27   -0.17    2.17
   8  -4 -26    3.77    5.54
   8  -4 -25   56.26   10.84
   8  -4 -24  108.86   14.28
   8  -4 -23    7.15    3.31
   8  -4 -22   50.29   10.07
   8  -4 -21   87.02   12.02
   8  -4 -20    5.29    2.13
   8  -4 -19   25.27    6.45
   8  -4 -18   57.20    9.11
   8   4 -18   63.68    9.97
   8  -4 -17   21.22    5.17
   8   4 -17   16.31    4.86
   8  -4 -16  188.54   15.25
   8   4 -16  174.98   15.79
   8  -4 -16  188.28   16.43
   8  -4 -15  337.59   19.84
   8   4 -15  284.91   19.73
   8  -4 -15  302.21   20.17
   8  -4 -14  127.09   12.56
   8  -4 -14  117.78   11.42
   8   4 -14  105.02   12.22
   8  -4 -13  104.64   10.92
   8  -4 -13   88.35   10.93
   8   4 -13  100.70   11.44
   8  -4 -12   57.28    8.50
   8   4 -12   49.59    8.23
   8  -4 -12   34.16    6.49
   8  -4 -11  196.84   14.86
   8   4 -11  183.09   15.11
   8  -4 -11  180.71   14.75
   8  -4 -10   79.01    9.58
   8   4 -10   80.06    9.96
   8  -4 -10   59.16    8.41
   8  -4  -9   42.37    7.25
   8   4  -9   46.30    7.59
   8  -4  -9   38.97    6.49
   8  -4  -8   27.02    5.94
   8  -4  -8   32.50    6.21
   8   4  -8   29.87    6.47
   8  -4  -7  158.02   12.95
   8   4  -7  156.16   13.80
   8  -4  -7  173.54   13.96
   8   4  -7  178.75   14.69
   8  -4  -6   27.05    5.68
   8   4  -6   22.48    5.46
   8  -4  -6   34.97    6.19
   8   4  -6   26.00    5.14
   8  -4  -5  522.07   23.24
   8   4  -5  496.30   24.15
   8  -4  -5  526.67   23.90
   8   4  -5  488.05   24.02
   8  -4  -4  359.05   19.07
   8   4  -4  336.82   19.74
   8  -4  -4  306.10   17.90
   8   4  -4  325.39   19.33
   8  -4  -3   65.23    8.32
   8   4  -3   86.80    9.77
   8  -4  -3   61.97    7.68
   8   4  -3   62.65    9.13
   8  -4  -2  610.45   25.22
   8   4  -2  540.50   25.20
   8  -4  -2  539.93   23.57
   8   4  -2  550.04   24.84
   8  -4  -1  736.49   27.50
   8  -4  -1  718.21   26.92
   8   4  -1  729.34   28.84
   8  -4   0   43.66    6.96
   8   4   0   76.90    9.74
   8  -4   0   63.37    7.83
   8   4   0   61.44    8.31
   8  -4   1  750.78   27.69
   8   4   1  798.95   30.78
   8  -4   1  812.52   28.00
   8   4   1  775.61   29.67
   8   4   2  547.00   25.79
   8  -4   2  543.89   23.84
   8  -4   2  594.04   23.35
   8   4   2  563.62   25.52
   8   4   3   68.23    9.93
   8  -4   3   57.85    8.22
   8  -4   3   78.95    8.24
   8   4   3   77.24    9.68
   8  -4   3   66.92    6.66
   8   4   4  286.83   18.56
   8  -4   4  331.33   18.62
   8   4   4  309.60   19.15
   8  -4   4  332.39   14.64
   8   4   5  471.59   24.80
   8  -4   5  525.18   23.72
   8  -4   5  487.30   20.44
   8   4   5  485.02   23.96
   8  -4   6   20.95    4.20
   8  -4   6   15.78    3.70
   8   4   6   15.12    4.15
   8  -4   7  187.56   14.33
   8  -4   7  169.55   11.60
   8   4   7  174.06   14.66
   8   4   7  192.32   15.70
   8  -4   8   32.83    6.12
   8   4   8   28.45    5.87
   8  -4   8   26.29    4.69
   8   4   8   25.24    6.29
   8  -4   9   39.31    6.22
   8   4   9   50.50    8.23
   8   4   9   64.90    9.37
   8  -4  10   64.92    8.79
   8   4  10   46.19    7.11
   8   4  10   74.48    9.82
   8   4  11  167.94   14.77
   8   4  11  157.86   14.86
   8  -4  11  165.49   13.79
   8   4  12   28.10    6.21
   8   4  12   39.56    7.53
   8  -4  12   44.04    7.18
   8   4  13   92.87   11.29
   8   4  13  100.06   11.80
   8  -4  13   78.40    9.97
   8   4  14  103.67   12.33
   8   4  14  113.41   12.91
   8  -4  14  133.33   12.91
   8   4  15  294.56   20.43
   8   4  15  250.36   19.66
   8  -4  15  297.07   19.73
   8   4  16  169.96   16.04
   8   4  16  175.81   15.94
   8  -4  16  178.29   15.60
   8  -4  17   20.58    5.58
   8   4  17    5.39    2.51
   8   4  17   20.06    4.80
   8   4  18   50.12    9.09
   8   4  18   64.80   10.35
   8  -4  18   49.23    8.34
   8   4  19   22.58    6.12
   8   4  20    1.80    3.49
   8   4  21   88.01   11.88
   8   4  22   66.98   10.53
   8   4  23    9.77    3.80
   8   4  24  135.11   15.18
   8   4  25   70.32   11.95
   8   4  26    6.15    2.51
   8  -5 -25    7.55    5.01
   8  -5 -24    1.86    3.06
   8  -5 -23    1.88    2.82
   8  -5 -22    2.51    3.64
   8  -5 -21   14.33    5.29
   8  -5 -20    5.85    4.73
   8  -5 -19   12.55    4.58
   8  -5 -18   17.44    4.86
   8  -5 -17   35.77    7.03
   8   5 -17   34.63    8.49
   8  -5 -16   86.53   10.29
   8   5 -16   83.64   11.58
   8  -5 -16  104.83   12.83
   8  -5 -15   66.71    9.26
   8   5 -15   58.62    9.69
   8  -5 -15   75.93   10.75
   8  -5 -14   67.09    9.14
   8   5 -14   64.71    9.98
   8  -5 -14   74.50   10.19
   8  -5 -13   39.12    7.05
   8   5 -13   34.12    7.86
   8  -5 -13   31.01    6.57
   8  -5 -12   36.92    7.02
   8   5 -12   43.53    8.08
   8  -5 -12   37.35    7.37
   8  -5 -11   28.99    5.71
   8   5 -11   28.65    6.51
   8  -5 -11   26.17    5.78
   8  -5 -10    2.04    1.51
   8   5 -10   -3.93    4.16
   8  -5 -10    3.05    2.33
   8   5 -10   -0.67    1.97
   8  -5  -9   12.70    4.19
   8  -5  -9   20.90    4.72
   8   5  -9   10.02    3.44
   8   5  -9   14.62    4.66
   8  -5  -8   49.11    7.38
   8   5  -8   28.21    7.09
   8  -5  -8   25.83    5.51
   8   5  -8   38.69    6.98
   8   5  -7   94.59   11.56
   8  -5  -7  102.95   10.63
   8   5  -7  109.53   11.84
   8  -5  -7  129.83   12.37
   8  -5  -6   46.30    6.93
   8   5  -6   35.89    6.09
   8   5  -6   46.51    7.68
   8  -5  -6   48.54    7.23
   8  -5  -5   25.49    5.18
   8   5  -5   35.28    7.11
   8  -5  -5   23.25    5.33
   8   5  -5   29.68    6.68
   8   5  -4  104.48   11.86
   8  -5  -4  139.41   12.37
   8   5  -4  122.39   12.38
   8  -5  -4  113.24   11.64
   8   5  -3  100.91   11.55
   8  -5  -3   92.38   10.24
   8   5  -3   84.24   10.33
   8  -5  -3  103.77   10.78
   8  -5  -2   49.23    7.64
   8   5  -2   30.06    7.25
   8  -5  -2   42.71    6.63
   8   5  -2   31.75    6.98
   8  -5  -1   40.68    6.67
   8   5  -1   25.20    5.74
   8  -5  -1   29.98    5.78
   8   5  -1   39.31    7.49
   8  -5   0   51.29    7.18
   8   5   0   40.21    7.05
   8   5   0   38.66    6.61
   8  -5   0   51.96    7.52
   8  -5   1   28.37    6.27
   8   5   1   34.10    6.44
   8  -5   1   24.65    4.76
   8   5   1   21.23    4.93
   8  -5   2   59.58    8.41
   8  -5   2   40.45    6.53
   8   5   2   51.87    8.20
   8   5   2   43.36    7.72
   8  -5   3  104.98   10.30
   8  -5   3   97.26   10.73
   8   5   3   97.94   11.14
   8   5   3  120.61   12.50
   8  -5   4  110.29   11.44
   8  -5   4  102.36   10.31
   8   5   4   87.58   10.55
   8  -5   5   27.39    5.08
   8   5   5   29.82    6.88
   8  -5   5   23.13    5.22
   8   5   5   35.18    6.85
   8  -5   6   43.36    7.65
   8  -5   6   40.17    6.09
   8   5   6   35.85    7.00
   8   5   6   50.56    8.68
   8  -5   7  114.59   11.68
   8  -5   7  124.52   10.69
   8   5   7  117.94   12.89
   8   5   7  102.75   12.08
   8  -5   8   43.37    7.81
   8   5   8   35.73    7.34
   8   5   8   34.33    7.34
   8   5   9   23.66    6.48
   8  -5   9   16.31    5.10
   8   5   9    7.90    5.04
   8   5  10    0.20    2.84
   8  -5  10    1.50    2.44
   8   5  10    3.76    3.49
   8   5  11   35.90    7.17
   8  -5  11   38.65    7.27
   8   5  11   14.99    5.27
   8  -5  12   18.77    5.32
   8   5  12   30.72    7.51
   8  -5  13   36.40    7.55
   8   5  13   35.01    7.58
   8   5  13   25.33    7.11
   8   5  14   64.39   10.17
   8   5  14   70.89   11.14
   8  -5  14   86.05   10.47
   8   5  15   88.79   11.63
   8   5  15   58.86    9.83
   8  -5  15   78.38   10.22
   8   5  16   70.36   10.16
   8   5  16   54.29    9.56
   8  -5  16   83.52   11.14
   8  -5  17   32.28    7.43
   8   5  17   41.69    7.62
   8   5  17   28.18    6.87
   8   5  18   14.27    6.14
   8   5  18   17.72    5.40
   8   5  19   15.48    6.06
   8   5  19   20.39    6.52
   8   5  20    1.89    2.44
   8   5  21    7.69    3.05
   8   5  22    3.40    2.48
   8   5  23    8.50    3.81
   8   5  24   -0.63    2.45
   8   5  25    2.01    2.76
   8  -6 -23    7.29    2.53
   8  -6 -22   27.61    6.47
   8  -6 -21   61.24   10.84
   8  -6 -20   14.89    5.48
   8  -6 -19   26.08    6.99
   8  -6 -18   92.29   12.68
   8  -6 -17   74.63   11.26
   8  -6 -17   59.08    9.72
   8  -6 -16   31.63    6.65
   8  -6 -16   39.05    8.16
   8   6 -15  173.66   17.77
   8  -6 -15  197.36   16.69
   8  -6 -15  193.60   17.03
   8   6 -14  117.67   14.39
   8  -6 -14  117.72   12.80
   8   6 -14  112.91   13.39
   8  -6 -14  123.75   13.73
   8   6 -13    3.56    3.33
   8  -6 -13    6.08    3.45
   8  -6 -13    8.34    4.48
   8   6 -13    7.14    5.44
   8   6 -12  128.57   14.38
   8  -6 -12  157.59   14.48
   8  -6 -12  139.86   14.23
   8   6 -12  140.66   14.71
   8   6 -11  253.49   19.75
   8  -6 -11  221.23   17.12
   8   6 -11  218.04   18.07
   8  -6 -11  199.85   16.93
   8   6 -10   15.34    5.21
   8  -6 -10   18.26    5.89
   8   6 -10   14.11    5.24
   8   6  -9  117.20   13.39
   8  -6  -9  136.38   13.32
   8   6  -9  111.41   12.99
   8  -6  -9  132.87   13.37
   8   6  -8  104.81   12.07
   8  -6  -8  101.71   11.45
   8   6  -8   90.89   11.08
   8  -6  -8   94.16   11.38
   8   6  -7   67.56    9.76
   8  -6  -7   46.12    7.97
   8   6  -7   61.15    9.23
   8  -6  -7   47.28    7.88
   8   6  -6  299.20   20.76
   8  -6  -6  310.79   19.49
   8   6  -6  281.10   19.86
   8  -6  -6  299.16   19.97
   8   6  -5  352.27   22.73
   8  -6  -5  398.62   22.23
   8  -6  -5  314.97   20.00
   8   6  -5  343.40   21.40
   8  -6  -4   48.54    8.22
   8   6  -4   34.78    7.04
   8   6  -4   30.57    6.42
   8  -6  -4   42.67    7.59
   8  -6  -3   70.15    9.16
   8   6  -3   75.54   10.40
   8  -6  -3   90.83   10.55
   8   6  -3   67.32    9.34
   8  -6  -2  147.21   13.59
   8   6  -2  126.88   12.93
   8  -6  -2  122.41   12.31
   8   6  -2  120.64   13.11
   8  -6  -1  139.10   13.06
   8   6  -1  137.30   13.31
   8  -6  -1  110.13   11.62
   8   6  -1  132.00   14.53
   8  -6   0  131.72   13.12
   8   6   0  148.78   14.31
   8  -6   0  159.04   13.90
   8   6   0  110.62   12.85
   8  -6   1  119.48   12.44
   8   6   1  122.61   12.44
   8  -6   1  134.92   12.33
   8   6   1  137.82   14.48
   8  -6   2  125.68   12.40
   8   6   2  101.38   11.61
   8  -6   2  119.47   11.54
   8   6   2  105.10   12.05
   8  -6   3   94.94   11.00
   8   6   3   64.90    9.09
   8  -6   3   87.38   10.05
   8  -6   4   40.07    7.05
   8  -6   4   39.30    6.41
   8   6   4   55.67    8.68
   8   6   4   48.74    9.02
   8  -6   5  372.60   21.83
   8   6   5  389.10   23.32
   8  -6   5  351.51   19.77
   8   6   5  374.05   23.61
   8  -6   6  269.18   18.86
  -8  -6   6  313.48   19.35
   8  -6   6  245.46   16.54
   8   6   6  337.90   21.64
   8   6   6  333.36   22.34
   8  -6   7   45.12    8.06
  -8  -6   7   42.33    6.99
   8   6   7   43.62    8.12
   8   6   7   61.28   10.37
   8   6   8   83.93   11.27
   8  -6   8  101.57   11.65
  -8  -6   8  105.44   11.03
   8   6   8   85.16   11.72
   8  -6   9  132.76   13.43
  -8  -6   9  141.73   13.27
   8   6   9  150.17   14.64
   8   6   9  136.82   14.71
   8  -6  10   32.13    7.28
   8   6  10   28.95    6.47
   8   6  10   30.59    7.59
   8  -6  11  225.16   17.48
   8   6  11  207.15   17.67
   8   6  11  225.99   19.05
   8  -6  12   89.66   12.15
   8   6  12  120.40   13.55
   8   6  12   95.52   12.60
   8  -6  13    0.41    2.42
   8   6  13   -1.46    2.58
   8   6  13    5.30    1.71
   8  -6  14  117.94   13.52
   8   6  14  112.24   13.15
   8   6  14   91.90   12.65
   8  -6  15  207.72   17.42
   8   6  15  192.30   18.37
   8   6  15  191.76   17.27
   8   6  16   34.55    8.12
   8  -6  16   30.35    7.03
   8   6  16   30.70    8.00
   8   6  17   90.52   12.47
   8   6  17   61.28   10.07
   8  -6  17   85.06   12.70
   8   6  18   74.39   12.06
   8   6  18   80.36   11.77
   8   6  19   30.37    7.85
   8   6  19   45.98    9.02
   8   6  20    8.05    3.69
   8   6  20   10.20    5.50
   8   6  21   75.71   11.92
   8   6  22   16.96    6.09
   8   6  23    4.95    3.30
  -8  -7 -21   24.86    7.76
   8  -7 -21   29.06    7.57
   8  -7 -20   13.52    5.46
  -8  -7 -20    3.05    3.48
   8  -7 -19    8.46    3.01
  -8  -7 -19    4.04    3.38
   8  -7 -18   21.78    6.18
   8  -7 -17    6.28    3.16
   8  -7 -17    9.55    5.33
   8  -7 -16   13.21    5.74
   8  -7 -16    5.02    3.02
   8  -7 -15    2.70    2.67
   8  -7 -15   -0.75    3.16
   8   7 -14    8.61    3.57
   8  -7 -14    3.93    3.42
   8  -7 -14   -2.45    1.67
   8   7 -13   14.49    5.40
   8  -7 -13   26.66    6.03
   8  -7 -13   13.21    4.02
   8   7 -12   60.42   10.41
   8  -7 -12   71.90   10.16
   8  -7 -12   67.17   10.01
   8  -7 -11  104.87   11.84
   8  -7 -11  122.51   13.39
   8   7 -11  104.09   13.51
   8   7 -11  107.17   13.23
   8   7 -10   42.78    9.14
   8  -7 -10   60.60    9.13
   8   7 -10   46.93    8.96
   8  -7 -10   42.90    7.99
   8   7  -9    9.19    4.28
   8  -7  -9    4.52    3.89
   8   7  -9    5.71    5.86
   8  -7  -9    2.95    3.10
   8  -7  -8   64.72    9.47
   8   7  -8   61.97    9.81
   8  -7  -8   86.59   11.01
   8   7  -8   88.49   12.10
   8  -7  -7   66.05   10.22
   8  -7  -7   84.20   10.94
   8   7  -7   88.80   11.96
   8   7  -7   75.63   10.68
   8   7  -6   27.17    6.79
   8  -7  -6   22.13    5.82
   8   7  -6   27.82    6.50
   8  -7  -6   23.98    5.53
   8  -7  -5  111.35   12.33
   8  -7  -5  119.45   12.36
   8   7  -5  145.09   14.81
   8   7  -5  132.73   15.14
   8  -7  -4   56.54    8.85
   8  -7  -4   57.06    8.77
   8   7  -4   56.34    9.13
   8   7  -4   46.97   10.70
   8  -7  -3  101.42   11.94
   8  -7  -3   95.13   11.26
   8   7  -3   88.70   11.88
   8  -7  -2   74.77    9.75
   8  -7  -2   70.43    9.68
   8   7  -2  109.16   13.07
   8   7  -2   92.05   12.40
   8  -7  -1  122.72   12.67
   8  -7  -1   93.58   11.31
   8   7  -1  126.07   13.75
   8   7  -1  121.48   13.92
   8  -7   0  140.22   13.35
   8  -7   0  152.86   14.06
   8   7   0  149.32   14.83
   8   7   0  152.12   15.46
   8  -7   1  125.84   12.97
  -8  -7   1  101.52   11.68
   8   7   1  117.57   12.72
   8   7   1  116.09   13.53
   8  -7   1  109.63   11.95
   8  -7   2   58.85    8.70
   8   7   2   72.77   10.24
  -8  -7   2   72.34   10.21
   8   7   2   76.90   10.95
   8  -7   2   70.83    9.35
   8  -7   3   93.42   11.54
  -8  -7   3  100.17   11.33
   8   7   3  108.71   12.71
   8   7   3   91.11   12.07
   8  -7   3   92.69   10.88
  -8  -7   4   63.32    9.44
   8   7   4   70.37   10.04
   8  -7   4   89.09   11.21
   8  -7   4   75.13    9.56
   8   7   4   71.28   11.37
   8  -7   5  143.86   14.10
  -8  -7   5  126.10   13.25
   8   7   5  117.14   13.27
   8  -7   5  131.62   13.29
   8   7   5  143.22   15.43
   8   7   6   17.01    6.61
  -8  -7   6   18.69    4.05
   8  -7   6   28.69    7.39
   8   7   6   26.68    7.07
   8  -7   7   89.17   11.10
  -8  -7   7   71.69    9.91
   8   7   7   77.21   10.67
   8   7   7   60.23    9.21
   8  -7   8   73.21   10.38
  -8  -7   8   80.95   10.40
   8   7   8   66.05   10.21
   8   7   8   82.85   11.68
   8  -7   9    1.72    2.10
   8   7   9    0.04    2.34
   8   7   9    6.27    2.86
   8  -7  10   55.98    9.38
   8   7  10   51.33   10.22
   8   7  10   42.33    9.01
   8  -7  11  109.07   12.48
   8   7  11  132.04   14.37
   8   7  11   98.24   12.82
   8  -7  12   60.88    9.47
   8   7  12   60.89    9.87
   8   7  12   65.77   10.36
   8  -7  13   18.88    6.63
   8   7  13   24.88    6.88
   8   7  13   24.19    6.61
   8  -7  14    2.25    3.91
   8   7  14    9.59    5.01
   8   7  14    6.48    2.91
   8  -7  15    3.87    4.86
   8   7  15    2.36    2.11
   8   7  15   -3.89    3.69
   8  -7  16   -0.36    2.67
   8   7  16    7.10    5.49
   8   7  16    5.26    4.19
   8   7  17   13.60    5.55
   8   7  17   13.86    4.10
   8   7  18   19.25    6.17
   8   7  18   16.75    6.94
   8   7  19    2.30    2.30
   8   7  19    0.16    2.54
   8   7  20    2.93    2.40
   8   7  20   16.89    6.24
   8   7  21   20.20    7.41
   8   7  21    4.07    2.58
  -8  -8 -19   21.76    5.66
   8  -8 -19   15.88    5.72
  -8  -8 -18   63.41   10.78
   8  -8 -18   71.41   11.58
   8  -8 -17  141.80   16.13
  -8  -8 -17  124.91   15.65
   8  -8 -17  173.82   17.33
   8  -8 -16   16.00    6.66
   8  -8 -16   13.74    5.17
  -8  -8 -16    8.45    4.61
   8  -8 -15   34.77    8.71
  -8  -8 -15   38.92    8.04
   8  -8 -15   53.27    9.41
   8  -8 -14   28.95    7.40
  -8  -8 -14   46.28    8.76
   8  -8 -14   33.74    7.25
   8   8 -13    9.55    3.72
   8  -8 -13   13.46    5.09
  -8  -8 -13    8.75    4.32
   8  -8 -13   17.64    5.32
   8  -8 -12   86.35   11.87
   8   8 -12   85.52   12.80
   8  -8 -11  183.33   16.97
   8  -8 -11  169.74   16.02
  -8  -8 -11  174.69   16.37
   8   8 -11  184.45   18.33
   8   8 -10   11.75    5.24
   8  -8 -10    8.08    3.55
  -8  -8 -10   10.71    5.31
   8  -8 -10    6.99    3.52
   8  -8  -9   99.01   12.81
   8  -8  -9  111.57   13.33
  -8  -8  -9   84.53   11.60
   8   8  -9   92.36   12.46
   8  -8  -8  151.76   15.31
   8  -8  -8  121.61   13.72
  -8  -8  -8  132.75   14.71
   8   8  -8  126.04   15.86
   8   8  -7   31.64    7.96
   8  -8  -7   59.88    9.02
   8  -8  -7   42.45    8.27
  -8  -8  -7   40.76    8.28
   8  -8  -6   37.11    7.72
   8   8  -6   40.80    7.84
   8  -8  -6   40.10    8.25
  -8  -8  -6   33.83    8.34
   8  -8  -5  159.58   15.70
   8  -8  -5  163.04   15.62
  -8  -8  -5  161.58   15.47
   8   8  -5  148.75   16.11
   8   8  -5  126.56   14.80
   8  -8  -4   43.28    8.00
   8   8  -4   35.21    8.22
   8  -8  -4   31.03    7.00
   8   8  -4   54.27    9.63
  -8  -8  -4   39.39    7.57
   8  -8  -3   10.00    4.08
  -8  -8  -3   12.90    3.89
   8   8  -3   13.39    3.15
   8  -8  -3   18.09    5.83
   8   8  -3   20.83    5.88
   8  -8  -2   70.75   10.39
   8  -8  -2   65.51   10.15
  -8  -8  -2   82.33   11.50
   8   8  -2   70.74   10.52
   8   8  -2   81.96   11.79
   8  -8  -1   74.91   10.64
   8  -8  -1   58.06    9.44
  -8  -8  -1   52.83    9.65
   8   8  -1   57.90    9.38
   8   8  -1   81.19   12.14
   8   8   0    1.46    2.83
  -8  -8   0    8.05    3.02
   8  -8   0    9.05    4.49
   8   8   0    1.82    2.78
   8  -8   0    5.83    3.22
   8   8   1   48.99    9.98
   8  -8   1   69.43    9.98
   8  -8   1   72.39    9.89
  -8  -8   1   54.53    9.12
   8   8   1   46.10    8.89
   8  -8   2   89.59   11.65
  -8  -8   2   68.73   10.18
   8   8   2   89.97   12.45
   8   8   2   68.96   11.30
   8  -8   2   74.74   10.58
   8  -8   3   24.17    6.40
  -8  -8   3    4.93    3.53
   8   8   3    5.43    4.00
   8  -8   3   12.63    3.70
   8   8   3   16.70    7.02
   8  -8   4   30.14    6.84
  -8  -8   4   34.11    7.81
   8   8   4   23.39    5.48
   8   8   4   43.35    8.20
   8  -8   5  130.84   13.79
  -8  -8   5  179.27   16.74
   8   8   5  176.97   16.66
   8   8   5  152.29   16.36
   8  -8   6   45.11    8.64
  -8  -8   6   48.22    9.03
   8   8   6   21.95    5.39
   8   8   6   52.20   10.19
   8  -8   7   51.29    9.16
  -8  -8   7   41.67    7.69
   8   8   7   33.12    8.22
   8   8   7   39.86    9.35
   8  -8   8  153.36   15.21
   8   8   8  159.82   16.30
   8   8   8  132.65   15.23
   8  -8   9  104.55   13.41
   8   8   9  105.47   13.50
   8   8   9  110.82   13.75
   8  -8  10   18.55    5.50
   8   8  10   10.03    4.37
   8   8  10   16.06    6.09
   8  -8  11  201.86   18.01
   8   8  11  180.44   17.43
   8   8  11  190.57   18.36
   8  -8  12  113.10   13.95
   8   8  12   87.22   12.31
   8   8  12  113.67   14.15
   8  -8  13    4.03    3.95
   8   8  13   10.01    6.28
   8   8  13    4.94    3.82
   8  -8  14   26.94    6.20
   8   8  14   29.19    6.62
   8   8  14   23.21    6.46
   8  -8  15   43.04    8.97
   8   8  15   27.72    7.30
   8   8  15   40.92    8.46
   8   8  16   11.08    2.29
   8   8  16    7.67    4.53
   8   8  17   99.33   14.50
   8   8  17  133.02   15.23
   8   8  18   71.73   11.37
   8   8  18   63.02   11.68
   8   8  19    7.42    4.42
   8   8  19   13.99    5.25
   8  -9 -15   42.55    9.38
  -8  -9 -15   37.42    8.36
   8  -9 -15   40.79    8.69
   8  -9 -14   26.42    8.02
  -8  -9 -14   23.96    6.94
   8  -9 -14   29.63    7.32
   8  -9 -13   31.20    8.13
  -8  -9 -13   45.77    8.93
   8  -9 -13   47.53    9.05
   8  -9 -12   11.80    5.19
  -8  -9 -12   22.68    6.52
   8  -9 -12   21.96    6.13
   8   9 -11   15.30    6.72
   8  -9 -11   20.52    6.32
  -8  -9 -11    9.01    4.90
   8  -9 -11   29.27    7.28
   8  -9 -10   24.16    6.54
   8   9 -10   37.38    9.25
   8  -9 -10   35.43    6.94
  -8  -9 -10   29.04    6.21
   8   9  -9   -3.34    3.55
   8  -9  -9    3.23    3.19
   8  -9  -9    1.77    2.48
  -8  -9  -9    1.22    1.91
   8   9  -8   33.46    8.61
   8  -9  -8   12.02    4.53
   8  -9  -8   20.58    6.71
  -8  -9  -8   31.75    7.24
   8   9  -7   10.68    5.67
   8  -9  -7    4.88    3.01
   8  -9  -7    9.96    5.31
  -8  -9  -7    1.93    1.93
   8   9  -6    8.65    4.93
   8  -9  -6    1.80    2.07
  -8  -9  -6   -0.62    2.36
   8  -9  -6    5.44    5.29
   8   9  -5   32.24    8.59
   8  -9  -5   32.42    7.01
   8  -9  -5   35.15    7.45
  -8  -9  -5   41.78    8.31
   8   9  -4    8.72    3.93
   8  -9  -4    4.62    2.09
  -8  -9  -4    3.76    2.48
   8  -9  -4    1.54    2.60
   8  -9  -3    0.71    2.39
  -8  -9  -3    6.55    3.34
   8  -9  -3   15.56    6.35
   8   9  -3    7.44    5.45
   8  -9  -2    5.28    2.79
  -8  -9  -2   19.35    6.00
   8  -9  -2   17.00    4.23
   8   9  -2   18.09    6.28
   8  -9  -1   13.64    4.58
   8  -9  -1   13.71    4.40
   8   9  -1   17.91    6.65
  -8  -9  -1   10.29    4.28
   8  -9   0    3.07    3.11
  -8  -9   0    7.75    3.53
   8  -9   0    7.22    2.18
   8   9   0   10.27    5.05
   8  -9   1   14.75    4.66
  -8  -9   1   21.98    6.71
   8   9   1   23.80    6.34
   8  -9   1   20.70    5.75
   8   9   1   20.72    5.56
   8  -9   2   18.51    4.90
  -8  -9   2    5.71    2.49
   8   9   2   16.86    4.68
   8  -9   2   17.43    6.26
   8   9   2   19.04    6.09
   8  -9   3    7.92    5.17
  -8  -9   3    3.86    2.93
   8   9   3    8.42    5.59
   8   9   3   11.38    5.45
   8  -9   4    7.73    3.78
  -8  -9   4    0.05    3.00
   8   9   4    1.19    4.55
   8   9   4   13.43    5.23
   8  -9   5   24.24    6.74
  -8  -9   5   31.78    6.80
   8   9   5   41.88    9.06
   8   9   5   50.71    9.68
   8  -9   6    4.00    3.59
  -8  -9   6    0.46    2.75
   8   9   6    0.23    2.70
   8   9   6   -4.68    4.84
   8   9   7    7.33    3.90
   8  -9   7    4.66    3.84
   8   9   7   -3.00    5.02
   8  -9   8   33.46    7.81
   8   9   8   17.85    4.64
   8   9   8   21.76    7.28
   8  -9   9    5.88    3.81
   8   9   9    0.78    3.00
   8   9   9   -5.84    4.99
   8  -9  10   34.71    8.81
   8   9  10   38.40    9.32
   8   9  10   28.80    7.17
   8  -9  11   14.44    3.90
   8   9  11    8.94    4.50
   8   9  11   15.04    5.08
   8  -9  12    8.30    4.26
   8   9  12    5.39    5.27
   8  -9  13   45.17    8.82
   8   9  13   57.33   10.40
   8   9  13   36.70    8.77
   8  -9  14   24.44    7.68
   8   9  14   30.15    7.78
   8   9  14   21.21    7.03
   8   9  15   40.51    9.18
   8   9  15   35.32    9.57
   8 -10 -10    3.85    4.69
  -8 -10 -10    2.76    2.82
   8  10 -10    3.62    2.77
   8 -10 -10    1.80    3.49
   8 -10  -9   57.51    9.59
   8 -10  -9   70.82   10.84
  -8 -10  -9   62.93   10.51
   8  10  -9   48.09    9.30
   8 -10  -8   60.29   10.78
   8 -10  -8   65.96   11.27
   8  10  -8   69.54   11.73
  -8 -10  -8   60.14   10.14
   8 -10  -7   22.35    7.20
   8 -10  -7   17.68    5.84
  -8 -10  -7   25.38    6.78
   8  10  -7   14.69    5.54
   8 -10  -6    4.41    2.24
   8 -10  -6    2.63    4.09
  -8 -10  -6    5.75    2.60
   8  10  -6    8.82    5.84
   8 -10  -5   82.57   11.73
   8 -10  -5   84.85   12.27
  -8 -10  -5   86.60   12.35
   8  10  -5   64.82   10.83
   8 -10  -4   23.62    5.75
   8 -10  -4   21.03    5.35
  -8 -10  -4   31.21    7.93
   8  10  -4   28.52    7.88
   8 -10  -3    3.43    2.66
   8 -10  -3   -5.53    4.84
  -8 -10  -3   -0.41    2.43
   8  10  -3   -2.41    4.25
   8 -10  -2   24.39    7.65
   8 -10  -2   17.57    5.74
  -8 -10  -2   38.76    9.72
   8  10  -2   22.98    6.41
   8 -10  -1   41.82    8.83
   8 -10  -1   24.36    6.01
   8  10  -1   36.81    8.68
   8 -10   0    4.26    3.00
  -8 -10   0    1.19    3.94
   8  10   0    9.14    4.60
   8 -10   0    6.90    3.81
   8 -10   1   35.54    7.90
  -8 -10   1   30.19    7.16
   8  10   1   43.97    9.59
   8 -10   2   37.82    8.52
  -8 -10   2   32.03    7.16
   8  10   2   31.64    7.80
   8 -10   3   -4.53    2.14
  -8 -10   3    0.79    2.89
   8 -10   4   37.74    8.44
  -8 -10   4   22.73    7.07
   8  10   4   23.47    6.53
   8 -10   5   67.36   10.94
  -8 -10   5   73.98   12.05
   8  10   5   94.56   13.53
   8 -10   6    6.93    6.18
  -8 -10   6    2.88    3.93
   8  10   6    0.94    4.18
   8 -10   7   28.84    8.10
   8  10   7   28.73    9.17
   8 -10   8   52.77   10.29
   8  10   8   50.93    9.68
   8  10   8   58.64   11.81
   8 -10   9   64.92   10.73
   8  10   9   38.58    9.98
   8  10   9   58.93   10.91
   8 -10  10    2.28    3.33
   8  10  10   -4.41    3.24
   8  10  10    6.10    3.12
   9   0 -23   -2.05    2.43
   9   0 -22    2.04    2.56
   9   0 -21    0.68    2.89
   9   0 -20    2.59    2.80
   9   0 -19    1.65    4.07
   9   0 -18    1.89    3.51
   9   0 -17    3.05    2.83
   9   0 -16   -1.77    2.71
   9   0 -15    0.14    2.42
   9   0 -14    1.49    2.52
   9   0 -13   -0.29    2.44
   9   0 -13   -0.54    1.42
   9   0 -12   -0.86    1.48
   9   0 -12    0.39    0.85
   9   0 -11    1.98    2.00
   9   0 -11    2.84    2.72
   9   0 -10    1.47    2.08
   9   0 -10   -1.36    1.48
   9   0  -9    0.87    2.60
   9   0  -9    1.39    0.88
   9   0  -8   -0.79    1.58
   9   0  -8   -0.94    1.56
   9   0  -7    1.11    2.27
   9   0  -7   -0.84    1.63
   9   0  -6   -0.22    1.52
   9   0  -6    0.39    1.46
   9   0  -5    0.07    1.86
   9   0  -5   -0.81    1.60
   9   0  -4   -0.71    1.76
   9   0  -4   -0.57    0.81
   9   0  -3    1.50    2.18
   9   0  -3    1.70    1.36
   9   0  -2    0.36    1.10
   9   0  -2    0.52    1.50
   9   0  -1    0.49    1.69
   9   0  -1    0.83    1.66
   9   0   0    0.64    2.16
   9   0   0    0.75    1.53
   9   0   0    1.74    1.71
   9   0   1    1.78    1.52
   9   0   1    0.09    1.61
   9   0   1   -0.05    1.67
   9   0   2    0.20    1.41
   9   0   2   -0.82    1.18
   9   0   2   -0.82    1.20
   9   0   3    0.43    1.98
   9   0   3    2.16    2.75
   9   0   3   -1.09    1.71
   9   0   4   -0.82    1.74
   9   0   4    0.44    2.14
   9   0   4    1.02    2.57
   9   0   5    0.56    1.69
   9   0   5   -0.86    1.84
   9   0   5    0.54    1.30
   9   0   6   -1.09    1.69
   9   0   6    2.08    2.59
   9   0   6   -0.83    0.96
   9   0   7   -0.28    1.21
   9   0   7   -0.60    1.11
   9   0   7    0.86    1.36
   9   0   8    0.91    2.09
   9   0   8   -1.91    1.16
   9   0   8   -1.02    2.27
   9   0   9    0.41    2.12
   9   0   9    1.59    1.16
   9   0  10    0.45    1.57
   9   0  10    1.03    2.19
   9   0  11    1.86    2.33
   9   0  11   -0.88    2.16
   9   0  12   -0.65    1.17
   9   0  12   -1.64    2.04
   9   0  13    4.97    3.86
   9   0  13   -0.91    1.67
   9   0  14    0.83    1.76
   9   0  15    0.23    1.35
   9   0  16    0.39    2.28
   9   0  17    0.41    2.01
   9   0  18    0.40    2.47
   9   0  19    2.28    2.91
   9   0  20    3.13    2.99
   9   0  21   -1.82    2.23
   9   0  22    0.46    3.12
   9   0  23    7.71    4.34
   9   0  24   -1.53    3.95
   9   0  25    4.14    5.04
   9   0  26   -0.82    2.39
   9  -1 -24    5.63    3.79
   9  -1 -23   58.68   10.45
   9   1 -22   97.75   13.12
   9  -1 -22   88.33   12.14
   9   1 -21  174.39   16.76
   9  -1 -21  192.59   17.63
   9   1 -20   29.25    6.70
   9  -1 -20   25.37    5.76
   9  -1 -19   61.19    9.82
   9   1 -19   42.42    8.16
   9   1 -18   11.00    3.65
   9  -1 -18    1.04    1.73
   9  -1 -17  969.62   36.49
   9   1 -17  845.37   34.69
   9  -1 -16   69.20    9.92
   9   1 -16   67.81    9.69
   9  -1 -15  402.57   23.29
   9   1 -15  420.15   23.18
   9   1 -14    0.39    2.32
   9  -1 -14    1.37    1.76
   9  -1 -13    4.92    2.56
   9   1 -13    6.59    2.61
   9  -1 -13    8.30    3.83
   9  -1 -12   92.65   10.69
   9   1 -12  120.79   12.40
   9  -1 -12   98.13    8.70
   9  -1 -11 1404.21   40.36
   9   1 -11 1463.78   41.44
   9  -1 -11 1319.68   32.20
   9   1 -10   21.76    5.18
   9  -1 -10   24.86    4.22
   9  -1 -10   24.16    5.74
   9  -1  -9  767.02   29.15
   9   1  -9  727.53   28.64
   9  -1  -9  715.02   24.11
   9  -1  -8  283.18   17.61
   9   1  -8  237.51   16.07
   9  -1  -8  269.59   14.81
   9  -1  -7  316.07   18.42
   9   1  -7  343.42   19.17
   9  -1  -7  319.33   16.03
   9  -1  -6  237.83   15.65
   9   1  -6  230.92   15.58
   9  -1  -6  223.40   13.53
   9   1  -5  707.07   27.43
   9  -1  -5  785.03   25.48
   9  -1  -5  749.86   27.44
   9  -1  -4  317.73   16.27
   9   1  -4  346.30   18.91
   9  -1  -4  338.90   18.28
   9   1  -3  613.92   24.80
   9  -1  -3  566.83   23.33
   9  -1  -3  605.71   22.44
   9   1  -2  304.62   17.60
   9  -1  -2  280.64   16.18
   9  -1  -2  319.32   16.34
   9   1  -1  939.76   30.53
   9   1  -1 1000.70   31.93
   9  -1  -1  963.42   29.80
   9  -1  -1 1015.72   30.11
   9   1   0 1227.44   34.61
   9   1   0 1220.09   35.60
   9  -1   0 1221.29   32.70
   9   1   1 1035.74   31.60
   9  -1   1 1086.37   30.96
   9   1   1 1020.00   32.11
   9  -1   1 1088.03   31.71
   9  -1   1 1007.05   30.18
   9   1   2  324.70   17.74
   9  -1   2  333.84   17.21
   9   1   2  312.92   17.97
   9  -1   2  318.81   17.41
   9  -1   2  321.12   17.22
   9   1   3  554.60   23.22
   9  -1   3  596.09   22.74
   9   1   3  586.04   24.43
   9  -1   3  603.96   23.82
   9   1   4  325.83   17.97
   9  -1   4  341.67   17.06
   9   1   4  309.25   17.86
   9  -1   4  310.93   17.02
   9  -1   4  319.14   17.47
   9   1   5  764.47   27.50
   9  -1   5  734.19   25.13
   9   1   5  683.94   26.87
   9  -1   5  710.93   26.00
   9  -1   5  738.87   26.52
   9   1   6  248.95   15.53
   9  -1   6  230.70   14.08
   9  -1   6  232.38   15.13
   9   1   7  342.72   18.43
   9  -1   7  310.56   16.22
   9   1   7  329.63   19.03
   9  -1   7  323.08   17.47
   9  -1   7  347.16   18.96
   9   1   8  254.80   15.97
   9  -1   8  251.87   14.93
   9   1   8  250.89   16.78
   9  -1   8  284.48   16.53
   9  -1   8  241.62   15.46
   9   1   9  709.11   27.05
   9  -1   9  675.40   23.91
   9   1   9  739.99   28.79
   9  -1   9  699.73   26.74
   9  -1   9  781.97   28.42
   9   1  10   24.76    5.03
   9  -1  10   24.12    4.45
   9  -1  10   19.53    4.70
   9   1  10   24.97    5.89
   9  -1  10   19.08    4.07
   9   1  11 1406.13   38.48
   9   1  11 1395.15   40.82
   9  -1  11 1409.06   38.41
   9  -1  11 1416.68   39.41
   9  -1  12  109.69   10.96
   9   1  12  113.60   11.81
   9  -1  12  125.46   11.74
   9   1  12  100.24   10.39
   9   1  13    8.20    3.43
   9  -1  13    3.09    2.37
   9   1  13    7.59    2.99
   9  -1  13   12.71    4.42
   9   1  14    0.50    1.35
   9  -1  14   -1.14    1.83
   9   1  14    1.10    2.60
   9  -1  15  364.88   21.46
   9   1  15  456.20   24.48
   9  -1  16   72.76    9.61
   9   1  16   63.72    9.68
   9  -1  17  923.10   34.61
   9   1  17  863.78   34.60
   9  -1  18    6.86    3.62
   9   1  18    4.05    1.99
   9   1  19   52.69    9.11
   9  -1  19   43.82    7.72
   9  -1  20   28.94    6.00
   9   1  20   24.67    6.79
   9  -1  21  174.11   16.10
   9   1  21  220.61   18.50
   9   1  22  100.32   12.64
   9   1  23   55.96    9.26
   9   1  24    0.96    2.48
   9   1  25   14.18    4.74
   9   1  26   54.04   10.65
   9   1  27  126.43   15.14
   9  -2 -25    4.55    3.91
   9  -2 -24    2.68    3.52
   9  -2 -23    2.05    2.96
   9  -2 -22   13.25    4.70
   9  -2 -21    2.93    3.52
   9   2 -21   -0.25    2.71
   9  -2 -20   -1.74    3.55
   9   2 -20    3.60    2.78
   9  -2 -19    1.31    2.80
   9   2 -19    0.11    2.21
   9  -2 -18   31.11    6.83
   9   2 -18   24.84    5.40
   9  -2 -17    4.58    2.05
   9   2 -17    2.35    2.47
   9  -2 -16   29.11    6.20
   9   2 -16   31.44    6.40
   9  -2 -15    0.66    2.97
   9   2 -15    4.08    3.45
   9  -2 -14   12.04    2.65
   9  -2 -14   17.84    5.26
   9   2 -14   18.48    4.88
   9  -2 -13    2.65    1.97
   9  -2 -13    3.28    1.74
   9   2 -13    3.63    2.23
   9  -2 -12   47.99    6.56
   9  -2 -12   47.31    7.64
   9   2 -12   49.81    8.26
   9  -2 -11   17.13    3.70
   9   2 -11    9.87    3.98
   9  -2 -10    8.30    2.92
   9  -2 -10    2.78    1.77
   9   2 -10    8.52    4.64
   9  -2  -9    7.50    3.43
   9  -2  -9    8.98    2.96
   9   2  -9    8.88    4.16
   9  -2  -8   75.64    8.02
   9  -2  -8   86.87    9.66
   9   2  -8   73.52    8.88
   9  -2  -7   45.57    6.33
   9  -2  -7   39.88    6.82
   9   2  -7   43.53    6.92
   9  -2  -6    7.63    2.74
   9  -2  -6    6.27    3.00
   9   2  -6    3.37    1.24
   9  -2  -5    6.21    2.51
   9  -2  -5    4.56    1.68
   9   2  -5    4.06    2.88
   9  -2  -4   19.88    4.53
   9  -2  -4   24.43    5.28
   9   2  -4   13.50    3.82
   9  -2  -3   14.28    4.05
   9  -2  -3   12.95    3.61
   9   2  -3   18.17    4.30
   9   2  -3   14.51    4.14
   9  -2  -2   27.01    4.78
   9  -2  -2   20.49    4.30
   9   2  -2   14.40    4.39
   9   2  -2   17.57    4.91
   9  -2  -1   94.04    9.15
   9  -2  -1  109.81   10.18
   9   2  -1   94.83    9.73
   9   2  -1  118.91   11.47
   9  -2   0   29.65    5.23
   9   2   0   33.59    6.05
   9   2   0   35.62    6.18
   9  -2   0   28.06    5.21
   9  -2   1  106.62    9.88
   9   2   1   96.67   10.09
   9   2   1  109.50   10.90
   9  -2   1  112.17    9.93
   9  -2   2   17.99    4.01
   9  -2   2   19.99    4.58
   9   2   2   15.03    4.21
   9   2   2   16.90    4.36
   9  -2   2   16.38    3.89
   9  -2   3   11.92    3.64
   9  -2   3   18.53    3.74
   9   2   3   14.79    3.93
   9   2   3   21.98    5.75
   9  -2   3   13.93    3.76
   9  -2   4   21.34    4.48
   9  -2   4   25.19    4.68
   9   2   4   17.33    4.17
   9   2   4   23.43    5.73
   9  -2   4   15.66    4.01
   9  -2   5    2.63    1.21
   9  -2   5    7.05    2.92
   9   2   5    2.65    1.35
   9   2   5    3.99    1.67
   9  -2   5    6.78    2.59
   9  -2   6    6.71    3.43
   9  -2   6   11.18    3.53
   9   2   6    5.50    3.44
   9   2   6    5.34    3.05
   9  -2   6    7.53    3.35
   9   2   7   44.74    7.05
   9  -2   7   51.56    6.75
   9   2   7   51.27    7.82
   9  -2   7   36.30    6.13
   9  -2   7   42.25    6.40
   9   2   8   81.51    9.41
   9  -2   8   64.67    7.24
   9   2   8   70.08    9.25
   9  -2   8   73.86    8.81
   9  -2   8   82.61    9.34
   9  -2   9    2.36    2.62
   9   2   9    3.45    2.65
   9   2   9    5.22    3.99
   9  -2   9    8.66    2.71
   9  -2   9    6.77    2.39
   9  -2  10   12.42    4.13
   9   2  10    9.33    3.68
   9  -2  10    9.18    2.57
   9  -2  10    6.87    3.55
   9   2  10    1.50    1.65
   9   2  11   20.99    5.61
   9  -2  11   17.25    4.46
   9   2  11   16.47    4.94
   9  -2  11   24.60    5.17
   9  -2  12   44.30    6.76
   9   2  12   55.48    7.98
   9  -2  12   55.67    7.93
   9   2  12   48.66    8.21
   9   2  13    8.40    3.51
   9  -2  13    2.19    2.00
   9   2  13    6.68    2.42
   9  -2  13    4.15    2.91
   9   2  14   11.98    3.68
   9  -2  14    8.41    3.00
   9   2  14   22.77    5.53
   9  -2  14   14.38    4.01
   9   2  15    3.23    2.99
   9   2  15    4.75    4.82
   9  -2  15    6.53    3.46
   9  -2  15    1.79    2.98
   9  -2  16   31.12    7.03
   9   2  16   37.93    7.08
   9  -2  16   23.28    6.12
   9   2  17    2.39    1.73
   9  -2  17    3.15    1.90
   9   2  18   33.16    7.12
   9   2  19    3.54    3.49
   9   2  20    1.41    3.20
   9   2  21    9.73    4.30
   9   2  22   18.14    5.80
   9   2  23    5.94    2.77
   9   2  24    0.42    2.42
   9   2  25    3.14    4.28
   9   2  26   11.85    4.20
   9   2  27    5.90    4.80
   9  -3 -26    6.47    5.71
   9  -3 -25  191.55   18.83
   9  -3 -24   61.50   10.39
   9  -3 -23   40.47    8.76
   9  -3 -22  180.46   17.45
   9  -3 -21  295.30   21.96
   9   3 -20    2.72    5.01
   9  -3 -20   -0.06    2.08
   9   3 -19   37.62    8.25
   9  -3 -19   46.55    8.37
   9  -3 -18  177.22   16.09
   9   3 -18  171.36   16.93
   9  -3 -17  156.37   15.48
   9   3 -17  140.62   14.49
   9  -3 -16  770.12   32.98
   9   3 -16  756.95   33.14
   9  -3 -15  105.99   10.72
   9  -3 -15  128.42   13.03
   9   3 -15  108.55   12.56
   9  -3 -14  140.18   12.23
   9  -3 -14  111.64   12.26
   9   3 -14  132.57   13.78
   9  -3 -13  144.53   12.02
   9  -3 -13  181.07   15.53
   9   3 -13  168.75   15.39
   9  -3 -12  549.01   23.63
   9  -3 -12  621.38   27.99
   9   3 -12  568.91   27.65
   9  -3 -11  877.28   29.85
   9  -3 -11  879.55   32.92
   9  -3 -10 1068.82   32.56
   9  -3 -10 1042.09   35.75
   9   3 -10  981.35   35.22
   9  -3  -9    7.19    3.12
   9   3  -9    4.84    2.38
   9  -3  -9    8.83    3.97
   9  -3  -8  178.11   13.10
   9   3  -8  201.60   15.72
   9  -3  -8  226.93   16.09
   9  -3  -7 1936.36   43.21
   9   3  -7 2003.86   48.76
   9  -3  -7 2031.80   47.64
   9  -3  -6   57.39    7.64
   9   3  -6   53.52    8.43
   9  -3  -6   63.24    8.88
   9  -3  -5 2464.54   49.06
   9   3  -5 2466.42   53.88
   9  -3  -5 2352.31   51.14
   9   3  -5 2485.98   53.77
   9  -3  -4  860.10   28.86
   9   3  -4  846.93   31.27
   9  -3  -4  875.53   30.36
   9   3  -4  844.79   31.46
   9  -3  -3   -0.02    1.28
   9   3  -3    3.15    2.69
   9  -3  -3    0.51    1.11
   9   3  -3    1.95    3.56
   9  -3  -2   30.27    5.58
   9   3  -2   32.08    6.78
   9  -3  -2   32.59    5.75
   9   3  -2   26.55    5.20
   9  -3  -1 3357.73   58.65
   9   3  -1 3203.73   60.45
   9  -3   0    1.52    1.37
   9   3   0    2.36    2.21
   9  -3   0    1.59    1.26
   9   3   0    2.33    2.43
   9  -3   1 3594.00   60.13
   9  -3   1 3457.52   57.32
   9   3   1 3619.67   64.67
   9   3   1 3515.76   63.43
   9  -3   2   20.78    4.58
   9  -3   2   32.41    5.55
   9   3   2   18.67    4.91
   9   3   2   27.50    6.03
   9  -3   2   32.45    5.50
   9  -3   3    0.65    1.84
   9   3   3    1.54    1.60
   9  -3   3   -1.54    1.37
   9   3   3    1.96    3.36
   9  -3   3    0.03    1.49
   9  -3   4  848.35   29.51
   9  -3   4  851.69   27.74
   9   3   4  797.57   30.89
   9   3   4  903.57   32.78
   9  -3   4  840.37   26.17
   9  -3   5 2428.69   50.55
   9   3   5 2483.28   53.87
   9   3   5 2530.82   54.92
   9  -3   5 2653.77   46.13
   9  -3   5 2476.62   47.61
   9   3   6   56.80    8.04
   9   3   6   54.08    8.04
   9  -3   6   58.53    7.32
   9  -3   6   47.51    6.73
   9   3   7 1959.92   48.57
   9  -3   7 2070.46   41.64
   9  -3   7 1976.32   41.03
   9  -3   7 1893.07   44.96
   9   3   8  162.12   14.08
   9   3   8  222.34   16.59
   9  -3   8  193.48   12.83
   9  -3   8  176.98   12.12
   9  -3   8  194.42   14.67
   9  -3   9    5.17    2.39
   9   3   9    7.62    2.97
   9  -3   9    1.49    1.31
   9   3   9    4.74    2.76
   9  -3   9    3.57    2.09
   9  -3  10 1021.35   29.79
   9   3  10 1007.67   35.84
   9  -3  10  965.86   33.34
   9   3  10 1067.95   37.07
   9   3  11  968.96   35.24
   9   3  11  947.37   35.27
   9  -3  11 1002.05   34.23
   9   3  12  539.65   26.50
   9   3  12  553.67   27.14
   9  -3  12  597.81   26.63
   9   3  13  151.23   14.53
   9   3  13  157.60   14.34
   9  -3  13  141.04   13.28
   9   3  14  122.47   12.98
   9   3  14  116.51   13.30
   9  -3  14  118.39   12.31
   9   3  15  119.49   12.87
   9   3  15  141.26   14.34
   9  -3  15  104.49   11.44
   9   3  16  788.55   34.27
   9   3  16  792.98   34.03
   9  -3  16  775.18   32.34
   9   3  17  147.97   14.81
   9   3  17  146.37   15.41
   9  -3  17  112.02   12.52
   9   3  18  212.17   17.47
   9  -3  18  149.62   14.51
   9   3  19   31.70    6.70
   9  -3  19   47.41    7.72
   9   3  20    7.94    4.10
   9   3  21  238.47   20.01
   9   3  22  179.47   16.89
   9   3  23   39.79    7.80
   9   3  24   70.45   11.12
   9   3  25  169.44   17.49
   9   3  26    8.58    5.18
   9  -4 -25    5.62    3.99
   9  -4 -24    4.04    2.63
   9  -4 -23   37.84    8.93
   9  -4 -22    2.60    4.52
   9  -4 -21   14.44    6.44
   9  -4 -20    0.83    2.86
   9  -4 -19    3.58    2.76
   9   4 -18    7.53    4.36
   9  -4 -18    0.56    2.77
   9   4 -17  317.11   22.58
   9  -4 -17  255.73   19.23
   9  -4 -16    6.91    3.47
   9   4 -16    8.64    4.49
   9  -4 -15   18.84    4.89
   9  -4 -15   18.10    4.39
   9   4 -15   14.92    5.06
   9  -4 -14   53.63    7.73
   9   4 -14   57.79    9.33
   9  -4 -14   45.37    8.28
   9  -4 -13   10.60    3.36
   9  -4 -13    6.45    2.51
   9   4 -13    4.33    1.93
   9  -4 -12   97.50   10.32
   9   4 -12   81.18   10.79
   9  -4 -12   91.80   11.14
   9  -4 -11  348.95   19.57
   9   4 -11  380.79   22.46
   9  -4 -10    3.58    2.97
   9  -4 -10    2.69    1.72
   9   4 -10    0.94    3.44
   9  -4  -9  232.83   15.88
   9   4  -9  202.55   16.59
   9  -4  -9  219.29   16.59
   9  -4  -8  149.17   12.85
   9   4  -8  174.25   14.70
   9  -4  -8  155.55   13.60
   9  -4  -7    1.51    1.30
   9  -4  -7    0.20    1.34
   9   4  -7    1.26    2.81
   9   4  -7    0.94    2.71
   9  -4  -6  270.71   17.08
   9   4  -6  258.19   18.15
   9   4  -6  279.37   18.85
   9  -4  -5  120.65   11.10
   9   4  -5  113.83   11.91
   9  -4  -5  128.90   12.32
   9   4  -5   95.01   10.99
   9  -4  -4   81.91    9.19
   9   4  -4   85.13   10.45
   9  -4  -4   93.09   10.34
   9   4  -4   84.87   10.58
   9  -4  -3   26.77    5.82
   9   4  -3   31.66    6.62
   9  -4  -3   35.37    6.36
   9   4  -3   27.71    5.93
   9  -4  -2  184.40   13.92
   9   4  -2  174.98   14.88
   9  -4  -2  186.26   14.20
   9   4  -2  169.29   14.55
   9  -4  -1    3.18    2.03
   9  -4  -1    4.10    2.02
   9   4  -1    0.93    2.49
   9   4  -1    1.72    2.71
   9  -4   0  562.16   24.66
   9   4   0  519.77   25.43
   9  -4   0  519.88   23.29
   9   4   0  574.11   26.46
   9  -4   1    3.76    2.23
   9   4   1    9.62    3.92
   9   4   1    2.27    3.70
   9  -4   1    1.11    1.81
   9  -4   2  201.50   14.85
   9   4   2  204.10   15.92
   9  -4   2  199.33   14.20
   9   4   2  168.21   14.49
   9  -4   2  201.92   12.83
   9  -4   3   35.40    6.60
   9   4   3   28.93    5.70
   9  -4   3   34.23    5.82
   9   4   3   32.54    6.67
   9  -4   3   32.63    5.40
   9  -4   4   82.01    9.66
   9   4   4   97.56   11.60
   9  -4   4   90.85    9.53
   9   4   4   83.97   10.55
   9  -4   4   88.42    8.71
   9   4   5  106.02   12.04
   9  -4   5  127.54   11.77
   9  -4   5  126.36   10.89
   9   4   5  115.62   12.20
   9   4   6  291.36   19.93
   9  -4   6  273.77   17.36
   9  -4   6  248.69   15.10
   9   4   6  260.16   18.50
   9  -4   7   -1.16    2.20
   9   4   7   -2.17    3.00
   9  -4   7    0.91    1.67
   9   4   7   -0.45    2.77
   9  -4   8  153.67   13.41
   9   4   8  142.61   14.22
   9  -4   8  158.90   12.42
   9   4   8  151.39   14.44
   9  -4   9  236.25   16.71
   9   4   9  193.59   16.14
   9   4   9  242.31   18.64
   9  -4  10    6.58    4.00
   9   4  10    1.93    2.31
   9   4  10    0.69    3.04
   9   4  11  284.04   19.51
   9   4  11  355.75   22.96
   9  -4  11  341.78   20.34
   9   4  12   75.00   10.55
   9  -4  12   86.01   10.49
   9   4  13    4.13    1.56
   9  -4  13    7.01    2.41
   9   4  13   10.09    4.36
   9  -4  14   34.59    7.53
   9   4  14   35.27    6.98
   9   4  14   44.58    8.55
   9  -4  15   27.08    5.94
   9   4  15   22.18    5.93
   9   4  15   28.10    6.80
   9  -4  16    5.44    3.37
   9   4  16   12.75    4.62
   9   4  16    2.63    2.40
   9   4  17  332.42   22.34
   9   4  17  286.28   21.44
   9  -4  17  300.45   20.60
   9   4  18    9.04    5.21
   9   4  18    0.65    3.55
   9  -4  18    6.23    2.36
   9   4  19    6.51    2.26
   9  -4  19   -4.41    2.70
   9   4  20    2.14    3.90
   9   4  21    5.31    3.62
   9   4  22   -0.91    2.05
   9   4  23   20.11    5.84
   9   4  24    2.98    2.99
   9   4  25    7.27    4.71
   9  -5 -24   -0.36    2.41
   9  -5 -23   34.45    8.17
   9  -5 -22   42.43    8.16
   9  -5 -21  112.09   13.33
   9  -5 -20    7.77    3.20
   9  -5 -19   18.47    6.20
   9  -5 -18    1.87    2.02
   9  -5 -17   35.62    8.04
   9   5 -17   29.70    7.99
   9  -5 -16   55.72    9.18
   9   5 -16   42.55    9.01
   9  -5 -16   58.91    9.74
   9  -5 -15  353.12   21.78
   9   5 -15  317.47   22.34
   9  -5 -15  347.03   22.52
   9  -5 -14   33.23    7.10
   9  -5 -14   23.30    5.75
   9   5 -14   12.94    3.86
   9  -5 -13   24.17    5.31
   9  -5 -13   13.31    5.20
   9   5 -13   17.32    5.48
   9  -5 -12   51.99    8.31
   9  -5 -12   38.37    7.34
   9   5 -12   34.88    6.87
   9  -5 -11  411.90   22.91
   9   5 -11  390.39   23.85
   9  -5 -11  446.41   24.85
   9   5 -11  418.94   24.84
   9  -5 -10   14.17    4.02
   9  -5 -10   17.49    5.01
   9   5 -10    7.35    2.53
   9   5 -10    6.13    3.02
   9  -5  -9   11.22    4.81
   9  -5  -9   18.35    5.74
   9   5  -9    4.29    1.81
   9   5  -9   13.00    4.83
   9  -5  -8   -3.32    2.58
   9  -5  -8    1.76    2.59
   9   5  -8    2.40    1.86
   9   5  -8    6.44    4.75
   9  -5  -7   93.86   10.85
   9   5  -7   90.09   11.28
   9  -5  -7  102.95   11.62
   9   5  -7  124.05   12.90
   9  -5  -6   14.29    5.02
   9   5  -6   12.82    2.83
   9  -5  -6   31.32    6.55
   9   5  -6   25.96    5.94
   9  -5  -5  674.85   28.72
   9   5  -5  684.25   30.61
   9  -5  -5  643.93   28.33
   9   5  -5  716.09   30.97
   9   5  -4   53.99    8.65
   9  -5  -4   41.20    7.13
   9  -5  -4   44.61    7.49
   9   5  -4   42.63    7.53
   9  -5  -3   13.46    3.89
   9  -5  -3   16.03    5.00
   9   5  -3   16.92    5.81
   9   5  -3   13.89    4.72
   9  -5  -2    9.46    3.47
   9  -5  -2   14.40    4.45
   9   5  -2   13.53    5.28
   9   5  -2    5.39    2.61
   9   5  -1  670.16   30.18
   9  -5  -1  623.35   27.16
   9  -5  -1  668.41   28.04
   9   5  -1  570.26   27.65
   9  -5   0   25.46    5.95
   9  -5   0   33.55    6.38
   9   5   0   22.11    7.08
   9   5   0   38.52    6.76
   9   5   1  656.23   29.88
   9  -5   1  710.53   29.28
   9  -5   1  612.88   26.34
   9   5   1  619.83   28.71
   9  -5   2   13.35    4.66
   9  -5   2   20.50    4.92
   9   5   2   10.59    4.73
   9   5   2   15.98    5.63
   9  -5   3   12.67    4.31
   9  -5   3   13.15    4.34
   9   5   3   17.67    5.42
   9   5   3   10.73    3.80
   9  -5   4   62.21    8.44
   9  -5   4   57.90    8.15
   9   5   4   46.07    7.98
   9   5   4   45.39    8.13
   9  -5   5  685.77   29.04
   9  -5   5  635.52   26.57
   9   5   5  695.91   30.44
   9   5   5  718.27   32.56
   9   5   6   23.89    6.47
   9  -5   6   31.24    6.87
   9   5   6   16.82    5.37
   9  -5   6   23.36    4.40
   9  -5   7  110.08   11.87
   9  -5   7   98.12   10.14
   9   5   7   95.86   11.33
   9   5   7  105.68   11.96
   9   5   8    3.59    2.15
   9  -5   8    2.39    3.57
   9   5   8   -0.07    2.03
   9   5   9    8.72    3.28
   9  -5   9   15.96    4.64
   9   5   9   11.95    4.68
   9   5  10   20.59    5.66
   9  -5  10   24.38    6.01
   9   5  10   12.70    4.05
   9  -5  11  435.41   24.07
   9   5  11  414.08   24.27
   9   5  11  470.54   27.47
   9   5  12   43.82    8.39
   9  -5  12   45.61    8.11
   9   5  12   48.42    8.92
   9  -5  13   22.16    5.73
   9   5  13   26.95    6.45
   9   5  13   20.26    6.37
   9  -5  14   29.71    6.63
   9   5  14   19.60    6.11
   9   5  14   16.85    5.36
   9   5  15  367.10   23.66
   9   5  15  351.72   24.37
   9  -5  15  355.53   22.44
   9  -5  16   34.36    7.38
   9   5  16   40.84    8.35
   9   5  16   61.36   10.09
   9  -5  17   39.04    7.93
   9   5  17   21.31    6.18
   9   5  17   26.61    7.23
   9  -5  18    2.48    3.14
   9   5  18    3.10    3.05
   9   5  18   -0.99    1.98
   9   5  19   24.88    6.27
   9   5  19   31.44    9.36
   9   5  20    4.85    4.98
   9   5  21  138.43   15.20
   9   5  22   34.71    7.97
   9   5  23   28.29    7.76
   9   5  24    4.42    3.60
   9  -6 -23   -3.67    5.53
   9  -6 -22    4.70    3.17
   9  -6 -21    8.19    2.08
   9  -6 -20    2.52    2.31
   9  -6 -19   53.02    9.35
   9  -6 -18   30.69    7.17
   9  -6 -17   18.46    5.62
   9  -6 -16   29.67    6.81
   9   6 -16   29.22    6.89
   9  -6 -16   31.54    7.03
   9   6 -15   91.53   12.53
   9  -6 -15   92.26   11.88
   9  -6 -15  114.48   13.07
   9   6 -15  110.06   13.56
   9  -6 -14    7.33    4.86
   9   6 -14    4.16    3.45
   9  -6 -14    1.08    3.25
   9   6 -14    6.33    4.52
   9  -6 -13   33.60    6.90
   9   6 -13   39.22    7.95
   9  -6 -13   37.86    7.67
   9   6 -13   35.76    7.95
   9  -6 -12   11.84    3.00
   9   6 -12    7.71    4.56
   9  -6 -12    9.97    3.31
   9   6 -12   18.70    5.86
   9  -6 -11   -0.99    1.98
   9   6 -11    1.42    2.30
   9  -6 -11   -0.14    1.65
   9   6 -11    3.30    3.47
   9  -6 -10   29.13    7.16
   9   6 -10   45.60    8.78
   9  -6 -10   35.32    6.94
   9   6 -10   32.54    7.17
   9  -6  -9   23.16    5.40
   9   6  -9   12.09    4.39
   9  -6  -9   19.40    4.94
   9   6  -9   21.62    5.24
   9   6  -8   85.14   11.62
   9  -6  -8   75.47    9.70
   9   6  -8   83.97   11.38
   9  -6  -8   93.74   11.25
   9   6  -7  139.23   14.81
   9  -6  -7   94.23   11.03
   9   6  -7   99.54   12.24
   9  -6  -7  123.10   12.76
   9  -6  -6   -0.39    3.28
   9   6  -6   -1.70    2.68
   9  -6  -6   -0.44    2.31
   9   6  -6    5.86    3.03
   9  -6  -5   25.34    5.81
   9   6  -5    7.71    3.96
   9  -6  -5   13.75    4.38
   9   6  -5   16.39    4.99
   9   6  -4   11.53    5.51
   9  -6  -4   17.20    4.29
   9  -6  -4   22.22    5.86
   9   6  -4   23.04    6.50
   9  -6  -3    9.42    3.57
   9  -6  -3   19.52    5.54
   9   6  -3    9.96    4.26
   9   6  -2    9.24    5.52
   9  -6  -2    2.41    1.71
   9  -6  -2    7.04    3.70
   9   6  -2    1.66    2.45
   9  -6  -1  101.82   11.90
   9   6  -1  102.19   12.14
   9  -6  -1  101.73   11.43
   9   6  -1  111.23   13.43
   9  -6   0  125.98   12.56
   9   6   0  160.09   15.04
   9  -6   0  138.65   13.32
   9   6   0  164.80   15.73
   9  -6   1   86.00   10.72
   9  -6   1   88.50   10.33
   9   6   1   93.65   11.45
   9   6   1   99.53   12.47
   9   6   2    2.13    2.07
   9  -6   2    6.15    2.78
   9  -6   2    6.74    3.07
   9   6   2    7.39    2.59
   9   6   3    3.34    2.99
   9  -6   3    9.19    4.36
   9  -6   3   13.20    4.55
   9   6   3   12.51    5.02
   9   6   4   18.99    5.51
   9  -6   4   22.53    5.61
   9  -6   4   12.82    4.71
   9   6   4   22.09    5.88
   9  -6   5    8.74    2.26
   9   6   5   10.78    3.81
   9  -6   5    6.45    3.67
   9   6   5   10.26    3.01
   9   6   6    1.08    2.92
   9  -6   6    1.27    1.73
   9   6   6    0.62    2.46
   9  -6   6   -5.07    2.44
   9  -6   7  129.10   13.09
   9   6   7  114.57   12.77
   9   6   7  122.40   13.56
   9  -6   8   87.13   10.86
  -9  -6   8   96.30   11.67
   9   6   8   80.54   10.83
   9   6   8   93.64   12.27
   9   6   9   23.97    6.44
   9  -6   9   30.37    7.19
   9   6   9   20.68    6.28
   9   6  10   28.60    7.64
   9  -6  10   31.21    6.69
   9   6  10   28.70    6.83
   9  -6  11    2.52    2.24
   9   6  11    1.69    2.79
   9   6  11    3.56    2.88
   9  -6  12   20.65    5.32
   9   6  12    1.43    3.22
   9   6  12   16.70    6.03
   9  -6  13   40.13    6.93
   9   6  13   47.35    8.73
   9   6  13   51.72    8.84
   9  -6  14    0.45    2.97
   9   6  14    0.06    2.76
   9   6  14    6.40    4.87
   9   6  15  111.38   13.63
   9   6  15   91.74   13.19
   9  -6  15   85.74   11.30
   9  -6  16   26.51    7.44
   9   6  16   53.10    9.58
   9   6  16   43.83    9.07
   9  -6  17    9.22    2.68
   9   6  17   20.19    6.26
   9   6  17    9.52    4.95
   9   6  18   37.99    9.26
   9   6  18   18.66    7.12
   9   6  19   42.81    8.87
   9   6  19   34.43    8.91
   9   6  20    7.29    5.85
   9   6  20   33.42   10.55
   9   6  21    8.33    3.72
   9   6  22    5.69    3.20
   9   6  23    0.73    3.22
   9  -7 -20   19.43    7.39
   9  -7 -19   -4.54    3.48
   9  -7 -18    8.55    4.57
   9  -7 -17   75.13   11.58
   9  -7 -16    8.20    5.22
   9  -7 -16    8.76    5.13
   9  -7 -15  382.40   24.74
   9  -7 -15  316.45   22.82
   9   7 -14    1.94    4.34
   9  -7 -14    5.56    2.99
   9  -7 -14   10.62    5.13
   9   7 -13   39.12    9.09
   9  -7 -13   48.15    8.92
   9  -7 -13   40.11    7.80
   9   7 -12    8.61    4.62
   9  -7 -12   12.88    5.26
   9  -7 -12    4.08    2.98
   9   7 -12   -1.69    3.77
   9  -7 -11  352.47   23.19
   9   7 -11  337.36   24.22
   9  -7 -11  309.65   21.85
   9   7 -11  365.34   25.42
   9   7 -10    9.29    4.85
   9  -7 -10   18.72    5.59
   9  -7 -10   21.25    6.06
   9   7 -10   14.36    5.95
   9  -7  -9   76.99   10.33
   9   7  -9   84.25   11.91
   9  -7  -9   75.94   10.88
   9   7  -9  101.43   13.32
   9   7  -8   20.27    5.91
   9  -7  -8   35.83    7.28
   9  -7  -8   18.22    5.50
   9   7  -8   25.12    6.45
   9   7  -7   13.69    4.87
   9  -7  -7    1.61    2.26
   9  -7  -7    7.83    3.70
   9  -7  -6   93.04   11.81
   9   7  -6   86.58   11.18
   9  -7  -6  100.00   12.19
   9   7  -6   86.44   12.71
   9  -7  -5  396.07   23.85
   9   7  -5  384.51   24.70
   9  -7  -5  362.74   22.78
   9   7  -5  396.46   25.63
   9   7  -4    9.85    4.74
   9  -7  -4   11.64    5.32
   9  -7  -4    3.30    2.84
   9   7  -4    6.84    3.95
   9   7  -3   24.72    7.08
   9  -7  -3   44.83    8.21
   9   7  -3   38.47    8.21
   9  -7  -3   40.49    8.11
   9   7  -2    1.00    3.78
   9  -7  -2    5.88    4.12
   9  -7  -2    7.09    3.63
   9   7  -2    0.04    3.31
   9  -7  -1  213.09   16.97
   9   7  -1  215.71   17.84
   9  -7  -1  226.56   17.57
   9   7  -1  231.85   19.52
   9  -7   0  417.10   24.61
   9   7   0  411.20   24.68
   9  -7   0  355.89   22.18
   9   7   0  409.00   25.85
   9  -7   1  223.83   18.02
   9   7   1  187.12   17.14
   9  -7   1  217.31   17.30
   9   7   1  238.51   19.69
   9   7   2    1.96    2.71
   9  -7   2    2.61    1.51
   9  -7   2    6.49    3.93
   9   7   2    3.37    1.83
   9   7   3   30.26    6.11
   9  -7   3   23.60    6.30
   9  -7   3   37.26    7.19
  -9  -7   3   34.55    7.25
   9   7   4    2.22    4.25
   9  -7   4    2.70    3.26
   9  -7   4    0.59    1.52
  -9  -7   4    6.45    4.37
   9   7   4    3.37    3.85
  -9  -7   5  443.63   25.10
   9  -7   5  377.83   23.33
   9   7   5  464.58   26.66
   9   7   5  444.39   27.53
   9  -7   6  101.58   12.37
  -9  -7   6  101.72   11.68
   9   7   6   92.68   12.27
   9   7   6  103.01   13.60
   9   7   7   13.61    5.64
   9  -7   7    6.98    2.61
   9   7   7    8.50    3.87
  -9  -7   7    9.86    3.96
   9  -7   8   15.64    5.34
  -9  -7   8   19.63    7.12
   9   7   8   17.36    5.19
   9   7   8   22.75    6.45
   9  -7   9   74.34   10.70
   9   7   9   73.92   11.05
   9   7   9   78.64   11.85
   9  -7  10   23.76    6.77
   9   7  10   11.86    4.37
   9   7  10   18.53    6.40
   9  -7  11  391.78   24.35
   9   7  11  318.05   22.75
   9   7  11  400.30   26.74
   9  -7  12    2.83    1.85
   9   7  12    5.76    3.53
   9   7  12    4.95    3.70
   9  -7  13   36.12    7.65
   9   7  13   41.13    8.33
   9   7  13   41.30    8.48
   9  -7  14   -4.24    2.51
   9   7  14    6.57    5.29
   9   7  14    7.86    5.91
   9  -7  15  346.48   23.89
   9   7  15  359.72   24.85
   9   7  15  378.58   26.29
   9  -7  16    9.75    4.27
   9   7  16   -1.54    3.85
   9   7  16    4.00    2.79
   9   7  17  101.58   13.51
   9   7  17   87.09   12.82
   9   7  18    1.55    4.15
   9   7  18   11.71    5.84
   9   7  19   -2.27    2.88
   9   7  19    1.22    2.60
   9   7  20   27.52    6.79
   9   7  20   28.94    9.23
   9  -8 -18   24.02    7.10
  -9  -8 -18   18.15    6.02
   9  -8 -17   -4.78    3.74
   9  -8 -17    2.14    3.69
  -9  -8 -17    3.10    2.33
   9  -8 -16    7.35    4.92
   9  -8 -16    2.80    4.34
  -9  -8 -16    3.32    4.25
   9  -8 -15   10.16    5.53
   9  -8 -15    4.15    3.30
  -9  -8 -15   -1.30    3.96
   9  -8 -14   21.09    6.46
   9  -8 -14   13.22    5.28
  -9  -8 -14   16.40    5.52
   9   8 -13   -2.07    2.93
   9  -8 -13    0.95    3.37
   9  -8 -13   -1.83    2.75
  -9  -8 -13    1.04    3.53
   9   8 -12    7.81    6.77
   9  -8 -12    1.36    2.84
  -9  -8 -12    9.23    5.38
   9  -8 -12    8.97    4.25
   9   8 -11   10.59    6.20
   9  -8 -11    0.41    3.53
  -9  -8 -11    9.40    5.52
   9  -8 -11    7.28    3.15
   9   8 -10    7.31    4.62
   9  -8 -10   15.37    5.51
  -9  -8 -10    4.42    2.77
   9  -8 -10    6.01    3.15
   9   8  -9    6.39    5.30
   9  -8  -9    5.90    4.55
  -9  -8  -9    0.93    2.86
   9  -8  -9    2.10    3.15
   9   8  -8    1.55    4.64
   9  -8  -8   16.47    5.65
  -9  -8  -8   15.03    5.44
   9  -8  -8   10.25    5.14
   9   8  -7   25.00    7.59
   9  -8  -7   15.52    5.09
  -9  -8  -7   13.34    4.85
   9  -8  -7   15.56    5.40
   9   8  -6   62.67   10.55
   9  -8  -6   41.68    8.38
  -9  -8  -6   53.86    9.97
   9   8  -6   49.20    8.86
   9  -8  -6   58.40    9.95
   9   8  -5    6.95    4.37
   9  -8  -5    3.07    2.67
  -9  -8  -5    5.26    2.23
   9  -8  -5    3.33    3.00
   9   8  -5    0.87    3.10
   9   8  -4   -1.35    3.25
   9  -8  -4    0.08    2.94
  -9  -8  -4    1.07    1.95
   9  -8  -4    5.40    3.89
   9   8  -4    6.06    4.19
   9   8  -3   30.72    8.28
   9  -8  -3   13.85    5.85
  -9  -8  -3   11.22    4.34
   9  -8  -3   15.90    5.12
   9   8  -3   12.67    3.74
   9   8  -2   43.73    9.41
   9  -8  -2   30.90    6.95
   9  -8  -2   28.78    7.23
   9   8  -2   42.15    8.22
  -9  -8  -2   39.09    8.34
   9   8  -1    8.17    3.65
   9  -8  -1    0.27    3.17
  -9  -8  -1    2.02    2.14
   9  -8  -1   -0.29    1.50
   9   8  -1    3.54    2.58
   9  -8   0   31.47    7.29
   9   8   0   45.35    9.58
   9  -8   0   38.49    7.59
  -9  -8   0   45.36    8.34
   9   8   0   38.87    8.81
   9   8   1    2.79    3.47
   9  -8   1   -2.55    3.49
   9  -8   1    1.23    2.57
  -9  -8   1    2.79    2.56
   9   8   1   -0.25    2.87
   9   8   2   35.93    9.11
   9  -8   2   35.16    7.68
   9  -8   2   35.06    7.58
  -9  -8   2   27.91    6.72
   9   8   2   15.85    5.18
   9   8   3   14.41    5.10
   9  -8   3   12.65    5.08
   9  -8   3   21.98    5.94
  -9  -8   3   20.96    6.23
   9   8   3   10.38    4.29
   9   8   4    2.74    1.76
   9  -8   4    9.77    4.55
  -9  -8   4   -0.47    2.66
   9   8   4    5.89    4.57
   9  -8   5    6.60    4.07
  -9  -8   5   10.09    2.97
   9   8   5    8.62    4.28
   9   8   5    5.69    5.59
   9  -8   6   33.36    7.35
  -9  -8   6   59.72   10.10
   9   8   6   51.69    9.00
   9   8   6   64.44   10.05
   9  -8   7   13.65    4.85
  -9  -8   7   11.75    3.58
   9   8   7   21.43    6.80
   9   8   7   15.34    5.58
   9  -8   8   19.70    5.43
   9   8   8   19.52    6.86
   9   8   8   11.04    3.53
   9  -8   9   -2.15    1.70
   9   8   9    2.24    4.91
   9   8   9    5.69    4.90
   9  -8  10   10.72    4.76
   9   8  10   12.78    5.29
   9   8  10   13.07    4.48
   9  -8  11    7.76    1.90
   9   8  11    8.90    4.55
   9   8  11    6.09    2.51
   9  -8  12   10.83    5.22
   9   8  12    7.25    2.70
   9   8  12    8.91    5.47
   9   8  13    2.69    3.78
   9  -8  13   -5.44    2.00
   9   8  13    5.46    2.88
   9  -8  14   13.57    5.05
   9   8  14   11.56    4.50
   9   8  14   17.27    6.99
   9  -8  15   19.60    6.75
   9   8  15    8.93    4.68
   9   8  15    9.76    4.24
   9  -8  16   13.19    6.41
   9   8  16    1.26    3.25
   9   8  16   11.09    5.95
   9   8  17    0.05    2.79
   9   8  17   -0.11    2.32
   9   8  18   20.16    5.68
   9   8  18    9.26    5.02
   9  -9 -14    2.70    2.64
   9  -9 -14   -1.06    2.47
  -9  -9 -13   14.04    6.14
   9  -9 -13   30.17    8.04
   9  -9 -13   19.81    6.27
   9  -9 -12    5.87    4.86
  -9  -9 -12    6.26    3.60
   9  -9 -12    7.69    4.03
   9   9 -11   83.15   13.19
   9  -9 -11  124.09   14.67
  -9  -9 -11  121.58   14.33
   9  -9 -11   77.79   12.05
   9  -9 -10  106.72   13.81
  -9  -9 -10   94.50   13.49
   9   9 -10  110.13   15.73
   9  -9 -10  131.99   15.01
   9  -9  -9  136.17   15.40
  -9  -9  -9  102.81   13.58
   9   9  -9  114.89   15.36
   9  -9  -9  102.83   13.46
   9   9  -8    6.16    4.17
   9  -9  -8   10.63    3.99
  -9  -9  -8    3.52    2.43
   9  -9  -8    1.37    4.34
   9  -9  -7   95.94   12.44
  -9  -9  -7  104.77   13.52
   9   9  -7  103.09   14.69
   9  -9  -7   96.97   12.73
   9  -9  -6   79.52   11.62
  -9  -9  -6   67.08   10.19
   9   9  -6   91.66   13.44
   9  -9  -6   74.58   10.85
   9  -9  -5  315.24   22.77
  -9  -9  -5  301.12   22.48
   9   9  -5  341.66   25.63
   9  -9  -5  336.32   23.58
   9   9  -4   10.22    3.90
   9  -9  -4    3.18    4.14
  -9  -9  -4   12.20    6.22
   9  -9  -4    2.05    2.59
   9   9  -3    1.58    3.15
   9  -9  -3   -3.61    4.28
  -9  -9  -3    0.55    3.83
   9  -9  -3    0.79    2.40
   9   9  -2   -1.17    2.30
  -9  -9  -2    5.65    3.34
   9  -9  -2    2.28    3.93
   9  -9  -2    3.03    3.37
   9  -9  -1  167.75   16.41
  -9  -9  -1  144.18   15.45
   9   9  -1  159.93   17.87
   9  -9  -1  156.40   16.26
   9  -9   0  122.77   14.29
  -9  -9   0  122.94   14.65
   9   9   0  138.12   15.81
   9   9   0  121.46   14.64
   9  -9   0  101.84   12.75
   9  -9   1  119.67   13.79
  -9  -9   1  116.57   13.93
   9   9   1  141.25   16.24
   9   9   1  141.52   16.22
   9  -9   1  146.94   15.70
   9  -9   2   -0.40    3.26
  -9  -9   2    4.13    2.38
   9   9   2    9.72    5.57
   9   9   2    6.67    3.83
   9  -9   3    2.51    3.94
  -9  -9   3    2.09    3.22
   9   9   3   -3.45    5.55
   9   9   3    1.17    2.67
   9  -9   4    1.10    2.67
  -9  -9   4   10.81    5.16
   9   9   4    5.23    3.02
   9   9   4    5.75    2.98
   9  -9   5  331.46   23.65
  -9  -9   5  325.02   23.43
   9   9   5  321.13   24.03
   9   9   5  324.99   24.92
   9  -9   6   73.10   10.85
  -9  -9   6   70.21   10.96
   9   9   6   89.64   12.94
   9   9   6   66.23   11.20
   9  -9   7   84.65   12.00
   9   9   7  101.98   13.21
   9   9   7   72.52   11.67
   9   9   8   -1.09    2.74
   9   9   8    0.41    2.65
   9  -9   9  101.37   13.33
   9   9   9   97.30   13.62
   9   9   9  115.88   14.94
   9  -9  10  120.77   15.11
   9   9  10  123.96   15.33
   9   9  10   95.36   13.34
   9  -9  11  108.62   14.00
   9   9  11  104.20   13.74
   9  -9  12   10.00    5.45
   9   9  12    8.79    6.04
   9   9  12    8.84    6.12
   9  -9  13   15.71    6.82
   9   9  13   17.33    6.84
   9   9  13   13.58    5.33
   9  -9  14    3.35    4.28
   9   9  14    0.17    3.92
   9   9  14    3.54    3.92
   9 -10  -8  105.03   13.45
  -9 -10  -8  118.23   14.91
   9  10  -8   99.24   14.56
   9 -10  -8   91.18   13.20
   9 -10  -7   24.34    7.11
  -9 -10  -7   26.51    6.74
   9 -10  -7   16.23    6.24
   9  10  -7    4.94    6.83
   9 -10  -6  191.84   17.96
  -9 -10  -6  157.30   16.76
   9  10  -6  187.19   19.02
   9 -10  -6  193.18   19.28
   9 -10  -5   42.83    8.56
  -9 -10  -5   35.44    8.17
   9 -10  -5   43.04    8.89
   9  10  -5   36.25    8.73
   9 -10  -4    1.83    3.11
  -9 -10  -4   12.87    5.32
   9 -10  -4    6.90    4.18
   9 -10  -3    7.98    4.77
  -9 -10  -3    7.60    4.85
   9 -10  -3    2.52    3.57
   9  10  -3    7.78    4.36
   9 -10  -2   97.10   12.63
  -9 -10  -2   80.10   11.79
   9 -10  -2   91.58   12.41
   9  10  -2   71.49   12.35
   9 -10  -1   18.29    5.94
  -9 -10  -1   19.70    6.32
   9 -10  -1   15.38    4.52
   9  10  -1    9.01    4.67
   9 -10   0  211.14   19.09
  -9 -10   0  227.60   20.21
   9  10   0  229.51   21.66
   9 -10   1   23.48    7.28
  -9 -10   1   29.70    8.10
   9  10   1   24.40    7.72
   9 -10   2   79.20   11.99
  -9 -10   2   74.25   11.36
   9  10   2   85.86   12.80
   9 -10   3    5.15    4.23
  -9 -10   3    1.74    2.30
   9  10   3    6.68    4.27
   9 -10   4   15.59    7.24
  -9 -10   4   13.25    5.50
   9  10   4    8.40    5.83
   9 -10   5   42.38    9.72
  -9 -10   5   35.68    9.64
   9  10   5   36.62    9.07
   9 -10   6  181.37   17.68
   9  10   6  169.94   19.00
   9 -10   7   15.53    5.72
   9  10   7   19.03    6.99
   9  10   7    9.81    4.37
   9 -10   8  105.78   13.81
   9  10   8   77.05   12.49
   9  10   8   83.80   12.98
  10   0 -24   97.38   14.23
  10   0 -23  197.01   19.25
  10   0 -22   80.58   12.30
  10   0 -21  352.30   24.33
  10   0 -20   84.12   11.79
  10   0 -19   66.94   10.87
  10   0 -18  235.32   19.04
  10   0 -17  406.16   24.40
  10   0 -16  105.83   12.89
  10   0 -15  414.51   24.23
  10   0 -14  214.75   17.33
  10   0 -13  195.90   16.46
  10   0 -12  365.88   22.34
  10   0 -12  344.35   16.74
  10   0 -11  427.96   23.44
  10   0 -11  450.23   19.47
  10   0 -10  118.23   12.43
  10   0 -10   86.53    8.36
  10   0  -9  304.20   19.46
  10   0  -9  337.33   16.81
  10   0  -8  300.54   19.16
  10   0  -8  323.88   16.48
  10   0  -7  157.35   13.29
  10   0  -7  143.39   11.12
  10   0  -6   80.54    9.44
  10   0  -6   64.25    7.37
  10   0  -5  314.26   18.89
  10   0  -5  333.67   17.17
  10   0  -4  364.40   19.88
  10   0  -4  414.91   19.12
  10   0  -3  244.04   16.28
  10   0  -3  262.24   15.44
  10   0  -2  266.89   16.67
  10   0  -2  274.50   15.80
  10   0  -1  185.19   14.11
  10   0  -1  168.35   12.49
  10   0   0    4.52    3.35
  10   0   0   -0.04    1.68
  10   0   0    1.14    1.67
  10   0   1  195.33   14.23
  10   0   1  177.50   13.68
  10   0   2  254.56   16.23
  10   0   2  247.19   16.05
  10   0   2  258.90   15.83
  10   0   3  261.56   16.37
  10   0   3  276.78   17.16
  10   0   3  254.17   15.87
  10   0   4  377.28   19.60
  10   0   4  417.93   21.15
  10   0   5  352.16   19.28
  10   0   5  321.29   18.72
  10   0   5  329.19   18.07
  10   0   6   75.19    8.59
  10   0   6   76.09    8.99
  10   0   6   65.40    8.61
  10   0   7  136.81   11.89
  10   0   7  129.12   12.28
  10   0   7  160.67   13.10
  10   0   8  285.44   17.17
  10   0   8  288.72   18.28
  10   0   9  310.29   17.83
  10   0   9  305.48   18.98
  10   0  10  107.97   10.70
  10   0  10  106.75   11.76
  10   0  11  464.31   22.22
  10   0  11  449.06   23.57
  10   0  12  349.58   19.23
  10   0  12  383.13   22.05
  10   0  13  237.26   17.38
  10   0  14  207.81   16.73
  10   0  15  458.80   24.63
  10   0  16   99.17   11.83
  10   0  17  404.68   23.99
  10   0  18  236.89   18.52
  10   0  19   72.91   10.51
  10   0  20  107.43   13.22
  10   0  21  321.75   22.48
  10   0  22   76.76   10.52
  10   0  23  143.32   16.18
  10   0  24  106.67   13.26
  10   0  25   -1.95    2.12
  10  -1 -25   11.30    5.92
  10  -1 -24   10.15    5.28
  10  -1 -23    3.41    3.52
  10  -1 -22    4.15    2.02
  10   1 -22    1.87    2.56
  10  -1 -21   16.59    4.83
  10   1 -21   16.69    5.39
  10  -1 -20   23.57    6.80
  10   1 -20   23.00    7.09
  10   1 -19   15.39    5.56
  10  -1 -19   13.00    4.79
  10   1 -18    5.99    3.67
  10  -1 -18   12.01    3.69
  10   1 -17   13.05    4.35
  10  -1 -17   14.88    5.42
  10   1 -16   11.84    4.06
  10  -1 -16   15.22    4.36
  10   1 -15   28.91    6.84
  10  -1 -15   27.05    6.24
  10   1 -14    5.39    3.55
  10  -1 -14    6.42    3.95
  10  -1 -13   42.07    7.45
  10   1 -13   47.02    8.38
  10  -1 -13   40.09    6.41
  10   1 -12   40.94    7.46
  10  -1 -12   48.48    6.76
  10   1 -11    1.09    1.69
  10  -1 -11    4.06    2.29
  10  -1 -11    0.92    3.14
  10   1 -10   16.95    4.22
  10  -1 -10    6.76    2.53
  10  -1 -10    8.51    4.62
  10  -1  -9   17.70    4.21
  10  -1  -9   20.87    4.91
  10   1  -9   17.79    3.97
  10  -1  -8    0.74    0.97
  10  -1  -8    2.39    2.81
  10   1  -8    5.48    3.86
  10   1  -7   51.17    8.07
  10  -1  -7   52.27    7.10
  10  -1  -7   44.33    7.68
  10   1  -6   27.12    5.81
  10  -1  -6   33.15    5.82
  10  -1  -6   32.84    6.50
  10  -1  -5   -0.62    0.98
  10  -1  -5    0.87    1.45
  10   1  -5   -1.04    2.23
  10  -1  -4    7.39    2.47
  10  -1  -4    9.32    3.03
  10   1  -4    6.00    1.96
  10  -1  -3    4.20    2.62
  10  -1  -3    2.86    1.65
  10   1  -3    6.46    3.20
  10  -1  -2    3.47    2.00
  10  -1  -2    2.27    1.92
  10   1  -2   10.47    3.13
  10   1  -2    7.65    1.86
  10  -1  -1   29.81    5.27
  10   1  -1   46.78    7.52
  10   1  -1   32.91    6.32
  10  -1  -1   34.37    6.43
  10  -1   0   25.31    5.21
  10   1   0   23.55    5.24
  10   1   0   29.55    5.90
  10  -1   0   31.56    5.55
  10  -1   1   29.52    5.20
  10   1   1   37.19    6.41
  10   1   1   43.90    7.28
  10  -1   1   43.13    6.89
  10  -1   1   45.25    6.92
  10  -1   2   10.37    2.78
  10  -1   2   12.47    3.66
  10   1   2    6.85    3.63
  10   1   2    9.98    3.86
  10  -1   2   11.53    3.66
  10  -1   3    2.79    1.26
  10   1   3    7.22    4.03
  10  -1   3    8.24    3.56
  10   1   3    5.22    2.99
  10  -1   3    9.59    2.66
  10  -1   4    8.11    2.80
  10   1   4    2.74    1.67
  10   1   4    5.70    2.55
  10  -1   4    5.80    3.03
  10  -1   4    3.50    0.98
  10   1   5    0.31    2.01
  10   1   5    2.41    3.18
  10  -1   5    1.22    1.83
  10  -1   5    0.51    1.18
  10  -1   5   -0.40    2.34
  10   1   6   33.80    5.97
  10   1   6   24.21    5.88
  10  -1   6   27.89    5.90
  10  -1   6   31.34    5.36
  10  -1   6   33.95    5.87
  10   1   7   43.67    7.07
  10  -1   7   50.60    7.09
  10   1   7   47.52    7.69
  10  -1   7   44.30    7.08
  10  -1   7   44.29    7.13
  10   1   8    1.02    2.05
  10  -1   8    4.10    1.96
  10   1   8    3.41    2.70
  10  -1   8   -0.91    1.22
  10  -1   8    1.95    2.55
  10   1   9   10.41    3.41
  10  -1   9   13.32    4.11
  10   1   9   18.32    5.21
  10  -1   9   18.87    4.62
  10  -1   9   16.45    4.06
  10   1  10    9.05    2.57
  10  -1  10    7.89    2.43
  10   1  10   14.07    4.85
  10  -1  10    5.46    2.08
  10  -1  10   14.06    4.75
  10   1  11    0.46    2.22
  10  -1  11    0.90    1.12
  10  -1  11    0.47    2.03
  10   1  11    2.85    3.56
  10  -1  11    6.49    2.62
  10   1  12   46.42    7.55
  10  -1  12   39.36    7.49
  10   1  12   52.86    8.52
  10  -1  12   41.43    6.83
  10  -1  13   39.68    6.92
  10   1  13   47.54    7.70
  10  -1  13   44.19    7.28
  10   1  13   55.46    8.51
  10  -1  14    3.29    2.79
  10   1  14    0.57    2.02
  10  -1  15   22.64    4.92
  10   1  15   16.44    5.38
  10  -1  16   10.68    4.73
  10   1  16    8.85    3.98
  10   1  17   15.48    6.38
  10  -1  17   18.48    5.13
  10  -1  18   13.54    5.85
  10   1  18   13.23    4.74
  10  -1  19    3.96    1.88
  10   1  19    4.69    4.93
  10  -1  20   12.78    4.79
  10   1  20   24.26    6.87
  10   1  21   17.35    5.21
  10   1  22    4.10    2.53
  10   1  23    8.24    5.46
  10   1  24   11.70    6.10
  10   1  25   15.49    6.68
  10   1  26   -0.28    2.51
  10   1  27   -0.07    3.50
  10  -2 -26   20.83    6.35
  10  -2 -25   50.88   10.26
  10  -2 -24   66.41   11.12
  10  -2 -23   40.79    8.89
  10  -2 -22   43.07    8.86
  10  -2 -21  116.28   14.40
  10   2 -21   89.29   11.97
  10  -2 -20   37.48    7.71
  10   2 -20   30.35    7.90
  10  -2 -19   54.94    9.53
  10   2 -19   65.44   10.05
  10  -2 -18  177.62   16.34
  10   2 -18  158.21   15.92
  10  -2 -17  252.69   19.50
  10   2 -17  256.44   20.01
  10  -2 -16   60.39    9.36
  10   2 -16   57.61    9.64
  10  -2 -15  204.89   17.27
  10   2 -15  225.32   18.13
  10  -2 -14  165.17   15.24
  10   2 -14  142.43   14.39
  10  -2 -14  160.19   12.86
  10  -2 -13   65.28    9.71
  10   2 -13   74.68   10.17
  10  -2 -13   76.20    9.01
  10  -2 -12  235.69   17.65
  10   2 -12  249.35   18.13
  10  -2 -12  243.62   15.57
  10  -2 -11  631.68   28.40
  10   2 -11  640.96   28.96
  10  -2 -11  669.94   25.34
  10  -2 -10  124.27   12.40
  10   2 -10  144.73   13.67
  10  -2 -10  122.18   10.88
  10  -2  -9  184.32   14.97
  10  -2  -9  197.87   14.19
  10  -2  -8  241.54   17.02
  10   2  -8  264.15   18.15
  10  -2  -8  241.53   15.33
  10  -2  -7  118.81   11.82
  10   2  -7  115.57   11.94
  10  -2  -7  132.55   11.56
  10  -2  -6   86.92   10.02
  10   2  -6   69.51    9.53
  10  -2  -6   75.42    8.87
  10  -2  -5  355.22   20.06
  10   2  -5  404.22   21.80
  10  -2  -5  404.90   19.80
  10  -2  -4  193.28   14.52
  10   2  -4  167.05   14.02
  10  -2  -4  189.83   13.57
  10  -2  -3  263.63   16.93
  10   2  -3  269.44   17.80
  10   2  -3  260.79   17.47
  10  -2  -3  313.91   17.33
  10  -2  -2  517.66   23.32
  10   2  -2  517.72   24.50
  10   2  -2  540.94   25.57
  10  -2  -2  503.30   22.19
  10  -2  -1  452.38   21.96
  10   2  -1  473.02   23.59
  10   2  -1  483.77   24.10
  10  -2  -1  422.89   20.49
  10   2   0   35.77    6.18
  10   2   0   40.75    6.68
  10  -2   0   47.71    7.23
  10  -2   0   49.40    7.33
  10   2   1  436.31   22.33
  10   2   1  444.70   22.73
  10  -2   1  375.74   19.29
  10  -2   1  437.02   20.98
  10  -2   1  437.07   21.25
  10   2   2  512.95   24.38
  10   2   2  548.93   25.31
  10  -2   2  530.51   23.05
  10  -2   2  537.52   23.04
  10  -2   2  531.61   23.53
  10   2   3  253.88   17.08
  10   2   3  243.10   16.97
  10  -2   3  301.68   17.28
  10  -2   3  271.27   16.66
  10  -2   3  248.15   16.19
  10   2   4  213.27   15.58
  10   2   4  169.24   14.30
  10  -2   4  166.70   12.84
  10  -2   4  196.44   13.70
  10  -2   4  195.31   14.34
  10   2   5  354.63   20.45
  10   2   5  395.48   22.05
  10  -2   5  401.75   19.61
  10  -2   5  404.03   19.94
  10  -2   5  406.78   21.17
  10   2   6   74.54    9.36
  10  -2   6   96.90    9.62
  10   2   6   76.08   10.06
  10  -2   6   88.26   10.06
  10  -2   6  106.32   10.97
  10   2   7  119.63   11.79
  10  -2   7   95.66    9.49
  10   2   7  130.98   12.84
  10  -2   7  113.16   10.76
  10  -2   7  110.86   11.33
  10   2   8  280.15   18.61
  10  -2   8  288.04   16.43
  10   2   8  253.12   18.07
  10  -2   8  249.93   16.10
  10  -2   8  270.44   17.77
  10   2   9  183.61   14.90
  10   2   9  191.77   15.62
  10  -2   9  200.79   14.56
  10  -2   9  212.89   15.67
  10   2  10  140.95   13.24
  10  -2  10  126.66   11.25
  10  -2  10  146.58   12.92
  10   2  10  139.46   13.48
  10  -2  10  140.44   13.05
  10   2  11  655.30   29.50
  10  -2  11  664.24   27.13
  10   2  11  572.29   27.89
  10  -2  11  593.60   27.20
  10  -2  12  249.35   16.73
  10   2  12  234.41   17.94
  10  -2  12  249.96   17.52
  10   2  12  256.40   18.46
  10  -2  13   81.46   10.14
  10   2  13   79.05   10.50
  10   2  13   79.28   10.81
  10  -2  14  135.37   12.40
  10   2  14  166.20   15.34
  10  -2  14  182.65   15.10
  10   2  14  157.90   14.62
  10  -2  15  251.07   17.96
  10   2  15  238.74   18.89
  10   2  15  268.08   19.23
  10  -2  15  239.25   18.03
  10   2  16   67.05    9.84
  10  -2  16   63.17    9.65
  10   2  17  274.00   20.11
  10  -2  17  264.02   19.22
  10   2  18  220.02   18.19
  10   2  19   58.44    9.81
  10   2  20   42.54    7.44
  10   2  21  102.12   13.32
  10   2  22   34.88    8.09
  10   2  23   55.07   10.26
  10   2  24   90.36   12.32
  10   2  25   70.35   11.42
  10   2  26   19.16    5.88
  10  -3 -26    0.46    3.29
  10  -3 -25    3.14    2.31
  10  -3 -24    2.83    3.02
  10  -3 -23    4.61    3.75
  10  -3 -22    8.27    4.53
  10  -3 -21   -0.36    3.48
  10  -3 -20   -1.75    3.50
  10   3 -20    2.60    2.62
  10  -3 -19    1.04    3.50
  10   3 -19    2.38    3.42
  10   3 -18    1.00    4.29
  10  -3 -18   -0.03    2.33
  10   3 -17    0.86    2.47
  10  -3 -17   -2.33    2.53
  10   3 -16   17.90    5.90
  10  -3 -16   17.61    4.72
  10   3 -15   -0.47    2.18
  10  -3 -15   -0.84    2.07
  10  -3 -14   -2.85    3.38
  10   3 -14    0.39    2.26
  10  -3 -14    5.64    4.49
  10  -3 -13   23.66    4.81
  10   3 -13   12.89    4.45
  10  -3 -13   18.33    5.71
  10  -3 -12    9.73    4.88
  10   3 -12   11.59    4.52
  10  -3 -12   16.12    4.81
  10  -3 -11    7.81    3.22
  10   3 -11    0.87    1.96
  10  -3 -11    6.56    3.23
  10  -3 -10   26.25    5.65
  10   3 -10   24.70    6.05
  10  -3 -10   14.13    4.31
  10  -3  -9   15.04    4.76
  10   3  -9   19.30    5.19
  10  -3  -9   20.85    5.10
  10  -3  -8    2.60    3.01
  10   3  -8    1.13    2.87
  10  -3  -8    0.78    2.19
  10  -3  -7   56.22    7.62
  10  -3  -7   39.33    6.98
  10   3  -7   44.42    7.67
  10  -3  -6   14.28    4.02
  10   3  -6   17.04    5.15
  10  -3  -6   11.63    3.76
  10  -3  -5    3.46    2.32
  10   3  -5    2.20    2.84
  10  -3  -5    1.87    2.33
  10   3  -5    5.05    3.58
  10  -3  -4   13.90    4.60
  10   3  -4   18.14    5.23
  10  -3  -4   15.24    4.36
  10   3  -4   25.50    5.66
  10  -3  -3    4.67    2.98
  10   3  -3    3.97    3.95
  10  -3  -3   -0.59    1.87
  10   3  -3    0.26    1.70
  10  -3  -2   11.27    3.80
  10   3  -2    6.37    3.32
  10  -3  -2   15.02    4.47
  10   3  -2    7.96    4.01
  10  -3  -1   31.34    5.61
  10  -3  -1   49.12    7.22
  10   3  -1   29.31    6.07
  10   3  -1   36.27    7.19
  10  -3   0    2.06    1.93
  10   3   0    3.80    2.21
  10  -3   0    4.35    2.91
  10   3   0    1.17    3.05
  10  -3   1   31.40    6.32
  10   3   1   34.17    6.99
  10  -3   1   24.45    5.24
  10   3   1   32.02    6.71
  10  -3   2    7.07    2.80
  10   3   2    6.56    3.76
  10  -3   2   16.79    4.19
  10   3   2    4.34    1.61
  10  -3   2   10.64    3.57
  10  -3   3    2.29    2.54
  10   3   3    0.72    3.39
  10  -3   3    4.87    2.44
  10   3   3    7.10    3.21
  10  -3   3    4.32    2.66
  10  -3   4   15.26    4.21
  10  -3   4   18.37    4.25
  10   3   4   12.81    4.35
  10   3   4   20.25    6.20
  10  -3   4   25.02    5.15
  10  -3   5    4.58    3.34
  10  -3   5    2.59    2.72
  10   3   5    3.34    3.35
  10   3   5    4.43    2.95
  10  -3   5    4.80    3.18
  10  -3   6   25.94    5.26
  10  -3   6   14.66    4.02
  10   3   6   13.39    4.01
  10   3   6   18.81    5.30
  10  -3   6   22.06    4.74
  10   3   7   49.43    8.21
  10   3   7   66.62    9.35
  10  -3   7   50.82    7.00
  10  -3   7   57.73    6.91
  10  -3   7   57.30    8.24
  10  -3   8    3.68    2.02
  10  -3   8   -1.12    1.76
  10   3   8   -1.03    2.75
  10   3   8   -0.10    2.52
  10  -3   8    1.12    1.15
  10  -3   9   13.66    4.76
  10   3   9   10.63    4.02
  10   3   9    8.98    3.68
  10  -3   9   16.21    5.57
  10  -3   9   -3.26    1.83
  10  -3  10   26.39    5.40
  10   3  10   27.97    6.53
  10   3  10   24.64    5.93
  10  -3  11   -0.44    1.49
  10   3  11    3.72    3.79
  10   3  11    1.03    2.15
  10  -3  12    7.22    3.80
  10   3  12    6.33    2.42
  10   3  12    8.46    4.40
  10  -3  13   29.62    6.71
  10   3  13   38.26    7.70
  10   3  13   13.27    4.54
  10   3  14    0.50    2.47
  10   3  14    3.78    3.15
  10  -3  14    1.61    1.79
  10   3  15    2.61    1.98
  10   3  15    1.05    2.16
  10  -3  15   -0.70    2.29
  10   3  16   15.81    5.86
  10  -3  16    8.48    3.71
  10   3  16   13.97    5.02
  10   3  17    0.03    2.16
  10  -3  17   -0.08    3.41
  10   3  18   -0.92    2.62
  10  -3  18    0.28    3.17
  10   3  19    4.41    2.89
  10  -3  19   -2.59    2.88
  10   3  20    3.08    3.56
  10  -3  20   -7.92    3.55
  10   3  21   -2.23    3.78
  10   3  22   -1.77    3.09
  10   3  23    9.72    2.66
  10   3  24   -0.09    2.29
  10   3  25   -2.07    2.46
  10   3  26    0.10    2.35
  10  -4 -25   53.33   10.44
  10  -4 -24   78.48   12.45
  10  -4 -23   17.90    5.39
  10  -4 -22   19.30    5.08
  10  -4 -21   83.37   12.31
  10  -4 -20   19.90    5.36
  10   4 -19   65.10   11.08
  10  -4 -19   54.37    9.18
  10   4 -18  146.37   15.80
  10  -4 -18  164.78   16.07
  10   4 -17  164.34   16.75
  10  -4 -17  157.38   15.80
  10   4 -16   75.72   11.16
  10  -4 -16   56.92    9.43
  10  -4 -15  167.68   14.96
  10   4 -15  166.65   16.36
  10  -4 -15  168.73   15.99
  10  -4 -14  139.38   13.35
  10   4 -14  117.80   13.96
  10  -4 -14  149.73   14.69
  10  -4 -13   82.77   10.05
  10   4 -13   54.82    9.20
  10  -4 -13   74.12   10.14
  10  -4 -12  168.04   14.26
  10   4 -12  176.56   16.26
  10  -4 -12  167.17   15.43
  10  -4 -11  447.75   23.13
  10   4 -11  473.13   26.31
  10  -4 -11  475.76   25.53
  10  -4 -10  128.76   12.30
  10   4 -10  118.63   13.46
  10  -4 -10  107.06   12.01
  10  -4  -9  113.19   11.65
  10   4  -9  118.33   12.79
  10  -4  -9  125.83   12.89
  10  -4  -8  142.79   12.99
  10   4  -8  141.48   14.07
  10  -4  -8  141.38   13.33
  10   4  -8  157.46   14.85
  10  -4  -7   59.99    8.22
  10   4  -7   54.01    8.97
  10   4  -7   45.00    8.08
  10  -4  -7   29.68    6.21
  10  -4  -6   53.44    7.43
  10  -4  -6   41.17    6.78
  10   4  -6   36.86    6.87
  10   4  -6   33.58    6.65
  10  -4  -5  236.82   16.40
  10   4  -5  264.25   18.81
  10  -4  -5  244.84   17.17
  10   4  -5  258.99   18.96
  10  -4  -4   80.99    9.78
  10  -4  -4   81.58   10.25
  10   4  -4   96.76   11.52
  10  -4  -3   99.58   10.66
  10   4  -3   92.98   11.37
  10  -4  -3   84.10   10.05
  10   4  -3  103.18   11.78
  10  -4  -2  326.75   19.46
  10   4  -2  345.84   21.35
  10  -4  -2  317.47   19.64
  10   4  -2  355.02   21.35
  10  -4  -1  401.97   21.80
  10   4  -1  355.81   21.74
  10  -4  -1  360.56   20.57
  10   4  -1  323.46   20.59
  10  -4   0  133.73   12.44
  10   4   0  167.67   14.89
  10  -4   0  160.49   13.49
  10   4   0  166.05   14.62
  10  -4   1  414.48   22.04
  10   4   1  377.77   22.65
  10  -4   1  351.72   19.83
  10   4   1  357.80   21.87
  10  -4   2  347.62   20.18
  10   4   2  319.33   20.84
  10  -4   2  330.44   19.31
  10   4   2  360.07   21.91
  10  -4   2  339.79   17.95
  10  -4   3   90.67   10.22
  10   4   3   92.01   10.84
  10  -4   3  107.34   10.78
  10   4   3   88.21   10.79
  10  -4   3   82.09    9.12
  10  -4   4   89.03   10.35
  10   4   4   89.59   11.51
  10   4   4  100.71   11.58
  10  -4   5  323.94   19.83
  10   4   5  277.19   20.00
  10  -4   5  270.92   16.97
  10   4   5  284.19   19.64
  10  -4   6   41.39    7.16
  10  -4   6   40.52    6.30
  10   4   6   21.36    5.60
  10   4   6   39.62    7.67
  10   4   7   48.48    8.91
  10  -4   7   36.20    7.01
  10   4   7   40.91    7.89
  10  -4   7   45.86    6.61
  10   4   8  165.61   15.08
  10   4   8  139.63   14.40
  10  -4   8  141.04   13.38
  10   4   9  108.97   12.39
  10   4   9  107.62   12.83
  10  -4   9  102.98   11.22
  10   4  10  132.68   13.53
  10   4  10  126.69   13.58
  10  -4  10  117.55   12.20
  10   4  11  421.68   24.54
  10   4  11  421.09   25.14
  10  -4  11  440.58   24.11
  10   4  12  186.41   16.60
  10   4  12  141.63   14.44
  10  -4  12  164.21   15.05
  10   4  13   74.99   10.78
  10   4  13   63.79   10.64
  10  -4  13   92.92   10.83
  10   4  14  139.92   14.68
  10   4  14  111.57   13.69
  10  -4  14  145.35   14.41
  10   4  15  151.41   16.01
  10   4  15  183.11   17.29
  10  -4  15  178.80   16.36
  10   4  16   77.39   11.22
  10   4  16   78.30   11.78
  10  -4  16   78.21   10.96
  10   4  17  129.92   14.69
  10  -4  17  127.47   14.03
  10   4  18  169.91   16.65
  10  -4  18  188.55   17.12
  10   4  19   65.79   10.40
  10  -4  19   44.25   10.04
  10   4  20   33.54    9.10
  10   4  21   93.92   13.05
  10   4  22   30.96    7.19
  10   4  23   15.46    5.83
  10   4  24   77.54   11.27
  10   4  25   57.61   10.36
  10  -5 -23    3.29    4.11
  10  -5 -22   23.63    7.16
  10  -5 -21   29.50    7.80
  10  -5 -20    5.91    4.06
  10  -5 -19    3.39    2.49
  10  -5 -18   10.46    4.08
  10   5 -18   -3.27    4.86
  10  -5 -17    7.51    3.66
  10   5 -17   13.11    4.83
  10  -5 -16   29.95    7.09
  10   5 -16   10.85    4.04
  10  -5 -15   39.85    7.90
  10  -5 -15   39.37    7.37
  10   5 -15   47.61    8.35
  10  -5 -14    1.89    2.19
  10  -5 -14    5.04    4.92
  10   5 -14   -0.97    4.06
  10  -5 -13    3.82    4.22
  10  -5 -13    0.35    2.65
  10   5 -13   -2.20    3.04
  10  -5 -12   -0.59    2.22
  10  -5 -12    3.35    3.68
  10   5 -12   -1.79    2.33
  10  -5 -11   13.76    4.93
  10  -5 -11   13.56    3.79
  10   5 -11   18.82    5.39
  10   5 -11   11.32    5.65
  10  -5 -10   36.71    7.43
  10  -5 -10   27.60    6.42
  10   5 -10   27.39    4.94
  10   5 -10   24.76    5.96
  10  -5  -9   19.28    5.51
  10  -5  -9   10.77    4.18
  10   5  -9   12.77    4.45
  10   5  -9   22.88    5.12
  10  -5  -8   39.57    7.48
  10   5  -8   41.65    8.52
  10  -5  -8   41.13    7.81
  10   5  -8   54.63    9.38
  10  -5  -7   23.68    6.60
  10  -5  -7   18.39    6.06
  10   5  -7   14.77    5.12
  10   5  -7   32.82    6.79
  10  -5  -6    6.34    4.64
  10  -5  -6    7.37    4.17
  10   5  -6   14.06    5.09
  10   5  -6    6.02    2.34
  10  -5  -5    9.42    4.14
  10  -5  -5   11.70    3.45
  10   5  -5    5.60    2.70
  10   5  -5   16.52    5.77
  10  -5  -4   50.31    8.01
  10   5  -4   35.84    7.37
  10  -5  -4   46.42    7.84
  10   5  -4   40.32    8.03
  10  -5  -3   34.31    6.46
  10  -5  -3   13.76    5.10
  10   5  -3   27.75    7.01
  10   5  -3   17.56    5.70
  10  -5  -2   87.11   10.25
  10   5  -2   71.68   10.16
  10  -5  -2   76.36    9.78
  10   5  -2   90.86   10.81
  10  -5  -1  187.11   15.24
  10   5  -1  150.75   14.60
  10  -5  -1  204.50   15.69
  10   5  -1  178.91   15.80
  10  -5   0  245.84   17.11
  10   5   0  212.34   17.77
  10  -5   0  243.46   17.12
  10   5   0  268.25   19.66
  10   5   1  186.18   16.08
  10  -5   1  197.89   15.60
  10   5   1  203.66   16.91
  10   5   2   99.16   12.25
  10  -5   2   70.37    9.50
  10  -5   2   64.49    8.93
  10   5   2   91.68   11.63
  10  -5   3   17.49    4.74
  10   5   3   14.71    4.78
  10   5   3    8.51    3.71
  10  -5   3   23.72    5.76
  10   5   4   49.43    8.77
  10  -5   4   36.76    6.60
  10  -5   4   43.63    7.19
  10   5   4   42.75    8.18
  10  -5   5    9.59    3.66
  10   5   5   16.33    5.56
  10  -5   5   20.64    5.15
  10   5   5    7.75    3.96
  10  -5   6    8.59    4.45
  10   5   6   14.31    5.48
  10  -5   6    6.24    3.10
  10   5   6    4.48    2.49
  10  -5   7   17.99    4.95
  10   5   7   25.04    6.98
  10   5   7   12.66    5.44
  10  -5   8   46.37    8.06
  10   5   8   38.03    8.28
  10   5   8   63.17   10.14
  10   5   9    1.39    2.74
  10  -5   9    6.21    2.79
  10   5  10   20.73    6.21
  10  -5  10   25.31    5.39
  10   5  10   23.95    5.98
  10   5  11   17.24    5.01
  10  -5  11    4.66    2.69
  10   5  11   17.85    5.48
  10   5  12   -0.34    4.13
  10  -5  12   -2.93    2.41
  10   5  12    1.08    2.10
  10   5  13    1.95    2.89
  10  -5  13    1.54    1.74
  10   5  13    1.82    4.23
  10  -5  14    4.05    3.14
  10   5  14    1.52    2.28
  10   5  14    0.03    3.45
  10  -5  15   37.37    7.37
  10   5  15   36.11    7.73
  10   5  15   42.54    8.54
  10  -5  16   17.56    5.66
  10   5  16   21.67    6.23
  10   5  16    4.88    2.86
  10  -5  17    5.93    3.45
  10   5  17    4.58    1.90
  10   5  17   -1.52    3.45
  10  -5  18   -0.82    2.71
  10   5  18    4.96    3.22
  10   5  18   -6.53    4.88
  10   5  19   -1.31    2.39
  10   5  20    6.09    2.77
  10   5  21   25.02    7.13
  10   5  22    7.59    3.21
  10   5  23   -0.21    2.54
  10  -6 -22   27.22    7.23
  10  -6 -21  172.18   17.66
  10  -6 -20   93.47   12.55
  10  -6 -19   30.98    7.61
  10  -6 -18   87.94   12.50
  10  -6 -17  117.97   14.01
  10  -6 -16   72.88   10.83
  10   6 -16   65.83   11.69
  10   6 -16   71.75   11.20
  10   6 -15  246.34   21.39
  10  -6 -15  258.97   20.20
  10  -6 -15  227.79   19.28
  10   6 -15  211.49   19.88
  10   6 -14  103.88   13.99
  10  -6 -14  123.71   13.70
  10  -6 -14  142.69   15.00
  10   6 -14  133.13   15.67
  10   6 -13   63.52   10.75
  10  -6 -13  101.86   12.20
  10  -6 -13   80.40   10.86
  10   6 -13   70.07   10.97
  10   6 -12   72.87   11.71
  10  -6 -12   83.11   11.65
  10  -6 -12   76.26   10.85
  10   6 -12   91.91   12.83
  10   6 -11  124.46   14.30
  10  -6 -11  117.73   13.16
  10  -6 -11   94.35   12.43
  10   6 -11   98.55   13.35
  10   6 -10   60.73   10.76
  10  -6 -10   58.14    9.82
  10  -6 -10   54.50    9.01
  10   6 -10   45.46    8.34
  10   6  -9  179.76   16.80
  10  -6  -9  152.74   15.10
  10  -6  -9  141.49   14.42
  10   6  -9  136.97   15.12
  10   6  -8  115.76   13.79
  10  -6  -8  116.32   12.40
  10  -6  -8  116.60   12.79
  10   6  -8  123.66   14.06
  10  -6  -7   34.46    6.97
  10   6  -7   23.30    6.84
  10  -6  -7   18.99    5.48
  10   6  -7   38.64    8.39
  10  -6  -6   55.91    8.61
  10   6  -6   49.23    8.68
  10  -6  -6   56.21    8.42
  10   6  -6   57.61    9.29
  10   6  -5  216.36   18.85
  10  -6  -5  220.36   17.39
  10  -6  -5  194.46   16.53
  10   6  -5  245.29   19.72
  10   6  -4  121.08   13.52
  10  -6  -4   90.66   10.58
  10  -6  -4   99.22   11.48
  10   6  -4   81.31   10.76
  10  -6  -3   -0.07    3.00
  10   6  -3    9.01    3.71
  10  -6  -3    2.51    1.57
  10   6  -3    2.03    2.48
  10   6  -2   60.64    9.65
  10  -6  -2   84.96   10.53
  10  -6  -2   81.62   10.51
  10   6  -2   73.50   10.52
  10   6  -1  153.64   16.29
  10  -6  -1  179.92   15.66
  10  -6  -1  137.16   13.66
  10   6  -1  120.96   14.04
  10   6   0  155.98   15.68
  10  -6   0  193.55   16.16
  10  -6   0  174.16   15.25
  10   6   0  161.07   15.62
  10  -6   1  154.75   14.73
  10  -6   1  174.88   15.31
  10   6   1  180.17   16.64
  10   6   1  144.47   14.98
  10  -6   2   77.68   10.60
  10  -6   2   84.78   10.48
  10   6   2   66.26   10.25
  10   6   2   69.29   11.55
  10   6   3    1.37    2.31
  10  -6   3    6.28    3.59
  10   6   3    7.27    4.65
  10  -6   3    4.57    2.46
  10  -6   4   95.49   11.23
  10  -6   4   98.79   11.17
  10   6   4   84.43   11.64
  10   6   4   81.36   11.61
  10  -6   5  207.06   17.15
  10  -6   5  213.98   16.52
  10   6   5  199.10   17.73
  10   6   5  200.74   18.30
  10  -6   6   63.01    9.69
  10   6   6   57.15    9.54
  10   6   6   49.87    9.88
  10   6   7   26.20    7.05
  10  -6   7   26.10    6.89
  10   6   7   30.17    6.47
  10  -6   8  131.00   13.98
  10   6   8  111.79   13.28
  10   6   8  111.85   13.84
  10  -6   9  127.01   13.16
  10   6   9  157.42   15.52
  10   6   9  147.02   15.96
  10  -6  10   53.36    8.42
  10   6  10   56.77    9.43
  10   6  10   49.79    9.82
  10  -6  11  115.93   12.96
  10   6  11   99.71   12.69
  10   6  11  121.56   14.80
  10  -6  12   65.06    9.84
  10   6  12   83.01   11.58
  10   6  12   93.47   13.28
  10   6  13   75.75   11.08
  10   6  13   84.21   12.39
  10  -6  13   81.32   11.21
  10   6  14  104.64   13.76
  10   6  14  111.50   14.41
  10  -6  14  116.69   14.09
  10   6  15  238.38   19.94
  10   6  15  247.22   21.37
  10  -6  15  240.14   19.73
  10   6  16   69.71   10.90
  10   6  16   86.36   12.88
  10  -6  16   81.27   11.47
  10   6  17   83.58   11.92
  10   6  17  112.66   14.70
  10  -6  17   91.30   12.56
  10   6  18   83.09   11.74
  10   6  18   65.10   11.32
  10   6  19   36.11    9.37
  10   6  19    6.56    5.02
  10   6  20   65.77   11.07
  10   6  21  199.18   19.41
  10   6  22   26.85    7.74
  10  -7 -19    6.45    3.81
  10  -7 -18   16.69    4.84
  10  -7 -17    4.95    3.75
  10  -7 -16   23.92    6.74
  10  -7 -16   14.57    5.86
  10   7 -15   13.40    5.08
  10  -7 -15   10.89    4.22
  10  -7 -15   11.74    4.60
  10  -7 -14   10.11    3.57
  10  -7 -14   14.17    4.70
  10   7 -13   10.53    5.19
  10  -7 -13   16.51    5.46
  10  -7 -13   15.22    5.35
  10   7 -13   17.84    6.84
  10   7 -12   23.29    6.81
  10  -7 -12    6.79    2.92
  10  -7 -12   17.16    5.97
  10   7 -12   11.04    4.79
  10   7 -11   42.55    9.21
  10  -7 -11   52.51    9.25
  10  -7 -11   44.97    8.58
  10   7 -11   42.07   10.40
  10   7 -10   55.92   10.22
  10  -7 -10   46.67    8.09
  10  -7 -10   49.46    9.30
  10   7 -10   72.56   11.19
  10   7  -9   53.44    8.98
  10  -7  -9   50.39    8.67
  10  -7  -9   55.44    9.22
  10   7  -9   36.73    8.90
  10   7  -8   21.23    6.41
  10  -7  -8   23.66    5.81
  10   7  -8   27.74    7.11
  10   7  -7    0.47    3.45
  10  -7  -7    1.17    3.04
  10  -7  -7    2.68    3.97
  10   7  -7    4.03    3.59
  10   7  -6    7.34    2.11
  10  -7  -6    8.14    5.08
  10  -7  -6    5.61    3.03
  10   7  -6   18.48    5.50
  10   7  -5   19.22    6.27
  10  -7  -5    6.42    1.94
  10  -7  -5   10.69    4.66
  10   7  -5   15.54    7.52
  10   7  -4   15.19    6.53
  10  -7  -4   12.34    4.44
  10  -7  -4   11.97    4.52
  10   7  -4   15.27    5.42
  10   7  -3   12.38    5.13
  10  -7  -3   18.00    6.32
  10  -7  -3   18.55    4.53
  10   7  -3    9.93    3.13
  10   7  -2   29.19    7.77
  10  -7  -2   31.69    7.40
  10  -7  -2   43.40    8.09
  10   7  -2   26.92    7.31
  10  -7  -1   81.65   10.65
  10  -7  -1   55.36    8.70
  10   7  -1   89.77   12.39
  10  -7   0   64.14    9.52
  10  -7   0   50.09    8.66
  10   7   0   69.25   10.25
  10   7   0   39.21   10.60
  10  -7   1   76.86   10.69
  10  -7   1   59.69    9.39
  10   7   1   93.01   11.98
  10   7   2   25.04    7.23
  10  -7   2   39.35    7.56
  10  -7   2   35.92    7.70
  10   7   2   35.70    7.53
  10   7   3   13.96    4.45
  10  -7   3   16.53    5.93
  10  -7   3   18.00    5.81
  10   7   3   21.34    7.01
  10  -7   4   20.84    7.03
  10   7   4    6.69    3.89
  10  -7   4   12.55    5.08
  10   7   4    4.96    4.53
  10   7   5   11.98    5.31
  10  -7   5    8.88    4.01
 -10  -7   5    0.74    3.10
  10   7   5   16.57    5.93
  10   7   6    5.09    1.88
  10  -7   6    8.30    3.44
 -10  -7   6   14.07    5.78
  10   7   6   13.42    3.47
  10   7   7    4.35    3.66
  10  -7   7   -3.44    3.63
 -10  -7   7    1.85    2.33
  10   7   7    3.24    3.69
  10   7   8   35.27    8.61
  10  -7   8   23.11    5.59
  10   7   8   30.94    7.58
  10  -7   9   38.94    8.08
  10   7   9   35.40    7.74
  10   7   9   47.00    9.78
  10  -7  10   51.56    9.01
  10   7  10   43.68    8.62
  10   7  10   54.08   10.23
  10  -7  11   63.39   10.42
  10   7  11   61.92   10.37
  10   7  11   54.48    9.85
  10  -7  12    5.03    5.11
  10   7  12    2.09    2.09
  10   7  12   12.77    6.99
  10  -7  13   12.76    4.50
  10   7  13   17.35    5.54
  10   7  13   22.56    7.02
  10   7  14   14.34    5.69
  10  -7  14   21.56    6.79
  10   7  14   15.14    5.98
  10  -7  15   14.18    5.70
  10   7  15   15.67    3.87
  10   7  15    7.48    6.06
  10  -7  16   10.36    5.45
  10   7  16   17.07    6.39
  10   7  16   15.82    7.36
  10   7  17    2.59    4.41
  10   7  17    2.71    3.86
  10   7  18   15.32    5.34
  10   7  18   23.47    6.66
  10   7  19   -0.02    2.67
  10   7  19    1.97    4.16
  10  -8 -16    9.12    5.43
  10  -8 -16    3.85    2.39
 -10  -8 -16    5.18    2.64
  10  -8 -15   94.84   13.38
  10  -8 -15  117.90   14.13
  10  -8 -14  103.10   13.31
  10  -8 -14   99.45   13.22
  10   8 -13    7.64    8.36
  10  -8 -13   27.21    8.17
  10  -8 -13   37.38    8.31
  10   8 -12   12.13    6.73
  10  -8 -12   15.39    6.01
  10  -8 -12   19.33    6.30
  10   8 -11   52.97   11.85
  10  -8 -11   31.55    7.24
  10   8 -10   22.85    8.15
  10  -8 -10   14.52    5.74
  10  -8 -10   10.82    4.92
  10  -8  -9   75.92   10.94
  10  -8  -9   97.30   12.51
  10   8  -9   70.71   12.33
  10  -8  -8  127.20   13.97
  10  -8  -8   99.91   13.30
  10   8  -8  142.35   15.86
  10   8  -7   35.76    7.76
  10  -8  -7   21.42    6.08
  10  -8  -7   25.27    6.38
  10   8  -7   26.38    8.00
  10  -8  -6  112.38   12.77
  10   8  -6  116.90   14.47
  10  -8  -6  103.48   13.13
  10   8  -6   87.48   12.94
  10  -8  -5  260.31   19.93
  10   8  -5  208.89   19.88
  10  -8  -5  234.32   19.14
  10   8  -5  216.14   20.42
  10  -8  -4   93.08   12.08
  10   8  -4  145.02   16.23
  10  -8  -4  129.32   14.33
  10   8  -4  133.37   15.49
  10   8  -3   24.00    7.03
  10  -8  -3   11.97    3.85
  10  -8  -3   25.68    6.32
  10   8  -3   19.36    6.09
  10   8  -2   29.77    8.36
  10  -8  -2   26.39    6.52
  10  -8  -2   41.67    8.55
  10   8  -2   31.02    7.54
  10   8  -1   34.57    8.16
  10  -8  -1   48.43    9.37
 -10  -8  -1   46.17    8.61
  10  -8  -1   66.55   10.70
  10   8  -1   48.90    9.39
  10   8   0   40.17    8.48
  10  -8   0   50.28    9.12
  10  -8   0   45.59    8.17
  10   8   0   65.91   11.38
 -10  -8   0   40.78    8.71
  10   8   1   45.23    8.96
  10  -8   1   60.49    9.84
  10  -8   1   40.53    7.84
 -10  -8   1   48.78    8.62
  10   8   1   68.43   11.08
  10   8   2   31.96    7.91
  10  -8   2   24.70    6.28
  10  -8   2   21.69    5.50
 -10  -8   2   27.79    7.63
  10   8   2   34.01    7.09
  10   8   3   14.34    5.00
  10  -8   3   14.54    5.26
 -10  -8   3   12.45    4.46
  10   8   3   22.86    6.61
  10  -8   4  126.77   13.89
 -10  -8   4  102.19   12.86
  10   8   4  118.55   14.45
  10   8   4  123.99   15.26
  10  -8   5  207.38   17.96
 -10  -8   5  198.75   18.30
  10   8   5  252.69   20.68
  10   8   5  240.44   21.12
  10  -8   6  119.22   13.75
 -10  -8   6  113.16   14.18
  10   8   6  109.56   14.00
  10   8   6  114.90   14.96
  10  -8   7   25.90    6.44
  10   8   7   29.99    7.06
  10   8   7   28.56    7.92
  10  -8   8  122.07   14.27
  10   8   8  105.64   13.42
  10   8   8   99.58   14.27
  10  -8   9   81.49   11.59
  10   8   9   97.63   13.30
  10   8   9  113.48   14.80
  10  -8  10   20.22    5.73
  10   8  10    2.89    3.31
  10   8  10   21.69    6.56
  10  -8  11   59.36   10.68
  10   8  11   52.16   10.39
  10   8  11   56.27   10.42
  10  -8  12   34.27    8.69
  10   8  12   29.36    7.83
  10   8  12   31.37    6.82
  10  -8  13   18.97    4.43
  10   8  13   35.99    8.88
  10   8  13   40.91    9.70
  10  -8  14  101.85   14.07
  10   8  14  117.33   14.36
  10   8  14   78.38   13.01
  10  -8  15   95.36   13.69
  10   8  15  114.47   14.60
  10   8  15  106.89   15.13
  10  -8  16   12.92    5.12
  10   8  16    5.43    4.22
  10   8  16    3.01    4.03
  10   9 -12    2.51    4.14
  10  -9 -12   -0.58    2.24
  10  -9 -12    2.69    2.61
 -10  -9 -12   -1.05    2.10
  10   9 -11   22.85    7.42
  10  -9 -11   11.03    4.52
  10  -9 -11   28.45    7.68
 -10  -9 -11   15.02    5.35
  10   9 -10   13.55    5.19
  10  -9 -10    9.95    4.57
  10  -9 -10   10.18    3.52
 -10  -9 -10    9.21    2.78
  10   9  -9    0.54    3.27
  10  -9  -9    1.18    2.63
  10  -9  -9    5.10    3.00
 -10  -9  -9   -2.45    2.94
  10   9  -8   22.36    7.62
  10  -9  -8   13.96    5.71
  10  -9  -8   16.38    5.22
 -10  -9  -8   17.00    5.98
  10   9  -7    4.50    3.52
  10  -9  -7    7.48    3.41
  10  -9  -7    4.10    1.94
  10   9  -6   -1.03    2.89
  10  -9  -6    1.99    3.31
  10  -9  -6    5.17    3.21
 -10  -9  -6    1.72    2.10
  10   9  -5    0.56    4.25
  10  -9  -5    3.79    3.22
  10  -9  -5    6.76    3.61
 -10  -9  -5   12.12    4.45
  10   9  -4    8.00    3.12
  10  -9  -4   13.52    5.17
  10  -9  -4   15.43    5.68
 -10  -9  -4   13.84    4.98
  10   9  -3    6.28    2.49
  10  -9  -3   28.03    7.45
  10  -9  -3   34.33    7.78
 -10  -9  -3   23.70    6.59
  10   9  -2    9.51    5.39
  10  -9  -2    8.34    3.77
  10  -9  -2    4.62    4.69
 -10  -9  -2    9.64    4.67
  10   9  -1   17.93    7.53
  10  -9  -1   30.47    7.58
  10  -9  -1   13.59    5.30
 -10  -9  -1   21.79    6.05
  10   9  -1   16.45    6.16
  10   9   0   41.99    9.38
  10  -9   0   26.25    7.12
  10  -9   0   21.47    5.39
 -10  -9   0   14.12    5.93
  10   9   0   27.07    7.86
  10   9   1   16.37    4.71
  10  -9   1   27.17    7.24
 -10  -9   1   16.90    5.34
  10   9   1   21.83    5.63
  10  -9   2   -0.12    4.34
 -10  -9   2    1.62    2.92
  10   9   2    9.38    5.69
  10   9   2   13.17    4.97
  10  -9   3   26.58    7.62
 -10  -9   3   30.57    8.27
  10   9   3   28.40    7.83
  10   9   3   21.14    6.72
  10  -9   4    5.29    3.72
 -10  -9   4    7.78    3.77
  10   9   4   10.23    5.44
  10   9   4    4.34    2.38
  10  -9   5    6.61    4.33
 -10  -9   5    1.81    1.92
  10   9   5    7.88    5.80
  10   9   5   13.53    5.34
  10  -9   6    2.39    2.17
 -10  -9   6    1.36    5.15
  10   9   6    0.75    4.88
  10   9   6    3.86    3.59
  10  -9   7   13.27    5.44
  10   9   7    8.15    4.42
  10   9   7   16.62    6.14
  10  -9   8    8.64    4.02
  10   9   8   18.77    7.72
  10   9   8   13.54    6.33
  10  -9   9    1.92    3.19
  10   9   9   -0.65    3.74
  10   9   9   -2.04    4.49
  10  -9  10   13.30    4.74
  10   9  10    5.81    5.02
  10   9  10    9.14    4.22
  10  -9  11   14.85    5.77
  10   9  11   22.80    7.36
  10   9  11    5.85    2.97
  10  -9  12   -5.01    4.15
  10   9  12   -5.01    4.86
  10   9  12    0.54    2.94
  10 -10  -5   41.86    9.10
  10 -10  -5   46.95   10.05
 -10 -10  -5   42.26    9.09
  10  10  -5   52.18    9.65
  10 -10  -4   42.93    9.28
  10 -10  -4   38.85    9.20
 -10 -10  -4   40.80    8.54
  10  10  -4   54.20   10.77
  10 -10  -3    1.61    2.27
  10 -10  -3   -0.19    2.71
 -10 -10  -3    1.56    2.87
  10  10  -3    2.27    3.58
  10 -10  -2   73.03   11.76
  10 -10  -2   48.29   10.49
 -10 -10  -2   46.61    8.93
  10  10  -2   59.91   11.32
  10 -10  -1   33.56    7.77
  10 -10  -1   25.95    7.52
 -10 -10  -1   36.65    7.63
  10  10  -1   31.44    8.45
  10 -10   0   -3.66    2.12
  10  10   0   -0.91    3.24
  10 -10   1   24.69    7.05
 -10 -10   1   19.57    7.07
  10  10   1   19.03    6.49
  10 -10   2   56.08   10.36
 -10 -10   2   45.45    9.61
  10  10   2   70.57   12.27
  10 -10   3    8.29    4.47
 -10 -10   3    1.91    3.37
  10  10   3    3.34    3.74
  10 -10   4   52.18    9.51
 -10 -10   4   47.40    9.46
  10  10   4   54.88   10.69
  10 -10   5   36.18    9.15
 -10 -10   5   22.87    9.14
  10  10   5   38.00    8.66
  11   0 -24   -2.75    2.57
  11   0 -23    1.08    2.88
  11   0 -22    1.46    3.54
  11   0 -21    3.04    4.57
  11   0 -20   -1.53    3.12
  11   0 -19    0.71    3.41
  11   0 -18    0.90    3.45
  11   0 -17    1.28    3.03
  11   0 -16   -1.05    3.39
  11   0 -15    4.18    3.69
  11   0 -14   -1.26    2.50
  11   0 -13   -0.74    3.05
  11   0 -12    4.00    3.53
  11   0 -11    2.00    2.47
  11   0 -11   -0.14    2.25
  11   0 -10    0.77    2.55
  11   0 -10    1.04    1.59
  11   0  -9    2.51    2.72
  11   0  -9    0.08    2.11
  11   0  -8   -0.85    2.49
  11   0  -8   -1.51    2.09
  11   0  -7   -0.40    2.17
  11   0  -7    0.39    1.34
  11   0  -6   -0.09    1.25
  11   0  -6   -1.17    2.26
  11   0  -5   -0.16    1.32
  11   0  -5   -0.63    1.99
  11   0  -4   -1.38    3.07
  11   0  -4    1.57    2.93
  11   0  -3    2.20    2.74
  11   0  -3    2.24    2.16
  11   0  -2    0.66    1.55
  11   0  -2   -1.01    1.80
  11   0  -1    0.36    1.70
  11   0  -1   -0.91    2.20
  11   0  -1   -0.17    2.36
  11   0   0    0.42    1.36
  11   0   0   -0.86    2.75
  11   0   0   -0.94    2.56
  11   0   1    0.14    1.20
  11   0   1   -1.29    1.78
  11   0   1    0.85    2.52
  11   0   2    0.17    1.14
  11   0   2    1.29    2.03
  11   0   2   -2.05    2.67
  11   0   3   -0.43    1.65
  11   0   3    0.85    2.27
  11   0   3   -1.10    1.92
  11   0   4    0.09    1.08
  11   0   4   -0.78    2.13
  11   0   4    2.52    2.41
  11   0   5    1.14    2.07
  11   0   5   -1.30    2.46
  11   0   5   -1.13    1.48
  11   0   6   -1.12    2.06
  11   0   6   -0.48    1.99
  11   0   6    1.63    1.41
  11   0   7    1.38    2.39
  11   0   7   -1.16    1.66
  11   0   7   -0.02    2.17
  11   0   8   -1.27    2.45
  11   0   8    0.51    1.44
  11   0   9    0.66    1.13
  11   0   9   -1.98    2.86
  11   0  10    0.03    1.28
  11   0  10   -0.43    1.67
  11   0  11   -0.63    1.32
  11   0  11    1.21    2.16
  11   0  12    0.78    1.61
  11   0  12    0.98    2.01
  11   0  13    1.28    2.00
  11   0  14   -0.34    2.23
  11   0  15    2.80    2.95
  11   0  16    0.27    1.47
  11   0  17    2.62    3.76
  11   0  18    1.69    3.97
  11   0  19    1.77    2.63
  11   0  20    2.07    4.46
  11   0  21    8.97    5.84
  11   0  22   -3.19    4.01
  11   0  23   -5.39    4.12
  11   0  24   -7.93    3.67
  11  -1 -25   40.53    9.81
  11  -1 -24  145.20   16.68
  11  -1 -23   18.36    7.35
  11   1 -23   12.45    6.57
  11  -1 -22    3.35    3.52
  11   1 -22    0.82    3.04
  11  -1 -21   38.68    7.16
  11   1 -21   47.14    8.82
  11  -1 -20   49.79    9.36
  11   1 -20   54.14   10.24
  11   1 -19   84.06   12.49
  11  -1 -19   96.86   12.07
  11   1 -18  477.23   28.04
  11  -1 -18  423.27   26.14
  11  -1 -17   35.22    7.89
  11   1 -17   29.38    6.23
  11  -1 -16   16.68    5.92
  11   1 -16   23.97    6.65
  11   1 -15  105.43   12.82
  11  -1 -15  117.90   13.00
  11   1 -14  435.55   25.00
  11  -1 -14  427.63   25.05
  11   1 -13  645.53   29.95
  11  -1 -13  560.70   28.12
  11   1 -12  801.99   33.39
  11  -1 -12  697.69   27.09
  11  -1 -12  788.69   33.10
  11  -1 -11   42.61    6.24
  11  -1 -11   59.01    8.93
  11   1 -11   44.63    8.01
  11   1 -10  382.94   22.47
  11  -1 -10  403.48   20.13
  11  -1 -10  409.65   23.23
  11   1  -9  307.66   20.03
  11  -1  -9  315.75   19.99
  11  -1  -9  292.77   17.25
  11   1  -8  352.53   21.33
  11  -1  -8  347.22   20.77
  11  -1  -8  329.78   18.43
  11   1  -7  339.61   20.84
  11  -1  -7  326.26   19.99
  11  -1  -7  318.70   17.95
  11   1  -6  255.74   18.02
  11  -1  -6  248.64   17.56
  11  -1  -6  265.46   16.42
  11   1  -5   81.14   10.05
  11  -1  -5   64.49    9.09
  11  -1  -5   77.02    8.83
  11   1  -4   58.91    8.82
  11  -1  -4   66.97    8.88
  11  -1  -4   60.51    8.14
  11   1  -3  366.60   20.77
  11  -1  -3  320.50   19.49
  11  -1  -3  308.86   17.94
  11   1  -2 1126.89   36.69
  11  -1  -2 1073.94   35.11
  11   1  -2 1189.17   37.92
  11  -1  -2 1162.81   35.09
  11   1  -1   48.52    7.50
  11  -1  -1   44.02    6.93
  11   1  -1   48.24    7.91
  11  -1  -1   55.01    7.39
  11  -1   0    8.54    4.22
  11  -1   0    6.27    3.08
  11   1   0    7.47    3.76
  11   1   0    4.49    1.48
  11  -1   0    1.74    2.24
  11   1   1   49.03    7.90
  11  -1   1   34.17    6.36
  11   1   1   59.60    8.68
  11  -1   1   49.27    7.56
  11  -1   1   60.38    8.26
  11   1   2 1109.81   36.65
  11  -1   2 1158.84   35.80
  11   1   2 1184.84   38.02
  11  -1   2 1200.66   37.16
  11  -1   2 1118.24   34.84
  11   1   3  333.52   19.54
  11   1   3  308.74   19.52
  11  -1   3  343.49   19.81
  11  -1   3  302.97   18.69
  11  -1   3  325.72   19.28
  11   1   4   76.89    9.87
  11  -1   4   68.54    8.71
  11   1   4   62.48    9.13
  11  -1   4   81.29    9.57
  11  -1   4   75.19    9.37
  11   1   5   84.84   10.16
  11  -1   5   68.14    8.69
  11   1   5   66.18    9.12
  11  -1   5   53.52    7.85
  11  -1   5   70.17    8.84
  11   1   6  260.67   17.59
  11  -1   6  266.88   17.08
  11   1   6  259.10   18.10
  11  -1   6  286.68   18.15
  11  -1   6  255.87   17.01
  11   1   7  327.81   19.81
  11  -1   7  283.37   17.48
  11   1   7  342.53   20.80
  11  -1   7  314.22   19.14
  11   1   8  279.37   18.33
  11  -1   8  376.11   20.38
  11   1   8  341.36   21.20
  11  -1   8  278.52   18.39
  11  -1   8  389.71   21.24
  11   1   9  222.20   16.55
  11  -1   9  273.07   17.28
  11   1   9  242.32   17.86
  11  -1   9  293.86   18.62
  11  -1   9  272.31   18.18
  11   1  10  380.13   21.92
  11   1  10  361.29   22.16
  11  -1  10  415.64   22.41
  11  -1  10  363.59   20.94
  11   1  11   43.24    7.53
  11  -1  11   45.10    7.22
  11  -1  11   50.92    8.10
  11   1  11   58.18    8.90
  11  -1  11   50.19    7.82
  11   1  12  692.15   30.81
  11  -1  12  736.28   31.42
  11   1  12  782.17   33.03
  11  -1  12  733.15   31.10
  11   1  13  632.64   29.02
  11  -1  13  592.08   27.45
  11   1  13  593.33   28.82
  11  -1  13  637.41   29.10
  11  -1  14  384.44   22.85
  11   1  14  414.01   24.35
  11  -1  15  122.61   12.98
  11   1  15  108.94   13.06
  11  -1  16   15.97    5.00
  11   1  16   10.41    4.79
  11  -1  17   27.07    6.11
  11   1  17   24.86    5.97
  11  -1  18  460.19   26.17
  11   1  18  457.54   26.62
  11  -1  19   97.17   13.37
  11   1  19   87.66   11.37
  11   1  20   26.26    6.72
  11   1  21   61.07   10.08
  11   1  22    1.57    3.12
  11   1  23   18.86    6.20
  11   1  24  164.23   16.96
  11   1  25   38.56    9.27
  11   1  26   26.88    7.93
  11  -2 -25   14.50    5.13
  11  -2 -24    4.58    4.52
  11  -2 -23   83.27   12.32
  11  -2 -22    1.47    3.36
  11   2 -22   -0.91    2.90
  11  -2 -21    3.67    2.28
  11   2 -21    6.14    2.40
  11  -2 -20   25.09    6.39
  11   2 -20   28.77    7.84
  11  -2 -19    1.65    2.23
  11   2 -19    5.22    3.63
  11  -2 -18    5.91    4.14
  11   2 -18    6.29    3.80
  11  -2 -17    0.26    3.66
  11   2 -17    2.76    2.40
  11  -2 -16    7.94    3.97
  11   2 -16    3.91    1.90
  11  -2 -15   -2.11    3.44
  11   2 -15    0.34    3.11
  11  -2 -14   26.18    5.91
  11   2 -14   13.27    3.98
  11  -2 -13   42.79    7.80
  11   2 -13   47.20    7.87
  11  -2 -13   46.59    7.27
  11  -2 -12    5.98    3.10
  11  -2 -12    9.61    5.16
  11   2 -12    6.35    2.23
  11  -2 -11    3.20    3.13
  11  -2 -11    5.98    2.99
  11   2 -11    6.35    2.94
  11  -2 -10    2.67    1.74
  11   2 -10    4.16    3.24
  11  -2  -9    2.17    1.96
  11  -2  -9    4.67    2.54
  11   2  -9    0.06    2.79
  11  -2  -8  122.92   12.62
  11   2  -8  138.04   13.16
  11  -2  -8  103.02   10.87
  11  -2  -7   20.87    5.71
  11  -2  -7   19.50    4.82
  11   2  -7   24.80    5.98
  11  -2  -6    2.56    1.41
  11  -2  -6    4.98    2.14
  11   2  -6    2.43    3.79
  11  -2  -5   66.58    9.15
  11   2  -5   59.96    8.67
  11  -2  -5   70.35    8.71
  11  -2  -4    5.09    3.06
  11  -2  -4    8.67    2.92
  11   2  -4    3.51    1.60
  11   2  -4    1.91    2.18
  11   2  -3  506.79   25.45
  11   2  -3  497.85   25.28
  11  -2  -3  546.96   24.28
  11  -2  -3  501.59   24.26
  11  -2  -2   21.31    4.52
  11  -2  -2   26.24    5.61
  11   2  -2   19.29    5.62
  11   2  -1  428.95   23.35
  11   2  -1  392.22   22.35
  11  -2  -1  456.92   22.79
  11  -2  -1  404.09   20.91
  11  -2   0    2.96    1.45
  11  -2   0    1.91    1.25
  11   2   0    3.49    2.74
  11   2   0    3.04    3.48
  11   2   1  418.74   22.99
  11   2   1  374.63   21.92
  11  -2   1  437.57   22.50
  11  -2   1  451.98   22.38
  11  -2   1  401.69   20.86
  11  -2   2   24.58    4.84
  11   2   2   35.76    7.21
  11  -2   2   37.16    6.63
  11   2   2   33.99    6.79
  11  -2   2   25.31    5.26
  11   2   3  486.51   24.46
  11   2   3  527.66   25.57
  11  -2   3  541.14   24.50
  11  -2   3  475.87   23.01
  11  -2   3  494.19   24.10
  11  -2   4    5.16    2.68
  11  -2   4    7.83    3.25
  11   2   4    3.59    1.69
  11   2   4    9.18    4.17
  11  -2   4    7.22    3.18
  11   2   5   47.47    7.76
  11  -2   5   58.05    7.82
  11   2   5   58.29    9.07
  11  -2   5   59.56    8.14
  11  -2   5   60.70    8.61
  11  -2   6    6.99    3.50
  11   2   6    7.45    4.00
  11   2   6    2.42    2.48
  11  -2   6    4.79    3.48
  11  -2   6    0.54    2.31
  11  -2   7   18.42    4.37
  11   2   7   23.14    5.72
  11   2   7   20.41    4.94
  11  -2   7   24.55    4.80
  11  -2   7   19.11    4.71
  11   2   8  104.33   11.56
  11  -2   8  126.49   11.64
  11   2   8  101.47   11.82
  11  -2   8  115.20   11.43
  11  -2   8  123.67   12.37
  11   2   9    0.47    1.63
  11   2   9    1.65    1.94
  11  -2   9    1.14    2.43
  11  -2   9    3.11    2.11
  11   2  10    4.68    3.79
  11   2  10   10.02    4.69
  11  -2  10   10.62    3.56
  11  -2  10   15.52    4.61
  11   2  11    8.06    4.51
  11  -2  11    1.82    2.05
  11   2  11    7.67    4.69
  11  -2  11    0.76    1.67
  11   2  12   14.41    4.99
  11  -2  12   10.25    5.25
  11   2  12   11.16    3.39
  11  -2  12   16.14    3.30
  11  -2  13   49.19    8.09
  11   2  13   50.57    9.10
  11  -2  13   49.37    8.53
  11   2  13   51.04    8.65
  11   2  14   17.85    5.13
  11   2  14   23.98    5.86
  11  -2  14   23.61    5.40
  11   2  15    2.55    2.04
  11  -2  15    3.93    3.94
  11   2  16    6.36    3.30
  11  -2  16    2.93    3.30
  11   2  17    1.50    3.00
  11  -2  17    0.49    2.68
  11   2  18    1.08    2.47
  11   2  19    0.44    2.72
  11   2  20   24.45    5.97
  11   2  21    3.69    3.00
  11   2  22    9.44    5.17
  11   2  23   66.76   10.79
  11   2  24   15.29    5.38
  11   2  25   10.00    4.36
  11  -3 -25  138.15   16.94
  11  -3 -24  144.46   16.89
  11  -3 -23  100.55   14.05
  11  -3 -22   35.35    9.67
  11  -3 -21   46.76    9.86
  11  -3 -20   71.04   11.21
  11   3 -20   71.42   12.31
  11  -3 -19   42.68    8.48
  11   3 -19   40.18    8.88
  11  -3 -18  186.30   17.28
  11   3 -18  233.86   20.07
  11  -3 -17   83.46   11.39
  11   3 -17   81.78   12.24
  11  -3 -16    2.41    2.55
  11   3 -16   -1.52    3.73
  11  -3 -15   45.81    9.09
  11   3 -15   41.49    8.59
  11  -3 -14  175.01   14.77
  11  -3 -14  194.40   16.57
  11   3 -14  200.90   17.71
  11  -3 -13  148.69   13.28
  11  -3 -13  146.18   14.59
  11   3 -13  120.77   13.77
  11  -3 -12  152.38   13.59
  11  -3 -12  156.18   14.86
  11   3 -12  158.29   15.47
  11  -3 -11  303.13   18.88
  11  -3 -11  287.19   20.18
  11   3 -11  282.46   20.37
  11  -3 -10   83.21    9.83
  11  -3 -10   88.97   11.21
  11   3 -10   65.61    9.91
  11  -3  -9  960.83   33.55
  11  -3  -9  948.98   35.67
  11   3  -9  908.94   35.54
  11  -3  -8  475.04   23.51
  11  -3  -8  441.02   24.00
  11   3  -8  450.11   25.35
  11  -3  -7   93.85   10.64
  11  -3  -7   80.58    9.95
  11   3  -7   84.71   10.47
  11  -3  -6  110.27   11.38
  11  -3  -6   90.93   10.81
  11   3  -6   76.11   10.58
  11   3  -6  100.32   11.88
  11  -3  -5  664.99   27.56
  11  -3  -5  640.29   28.13
  11   3  -5  621.40   28.92
  11   3  -5  645.54   29.70
  11  -3  -4  492.67   23.99
  11  -3  -4  456.42   23.66
  11   3  -4  456.25   24.74
  11   3  -4  478.79   25.61
  11  -3  -3 2183.69   50.02
  11  -3  -3 2207.22   52.40
  11   3  -3 2212.06   53.89
  11   3  -3 2297.77   56.00
  11  -3  -2  604.62   26.33
  11  -3  -2  554.60   25.74
  11   3  -2  625.75   28.81
  11   3  -2  605.22   28.27
  11  -3  -1 1888.56   46.63
  11  -3  -1 1919.68   47.69
  11   3  -1 1900.05   50.02
  11   3  -1 1976.66   51.61
  11  -3   0  224.59   16.16
  11  -3   0  199.28   15.41
  11   3   0  186.13   16.23
  11   3   0  190.68   15.85
  11  -3   1 1896.57   47.42
  11   3   1 1953.89   50.60
  11  -3   1 1957.36   46.47
  11  -3   1 2043.10   48.53
  11   3   2  548.98   27.38
  11   3   2  624.63   28.64
  11  -3   2  594.39   25.66
  11  -3   2  572.16   25.63
  11  -3   2  590.05   26.15
  11   3   3 2198.22   54.12
  11   3   3 2237.43   54.86
  11  -3   3 2328.49   50.12
  11  -3   3 2294.15   50.75
  11  -3   3 2285.84   51.89
  11   3   4  481.44   25.46
  11   3   4  535.00   26.71
  11  -3   4  453.19   22.08
  11  -3   4  547.69   24.66
  11  -3   4  496.31   24.30
  11   3   5  668.92   30.23
  11   3   5  656.48   30.07
  11  -3   5  625.08   25.68
  11  -3   5  617.91   26.51
  11  -3   5  612.99   27.13
  11   3   6   97.44   11.65
  11   3   6  106.73   12.42
  11  -3   6  109.40   10.87
  11  -3   6  116.96   11.14
  11  -3   6  108.05   11.29
  11   3   7   83.94   11.13
  11   3   7   99.33   11.38
  11  -3   7   91.09   10.53
  11  -3   7   81.44    9.22
  11  -3   7   72.50    9.41
  11   3   8  467.14   25.72
  11   3   8  431.19   24.58
  11  -3   8  416.17   21.56
  11  -3   8  452.42   22.72
  11  -3   8  442.17   23.81
  11   3   9  939.09   36.65
  11   3   9 1000.22   37.78
  11  -3   9  925.48   34.45
  11   3  10   91.83   11.65
  11   3  10   77.67   10.58
  11  -3  10   72.97    9.74
  11   3  11  275.32   20.34
  11  -3  11  281.55   19.26
  11   3  11  304.43   21.26
  11   3  12  111.88   13.19
  11  -3  12  143.18   13.95
  11   3  12  166.19   16.62
  11   3  13  139.05   13.97
  11  -3  13  108.06   12.64
  11   3  13  102.99   12.64
  11   3  14  182.61   16.58
  11   3  14  168.56   16.29
  11  -3  14  196.08   16.96
  11   3  15   36.08    7.58
  11   3  15   49.57    9.15
  11  -3  15   39.32    7.64
  11   3  16    1.75    3.24
  11  -3  16   -0.17    3.27
  11   3  17   87.38   11.73
  11  -3  17   90.65   11.46
  11   3  18  228.14   19.48
  11  -3  18  210.85   18.26
  11   3  19   58.45    9.88
  11  -3  19   33.95    7.32
  11   3  20   77.93   11.58
  11   3  21   57.10   10.41
  11   3  22   19.66    6.50
  11   3  23  112.88   14.31
  11   3  24  147.21   16.12
  11   3  25  108.93   14.09
  11  -4 -24    6.94    2.52
  11  -4 -23   20.26    6.85
  11  -4 -22   39.84    9.65
  11  -4 -21   27.39    7.16
  11  -4 -20   12.43    4.93
  11   4 -19    1.63    2.56
  11  -4 -19    2.90    3.39
  11   4 -18    5.13    4.91
  11  -4 -18    4.83    2.03
  11   4 -17    2.05    3.01
  11  -4 -17    2.99    2.35
  11   4 -16    1.28    4.18
  11  -4 -16    4.27    3.31
  11   4 -15   14.82    6.14
  11  -4 -15   11.76    4.28
  11  -4 -14    5.53    4.47
  11   4 -14   -1.73    4.05
  11  -4 -14    0.11    2.18
  11  -4 -13    6.38    4.10
  11   4 -13    5.43    3.80
  11  -4 -13    3.21    2.16
  11  -4 -12   56.55    9.10
  11   4 -12   58.84    9.86
  11  -4 -12   37.83    7.64
  11  -4 -11   16.75    5.03
  11   4 -11   17.95    4.30
  11  -4 -11   22.97    5.74
  11  -4 -10   56.24    8.65
  11   4 -10   80.24   11.35
  11  -4 -10   65.19    9.74
  11  -4  -9    3.26    2.40
  11   4  -9    3.06    4.29
  11  -4  -9    7.61    2.89
  11   4  -9    7.17    2.46
  11  -4  -8  141.67   13.38
  11   4  -8  154.27   15.17
  11  -4  -8  128.97   13.43
  11   4  -8  158.94   15.05
  11  -4  -7   31.05    6.88
  11   4  -7   24.55    6.17
  11  -4  -7   28.24    5.76
  11   4  -7   17.25    5.57
  11  -4  -6   18.86    6.12
  11   4  -6   14.67    4.78
  11  -4  -6   12.63    4.13
  11   4  -6   15.90    5.19
  11  -4  -5    4.51    2.84
  11   4  -5    3.80    3.00
  11  -4  -5   10.31    4.35
  11   4  -5    6.13    3.13
  11  -4  -4 1022.56   35.40
  11   4  -4 1090.45   39.00
  11  -4  -4 1098.16   37.85
  11   4  -4 1004.31   37.69
  11  -4  -3  135.84   12.76
  11   4  -3  115.66   13.01
  11  -4  -3  125.50   12.72
  11   4  -3  125.45   13.62
  11  -4  -2  216.44   16.17
  11   4  -2  181.40   15.82
  11  -4  -2  225.05   16.61
  11   4  -2  253.48   18.90
  11  -4  -1  366.56   21.13
  11   4  -1  353.86   22.26
  11  -4  -1  356.97   20.84
  11   4  -1  332.77   21.42
  11  -4   0   16.48    4.89
  11   4   0   17.20    4.31
  11  -4   0   12.14    4.23
  11   4   0   10.18    3.51
  11  -4   1  396.26   21.67
  11   4   1  381.84   23.39
  11  -4   1  367.11   21.22
  11   4   1  356.60   22.24
  11  -4   1  340.48   19.33
  11  -4   2  156.05   13.81
  11  -4   2  224.12   16.12
  11   4   2  203.40   17.21
  11   4   2  229.74   17.99
  11  -4   2  164.50   13.79
  11  -4   3  101.99   11.23
  11  -4   3  139.55   12.41
  11   4   3  105.21   12.66
  11   4   3  135.05   13.82
  11  -4   4 1072.98   36.65
  11  -4   4 1023.45   34.80
  11   4   4  949.77   37.28
  11   4   4 1031.48   38.17
  11  -4   5    6.72    4.47
  11   4   5    2.30    1.81
  11  -4   5    4.46    3.47
  11   4   5    5.52    4.04
  11  -4   6   12.66    4.73
  11   4   6    6.09    3.45
  11  -4   6   17.07    4.19
  11   4   6    8.18    4.33
  11  -4   7   27.79    6.93
  11   4   7   12.43    4.89
  11  -4   7   13.78    4.59
  11   4   7   20.25    6.19
  11   4   8  140.89   14.39
  11  -4   8  160.59   14.48
  11   4   8  157.47   15.13
  11  -4   9    9.74    4.31
  11   4   9    8.50    3.54
  11   4   9   11.39    3.82
  11   4  10   61.94    9.79
  11   4  10   63.89   10.71
  11  -4  10   63.19    9.45
  11  -4  11   16.71    5.05
  11   4  11   18.07    5.07
  11   4  11    9.45    4.63
  11   4  12   56.43    9.29
  11   4  12   65.38   10.75
  11  -4  12   75.67   10.20
  11  -4  13    4.46    2.35
  11   4  13    1.03    2.54
  11   4  13   -1.04    2.20
  11  -4  14   -0.56    2.26
  11   4  14    4.74    4.47
  11   4  14   -1.30    1.98
  11  -4  15   12.19    5.26
  11   4  15   17.80    5.39
  11   4  15   10.94    5.24
  11   4  16   -3.88    4.62
  11  -4  16    1.89    1.90
  11   4  17   -0.91    2.15
  11  -4  17    5.93    4.12
  11   4  18    9.51    3.60
  11  -4  18    6.24    3.95
  11   4  19    0.62    2.53
  11  -4  19    3.35    3.21
  11   4  20    2.44    2.92
  11   4  21   29.53    7.91
  11   4  22   43.25    9.39
  11   4  23   15.31    5.54
  11   4  24   24.29    6.92
  11  -5 -22   61.04   11.18
  11  -5 -21   16.01    4.95
  11  -5 -20  117.76   13.99
  11  -5 -19   31.30    7.61
  11   5 -18   72.56   11.85
  11  -5 -18   85.05   12.13
  11   5 -17   23.84    7.18
  11  -5 -17   18.71    6.24
  11   5 -16    5.46    2.91
  11  -5 -16    6.05    2.51
  11  -5 -15   55.48    9.25
  11   5 -15   58.74   11.23
  11  -5 -15   51.10    9.06
  11  -5 -14  173.54   16.11
  11   5 -14  143.60   16.13
  11  -5 -14  156.07   15.39
  11  -5 -13   96.87   12.31
  11   5 -13   75.83   11.58
  11  -5 -13   79.69   11.10
  11  -5 -12   34.46    7.05
  11   5 -12   41.21    7.98
  11  -5 -12   50.67    8.95
  11   5 -12   36.54    7.90
  11  -5 -11   -0.42    1.75
  11   5 -11    0.09    2.95
  11   5 -11   -0.44    2.48
  11  -5 -11    5.06    3.30
  11  -5 -10   -1.54    2.23
  11   5 -10    1.33    3.19
  11   5 -10    2.00    4.53
  11  -5 -10    4.18    2.19
  11  -5  -9  105.37   12.06
  11   5  -9   93.90   11.92
  11  -5  -9   99.89   12.33
  11   5  -9   92.44   12.58
  11  -5  -8  551.31   26.86
  11   5  -8  528.15   28.75
  11  -5  -8  569.04   28.33
  11   5  -8  519.35   28.60
  11  -5  -7   63.11    9.20
  11   5  -7   82.73   11.31
  11  -5  -7   64.68    9.93
  11   5  -7   60.45    9.77
  11  -5  -6   62.21    9.59
  11   5  -6   54.28    9.29
  11  -5  -6   51.41    7.96
  11   5  -6   51.20    8.64
  11  -5  -5   21.45    5.74
  11   5  -5   16.82    4.95
  11   5  -5   12.43    3.97
  11  -5  -5   20.19    5.40
  11  -5  -4  498.43   25.18
  11   5  -4  516.86   27.69
  11  -5  -4  483.62   25.88
  11   5  -4  474.78   27.00
  11  -5  -3   60.72    8.94
  11   5  -3   66.67    9.69
  11  -5  -3   61.33    9.46
  11   5  -3   61.26    9.74
  11  -5  -2  178.22   15.35
  11   5  -2  174.36   16.31
  11  -5  -2  185.06   15.89
  11   5  -2  206.20   17.59
  11  -5  -1  266.29   18.24
  11   5  -1  256.88   19.49
  11  -5  -1  259.22   18.50
  11   5  -1  239.94   18.76
  11  -5   0    5.17    4.51
  11   5   0    6.47    3.12
  11   5   0    8.95    3.50
  11  -5   0    7.16    3.25
  11  -5   1  233.81   17.95
  11   5   1  279.13   20.69
  11  -5   1  257.05   18.12
  11   5   1  252.98   19.45
  11  -5   2  187.87   16.02
  11   5   2  202.41   17.97
  11  -5   2  182.78   15.48
  11   5   2  212.86   17.84
  11  -5   3   50.34    8.14
  11   5   3   54.96    8.82
  11  -5   3   46.92    7.73
  11   5   3   61.14    9.97
  11   5   4  518.43   28.72
  11  -5   4  466.62   25.05
  11  -5   4  490.03   24.81
  11   5   4  452.31   25.94
  11  -5   5   13.62    4.14
  11   5   5   24.03    5.83
  11  -5   5   26.99    5.94
  11   5   5   10.27    3.37
  11  -5   6   51.53    9.15
  11  -5   6   41.03    7.13
  11   5   6   48.50    8.47
  11   5   6   41.78    8.66
  11  -5   7   64.95    9.82
  11   5   7   66.42    9.88
  11   5   7   69.72   11.32
  11  -5   8  488.71   25.77
  11   5   8  538.14   30.50
  11   5   9  127.75   14.21
  11   5   9  116.32   13.88
  11  -5   9  106.80   12.45
  11  -5  10    3.67    3.36
  11   5  10    3.09    3.24
  11   5  10   -2.36    3.66
  11  -5  11    2.83    2.48
  11   5  11    1.98    3.54
  11   5  11    1.62    4.79
  11   5  12   36.60    7.54
  11  -5  12   34.90    6.85
  11   5  12   42.99    8.60
  11   5  13   90.11   11.81
  11   5  13   74.87   11.66
  11  -5  13   87.95   11.67
  11   5  14  182.66   17.38
  11   5  14  154.70   16.88
  11  -5  14  133.46   14.50
  11  -5  15   49.69    8.54
  11   5  15   47.89    8.76
  11   5  15   43.76    8.60
  11  -5  16    5.38    3.57
  11   5  16    2.93    2.36
  11   5  16    1.89    2.41
  11  -5  17   14.79    4.28
  11   5  17   17.06    5.42
  11   5  17   16.86    5.14
  11   5  18   72.71   11.01
  11  -5  18   85.61   12.27
  11   5  19   39.03    8.25
  11  -5  19    8.50    5.60
  11   5  20  100.93   13.40
  11   5  21   21.19    6.69
  11   5  22   69.86   11.04
  11  -6 -20   61.34   10.28
  11  -6 -19   22.47    6.84
  11   6 -18    4.18    5.04
  11  -6 -18   19.62    6.78
  11  -6 -17    1.31    3.43
  11   6 -17    0.37    4.69
  11   6 -17   -4.06    4.14
  11  -6 -16    2.49    2.65
  11   6 -16    7.85    5.59
  11   6 -16   -0.84    4.25
  11  -6 -15   14.41    4.56
  11  -6 -15   16.45    5.55
  11   6 -15   19.16    5.39
  11   6 -15   13.15    3.85
  11  -6 -14   22.38    6.63
  11  -6 -14   27.71    7.26
  11   6 -14   32.83    8.68
  11   6 -14   25.76    8.48
  11  -6 -13   26.03    6.84
  11  -6 -13   31.08    7.42
  11   6 -13   18.40    6.17
  11   6 -13   14.25    5.80
  11  -6 -12    2.56    2.35
  11  -6 -12    9.62    4.40
  11   6 -12   -0.14    2.71
  11   6 -12    3.27    4.43
  11  -6 -11    4.42    3.49
  11  -6 -11   10.35    5.32
  11   6 -11    4.23    3.85
  11   6 -11    4.04    2.84
  11  -6 -10   94.82   11.49
  11   6 -10   86.64   12.19
  11  -6 -10   85.27   11.53
  11   6 -10   75.83   11.50
  11  -6  -9   10.20    3.60
  11  -6  -9    7.42    3.17
  11   6  -9    3.44    2.74
  11   6  -9   10.29    3.78
  11   6  -8   59.57   10.12
  11  -6  -8   51.71    8.51
  11  -6  -8   58.84    9.56
  11   6  -8   75.12   11.85
  11  -6  -7    4.27    2.66
  11  -6  -7    1.99    2.17
  11   6  -7   11.04    5.50
  11   6  -7    4.84    3.01
  11  -6  -6   54.08    8.66
  11   6  -6   37.33    9.08
  11  -6  -6   53.04    9.52
  11   6  -6   51.63    9.98
  11  -6  -5   25.13    5.32
  11  -6  -5   18.93    5.07
  11   6  -5   11.57    5.18
  11   6  -5   26.47    7.02
  11  -6  -4   10.04    4.04
  11  -6  -4   10.30    4.59
  11   6  -4    9.78    3.57
  11   6  -4    5.86    2.81
  11  -6  -3   -0.01    2.56
  11  -6  -3    1.05    2.58
  11   6  -3   -0.86    2.33
  11   6  -3   -2.51    3.20
  11   6  -2  143.17   15.37
  11  -6  -2  169.53   14.83
  11  -6  -2  148.05   14.45
  11   6  -2  152.65   15.51
  11  -6  -1   13.19    3.29
  11   6  -1   10.70    4.39
  11   6  -1    5.65    2.93
  11  -6  -1   16.94    5.58
  11  -6   0   -1.61    2.24
  11   6   0    3.73    3.29
  11   6   0   -4.43    4.40
  11  -6   0   -0.60    1.69
  11  -6   1   21.38    5.61
  11   6   1   15.40    5.57
  11   6   1   13.80    5.17
  11  -6   1   14.38    4.68
  11  -6   2  135.18   13.76
  11  -6   2  142.43   14.28
  11   6   2  158.49   15.73
  11   6   2  119.48   13.97
  11  -6   3   -1.36    1.81
  11   6   3    0.33    3.03
  11   6   3   -0.19    1.89
  11  -6   3    1.22    2.64
  11  -6   4    9.07    2.16
  11   6   4    6.35    3.38
  11   6   4    2.41    3.08
  11  -6   4    8.90    2.73
  11   6   5   18.17    6.51
  11  -6   5   15.60    5.89
  11   6   5   23.41    5.94
  11  -6   6   62.95    9.66
  11   6   6   53.37    9.41
  11   6   6   60.72   10.62
  11   6   7    1.22    2.96
  11  -6   7    9.56    4.07
  11   6   7    9.71    3.04
  11  -6   8   47.86    8.18
  11   6   8   52.68    9.51
  11   6   8   75.31   11.50
  11   6   9    4.88    4.09
  11  -6   9    2.94    2.86
  11   6   9    1.17    2.48
  11  -6  10   92.07   11.55
  11   6  10   93.37   12.08
  11   6  10  101.35   13.62
  11   6  11    4.80    4.18
  11  -6  11    7.28    3.74
  11   6  11    6.20    4.45
  11   6  12   -0.55    3.76
  11  -6  12    5.53    3.73
  11   6  12    8.55    4.98
  11  -6  13   21.57    6.33
  11   6  13   18.37    6.42
  11   6  13   25.57    6.97
  11  -6  14   31.28    7.90
  11   6  14   27.24    7.60
  11   6  14   33.15    7.63
  11  -6  15   23.21    5.79
  11   6  15   14.29    5.05
  11   6  15   14.11    5.99
  11  -6  16    5.26    4.02
  11   6  16   10.18    4.82
  11   6  16   12.42    5.97
  11  -6  17    6.25    4.14
  11   6  17   -5.29    3.98
  11   6  17    3.04    4.33
  11  -6  18   16.42    6.88
  11   6  18   13.71    5.79
  11   6  18    0.92    2.29
  11   6  19   12.50    4.83
  11   6  19   -1.26    2.08
  11   6  20   63.56   11.06
  11  -7 -18   55.12    9.81
  11  -7 -17    5.77    3.64
  11  -7 -16    9.95    4.65
  11  -7 -15   45.77    8.82
  11  -7 -15   46.01    9.68
  11   7 -15   36.49    9.43
  11   7 -14  179.78   18.62
  11  -7 -14  166.40   16.99
  11  -7 -14  169.96   16.71
  11   7 -13   77.74   12.45
  11  -7 -13   82.42   11.78
  11  -7 -13  102.08   13.01
  11   7 -13   98.42   14.22
  11   7 -12   77.44   12.41
  11  -7 -12   56.20    9.48
  11  -7 -12   76.50   11.04
  11   7 -12   74.24   12.71
  11  -7 -11   18.22    5.69
  11  -7 -11   16.21    5.56
  11   7 -11   14.76    4.07
  11   7 -11   23.78    7.01
  11  -7 -10   15.15    5.12
  11  -7 -10    8.99    2.69
  11   7 -10   12.17    5.87
  11   7 -10    6.00    4.01
  11  -7  -9   63.29   10.68
  11   7  -9   52.05   10.07
  11  -7  -9   67.23   10.48
  11   7  -9   66.39   11.21
  11   7  -8  295.28   23.04
  11  -7  -8  295.02   21.04
  11  -7  -8  261.24   20.34
  11   7  -8  263.65   21.65
  11   7  -7  212.61   19.63
  11  -7  -7  200.00   17.34
  11  -7  -7  220.20   18.53
  11   7  -7  194.51   18.70
  11   7  -6   82.04   11.99
  11  -7  -6  103.24   12.27
  11  -7  -6   82.48   11.22
  11   7  -6   81.21   13.07
  11   7  -5   14.47    6.14
  11  -7  -5    2.02    3.30
  11  -7  -5    9.84    4.44
  11   7  -5    6.51    2.19
  11  -7  -4   89.68   11.19
  11  -7  -4   99.08   11.89
  11   7  -4   94.83   12.98
  11   7  -4  106.71   13.87
  11  -7  -3  138.01   14.51
  11  -7  -3  151.53   15.01
  11   7  -3  139.73   15.45
  11   7  -2   60.03   10.10
  11  -7  -2   56.11    8.75
  11  -7  -2   54.54    9.72
  11   7  -2   51.33    9.84
  11  -7  -1   10.02    3.47
  11   7  -1    1.56    3.37
  11  -7  -1   13.55    5.51
  11   7  -1   22.33    7.47
  11  -7   0    1.75    4.09
  11   7   0   -0.51    3.47
  11  -7   0   -0.65    3.00
  11   7   0   -0.22    2.46
  11  -7   1    8.51    3.37
  11   7   1    8.92    4.14
  11  -7   1   10.38    4.09
  11   7   1   10.22    5.00
  11  -7   2   54.34    9.14
  11  -7   2   68.77   10.34
  11   7   2   69.27   11.02
  11   7   2   67.58   10.59
  11  -7   3  183.78   16.48
  11  -7   3  157.14   15.26
  11   7   3  150.65   15.87
  11  -7   4  109.57   13.02
  11   7   4   89.99   12.29
  11   7   4   89.55   12.95
  11   7   5    8.67    4.58
  11  -7   5   21.38    5.75
  11   7   5   12.52    4.30
  11  -7   6   71.78   10.99
  11   7   6   71.53   10.96
  11   7   6  101.75   13.59
  11  -7   7  210.86   18.05
 -11  -7   7  174.71   16.99
  11   7   7  169.61   17.32
  11   7   7  215.95   19.94
  11  -7   8  261.93   20.18
  11   7   8  260.47   20.85
  11   7   8  268.31   22.36
  11   7   9   37.90    8.88
  11  -7   9   64.34   10.35
  11   7   9   63.58   10.98
  11  -7  10    3.60    2.12
  11   7  10   10.56    3.86
  11   7  10    4.56    4.26
  11  -7  11   22.52    6.16
  11   7  11   24.17    6.69
  11   7  11   16.60    6.33
  11  -7  12   80.44   11.06
  11   7  12   77.65   11.58
  11  -7  13  111.80   13.57
  11   7  13  112.31   14.10
  11   7  13   90.98   12.80
  11   7  14  177.38   18.23
  11   7  14  162.73   18.14
  11  -7  14  189.02   18.16
  11  -7  15   24.27    6.06
  11   7  15   35.00    8.51
  11   7  15   35.12    8.81
  11  -7  16    7.33    3.91
  11   7  16    7.87    4.16
  11   7  16   10.42    7.13
  11  -7  17   -2.66    5.17
  11   7  17    3.51    3.84
  11   7  17   13.20    5.67
  11   7  18   72.65   11.57
  11   7  18   59.18   11.42
  11  -8 -15    6.33    3.18
  11  -8 -15    7.26    4.25
  11   8 -14    2.24    2.99
  11  -8 -14    0.41    4.79
  11  -8 -14   -0.40    3.61
  11   8 -13   -5.32    4.61
  11  -8 -13    5.48    5.76
  11  -8 -13   11.94    4.24
  11   8 -12    3.74    4.18
  11  -8 -12    1.77    2.39
  11  -8 -12    4.01    3.59
  11   8 -11    2.81    2.76
  11  -8 -11   13.73    5.83
  11  -8 -11    3.53    4.10
  11   8 -10    0.75    4.14
  11  -8 -10    2.09    2.52
  11  -8 -10    2.82    2.62
  11   8  -9   11.93    5.81
  11  -8  -9   18.29    5.41
  11  -8  -9   23.43    6.37
  11  -8  -8    7.86    2.35
  11  -8  -8    5.73    3.16
  11   8  -8   12.17    2.84
  11   8  -7   -3.72    3.41
  11  -8  -7    2.87    3.71
  11  -8  -7    1.78    2.30
  11   8  -7    3.67    4.44
  11   8  -6    7.13    5.03
  11  -8  -6    4.09    3.57
  11  -8  -6    5.80    4.21
  11   8  -6    0.59    2.44
  11   8  -5    4.38    3.49
  11  -8  -5    8.45    4.18
  11  -8  -5    4.04    3.51
  11   8  -4    4.78    2.74
  11  -8  -4    3.37    2.84
  11  -8  -4    1.86    3.02
  11   8  -4   -1.31    4.08
  11   8  -3   -1.29    2.35
  11  -8  -3   -1.34    3.32
  11  -8  -3   -1.35    2.32
  11   8  -3    2.59    4.73
  11   8  -2   14.28    5.73
  11  -8  -2    5.35    2.89
  11  -8  -2    2.96    2.00
  11   8  -2    9.83    3.87
  11   8  -1   61.19   10.94
  11  -8  -1   70.94   10.33
  11  -8  -1   61.52   10.22
  11   8  -1   65.23   11.27
  11   8   0    9.01    3.83
  11  -8   0   12.90    4.48
  11  -8   0    9.62    4.94
  11   8   0    8.95    3.66
  11   8   1   48.58    9.75
  11  -8   1   73.35   10.63
  11  -8   1   62.36   10.54
 -11  -8   1   51.41    9.64
  11   8   1   59.85   10.80
  11   8   2    3.07    2.98
  11  -8   2    9.28    4.75
  11  -8   2    4.47    4.12
 -11  -8   2   12.92    4.45
  11   8   2   -4.16    3.60
  11   8   3    3.26    2.45
  11  -8   3   -0.36    2.76
 -11  -8   3   -1.91    2.10
  11   8   3    1.46    3.93
  11   8   4   -0.84    2.42
  11  -8   4    2.00    3.92
 -11  -8   4    1.51    3.46
  11   8   4   -1.33    2.99
  11   8   5    7.02    4.58
  11  -8   5   16.39    5.50
 -11  -8   5    2.03    3.45
  11   8   5   15.26    6.16
  11   8   6    1.34    3.55
  11  -8   6    5.62    3.31
 -11  -8   6    8.33    5.32
  11   8   6    7.31    4.84
  11   8   7    4.86    5.06
  11  -8   7    3.03    1.82
  11   8   7   13.52    5.81
  11  -8   8    3.02    2.79
  11   8   8   16.38    6.14
  11   8   8   11.95    6.38
  11  -8   9   15.01    5.41
  11   8   9    8.14    5.28
  11   8   9   11.32    5.90
  11  -8  10    7.16    4.18
  11   8  10    0.83    2.74
  11   8  10    4.62    5.10
  11  -8  11   -0.05    2.18
  11   8  11    5.09    5.61
  11   8  11    0.54    4.08
  11  -8  12    4.83    3.96
  11   8  12   -1.96    3.48
  11   8  12   -0.57    1.93
  11  -8  13    8.04    4.04
  11   8  13    8.17    5.17
  11   8  13    3.40    4.57
  11  -8  14    3.34    2.07
  11   8  14   -0.45    3.33
  11   8  14    4.41    5.24
  11  -8  15    4.29    2.73
  11   8  15    7.01    4.54
  11   8  15    9.23    4.48
  11   9 -10   10.66    6.08
  11  -9 -10   13.73    5.92
  11  -9 -10    6.31    3.41
 -11  -9 -10    6.81    3.65
  11   9  -9   51.40   10.76
  11  -9  -9   57.61   10.22
 -11  -9  -9   51.52    9.40
  11  -9  -9   67.23   10.75
  11   9  -8   56.82   12.10
  11  -9  -8   70.76   11.39
 -11  -9  -8   65.66   10.51
  11  -9  -8   66.83   11.22
 -11  -9  -7  117.42   14.56
  11  -9  -7  110.91   14.18
  11   9  -7  123.75   16.57
  11   9  -6   26.27    7.68
  11  -9  -6   42.02    9.06
  11  -9  -6   26.15    6.30
 -11  -9  -6   36.51    7.95
  11   9  -5   51.14   10.82
  11  -9  -5   46.83    8.76
  11  -9  -5   48.39    9.23
 -11  -9  -5   52.28    9.90
  11   9  -4   27.84    6.90
  11  -9  -4   17.99    5.49
  11  -9  -4   10.14    4.90
 -11  -9  -4   14.47    5.24
  11  -9  -3  319.59   23.72
 -11  -9  -3  325.09   23.89
  11  -9  -3  292.19   23.27
  11   9  -3  293.02   24.53
  11   9  -2   63.73   11.29
  11  -9  -2   69.77   11.23
  11  -9  -2   53.52    9.89
 -11  -9  -2   70.19   11.03
  11   9  -2   50.18   12.03
  11   9  -1    2.19    2.09
  11  -9  -1   -0.27    2.68
  11  -9  -1    0.34    3.45
 -11  -9  -1    6.10    2.56
  11   9  -1    3.92    3.83
  11   9   0   12.67    6.53
  11  -9   0   12.45    3.60
  11  -9   0    7.60    4.78
 -11  -9   0   -1.27    4.18
  11   9   0    5.17    3.30
  11   9   1    5.36    5.05
  11  -9   1    2.58    5.04
 -11  -9   1    4.86    1.85
  11   9   1    4.10    3.83
  11  -9   2   73.97   11.05
 -11  -9   2   83.77   12.50
  11   9   2   61.56   10.94
  11   9   2   86.21   12.79
  11  -9   3  282.01   21.89
 -11  -9   3  280.10   22.69
  11   9   3  307.21   23.69
  11   9   3  280.44   23.55
  11  -9   4   30.72    8.21
 -11  -9   4   28.37    8.55
  11   9   4   19.96    7.48
  11   9   4   39.24    8.78
  11  -9   5   37.63    8.86
 -11  -9   5   60.84   10.56
  11   9   5   34.03    8.29
  11   9   5   36.67    9.06
  11  -9   6   29.09    6.48
  11   9   6   44.98   10.31
  11   9   6   38.40    8.64
  11  -9   7  153.94   16.44
  11   9   7  150.61   18.07
  11   9   7  149.92   17.85
  11  -9   8   69.59   11.47
  11   9   8   52.44    9.78
  11   9   8   55.23   10.40
  11  -9   9   39.75    8.70
  11   9   9   57.86   10.86
  11   9   9   53.06   10.66
  11  -9  10   15.72    5.16
  11   9  10    4.73    5.95
  11   9  10    2.47    3.41
  12   0 -24   23.69    6.74
  12   0 -23   16.99    5.91
  12   0 -22   30.08    8.01
  12   0 -21   13.29    5.47
  12   0 -20   71.14   12.06
  12   0 -19  180.64   17.79
  12   0 -18  123.66   14.82
  12   0 -17  365.57   24.41
  12   0 -16  187.80   17.14
  12   0 -15   20.04    6.58
  12   0 -14  513.93   27.84
  12   0 -13  713.97   32.51
  12   0 -12  359.16   23.01
  12   0 -11  337.15   21.79
  12   0 -10  508.74   26.45
  12   0 -10  419.41   21.56
  12   0  -9   40.98    8.33
  12   0  -9   30.37    6.33
  12   0  -8  335.45   21.41
  12   0  -8  305.36   18.13
  12   0  -7   19.84    5.45
  12   0  -7   22.13    3.95
  12   0  -6  287.34   19.16
  12   0  -6  226.56   15.86
  12   0  -5  299.75   19.77
  12   0  -5  335.97   19.64
  12   0  -4  163.96   14.39
  12   0  -4  152.58   12.80
  12   0  -3   96.13   11.30
  12   0  -3   72.68    8.64
  12   0  -2  772.89   31.40
  12   0  -2  736.91   30.75
  12   0  -2  701.39   28.24
  12   0  -1 1411.84   42.44
  12   0  -1 1502.01   43.95
  12   0  -1 1447.68   40.29
  12   0   0  531.11   26.05
  12   0   0  548.09   26.69
  12   0   0  533.23   24.50
  12   0   1 1445.64   43.38
  12   0   1 1367.13   39.34
  12   0   2  773.36   30.97
  12   0   2  795.16   32.08
  12   0   2  831.61   31.03
  12   0   3   91.14   10.65
  12   0   3   74.78    9.88
  12   0   3   83.13    9.63
  12   0   4  176.27   14.74
  12   0   4  134.58   13.32
  12   0   4  182.90   14.69
  12   0   5  328.42   20.24
  12   0   5  331.46   20.68
  12   0   5  327.87   19.65
  12   0   6  264.02   18.10
  12   0   6  231.69   17.45
  12   0   6  237.23   16.93
  12   0   7   17.87    4.43
  12   0   7   28.84    6.40
  12   0   8  299.19   19.61
  12   0   8  298.02   20.30
  12   0   9   42.49    7.55
  12   0   9   47.53    8.32
  12   0  10  447.00   24.14
  12   0  10  481.65   25.72
  12   0  11  302.20   19.67
  12   0  11  364.39   22.70
  12   0  12  385.76   23.90
  12   0  13  722.53   32.82
  12   0  14  471.57   26.63
  12   0  15   13.66    5.11
  12   0  16  211.34   18.55
  12   0  17  335.16   23.33
  12   0  18  151.63   15.96
  12   0  19  155.27   16.06
  12   0  20   79.78   12.01
  12   0  21   14.16    5.35
  12   0  22   20.91    6.21
  12  -1 -25    8.94    4.68
  12  -1 -24   -2.45    5.88
  12  -1 -23    5.07    4.25
  12   1 -23    3.22    2.67
  12  -1 -22   28.90    9.25
  12   1 -22   30.51    7.48
  12  -1 -21   15.62    5.95
  12   1 -21   21.14    7.59
  12  -1 -20   13.25    5.92
  12   1 -20    3.84    4.05
  12  -1 -19   13.07    5.47
  12   1 -19    7.41    3.83
  12  -1 -18   -1.68    3.24
  12   1 -18    4.37    5.34
  12  -1 -17   40.79    8.85
  12   1 -17   43.17    8.91
  12  -1 -16   15.11    5.72
  12   1 -16   17.14    5.94
  12  -1 -15    2.97    2.18
  12   1 -15    7.27    4.60
  12  -1 -14   23.92    6.32
  12   1 -14   25.19    6.78
  12  -1 -13   10.23    4.17
  12   1 -13   12.45    4.62
  12  -1 -12    7.52    4.25
  12   1 -12    9.13    5.19
  12  -1 -12    8.77    3.29
  12   1 -11   66.23   10.46
  12  -1 -11   58.85    9.62
  12  -1 -11   65.89    8.91
  12   1 -10   59.06    9.43
  12  -1 -10   67.39    9.73
  12  -1 -10   74.16    8.83
  12   1  -9   69.48   10.13
  12  -1  -9   42.29    7.89
  12  -1  -9   57.64    8.61
  12  -1  -8   37.65    7.19
  12   1  -8   31.34    6.60
  12  -1  -8   32.00    6.60
  12  -1  -7    4.98    2.96
  12  -1  -7    3.75    3.40
  12   1  -7    5.03    2.84
  12  -1  -6   15.88    4.70
  12  -1  -6   20.55    5.54
  12   1  -6   17.86    4.65
  12   1  -5   58.98    8.98
  12  -1  -5   64.62    9.49
  12  -1  -5   61.34    8.52
  12   1  -4  109.20   11.79
  12  -1  -4  122.79   12.61
  12  -1  -4  115.56   11.48
  12   1  -3  311.61   20.21
  12  -1  -3  296.31   19.47
  12   1  -3  288.66   19.44
  12  -1  -3  312.47   18.68
  12   1  -2  153.16   14.12
  12  -1  -2  153.05   13.73
  12   1  -2  153.68   14.54
  12  -1  -2  141.71   13.08
  12   1  -1   69.86    9.90
  12  -1  -1   70.59    9.69
  12   1  -1   71.80   10.39
  12  -1  -1   74.17    9.52
  12  -1  -1   81.84    9.82
  12  -1   0   20.74    5.75
  12   1   0   10.20    3.70
  12   1   0   11.16    4.66
  12  -1   0   15.21    5.52
  12  -1   0   16.76    4.40
  12   1   1   94.19   10.75
  12  -1   1   77.11    9.52
  12   1   1   91.91   11.10
  12  -1   1   89.44   10.49
  12  -1   1   71.05    9.00
  12   1   2  149.69   14.15
  12  -1   2  133.74   13.27
  12   1   2  148.00   13.83
  12  -1   2  150.74   13.89
  12   1   3  297.14   19.78
  12  -1   3  271.74   18.00
  12   1   3  289.70   19.51
  12  -1   3  275.32   18.70
  12   1   4  100.29   11.42
  12  -1   4  105.30   11.52
  12   1   4   98.88   11.54
  12  -1   4  106.80   11.53
  12   1   5   59.26    9.20
  12  -1   5   56.59    8.11
  12   1   5   64.36    9.55
  12  -1   5   61.92    8.51
  12  -1   5   55.00    8.03
  12   1   6   15.40    4.64
  12  -1   6   16.25    4.58
  12   1   6   22.88    5.79
  12  -1   6   22.15    5.81
  12  -1   6    9.56    3.29
  12   1   7    3.34    2.90
  12  -1   7    6.26    4.03
  12   1   7    4.69    3.04
  12  -1   7    3.91    2.61
  12  -1   7    0.54    2.31
  12   1   8   27.08    6.27
  12  -1   8   28.50    5.80
  12  -1   8   39.84    7.73
  12   1   8   23.97    5.85
  12  -1   8   34.43    7.35
  12   1   9   60.67    9.57
  12  -1   9   60.32    8.43
  12   1   9   66.15    9.71
  12  -1   9   46.39    7.89
  12  -1   9   41.44    7.45
  12   1  10   80.96   10.57
  12  -1  10   55.29    8.50
  12   1  10   70.82   10.06
  12  -1  10   60.36    9.05
  12  -1  10   79.14   10.85
  12   1  11   78.36   10.66
  12   1  11   71.45   10.14
  12  -1  11   62.09    9.34
  12  -1  11   62.23    8.69
  12   1  12   13.85    5.51
  12  -1  12   12.30    4.39
  12   1  12    8.58    3.72
  12  -1  12   13.65    5.35
  12   1  13   17.84    6.89
  12  -1  13    8.96    3.09
  12   1  13   10.35    4.36
  12  -1  14   16.48    4.23
  12   1  14   14.75    4.85
  12  -1  15    5.49    3.04
  12   1  15    8.96    4.59
  12  -1  16   21.69    6.42
  12   1  16    6.38    4.29
  12   1  17   53.52    9.30
  12  -1  17   44.27    8.40
  12   1  18    2.51    2.08
  12   1  19    8.17    3.59
  12   1  20   16.48    6.13
  12   1  21   11.49    3.63
  12   1  22   31.03    8.72
  12   1  23    2.19    2.44
  12   1  24    9.10    6.16
  12   1  25    1.32    2.32
  12  -2 -24   95.93   14.02
  12  -2 -23   11.77    4.84
  12  -2 -22   40.09    8.29
  12   2 -22   29.10    7.35
  12  -2 -21   19.26    5.24
  12   2 -21   14.92    5.12
  12  -2 -20   48.12    9.38
  12   2 -20   33.49    8.61
  12  -2 -19   47.86    9.24
  12   2 -19   50.92    9.86
  12   2 -18  148.64   16.22
  12  -2 -18  170.16   16.95
  12  -2 -17   92.16   12.53
  12   2 -17   64.22   11.15
  12  -2 -16   24.38    6.08
  12   2 -16   31.87    7.49
  12  -2 -15   31.08    7.44
  12   2 -15   46.87    8.89
  12  -2 -14  144.50   14.88
  12   2 -14  184.09   17.21
  12  -2 -13  206.09   17.76
  12   2 -13  172.15   16.32
  12  -2 -13  201.97   15.97
  12  -2 -12  162.82   15.77
  12   2 -12  162.77   15.92
  12  -2 -12  178.95   15.39
  12  -2 -11  108.69   12.36
  12   2 -11   81.47   11.18
  12  -2 -11   98.94   11.36
  12   2 -10  130.46   14.17
  12  -2 -10  122.69   12.02
  12  -2  -9  129.20   13.48
  12   2  -9  124.89   13.14
  12  -2  -9  141.80   12.82
  12  -2  -8  329.38   21.47
  12   2  -8  324.91   21.27
  12  -2  -8  349.68   20.52
  12   2  -7   86.55   11.21
  12  -2  -7  100.31   10.81
  12  -2  -7   74.76   10.23
  12   2  -6   68.11    9.78
  12  -2  -6   62.05    8.31
  12  -2  -6   74.63    9.91
  12   2  -5  175.31   15.48
  12   2  -5  152.32   14.80
  12  -2  -5  179.12   14.47
  12  -2  -5  196.78   16.13
  12   2  -4  420.18   24.31
  12   2  -4  428.61   24.45
  12  -2  -4  404.36   22.95
  12  -2  -4  414.99   22.08
  12  -2  -3   17.41    4.76
  12  -2  -3   30.23    6.66
  12   2  -3   25.00    5.70
  12   2  -2  542.62   27.23
  12   2  -2  575.18   28.59
  12  -2  -2  520.05   25.81
  12  -2  -2  557.64   25.75
  12   2  -1  659.75   30.03
  12   2  -1  696.61   30.93
  12  -2  -1  661.22   29.04
  12  -2  -1  696.25   28.93
  12   2   0  218.30   17.51
  12   2   0  233.01   17.75
  12  -2   0  225.80   16.88
  12  -2   0  237.76   17.53
  12  -2   0  266.34   17.77
  12   2   1  664.54   29.67
  12   2   1  631.39   29.42
  12  -2   1  673.89   28.99
  12  -2   1  646.33   28.63
  12  -2   1  705.10   29.25
  12   2   2  580.54   27.91
  12   2   2  568.93   27.93
  12  -2   2  556.75   26.08
  12  -2   2  532.09   25.77
  12  -2   2  629.91   27.57
  12  -2   3   34.77    6.92
  12  -2   3   32.85    6.70
  12   2   3   25.73    6.15
  12  -2   3   42.49    7.51
  12   2   3   35.25    6.91
  12   2   4  339.35   21.38
  12  -2   4  426.45   22.58
  12   2   4  361.06   22.51
  12  -2   4  390.08   22.10
  12  -2   4  380.05   21.52
  12   2   5  190.20   16.46
  12  -2   5  168.76   14.52
  12   2   5  207.70   16.95
  12  -2   5  155.84   13.71
  12  -2   5  169.01   14.60
  12   2   6   51.93    8.27
  12  -2   6   71.63    9.25
  12   2   6   88.88   11.21
  12  -2   6   76.38    9.82
  12  -2   6   47.64    7.76
  12   2   7   89.68   11.52
  12  -2   7   97.31   10.78
  12   2   7   85.90   11.22
  12  -2   7  102.46   11.34
  12   2   8  334.99   21.87
  12  -2   8  366.35   20.88
  12   2   8  313.65   21.26
  12  -2   8  335.37   21.00
  12  -2   8  353.87   21.41
  12   2   9  140.50   14.33
  12  -2   9  131.91   12.88
  12   2   9  139.83   14.33
  12  -2   9  122.85   12.56
  12  -2   9  112.09   13.14
  12   2  10  128.00   13.80
  12   2  10  110.62   12.97
  12  -2  10  103.92   11.27
  12  -2  10  102.29   12.13
  12   2  11   84.91   11.53
  12  -2  11   90.26   10.91
  12   2  11   84.60   11.50
  12  -2  11  103.10   12.00
  12   2  12  154.35   15.24
  12  -2  12  166.54   15.36
  12   2  12  186.91   16.96
  12  -2  12  166.27   14.82
  12   2  13  218.15   18.14
  12  -2  13  182.83   16.34
  12   2  13  200.43   18.07
  12   2  14  147.32   14.98
  12  -2  14  142.33   14.35
  12   2  14  165.65   16.80
  12   2  15   31.36    7.66
  12  -2  15   37.51    7.13
  12   2  16   20.93    6.54
  12  -2  16   30.30    7.26
  12   2  17   70.63   10.43
  12   2  18  161.67   16.88
  12   2  19   33.04    7.71
  12   2  20   49.37    9.30
  12   2  21   23.11    6.12
  12   2  22   41.32    8.95
  12   2  23   10.05    3.93
  12   2  24   88.33   12.53
  12  -3 -24    0.12    4.41
  12  -3 -23   21.72    6.70
  12  -3 -22   21.14    6.39
  12  -3 -21    7.05    4.80
  12   3 -21   18.34    4.08
  12  -3 -20    9.69    4.47
  12   3 -20   18.29    5.86
  12  -3 -19    2.43    3.04
  12   3 -19   -1.54    2.88
  12  -3 -18   51.45    9.46
  12   3 -18   54.95   10.23
  12  -3 -17    8.02    4.17
  12   3 -17    4.86    3.67
  12  -3 -16    7.47    2.34
  12   3 -16   12.45    4.44
  12  -3 -15    1.53    4.57
  12   3 -15   -0.24    2.06
  12  -3 -14    8.68    4.42
  12   3 -14   13.94    4.45
  12  -3 -13   -0.17    2.17
  12  -3 -13    4.19    4.25
  12   3 -13    4.68    3.37
  12  -3 -12  132.79   13.95
  12   3 -12  135.07   14.81
  12  -3 -12  130.76   12.79
  12  -3 -11   69.61   10.20
  12   3 -11   73.15   10.95
  12  -3 -11   67.83    9.05
  12  -3 -10  113.64   12.58
  12   3 -10  101.64   12.38
  12  -3 -10  102.02   11.88
  12  -3  -9   40.63    7.54
  12  -3  -9   39.09    7.52
  12   3  -9   26.23    6.91
  12  -3  -8   51.49    8.43
  12  -3  -8   38.87    8.65
  12   3  -8   43.71    7.73
  12  -3  -7    7.34    2.04
  12  -3  -7   11.34    5.34
  12   3  -7   13.72    4.66
  12   3  -7   13.18    2.76
  12  -3  -6    3.35    2.12
  12  -3  -6   13.02    4.47
  12   3  -6    8.70    5.12
  12   3  -6   10.69    5.41
  12  -3  -5   53.02    8.86
  12   3  -5   52.58    8.55
  12   3  -5   39.59    7.79
  12  -3  -5   44.22    7.85
  12  -3  -4  252.80   18.22
  12   3  -4  224.19   18.19
  12   3  -4  224.31   18.41
  12  -3  -4  217.33   16.45
  12  -3  -3  542.60   26.53
  12   3  -3  465.66   25.70
  12   3  -3  519.98   27.35
  12  -3  -3  488.60   24.35
  12  -3  -2  245.82   18.00
  12   3  -2  260.77   19.14
  12   3  -2  293.43   20.65
  12  -3  -2  237.49   17.13
  12  -3  -1   62.15    9.01
  12   3  -1   70.94   10.51
  12  -3  -1   76.31   10.03
  12  -3   0   34.24    6.47
  12  -3   0   29.26    5.71
  12   3   0   22.64    5.57
  12   3   0   18.34    4.46
  12   3   1   85.00   11.05
  12   3   1   76.46   10.50
  12  -3   1   63.36    9.01
  12  -3   1   77.31    9.75
  12  -3   1   67.17    9.54
  12   3   2  249.77   18.97
  12   3   2  276.12   19.64
  12  -3   2  296.21   19.27
  12  -3   2  220.30   16.55
  12  -3   2  281.22   18.80
  12   3   3  467.05   25.53
  12   3   3  465.95   25.86
  12  -3   3  487.70   24.51
  12  -3   3  530.68   25.62
  12  -3   3  460.43   23.94
  12   3   4  246.16   18.68
  12   3   4  218.99   17.92
  12  -3   4  216.56   16.14
  12  -3   4  219.07   16.48
  12  -3   4  267.55   18.07
  12   3   5   39.41    8.04
  12   3   5   56.94    9.59
  12  -3   5   62.81    8.51
  12  -3   5   50.13    8.22
  12  -3   5   42.56    7.94
  12  -3   6   16.65    5.39
  12  -3   6    9.57    3.54
  12   3   6   15.76    5.08
  12   3   6   11.13    4.69
  12  -3   6   14.81    3.98
  12  -3   7   13.99    4.68
  12  -3   7   10.76    3.94
  12   3   7    6.50    2.38
  12   3   7    4.82    2.31
  12   3   8   31.54    6.09
  12  -3   8   63.85    9.48
  12   3   8   50.91    8.82
  12  -3   8   46.23    8.25
  12  -3   9   33.70    7.36
  12   3   9   23.26    6.17
  12   3   9   34.43    6.78
  12   3  10  118.84   13.82
  12   3  10   95.41   11.71
  12  -3  10  106.71   12.66
  12   3  11   72.84   10.76
  12  -3  11   74.87   10.43
  12   3  11   72.60   10.53
  12   3  12  118.50   14.09
  12  -3  12  144.77   14.39
  12   3  12  144.85   15.29
  12   3  13    3.78    2.29
  12   3  13    2.16    3.04
  12  -3  13    9.99    4.39
  12   3  14   22.33    5.81
  12   3  14   15.29    5.43
  12  -3  14   12.73    3.77
  12   3  15    6.53    4.11
  12   3  15    3.42    1.94
  12  -3  15    0.50    3.24
  12   3  16    8.86    4.03
  12  -3  16    5.86    2.80
  12   3  17    1.91    2.86
  12  -3  17    9.08    5.45
  12   3  18   54.61    9.81
  12  -3  18   60.82   10.27
  12   3  19    3.97    2.80
  12  -3  19    5.13    3.26
  12   3  20    9.99    4.50
  12   3  21   13.70    4.02
  12   3  22   33.72    8.76
  12   3  23   28.33    7.11
  12   3  24    2.34    4.22
  12  -4 -22  110.99   14.16
  12  -4 -21   39.57    8.49
  12  -4 -20   41.40    9.47
  12   4 -19   12.42    5.84
  12  -4 -19    9.51    4.48
  12   4 -18   27.38    7.12
  12  -4 -18   23.55    7.19
  12   4 -17   30.31    7.37
  12  -4 -17   19.78    5.63
  12   4 -16   25.32    7.56
  12  -4 -16   19.49    5.63
  12   4 -15   15.24    5.68
  12  -4 -15   13.71    5.46
  12  -4 -14   83.43   10.78
  12  -4 -14   86.62   11.27
  12   4 -14   63.94   11.07
  12  -4 -13   54.85    8.57
  12  -4 -13   56.79    9.33
  12   4 -13   38.71    8.36
  12  -4 -12    3.05    3.41
  12   4 -12   -1.24    2.76
  12  -4 -12   -0.03    2.75
  12  -4 -11    6.25    3.17
  12   4 -11   11.61    5.26
  12  -4 -11   10.98    4.23
  12  -4 -10   62.82    9.44
  12  -4 -10   47.16    8.34
  12   4 -10   48.68    8.78
  12   4 -10   56.36    9.69
  12  -4  -9   96.16   11.97
  12  -4  -9  100.56   12.50
  12   4  -9   91.59   12.17
  12   4  -9  105.21   13.09
  12  -4  -8  418.58   23.73
  12  -4  -8  365.03   23.15
  12   4  -8  428.76   25.75
  12   4  -8  401.63   25.52
  12  -4  -7  340.66   21.40
  12  -4  -7  318.58   21.31
  12   4  -7  290.59   21.14
  12   4  -7  270.63   20.44
  12  -4  -6   89.93   10.44
  12  -4  -6   69.30    9.79
  12   4  -6   90.16   11.65
  12   4  -6   79.33   11.35
  12  -4  -5  236.44   17.87
  12  -4  -5  225.14   17.70
  12   4  -5  268.00   19.86
  12   4  -5  228.45   18.45
  12  -4  -4  667.12   29.74
  12  -4  -4  696.04   31.16
  12   4  -4  760.93   33.77
  12   4  -4  719.44   32.91
  12  -4  -3  333.50   20.94
  12  -4  -3  356.59   22.16
  12   4  -3  332.55   22.77
  12   4  -3  371.45   23.64
  12  -4  -2  626.84   28.93
  12  -4  -2  582.95   28.04
  12   4  -2  556.71   28.84
  12  -4  -1  180.88   15.52
  12   4  -1  220.53   18.19
  12   4  -1  216.24   17.88
  12  -4   0   14.39    5.30
  12   4   0   20.39    5.23
  12  -4   0   13.78    4.83
  12   4   0   15.11    5.30
  12  -4   1  167.27   14.88
  12  -4   1  193.99   15.99
  12   4   1  182.28   16.22
  12   4   1  195.17   17.02
  12  -4   1  135.23   13.65
  12  -4   2  576.98   27.78
  12  -4   2  572.67   27.31
  12   4   2  494.35   27.56
  12   4   2  556.54   29.43
  12  -4   3  348.30   21.52
  12   4   3  351.15   23.14
  12   4   3  386.54   23.91
  12  -4   3  332.53   21.02
  12   4   4  665.01   31.81
  12   4   4  743.22   33.65
  12  -4   4  701.55   30.38
  12  -4   4  740.53   31.04
  12   4   5  242.53   18.99
  12   4   5  233.08   19.34
  12  -4   5  200.77   16.04
  12  -4   5  233.38   17.88
  12   4   6   72.54   10.94
  12   4   6   81.19   10.91
  12  -4   6   59.97    9.02
  12  -4   6   76.47   10.03
  12   4   7  314.88   22.87
  12   4   7  334.22   22.62
  12  -4   7  293.99   20.09
  12   4   8  388.51   25.06
  12   4   8  405.05   25.13
  12  -4   8  427.29   24.31
  12   4   9   97.27   12.36
  12  -4   9   95.88   11.46
  12   4   9   87.09   12.02
  12   4  10   46.64    8.90
  12  -4  10   54.57    9.28
  12   4  10   52.71    9.29
  12  -4  11    9.59    3.92
  12   4  11    8.75    3.43
  12  -4  12   -1.19    2.40
  12   4  12    0.79    2.04
  12   4  12    0.77    2.81
  12   4  13   48.10    8.84
  12   4  13   62.93   10.57
  12  -4  13   69.78    9.96
  12   4  14   48.99    8.97
  12   4  14   74.63   11.48
  12  -4  14   74.62   11.30
  12   4  15   16.28    6.21
  12   4  15   17.52    6.03
  12  -4  15   19.14    6.43
  12   4  16   19.03    6.56
  12   4  16   16.47    5.37
  12  -4  16   14.25    5.37
  12   4  17   16.84    6.48
  12  -4  17   21.27    5.72
  12   4  18   29.60    7.55
  12  -4  18   34.31    8.02
  12   4  19   18.35    4.97
  12  -4  19   16.46    6.04
  12   4  20   37.37    9.07
  12   4  21   35.74    7.97
  12   4  22   97.07   13.09
  12  -5 -21    0.07    2.45
  12  -5 -20   -1.93    4.20
  12  -5 -19   25.27    7.31
  12   5 -18   19.60    6.43
  12  -5 -18   19.62    6.06
  12   5 -17   15.25    4.75
  12  -5 -17   20.38    6.16
  12   5 -16   -0.44    2.11
  12  -5 -16    3.23    2.75
  12   5 -15    5.77    5.01
  12  -5 -15    1.55    1.86
  12  -5 -14    0.77    2.74
  12   5 -14   -1.54    3.62
  12  -5 -14    6.50    3.79
  12  -5 -13   22.91    7.09
  12   5 -13   38.85    8.64
  12  -5 -13   29.95    6.73
  12   5 -13   24.28    5.98
  12  -5 -12   28.93    6.75
  12   5 -12   26.98    7.22
  12  -5 -12   28.82    6.80
  12   5 -12   24.76    6.40
  12  -5 -11   12.46    4.60
  12   5 -11    4.60    3.40
  12  -5 -11   11.51    4.63
  12   5 -11   11.56    5.46
  12  -5 -10   65.38    9.95
  12  -5 -10   65.46   10.49
  12   5 -10   52.45    8.59
  12   5 -10   68.31   10.32
  12  -5  -9   18.59    5.81
  12   5  -9   20.09    6.09
  12  -5  -9   15.20    5.12
  12   5  -9   25.82    6.57
  12  -5  -8    2.95    4.30
  12   5  -8    5.80    3.16
  12  -5  -8    5.74    3.62
  12   5  -8    1.83    2.68
  12  -5  -7   15.18    5.75
  12   5  -7   12.33    5.26
  12  -5  -7   11.77    5.05
  12   5  -7   14.06    5.31
  12  -5  -6    6.37    4.71
  12   5  -6   -0.33    1.95
  12  -5  -6   -0.03    2.22
  12   5  -6   -0.56    2.86
  12  -5  -5   -0.88    2.20
  12   5  -5    0.48    2.81
  12  -5  -5   -0.35    2.83
  12   5  -5    3.97    2.74
  12  -5  -4    8.74    4.02
  12   5  -4    5.32    3.26
  12  -5  -4    9.82    5.16
  12   5  -4    8.51    4.29
  12  -5  -3   15.65    5.73
  12   5  -3   22.66    6.54
  12  -5  -3   32.57    6.91
  12   5  -3   12.28    3.87
  12  -5  -2  121.56   13.48
  12   5  -2  157.16   15.63
  12  -5  -2  115.55   12.68
  12   5  -2  110.56   12.74
  12  -5  -1   40.92    7.98
  12  -5  -1   41.99    8.04
  12   5  -1   49.88    8.75
  12   5  -1   49.96    8.49
  12  -5   0   11.82    4.64
  12   5   0    4.78    3.73
  12  -5   0    8.68    4.34
  12   5   0   17.37    6.02
  12  -5   1   35.27    7.11
  12  -5   1   51.29    8.71
  12   5   1   46.97    8.49
  12   5   1   43.16    8.72
  12  -5   2   96.05   11.58
  12   5   2  119.62   13.67
  12  -5   2   95.69   11.87
  12   5   2  134.18   14.94
  12  -5   3   10.70    4.99
  12   5   3   10.39    4.39
  12  -5   3   23.10    5.53
  12   5   3   24.00    5.45
  12  -5   4    6.67    2.76
  12   5   4   11.85    5.88
  12  -5   4    8.84    3.56
  12   5   4   10.27    4.58
  12  -5   5   -0.57    3.03
  12   5   5    2.36    2.89
  12  -5   5    0.87    2.66
  12   5   5    2.67    3.91
  12  -5   6    1.90    3.52
  12   5   6    0.22    1.61
  12   5   6   -0.33    3.45
  12  -5   7   14.22    4.52
  12   5   7   16.83    6.26
  12   5   7   19.34    6.29
  12  -5   8    4.53    2.33
  12   5   8   15.49    5.38
  12   5   8    8.24    4.48
  12  -5   9   21.82    5.36
  12   5   9   24.72    7.39
  12   5   9   23.91    6.65
  12   5  10   62.70    9.92
  12   5  10   62.95   11.01
  12  -5  10   59.19    9.59
  12  -5  11   16.68    5.11
  12   5  11   13.61    3.94
  12   5  11   10.80    5.12
  12  -5  12   18.32    5.86
  12   5  12   31.14    8.03
  12   5  12   36.81    7.55
  12   5  13   16.92    6.44
  12  -5  13   24.26    6.64
  12   5  13   26.17    7.51
  12   5  14   -0.42    3.88
  12  -5  14    3.92    3.19
  12   5  14    1.43    2.11
  12  -5  15    7.92    3.98
  12   5  15    9.39    4.76
  12   5  15    2.07    2.15
  12  -5  16   -2.01    2.72
  12   5  16    8.51    5.62
  12   5  16    3.90    3.39
  12  -5  17   21.43    6.90
  12   5  17   16.70    5.80
  12   5  17    7.90    4.98
  12   5  18   21.68    6.92
  12  -5  18   12.68    5.49
  12   5  19   20.16    6.14
  12  -5  19    4.99    3.03
  12   5  20   10.81    6.93
  12   5  21    3.28    2.58
  12  -6 -19   47.67   10.29
  12   6 -19   43.94    9.14
  12  -6 -18    7.46    3.81
  12   6 -18   11.00    4.38
  12   6 -17   58.35   11.87
  12  -6 -17   92.03   12.86
  12   6 -17   88.01   14.00
  12   6 -16   46.80    9.71
  12   6 -16   28.94    8.66
  12  -6 -16   41.42    8.69
  12   6 -15   22.85    7.90
  12   6 -15   16.03    4.61
  12  -6 -15   12.39    5.45
  12  -6 -14  141.24   15.72
  12   6 -14  151.97   16.61
  12  -6 -14  131.77   15.10
  12   6 -14  136.12   16.13
  12  -6 -13  146.67   15.15
  12   6 -13  142.65   16.37
  12  -6 -13  163.60   16.34
  12   6 -13  135.50   16.60
  12   6 -12    6.86    3.32
  12   6 -12   11.71    5.40
  12  -6 -12    1.73    2.52
  12  -6 -11   83.02   11.62
  12   6 -11   57.60   10.79
  12  -6 -11   57.42    9.77
  12   6 -11   80.52   12.24
  12  -6 -10   86.66   11.66
  12   6 -10   70.62   10.80
  12  -6 -10   94.76   12.34
  12   6 -10   84.35   12.22
  12  -6  -9   44.64    7.96
  12   6  -9   35.69    8.71
  12  -6  -9   40.85    8.41
  12   6  -9   23.53    7.04
  12  -6  -8  301.92   21.10
  12   6  -8  277.14   21.85
  12  -6  -8  300.46   21.44
  12   6  -8  260.57   21.47
  12  -6  -7  258.74   19.75
  12   6  -7  252.31   20.91
  12  -6  -7  266.41   20.11
  12   6  -7  243.04   20.57
  12  -6  -6   24.33    6.97
  12   6  -6   31.55    8.27
  12   6  -6   32.99    8.14
  12  -6  -6   36.18    7.29
  12  -6  -5   77.13   10.80
  12   6  -5   58.97   10.20
  12  -6  -5   62.47    9.92
  12   6  -5   66.75   10.14
  12  -6  -4  164.82   15.53
  12   6  -4  202.70   18.75
  12  -6  -4  186.49   17.06
  12   6  -4  198.99   18.10
  12  -6  -3  189.82   16.18
  12   6  -3  235.95   20.62
  12  -6  -3  237.70   19.17
  12   6  -3  231.49   19.60
  12   6  -2  292.32   22.93
  12  -6  -2  244.82   18.98
  12  -6  -2  261.18   19.88
  12   6  -2  276.84   21.46
  12   6  -1   60.51   10.35
  12  -6  -1   73.70   10.48
  12  -6  -1   64.36    9.59
  12   6  -1   66.39   10.35
  12  -6   0    1.31    2.04
  12   6   0    0.35    2.57
  12   6   0   -2.13    3.90
  12  -6   0    5.29    4.54
  12   6   1   54.72    9.55
  12  -6   1   76.88   10.86
  12  -6   1   57.84    9.73
  12   6   1   58.00    9.94
  12   6   2  254.53   21.25
  12  -6   2  264.09   19.67
  12  -6   2  265.94   20.08
  12   6   2  234.32   19.73
  12  -6   3  218.31   18.23
  12  -6   3  199.92   17.27
  12   6   3  230.92   19.44
  12   6   3  252.17   20.86
  12  -6   4  184.12   16.44
  12  -6   4  179.00   16.74
  12   6   4  187.05   17.78
  12   6   4  201.20   18.68
  12  -6   5   69.03   10.31
  12   6   5   44.39    9.76
  12   6   5   73.55   11.29
  12  -6   6   60.63    9.88
  12   6   6   35.16    8.68
  12   6   6   48.15    9.17
  12  -6   7  247.76   19.27
  12   6   7  234.39   19.96
  12   6   7  253.87   21.28
  12  -6   8  297.98   21.40
  12   6   8  312.56   23.09
  12   6   8  270.46   21.82
  12   6   9   23.12    6.44
  12  -6   9   29.59    6.61
  12   6   9   22.76    5.90
  12   6  10   94.22   12.81
  12   6  10   93.02   13.23
  12  -6  10   90.40   11.68
  12   6  11   66.77   10.73
  12   6  11   64.05   11.70
  12  -6  11   57.63    9.90
  12   6  12    5.33    3.34
  12  -6  12    8.81    5.02
  12   6  12    4.96    3.36
  12   6  13  169.38   16.75
  12   6  13  151.06   16.87
  12  -6  13  128.69   14.45
  12   6  14  129.88   15.11
  12   6  14  147.95   17.11
  12  -6  14  161.07   16.41
  12  -6  15   15.12    4.79
  12   6  15   10.74    4.28
  12   6  15    3.58    1.90
  12  -6  16   48.84    9.45
  12   6  16   45.62    9.38
  12   6  16   30.54    8.31
  12   6  17   58.16   10.79
  12   6  17  106.97   14.89
  12  -6  17   89.40   13.03
  12  -6  18    8.44    3.61
  12   6  18   16.23    6.40
  12   6  18   13.85    6.27
  12   6  19   68.67   11.12
  12  -7 -17   15.65    6.40
  12  -7 -16    0.32    2.39
  12   7 -15   87.47   14.04
  12  -7 -15   62.72   10.50
  12  -7 -15   69.74   10.63
  12  -7 -14   12.21    4.96
  12  -7 -14   24.06    7.16
  12   7 -14   13.42    5.60
  12   7 -14    3.79    6.58
  12  -7 -13   22.91    6.92
  12  -7 -13   20.07    4.99
  12   7 -13   20.86    6.56
  12   7 -13   26.60    8.59
  12  -7 -12   14.46    5.17
  12  -7 -12   21.51    6.92
  12   7 -12   16.61    6.39
  12   7 -12   23.97    6.28
  12  -7 -11    5.46    4.85
  12  -7 -11    2.78    3.24
  12   7 -11   -2.59    3.51
  12   7 -11    1.86    4.87
  12  -7 -10   39.90    8.16
  12  -7 -10   39.23    7.59
  12   7 -10   28.82    7.72
  12   7 -10   44.19    9.04
  12   7  -9  117.35   14.70
  12  -7  -9   96.56   11.83
  12  -7  -9  101.86   13.25
  12   7  -9   93.29   13.93
  12  -7  -8   26.33    6.59
  12  -7  -8   19.16    5.99
  12   7  -8   41.16    9.44
  12   7  -8   30.80    8.49
  12  -7  -7   28.81    7.03
  12  -7  -7   25.26    6.64
  12   7  -7   32.26    8.29
  12   7  -7   40.15    7.67
  12  -7  -6   -0.63    2.49
  12  -7  -6    4.42    3.04
  12   7  -6    3.64    2.35
  12   7  -6    2.35    2.35
  12  -7  -5    2.14    3.39
  12  -7  -5    0.98    2.61
  12   7  -5    8.67    5.52
  12   7  -5   -0.88    2.90
  12   7  -4   82.42   12.68
  12  -7  -4   93.56   12.40
  12  -7  -4   86.73   11.91
  12   7  -4   87.27   12.60
  12  -7  -3   16.72    4.46
  12   7  -3   14.70    6.39
  12   7  -3    9.77    4.57
  12  -7  -3   19.58    6.33
  12  -7  -2   49.52    8.95
  12   7  -2   56.73   10.28
  12   7  -2   39.82    8.18
  12  -7  -2   41.10    8.02
  12  -7  -1   53.10    9.92
  12   7  -1   51.21    9.98
  12   7  -1   69.17   11.68
  12   7   0   25.69    5.89
  12  -7   0   25.54    6.89
  12   7   0   34.65    7.83
  12  -7   0   27.56    7.23
  12  -7   1   70.95   10.62
  12  -7   1   66.85   10.10
  12   7   1   67.20   11.31
  12   7   1   53.76   10.61
  12   7   2   34.87    9.22
  12  -7   2   32.41    6.90
  12   7   2   52.00   10.43
  12  -7   2   48.70    8.61
  12   7   3   14.99    5.50
  12  -7   3   15.38    3.88
  12   7   3    9.90    3.62
  12  -7   4  106.84   12.94
  12   7   4   65.12   10.83
  12   7   4   97.56   13.65
  12   7   5    1.51    4.78
  12  -7   5    1.47    2.67
  12   7   5    6.13    4.00
  12   7   6    7.19    4.40
  12  -7   6    7.48    5.23
  12   7   6   16.18    6.11
  12   7   7   44.01    9.14
  12  -7   7   24.23    6.82
  12   7   7   34.86    8.74
  12   7   8   31.73    7.98
  12  -7   8   30.07    7.24
  12   7   8   14.95    5.70
  12  -7   9  116.20   13.79
  12   7   9  100.17   13.27
  12   7   9  100.26   14.22
  12   7  10   30.24    8.31
  12  -7  10   52.91   10.34
  12   7  10   31.16    7.46
  12  -7  11    2.88    4.27
  12   7  11    0.24    3.51
  12   7  11    2.08    3.98
  12  -7  12   19.26    5.72
  12   7  12   26.70    7.63
  12   7  12   18.84    6.29
  12  -7  13   49.89    9.58
  12   7  13   29.90    8.11
  12   7  13   31.75    8.64
  12  -7  14    9.61    4.50
  12   7  14   12.06    4.74
  12   7  14   13.47    5.72
  12   7  15   65.08   10.95
  12   7  15   68.00   12.02
  12  -7  15   69.41   10.91
  12  -7  16   -2.30    3.82
  12   7  16    7.02    3.48
  12   7  16   -5.32    3.57
  12  -7  17    8.30    4.58
  12   7  17   21.36    6.35
  12   7  17    8.66    4.70
  12  -8 -13   59.03   10.11
  12   8 -13   52.54   10.96
  12  -8 -13   66.88   11.31
  12  -8 -12   95.34   12.62
  12  -8 -12   71.66   10.97
  12   8 -12   78.46   13.62
  12  -8 -11    6.04    4.24
  12  -8 -11   15.00    6.55
  12  -8 -10   27.07    7.56
  12   8 -10   16.49    6.40
  12  -8 -10   18.58    6.69
  12  -8  -9   44.88    9.08
  12   8  -9   54.30   10.71
  12  -8  -9   45.13    8.98
  12   8  -9   26.19    8.94
  12   8  -8   52.96   10.79
  12  -8  -8   52.68   10.07
  12  -8  -8   61.13   11.43
  12   8  -8   35.88    8.32
  12  -8  -7   99.35   12.91
  12  -8  -7   68.38   10.90
  12   8  -7   93.28   12.84
  12   8  -7   86.72   13.19
  12  -8  -6   46.18    8.85
  12   8  -6   26.62    7.52
  12  -8  -6   52.96    9.10
  12   8  -6   35.04    8.18
  12  -8  -5    2.47    2.95
  12   8  -5    4.22    4.20
  12  -8  -5   12.10    5.85
  12   8  -5    4.24    4.69
  12  -8  -4   10.68    3.50
  12   8  -4   17.62    5.55
  12  -8  -4   12.35    5.68
  12   8  -4    8.58    5.51
  12  -8  -3   96.20   12.94
  12  -8  -3   88.55   12.08
  12   8  -3   97.67   14.58
  12   8  -3  108.80   14.77
  12  -8  -2   44.86    8.90
  12   8  -2   55.57   10.63
  12  -8  -2   47.63    8.79
  12   8  -2   41.77    9.17
  12  -8  -1    6.43    2.73
  12   8  -1   12.21    6.56
  12  -8  -1    2.11    2.82
  12   8  -1    3.35    3.61
  12   8   0    8.49    4.85
  12  -8   0   -0.07    3.81
  12   8   0    4.77    5.58
  12  -8   0    5.59    4.69
  12   8   1    8.74    3.06
  12  -8   1    8.18    4.30
  12   8   1   -0.45    4.35
  12  -8   1    2.58    2.51
  12  -8   2   49.00    9.59
  12   8   2   51.42   10.90
  12   8   2   37.59    9.41
  12  -8   3   95.10   12.22
 -12  -8   3   95.94   12.38
  12   8   3   85.81   12.99
  12   8   3  131.55   15.92
  12   8   4   18.62    5.41
  12  -8   4   22.84    6.85
 -12  -8   4   16.47    6.20
  12   8   4   27.09    7.43
  12   8   5    7.88    5.34
  12  -8   5   10.71    4.00
 -12  -8   5   -0.48    2.90
  12   8   5    3.94    3.37
  12   8   6   28.13    7.89
  12  -8   6   44.16    8.33
  12   8   6   40.56    9.03
  12  -8   7   85.95   11.84
  12   8   7   96.13   13.39
  12   8   7   67.28   11.68
  12   8   8   52.93   10.22
  12  -8   8   52.28    9.54
  12   8   8   47.53    9.29
  12  -8   9   39.98    8.21
  12   8   9   41.64    9.69
  12   8   9   59.68   11.56
  12  -8  10   20.75    6.68
  12   8  10   21.27    6.62
  12   8  10   17.41    7.08
  12  -8  11   12.37    3.45
  12   8  11   26.36    8.21
  12   8  11   15.32    6.11
  12  -8  12   95.37   13.58
  12   8  12   80.89   12.78
  12   8  12  111.47   15.46
  12  -8  13   68.93   11.02
  12   8  13   55.86   10.18
  12   8  13   51.92   11.44
  12   9  -8   13.08    5.20
  12  -9  -8   10.13    4.84
  12  -9  -8   21.63    6.06
 -12  -9  -8    9.05    5.07
  12   9  -7    8.69    3.87
  12  -9  -7    9.11    4.66
  12  -9  -7    1.16    2.59
 -12  -9  -7    2.50    2.58
  12   9  -6    7.97    4.26
  12  -9  -6    8.81    4.56
  12  -9  -6    8.97    4.30
 -12  -9  -6    3.73    4.00
  12   9  -5   21.47    6.56
  12  -9  -5   20.16    6.27
  12  -9  -5   16.72    4.75
 -12  -9  -5   12.49    4.57
  12   9  -4   -4.78    5.78
  12  -9  -4   10.26    4.50
  12  -9  -4   11.39    5.72
 -12  -9  -4    4.18    4.24
  12   9  -3   43.21    9.15
  12  -9  -3   47.37    9.55
  12  -9  -3   58.96    9.95
 -12  -9  -3   52.17    9.77
  12   9  -3   37.18    9.18
  12   9  -2   -5.13    3.67
  12  -9  -2    2.13    1.96
  12  -9  -2    4.17    2.58
 -12  -9  -2   -1.18    3.62
  12   9  -2   -4.56    2.82
  12   9  -1   15.84    2.46
  12  -9  -1   15.38    5.38
  12  -9  -1   15.98    5.00
 -12  -9  -1    0.20    3.14
  12   9  -1    9.36    4.45
  12   9   0    0.13    3.84
  12  -9   0    2.32    2.80
 -12  -9   0   -0.90    2.39
  12   9   0    6.24    6.04
  12   9   1   15.98    5.27
  12  -9   1   16.20    4.99
 -12  -9   1    7.75    2.20
  12   9   1   21.29    6.45
  12   9   2    3.09    5.02
  12  -9   2   -1.74    3.40
 -12  -9   2   -2.03    5.35
  12   9   2    1.10    3.01
  12   9   3   42.82    9.76
  12  -9   3   63.36   10.25
  12   9   3   66.04   10.17
  12   9   4   -1.18    4.79
  12  -9   4   -3.50    3.54
 -12  -9   4    9.29    4.82
  12   9   4    2.69    3.89
  12  -9   5   19.50    5.30
  12   9   5   10.97    4.59
  12   9   5   19.53    6.77
  12  -9   6    1.95    2.05
  12   9   6    4.42    5.95
  12  -9   7   -2.24    3.84
  12   9   7    9.59    4.76
  12   9   7   -1.86    4.29
  12  -9   8   18.66    5.92
  12   9   8    9.39    4.59
  12   9   8   23.15    7.96
  13   0 -24    0.94    4.09
  13   0 -23    1.69    5.26
  13   0 -22   -2.85    4.86
  13   0 -21   -1.85    3.08
  13   0 -20    4.43    3.44
  13   0 -19    2.68    5.48
  13   0 -18    2.44    4.25
  13   0 -17   -1.18    2.83
  13   0 -16   -0.34    2.80
  13   0 -15    1.73    3.48
  13   0 -14    0.17    2.40
  13   0 -13    0.48    2.35
  13   0 -12    5.81    5.15
  13   0 -11    0.57    1.99
  13   0 -10   -1.88    2.41
  13   0  -9   -0.69    2.43
  13   0  -9   -0.37    1.98
  13   0  -8    0.06    2.58
  13   0  -8   -1.04    2.48
  13   0  -7   -0.46    3.39
  13   0  -7   -1.98    1.48
  13   0  -6   -1.35    1.53
  13   0  -6   -1.01    2.56
  13   0  -5    0.57    2.02
  13   0  -5   -0.81    3.53
  13   0  -4    1.37    3.90
  13   0  -4   -0.02    2.38
  13   0  -3   -0.06    1.84
  13   0  -3    0.18    1.80
  13   0  -2   -2.25    4.04
  13   0  -2    0.44    2.12
  13   0  -2    1.59    1.66
  13   0  -1    2.93    3.15
  13   0  -1   -0.30    2.42
  13   0  -1   -1.26    1.95
  13   0   0   -1.62    2.79
  13   0   0    1.42    1.45
  13   0   0    2.41    3.00
  13   0   1    2.03    2.90
  13   0   1    2.11    3.55
  13   0   1   -0.11    2.11
  13   0   2    0.57    1.68
  13   0   2    1.63    2.32
  13   0   2    2.46    2.11
  13   0   3    0.49    2.33
  13   0   3    1.85    1.85
  13   0   3    2.00    2.98
  13   0   4    0.73    3.34
  13   0   4    3.67    4.19
  13   0   4    0.08    1.54
  13   0   5   -1.08    2.62
  13   0   5   -0.91    1.95
  13   0   6   -0.35    2.46
  13   0   6   -1.25    2.09
  13   0   7   -1.19    1.92
  13   0   7    0.76    2.35
  13   0   8   -1.51    2.80
  13   0   8   -0.36    2.59
  13   0   9   -0.90    2.31
  13   0   9   -2.03    2.72
  13   0  10    1.04    3.12
  13   0  10    4.67    4.36
  13   0  11   -0.82    3.22
  13   0  11    0.01    1.65
  13   0  12    0.74    2.58
  13   0  13   -0.60    2.10
  13   0  14    5.15    3.86
  13   0  15   -0.94    3.21
  13   0  16    2.90    3.69
  13   0  17    0.74    2.75
  13   0  18    1.76    2.49
  13   0  19    9.03    6.30
  13   0  20    1.23    2.10
  13   0  21   -3.32    2.51
  13  -1 -24   19.18    6.75
  13  -1 -23   17.83    6.75
  13   1 -23   22.16    6.84
  13  -1 -22   13.01    3.57
  13   1 -22   11.03    6.05
  13   1 -21  123.53   16.01
  13  -1 -21  137.71   15.96
  13   1 -20  155.45   16.33
  13  -1 -20  159.79   16.86
  13  -1 -19   11.12    5.52
  13   1 -19   16.44    4.58
  13  -1 -18   14.12    4.47
  13   1 -18    9.24    5.17
  13  -1 -17   56.16   10.34
  13   1 -17   43.64    9.79
  13   1 -16  160.41   16.67
  13  -1 -16  186.99   18.07
  13   1 -15  100.30   12.91
  13  -1 -15  101.55   13.17
  13   1 -14  179.19   17.40
  13  -1 -14  131.38   14.58
  13  -1 -13   33.28    7.19
  13   1 -13   32.31    6.92
  13   1 -12   73.84   10.97
  13  -1 -12  111.48   13.72
  13  -1 -12  104.75   11.69
  13  -1 -11   26.65    6.69
  13   1 -11   19.94    5.50
  13  -1 -11   25.00    4.83
  13   1 -10  171.60   16.18
  13  -1 -10  192.76   17.15
  13  -1 -10  198.43   15.36
  13   1  -9  257.35   19.66
  13  -1  -9  241.09   18.70
  13  -1  -9  191.11   16.05
  13   1  -8   50.67    8.91
  13  -1  -8   54.21    8.69
  13  -1  -8   30.89    6.30
  13   1  -7   80.39   11.37
  13  -1  -7   59.80    9.22
  13  -1  -7   85.64   10.37
  13   1  -6   65.70    9.72
  13  -1  -6   75.33    9.99
  13  -1  -6   67.50    9.28
  13   1  -5  486.50   26.49
  13  -1  -5  487.42   25.69
  13  -1  -5  462.60   23.88
  13   1  -4   90.51   11.41
  13  -1  -4   74.19   10.10
  13   1  -4   85.29   11.25
  13  -1  -4  100.43   11.51
  13   1  -3  102.16   11.81
  13  -1  -3  116.47   12.25
  13   1  -3  114.69   13.02
  13  -1  -3  101.19   11.59
  13   1  -2  244.77   18.27
  13  -1  -2  246.36   18.13
  13   1  -2  218.06   18.03
  13  -1  -2  196.37   15.67
  13   1  -1  182.53   15.98
  13  -1  -1  163.31   14.57
  13   1  -1  194.20   16.67
  13  -1  -1  204.81   16.80
  13  -1  -1  174.42   14.87
  13   1   0 1543.85   46.59
  13  -1   0 1629.41   46.46
  13   1   0 1597.27   47.64
  13  -1   0 1529.60   46.20
  13  -1   0 1581.22   44.48
  13   1   1  165.44   15.38
  13  -1   1  168.07   15.20
  13   1   1  180.32   15.95
  13  -1   1  167.69   15.23
  13  -1   1  155.65   13.83
  13   1   2  197.99   16.69
  13  -1   2  254.49   18.48
  13   1   2  226.25   18.03
  13  -1   2  250.68   18.23
  13  -1   2  184.87   15.60
  13   1   3   96.26   11.62
  13  -1   3   99.71   11.39
  13   1   3  111.64   12.70
  13  -1   3  127.44   13.17
  13  -1   3  108.83   11.63
  13   1   4   65.08    9.73
  13  -1   4   81.31   10.27
  13   1   4   84.56   10.89
  13  -1   4   84.74   10.76
  13  -1   4   78.95   10.37
  13   1   5  474.32   25.98
  13  -1   5  511.75   25.92
  13   1   5  445.97   25.56
  13  -1   5  466.57   25.57
  13  -1   5  494.86   25.25
  13   1   6   89.39   11.14
  13  -1   6   61.22    9.04
  13   1   6   79.83   11.46
  13  -1   6   54.61    8.46
  13  -1   6   69.39    9.20
  13   1   7   60.95    9.25
  13  -1   7   75.33   10.20
  13   1   7   83.33   10.85
  13  -1   7   86.40   11.42
  13  -1   7   81.62   10.47
  13  -1   8   57.27    8.97
  13   1   8   44.87    7.85
  13   1   8   36.32    6.94
  13  -1   8   40.12    8.26
  13  -1   8   47.48    8.96
  13   1   9  213.15   17.78
  13  -1   9  230.08   18.16
  13   1   9  243.82   18.70
  13  -1   9  222.61   17.90
  13  -1   9  202.48   16.64
  13   1  10  164.72   15.52
  13  -1  10  158.43   15.18
  13   1  10  147.11   15.19
  13  -1  10  162.25   15.16
  13  -1  10  172.01   15.26
  13   1  11   29.54    7.23
  13   1  11   25.33    5.88
  13  -1  11   20.98    5.78
  13  -1  11   15.56    4.84
  13   1  12   85.98   11.65
  13  -1  12  100.03   12.50
  13   1  12   83.79   11.34
  13  -1  13   35.58    7.77
  13   1  13   27.34    6.89
  13  -1  14  157.49   15.44
  13   1  14  141.45   14.71
  13  -1  15   76.38   11.13
  13   1  15   98.63   13.02
  13  -1  16  153.99   16.33
  13   1  16  189.46   17.98
  13  -1  17   -1.93    3.55
  13   1  17   36.23    7.72
  13   1  18    4.75    2.69
  13   1  19   23.39    6.12
  13   1  20  158.68   16.97
  13   1  21  140.65   16.21
  13   1  22   18.27    6.06
  13   1  23   24.23    7.87
  13   1  24   20.74    6.39
  13  -2 -23   29.80    6.70
  13  -2 -22    8.00    3.49
  13   2 -22    6.47    4.57
  13  -2 -21   36.38    8.23
  13   2 -21   17.97    5.65
  13  -2 -20   16.00    6.71
  13   2 -20    6.38    3.12
  13  -2 -19   -2.69    3.85
  13   2 -19    2.34    3.54
  13  -2 -18    4.31    3.63
  13   2 -18    8.13    3.87
  13   2 -17  109.76   14.33
  13  -2 -17  130.87   15.07
  13  -2 -16    9.33    4.04
  13   2 -16    8.92    3.40
  13  -2 -15    6.32    3.40
  13   2 -15    7.41    4.16
  13  -2 -14    8.73    4.89
  13   2 -14    8.50    5.59
  13  -2 -13   10.71    5.60
  13   2 -13   13.32    4.23
  13   2 -12   78.14   11.03
  13  -2 -12   62.53    9.39
  13  -2 -12   78.93   10.94
  13   2 -11  316.84   22.30
  13  -2 -11  329.52   20.87
  13  -2 -11  296.34   21.06
  13  -2 -10   14.54    3.82
  13  -2 -10   23.94    6.30
  13   2 -10   16.90    4.45
  13  -2  -9   18.36    4.48
  13  -2  -9   20.64    5.13
  13   2  -9   20.67    6.25
  13   2  -8   87.45   11.58
  13  -2  -8   96.66   11.18
  13  -2  -8   74.77   10.60
  13  -2  -7   47.43    7.59
  13   2  -7   37.66    8.14
  13  -2  -7   39.55    7.95
  13  -2  -6    7.42    2.97
  13  -2  -6    9.63    3.70
  13   2  -6   13.62    3.99
  13   2  -6   20.55    5.86
  13  -2  -5    0.58    2.10
  13  -2  -5    1.53    2.47
  13   2  -5    2.01    2.27
  13   2  -5    1.68    2.20
  13  -2  -4   15.65    4.44
  13  -2  -4   12.20    4.84
  13   2  -4   19.88    5.91
  13   2  -4   16.89    5.31
  13   2  -3  146.36   14.73
  13   2  -3  123.40   13.48
  13  -2  -3  114.71   13.16
  13  -2  -3  133.49   13.27
  13   2  -2   75.15   10.56
  13   2  -2   61.02    9.75
  13  -2  -2   59.02    9.14
  13  -2  -2   69.58    9.81
  13   2  -1  103.47   12.30
  13   2  -1   75.64   10.60
  13  -2  -1   89.40   11.08
  13  -2  -1   73.34    9.92
  13  -2  -1   72.17    9.77
  13   2   0  855.27   35.04
  13   2   0  802.65   34.19
  13  -2   0  767.90   32.05
  13  -2   0  759.16   32.57
  13  -2   0  771.66   31.56
  13   2   1   97.51   12.17
  13  -2   1   95.14   11.06
  13   2   1   97.88   12.06
  13  -2   1   96.10   11.48
  13  -2   1   91.56   11.15
  13   2   2   64.40   10.24
  13  -2   2   67.72    9.69
  13   2   2   72.39   10.35
  13  -2   2   71.86    9.53
  13  -2   2   65.94    9.12
  13   2   3  124.32   13.14
  13  -2   3  124.30   12.82
  13   2   3  128.65   13.77
  13  -2   3  148.76   13.83
  13  -2   3  134.73   13.30
  13  -2   4   17.39    5.95
  13   2   4   22.71    5.66
  13   2   4    7.08    4.12
  13  -2   4   29.74    6.58
  13  -2   4   12.11    4.68
  13  -2   5    2.90    3.32
  13   2   5    0.41    1.72
  13   2   5    4.53    2.81
  13  -2   5    2.41    2.12
  13  -2   5    3.41    3.08
  13   2   6   14.29    4.95
  13   2   6    4.54    1.86
  13  -2   6    6.68    3.73
  13  -2   6   14.00    5.35
  13  -2   6   13.56    4.71
  13   2   7   41.64    7.60
  13   2   7   52.92    9.04
  13  -2   7   33.80    7.70
  13  -2   7   39.10    7.17
  13  -2   7   47.65    8.19
  13   2   8   82.04   11.27
  13  -2   8   96.56   11.37
  13   2   8   83.80   11.15
  13  -2   8   92.09   11.51
  13  -2   8   78.59   10.23
  13   2   9   21.73    6.02
  13   2   9   20.68    5.41
  13  -2   9   21.84    4.95
  13  -2   9   23.08    5.64
  13   2  10   20.11    6.04
  13   2  10   26.29    6.42
  13  -2  10   25.67    5.94
  13  -2  10   12.81    4.86
  13   2  11  316.56   22.82
  13   2  11  298.68   21.79
  13  -2  11  311.66   21.44
  13  -2  11  281.46   19.96
  13   2  12   51.67    8.78
  13   2  12   81.95   11.59
  13  -2  12   68.30    9.91
  13   2  13    9.48    2.70
  13   2  13   11.75    4.11
  13   2  14    9.66    4.81
  13  -2  14   16.63    5.35
  13   2  15    2.57    3.43
  13  -2  15   12.11    4.83
  13   2  16    6.66    2.94
  13   2  17   98.98   13.07
  13   2  18    4.99    3.16
  13   2  19   -0.87    3.67
  13   2  20    7.44    4.25
  13   2  21   18.73    5.87
  13   2  22   17.80    6.40
  13   2  23   31.04    8.00
  13  -3 -22   92.89   13.70
  13  -3 -21   43.80    8.24
  13   3 -21   25.65    8.37
  13  -3 -20   38.89    7.94
  13   3 -20   43.50   10.15
  13  -3 -19   21.97    5.83
  13   3 -19   25.50    7.75
  13  -3 -18   31.98    8.19
  13   3 -18   19.79    6.80
  13   3 -17   59.70   11.24
  13  -3 -17   49.47    9.39
  13  -3 -16  409.79   26.18
  13   3 -16  419.46   27.55
  13  -3 -15   82.24   11.31
  13   3 -15  112.46   14.11
  13  -3 -14  181.78   17.83
  13   3 -14  182.70   17.94
  13  -3 -13   79.55   10.94
  13   3 -13   97.50   12.86
  13  -3 -13   95.28   11.69
  13  -3 -12  265.81   20.33
  13   3 -12  247.70   20.11
  13  -3 -12  237.58   18.35
  13  -3 -11   34.30    7.01
  13  -3 -11   25.82    7.08
  13   3 -11   40.12    9.00
  13  -3 -10  488.70   27.02
  13   3 -10  440.68   26.58
  13  -3 -10  472.08   25.44
  13  -3  -9   61.79    9.33
  13   3  -9   67.76   10.78
  13  -3  -9   68.99    9.75
  13  -3  -8   61.04    9.82
  13   3  -8   79.05   11.13
  13   3  -8   85.59   11.38
  13  -3  -8   75.71    9.98
  13  -3  -7   80.77   10.86
  13   3  -7   64.86   10.69
  13   3  -7   72.61   10.40
  13  -3  -7   65.32    9.46
  13  -3  -6  108.27   12.28
  13   3  -6  108.88   12.46
  13   3  -6  125.56   13.68
  13  -3  -6  116.76   12.04
  13  -3  -5   10.40    3.12
  13  -3  -5   11.26    4.19
  13   3  -5    8.35    3.30
  13   3  -5   15.49    4.68
  13  -3  -4  332.25   21.94
  13   3  -4  348.50   22.89
  13   3  -4  352.28   23.25
  13  -3  -4  349.45   21.32
  13   3  -3   74.63   10.47
  13   3  -3   69.84   10.40
  13  -3  -3   67.34    9.51
  13  -3  -3   66.81    9.84
  13  -3  -2    5.05    1.97
  13  -3  -2   -0.96    3.58
  13   3  -2    3.83    3.56
  13   3  -2   -0.37    2.59
  13  -3  -1   17.37    4.67
  13  -3  -1   11.73    3.56
  13   3  -1   15.79    4.87
  13   3  -1   11.62    4.85
  13   3   0  148.88   14.96
  13   3   0  150.17   15.16
  13  -3   0  121.43   13.49
  13  -3   0  147.84   14.26
  13  -3   0  138.99   13.45
  13  -3   1   23.64    5.71
  13  -3   1   20.90    4.96
  13   3   1   15.67    4.45
  13   3   1   25.31    6.54
  13  -3   1    7.76    3.52
  13  -3   2    5.71    2.89
  13  -3   2    7.20    4.44
  13   3   2    1.27    1.66
  13   3   2    6.49    4.45
  13  -3   2    4.52    3.84
  13   3   3   80.24   11.20
  13   3   3   78.80   11.08
  13  -3   3   72.08    9.70
  13  -3   3   75.75   10.21
  13  -3   3   87.93   11.08
  13   3   4  315.93   22.17
  13   3   4  356.02   23.27
  13  -3   4  381.75   22.70
  13  -3   4  354.79   21.70
  13  -3   4  377.88   22.48
  13  -3   5   15.75    5.19
  13  -3   5   10.04    4.27
  13   3   5    7.81    4.16
  13   3   5    5.19    2.66
  13  -3   5   11.62    4.24
  13   3   6  118.27   13.54
  13  -3   6  119.65   12.66
  13   3   6  108.77   13.42
  13  -3   6  119.53   13.71
  13  -3   6  137.14   13.77
  13   3   7   78.28   11.38
  13  -3   7   60.30    9.08
  13   3   7   57.73    9.48
  13  -3   7   64.14    9.36
  13   3   8   80.35   11.66
  13   3   8   76.25   10.94
  13  -3   8   81.11   10.84
  13   3   9   52.40    9.70
  13   3   9   78.69   10.87
  13  -3   9   64.55    9.44
  13   3  10  484.21   28.35
  13   3  10  476.61   27.77
  13  -3  10  502.18   27.26
  13   3  11   37.66    7.91
  13   3  11   40.24    8.48
  13  -3  11   50.02    8.98
  13   3  12  270.93   21.15
  13  -3  12  269.00   19.96
  13   3  12  248.95   21.04
  13   3  13   99.87   13.29
  13  -3  13  102.03   12.81
  13   3  14  214.49   18.84
  13  -3  14  202.23   18.44
  13   3  14  177.24   17.31
  13   3  15   88.74   12.18
  13  -3  15   63.18    9.91
  13   3  16  378.63   25.37
  13  -3  16  397.67   25.14
  13   3  17   47.45    9.89
  13  -3  17   63.45   10.10
  13   3  18   30.76    7.39
  13  -3  18   23.14    5.91
  13   3  19   37.64    8.41
  13  -3  19   21.69    6.50
  13   3  20   27.94    6.90
  13   3  21   35.72    8.42
  13   3  22  104.49   14.11
  13  -4 -21   34.69    8.43
  13  -4 -20   16.31    6.85
  13   4 -20   28.03    8.72
  13   4 -19   36.96    8.89
  13  -4 -19   39.77    8.06
  13   4 -18    0.44    2.61
  13  -4 -18    2.67    2.20
  13   4 -17   50.25    9.72
  13  -4 -17   33.17    7.72
  13   4 -16    1.82    3.90
  13  -4 -16    0.83    3.33
  13   4 -15   28.50    8.00
  13  -4 -15   23.61    6.25
  13   4 -14   15.60    6.31
  13  -4 -14   10.79    3.79
  13  -4 -13    2.93    3.75
  13   4 -13   -0.45    3.21
  13  -4 -13    1.83    2.55
  13  -4 -12   19.62    5.78
  13   4 -12   17.24    6.51
  13  -4 -12   20.49    6.45
  13  -4 -11    1.60    2.48
  13   4 -11   -2.27    3.61
  13  -4 -11   -0.20    2.06
  13   4 -11    1.71    2.87
  13  -4 -10   20.87    5.55
  13   4 -10   21.59    6.21
  13  -4 -10   17.83    4.18
  13   4 -10   15.82    4.62
  13  -4  -9  292.42   20.55
  13  -4  -9  283.75   21.10
  13   4  -9  271.38   21.31
  13   4  -9  318.80   23.09
  13  -4  -8    6.06    4.67
  13   4  -8    5.18    3.37
  13  -4  -8    5.26    1.86
  13   4  -8    4.63    3.68
  13  -4  -7    7.32    1.92
  13  -4  -7    9.25    3.47
  13   4  -7    7.21    4.56
  13  -4  -6  143.49   14.12
  13  -4  -6  155.92   15.37
  13   4  -6  183.66   16.94
  13   4  -6  169.88   16.70
  13  -4  -5   17.95    4.59
  13   4  -5   14.68    4.12
  13  -4  -5   12.21    4.62
  13   4  -5   10.57    3.65
  13  -4  -4   41.12    7.09
  13  -4  -4   49.35    8.52
  13   4  -4   48.96    8.86
  13   4  -4   44.23    8.40
  13  -4  -3   29.12    7.48
  13   4  -3   17.76    5.06
  13  -4  -3   26.62    6.74
  13   4  -3   33.61    7.86
  13  -4  -2  214.88   16.93
  13  -4  -2  233.23   18.37
  13   4  -2  265.95   20.02
  13   4  -2  228.45   18.85
  13  -4  -1  130.58   13.10
  13  -4  -1  117.67   12.92
  13   4  -1  124.22   13.76
  13   4  -1  118.69   13.78
  13  -4   0   20.17    6.05
  13   4   0   10.08    4.40
  13  -4   0   10.74    4.89
  13   4   0   12.12    4.17
  13  -4   0    9.17    4.79
  13   4   1  141.97   15.09
  13   4   1  112.44   13.84
  13  -4   1  143.67   14.01
  13  -4   1  109.47   12.64
  13   4   2  249.81   19.99
  13   4   2  236.00   19.53
  13  -4   2  274.55   19.53
  13  -4   2  224.38   17.76
  13  -4   3   25.50    6.44
  13  -4   3   27.51    6.62
  13   4   3   30.08    7.18
  13   4   3   27.31    7.01
  13   4   4   55.57    9.39
  13   4   4   36.95    8.41
  13  -4   4   51.06    8.52
  13  -4   4   67.35    9.80
  13  -4   5   23.03    4.81
  13  -4   5   12.65    4.87
  13   4   5   16.18    5.66
  13   4   5   13.12    5.15
  13   4   6  168.46   16.52
  13   4   6  168.49   16.10
  13  -4   6  149.25   14.29
  13  -4   6  182.78   15.80
  13  -4   7    8.66    4.64
  13   4   7   11.11    5.19
  13   4   7   15.59    6.18
  13  -4   8    9.61    3.65
  13   4   8    8.35    4.12
  13   4   8    0.94    3.76
  13   4   9  322.70   23.73
  13   4   9  317.97   22.41
  13  -4   9  335.88   22.40
  13  -4  10   16.69    5.13
  13   4  10   17.06    5.94
  13   4  10    8.47    3.33
  13  -4  11    2.04    2.90
  13   4  11   -1.12    2.02
  13   4  11   -0.40    2.29
  13  -4  12   15.10    5.89
  13   4  12   22.21    7.12
  13   4  12   24.37    6.02
  13  -4  13   -1.73    4.21
  13   4  13   -0.13    2.70
  13   4  13    0.41    3.60
  13   4  14    4.79    3.13
  13  -4  14    9.60    3.53
  13   4  15   29.08    7.49
  13   4  15   32.98    7.42
  13  -4  15   34.41    7.22
  13   4  16   11.90    5.34
  13  -4  16    7.23    3.05
  13   4  17   41.51    8.65
  13  -4  17   36.22    8.54
  13   4  18    2.94    1.95
  13  -4  18   -0.61    3.23
  13   4  19   27.48    7.40
  13  -4  19   24.34    7.50
  13   4  20    8.87    3.71
  13  -4  20    5.49    3.37
  13   4  21   36.37    8.51
  13  -5 -20   54.54   10.43
  13  -5 -19   32.51    7.26
  13   5 -18   13.98    5.52
  13  -5 -18   21.69    6.38
  13  -5 -17   55.33   10.07
  13   5 -17   59.79   11.20
  13   5 -16   40.07    9.57
  13  -5 -16   41.69    7.85
  13   5 -15   10.75    5.42
  13  -5 -15   20.70    6.43
  13   5 -15    9.24    2.82
  13  -5 -14   66.62    9.85
  13   5 -14   34.22    8.51
  13   5 -14   51.40    9.77
  13  -5 -13    8.63    3.93
  13   5 -13    6.29    6.39
  13  -5 -13    2.58    2.70
  13   5 -13   -0.20    3.00
  13  -5 -12   37.27    8.46
  13   5 -12   32.39    8.13
  13  -5 -12   28.98    6.58
  13   5 -12   25.87    7.86
  13  -5 -11  168.48   16.19
  13   5 -11  115.81   14.76
  13  -5 -11  148.89   15.44
  13   5 -11  159.42   16.48
  13  -5 -10   34.90    7.26
  13   5 -10   59.46   10.68
  13  -5 -10   78.78   10.67
  13   5 -10   57.17   10.42
  13  -5  -9    5.47    2.22
  13   5  -9    2.39    3.47
  13  -5  -9    3.52    2.49
  13   5  -9    2.61    3.14
  13  -5  -8   18.95    6.00
  13   5  -8   25.25    6.52
  13  -5  -8   21.53    6.06
  13   5  -8   20.23    6.64
  13  -5  -7   82.76   10.82
  13   5  -7   88.78   11.81
  13  -5  -7   61.34    9.45
  13   5  -7   72.14   10.75
  13  -5  -6  117.79   13.28
  13   5  -6  131.30   14.88
  13  -5  -6  137.64   14.61
  13   5  -6  113.26   13.91
  13  -5  -5   55.81    9.48
  13  -5  -5   57.03    9.13
  13   5  -5   44.32    9.11
  13   5  -5   65.42   10.83
  13  -5  -4  117.24   13.42
  13   5  -4  120.87   14.44
  13  -5  -4  137.74   13.96
  13   5  -4  143.64   15.48
  13  -5  -3  121.16   13.07
  13   5  -3  125.25   14.52
  13  -5  -3   99.47   12.12
  13   5  -3  118.89   13.91
  13  -5  -2  313.99   21.22
  13   5  -2  351.63   24.45
  13  -5  -2  342.63   22.69
  13   5  -2  305.52   22.16
  13  -5  -1  238.71   18.39
  13   5  -1  218.20   19.30
  13  -5  -1  206.60   18.22
  13   5  -1  229.07   19.40
  13  -5   0    3.58    4.11
  13   5   0    6.21    3.09
  13  -5   0    3.10    2.14
  13   5   0    1.11    2.18
  13  -5   1  241.29   19.10
  13   5   1  267.60   20.61
  13  -5   1  229.70   18.41
  13   5   1  237.65   20.31
  13  -5   2  297.08   20.95
  13  -5   2  285.98   20.68
  13   5   2  307.60   22.48
  13   5   2  285.11   21.52
  13  -5   3  113.42   12.84
  13  -5   3  128.38   13.93
  13   5   3  149.51   15.75
  13   5   3  111.29   13.77
  13  -5   4  120.87   13.66
  13   5   4  111.03   13.99
  13   5   4  147.76   15.88
  13  -5   4  111.30   12.85
  13   5   5   43.58    9.40
  13   5   5   48.02    9.14
  13  -5   5   59.34    9.15
  13   5   6  151.74   16.49
  13   5   6  112.02   13.60
  13  -5   6  124.86   13.84
  13   5   7   82.42   11.93
  13  -5   7   77.56   10.44
  13   5   7   73.45   11.32
  13  -5   8   25.05    5.81
  13   5   8   33.52    8.07
  13   5   8   27.74    6.04
  13  -5   9    0.56    2.97
  13   5   9    9.74    5.45
  13   5   9    4.24    2.94
  13  -5  10   32.90    7.50
  13   5  10   19.48    5.56
  13   5  11  165.26   16.56
  13   5  11  138.20   15.96
  13  -5  11  135.13   14.33
  13  -5  12   35.98    7.63
  13   5  12   36.56    8.66
  13   5  12   28.86    6.82
  13  -5  13   15.37    6.06
  13   5  13   15.07    5.54
  13   5  13    8.14    5.94
  13  -5  14   42.68    9.12
  13   5  14   32.01    8.11
  13   5  14   43.15    8.83
  13   5  15   35.13    8.42
  13  -5  15   33.91    8.28
  13   5  15   19.93    5.73
  13  -5  16   36.11    8.50
  13   5  16   49.49    9.18
  13   5  16   47.94    9.55
  13   5  17   74.61   11.87
  13  -5  17   56.58   10.39
  13   5  18   14.98    5.75
  13  -5  18   12.48    4.37
  13   5  19   15.71    5.72
  13  -5  19   23.48    7.38
  13   5  20   59.01   10.74
  13  -6 -18    4.18    3.74
  13   6 -18    1.77    4.30
  13   6 -17   -4.37    3.33
  13  -6 -17    8.80    4.31
  13   6 -17    3.24    3.76
  13   6 -16  -11.12    6.54
  13  -6 -16   -1.98    2.58
  13   6 -16   -2.10    4.03
  13  -6 -15    7.42    1.81
  13   6 -15    3.16    4.55
  13  -6 -14   17.35    6.24
  13   6 -14   22.64    8.03
  13  -6 -14   19.79    6.18
  13   6 -14    6.73    3.45
  13  -6 -13   12.81    6.20
  13   6 -13    5.66    5.35
  13  -6 -13   18.22    5.45
  13   6 -13    3.98    4.20
  13  -6 -12    5.32    4.33
  13   6 -12    2.73    4.06
  13  -6 -12   10.55    4.68
  13   6 -12   12.11    5.44
  13  -6 -11   26.33    7.75
  13   6 -11   11.22    3.45
  13  -6 -11   23.90    6.89
  13   6 -11   26.40    6.16
  13  -6 -10   14.91    5.60
  13   6 -10    9.46    4.44
  13  -6 -10   12.49    5.43
  13   6 -10    6.82    3.86
  13  -6  -9    7.64    3.65
  13   6  -9    7.68    3.12
  13  -6  -9    1.39    3.09
  13   6  -9    6.16    3.35
  13  -6  -8    2.41    4.10
  13   6  -8   13.04    5.85
  13  -6  -8    4.35    3.26
  13   6  -8    6.72    4.84
  13  -6  -7   11.93    4.80
  13   6  -7    6.56    2.12
  13  -6  -7   11.72    5.09
  13   6  -7   12.16    5.74
  13  -6  -6    3.32    1.91
  13   6  -6    9.76    6.18
  13  -6  -6    5.72    3.35
  13   6  -6    4.69    2.80
  13  -6  -5    0.06    3.60
  13   6  -5    3.06    4.18
  13  -6  -5    6.29    2.27
  13   6  -5    6.13    4.00
  13  -6  -4    3.48    2.33
  13   6  -4    1.85    2.81
  13  -6  -4    1.22    1.83
  13   6  -4   -1.59    4.77
  13  -6  -3   18.92    5.08
  13   6  -3   20.80    6.24
  13  -6  -3    8.70    3.49
  13   6  -3    2.99    2.43
  13  -6  -2   28.49    6.31
  13   6  -2   19.67    6.57
  13  -6  -2   26.38    6.28
  13   6  -2   20.66    7.04
  13  -6  -1   25.70    6.19
  13   6  -1   18.71    6.49
  13  -6  -1   40.89    8.46
  13   6  -1   38.05    8.08
  13  -6   0    3.26    3.30
  13   6   0   -0.74    3.92
  13  -6   0    6.04    3.85
  13   6   0   -1.20    3.60
  13  -6   1   23.21    6.70
  13   6   1   16.08    6.62
  13  -6   1   21.43    5.89
  13   6   1   26.24    7.71
  13  -6   2   27.12    7.39
  13   6   2   24.32    6.76
  13  -6   2   23.36    6.00
  13   6   2   20.42    5.66
  13  -6   3   13.24    5.57
  13   6   3   15.58    5.28
  13  -6   3    9.81    4.06
  13   6   3   14.79    4.02
  13  -6   4    0.58    2.66
  13   6   4    2.53    1.97
  13   6   4   -0.73    3.58
  13  -6   5    7.11    3.64
  13   6   5    2.66    2.51
  13   6   5   13.63    4.90
  13  -6   6    8.43    2.97
  13   6   6    7.27    5.04
  13   6   6    2.29    2.37
  13  -6   7   12.29    4.62
  13   6   7   10.38    5.26
  13   6   7   11.32    4.46
  13  -6   8    5.65    2.41
  13   6   8    9.78    5.20
  13   6   8    2.18    3.76
  13  -6   9    7.13    4.75
  13   6   9    5.40    4.69
  13   6   9    8.41    6.11
  13  -6  10   16.99    5.53
  13   6  10   15.73    5.76
  13   6  10   15.41    6.05
  13   6  11   26.39    7.65
  13  -6  11   15.33    5.86
  13   6  11   22.42    6.40
  13   6  12    6.64    5.11
  13  -6  12    2.69    3.14
  13   6  12    1.54    2.79
  13   6  13    9.20    4.83
  13  -6  13   20.38    6.49
  13   6  13   13.52    5.01
  13  -6  14   17.52    5.83
  13   6  14   18.81    6.54
  13   6  14   23.75    7.52
  13  -6  15   11.41    5.93
  13   6  15    5.39    3.59
  13   6  15    4.88    3.29
  13  -6  16   10.14    5.06
  13   6  16   -1.85    3.87
  13   6  16   -1.11    4.44
  13  -6  17    3.66    4.33
  13   6  17    6.73    5.22
  13   6  17   -0.90    2.49
  13  -6  18    7.61    3.67
  13   6  18   10.35    4.82
  13   7 -15   18.35    6.09
  13  -7 -15   37.97    8.35
  13  -7 -14   40.79    9.07
  13   7 -14   18.43    7.79
  13   7 -14   21.63    6.64
  13  -7 -14   31.95    7.93
  13  -7 -13   12.89    5.18
  13   7 -13   19.48    6.43
  13   7 -13    4.17    5.42
  13  -7 -13   16.20    6.27
  13  -7 -12   11.12    4.60
  13   7 -12   16.78    6.06
  13   7 -12   15.74    5.96
  13  -7 -12   14.06    5.28
  13  -7 -11   59.41   10.90
  13   7 -11   33.05    8.39
  13   7 -11   39.28    9.93
  13  -7 -11   26.61    7.01
  13   7 -10  125.89   15.58
  13  -7 -10  109.61   14.43
  13  -7 -10  128.19   14.72
  13   7 -10  123.33   16.48
  13  -7  -9   32.48    7.68
  13   7  -9   30.16    7.96
  13   7  -9   20.14    5.36
  13  -7  -9   30.40    7.49
  13  -7  -8   17.61    6.51
  13   7  -8   28.77    7.73
  13   7  -8   28.42    9.00
  13  -7  -8   23.49    5.78
  13  -7  -7   33.39    8.25
  13   7  -7   41.43    9.40
  13   7  -7   22.79    7.46
  13  -7  -7   27.82    7.18
  13   7  -6  118.53   15.32
  13  -7  -6  111.20   13.39
  13  -7  -6   68.78   10.97
  13   7  -6  111.18   15.20
  13  -7  -5   35.52    7.54
  13   7  -5   17.15    5.87
  13   7  -5   21.15    7.32
  13  -7  -5   31.98    8.28
  13  -7  -4   75.29   10.94
  13   7  -4   53.92   10.11
  13  -7  -4   65.30   10.67
  13   7  -4   66.61   11.17
  13  -7  -3   37.09    8.46
  13   7  -3   34.65    8.07
  13   7  -3   39.49    8.78
  13  -7  -3   34.44    7.14
  13  -7  -2   57.70    9.86
  13   7  -2   54.06   10.47
  13  -7  -2   60.45    9.66
  13   7  -2   48.55   10.10
  13  -7  -1   37.01    8.24
  13   7  -1   20.86    5.99
  13   7  -1   23.02    5.59
  13  -7  -1   30.64    7.56
  13  -7   0   10.57    5.18
  13   7   0    6.46    4.23
  13   7   0    6.99    4.97
  13  -7   0   18.02    5.71
  13  -7   1   27.14    6.97
  13   7   1   26.42    6.99
  13  -7   1   17.55    5.97
  13   7   1   24.11    6.32
  13  -7   2   62.92   10.10
  13  -7   2   66.44   11.09
  13   7   2   89.34   13.27
  13   7   2   56.67   10.80
  13  -7   3   19.14    7.07
  13   7   3   29.30    8.44
  13   7   3   43.73    9.03
  13  -7   4   77.37   11.44
  13   7   4   54.23    9.92
  13   7   4   72.47   11.62
  13   7   5   20.00    5.99
  13  -7   5   16.20    4.62
  13   7   5   24.86    6.87
  13  -7   6  129.35   14.52
  13   7   6  127.07   15.52
  13   7   7   33.15    8.03
  13  -7   7   30.89    7.78
  13   7   7   34.21    8.45
  13   7   8   34.10    8.68
  13  -7   8   22.79    6.41
  13   7   8   24.87    7.19
  13   7   9   37.90    8.96
  13  -7   9   27.45    6.86
  13   7   9   36.36    7.71
  13   7  10  107.51   13.85
  13   7  10  121.08   16.23
  13  -7  10  119.51   14.12
  13   7  11   54.45   10.51
  13  -7  11   52.80    9.61
  13   7  11   47.90    9.76
  13  -7  12   23.13    7.07
  13   7  12   20.91    6.73
  13   7  12   16.67    7.51
  13   7  13    4.60    2.90
  13   7  13    9.45    3.29
  13  -7  14   25.01    5.71
  13   7  14   26.11    7.37
  13   7  14   24.01    7.40
  13  -7  15   26.48    7.47
  13   7  15   22.81    7.06
  13   7  15   34.32    7.96
  13  -8 -11   13.26    6.10
  13   8 -11    9.21    5.51
  13  -8 -11   12.34    4.86
  13  -8 -10   -0.10    2.31
  13  -8 -10    3.28    3.82
  13  -8  -9   13.04    5.73
  13   8  -9   14.06    5.66
  13   8  -9    2.70    3.06
  13  -8  -9    4.45    1.98
  13   8  -8   17.87    6.57
  13  -8  -8   22.39    5.15
  13   8  -8    9.51    5.99
  13  -8  -8   19.66    7.51
  13  -8  -7    8.50    2.66
  13   8  -7   12.01    4.91
  13   8  -7    6.65    6.53
  13  -8  -7   18.82    5.93
  13   8  -6    8.63    5.18
  13  -8  -6   10.98    3.52
  13   8  -6    4.94    4.22
  13  -8  -6    7.33    4.05
  13   8  -5    9.00    3.61
  13  -8  -5   16.49    4.70
  13   8  -5   13.49    4.17
  13  -8  -5   17.55    5.29
  13   8  -4    1.85    3.17
  13  -8  -4    3.51    2.96
  13   8  -4   -4.64    5.90
  13  -8  -4    0.68    1.86
  13   8  -3   13.88    7.37
  13  -8  -3   12.80    4.29
  13   8  -3    5.30    5.61
  13  -8  -3    7.06    4.51
  13   8  -2   14.73    7.21
  13  -8  -2    8.84    4.26
  13   8  -2    6.63    5.03
  13  -8  -2    9.63    5.16
  13   8  -1    8.88    6.39
  13  -8  -1    6.58    3.81
  13   8  -1    4.42    3.80
  13  -8  -1    1.08    2.45
  13   8   0   -3.15    2.06
  13  -8   0    3.94    2.63
  13   8   0    0.86    4.95
  13  -8   0   -0.30    3.31
  13   8   1    3.51    3.40
  13  -8   1    5.33    3.90
  13   8   1    0.38    4.01
  13   8   2   11.36    6.57
  13  -8   2    4.75    3.08
  13   8   2   11.13    4.41
  13   8   3    8.52    4.76
  13  -8   3   11.70    4.31
  13   8   3   12.46    5.00
  13   8   4    1.78    3.20
  13  -8   4    0.88    2.38
 -13  -8   4   -2.91    3.09
  13   8   4    0.82    2.45
  13   8   5    9.97    3.53
  13  -8   5   10.67    6.11
 -13  -8   5    1.77    2.10
  13   8   5   11.96    5.87
  13   8   6    8.42    6.07
  13  -8   6    9.56    4.65
  13   8   6    8.46    5.32
  13   8   7   10.44    3.57
  13  -8   7   16.05    6.05
  13   8   7    6.49    3.68
  13   8   8   12.71    6.25
  13  -8   8   15.97    6.23
  13   8   8   16.63    6.42
  13  -8   9    6.59    4.40
  13   8   9   11.38    4.77
  13   8   9   17.87    6.48
  13  -8  10    9.11    5.32
  13   8  10   14.12    7.87
  13   8  10    0.43    3.08
  13  -8  11   19.30    5.79
  13   8  11   19.66    7.17
  13   8  11   14.77    5.65
  13  -9  -3   13.98    5.18
 -13  -9  -3    9.06    3.95
  13   9  -3   10.66    6.62
  13  -9  -3   20.32    6.72
  13   9  -2   10.44    4.72
  13  -9  -2    8.13    5.94
 -13  -9  -2   12.94    6.62
  13   9  -2    1.74    4.18
  13  -9  -2   14.47    5.57
  13   9  -1   -1.55    5.10
  13  -9  -1    6.54    5.05
 -13  -9  -1   10.50    5.32
  13   9  -1    0.41    4.66
  13  -9  -1   -8.71    4.35
  13   9   0   26.36    6.45
  13  -9   0   33.97    8.03
 -13  -9   0   48.52    9.47
  13   9   0   34.99    7.95
  13   9   1   10.44    5.86
  13  -9   1    5.44    2.71
 -13  -9   1    1.04    2.25
  13   9   1    2.67    4.22
  13   9   2    7.47    3.32
  13  -9   2    3.63    1.84
  13   9   2    2.78    4.24
  13  -9   3    8.17    4.96
 -13  -9   3   15.64    5.54
  13   9   3   21.05    5.53
  14   0 -22   54.42   11.01
  14   0 -21  114.37   15.20
  14   0 -20   47.21    9.36
  14   0 -19   17.20    5.95
  14   0 -18    1.62    3.74
  14   0 -17    5.74    3.53
  14   0 -16  115.28   14.03
  14   0 -15   40.98    8.62
  14   0 -14   63.52   10.63
  14   0 -13  149.25   15.89
  14   0 -12  216.94   18.84
  14   0 -11   17.68    4.64
  14   0 -10  278.09   20.75
  14   0  -9   24.36    6.33
  14   0  -8   33.96    7.87
  14   0  -7  327.27   22.21
  14   0  -7  286.24   19.37
  14   0  -6  409.43   25.31
  14   0  -6  357.35   21.07
  14   0  -5  250.95   19.43
  14   0  -5  264.12   18.14
  14   0  -4  293.98   21.18
  14   0  -4  314.85   20.17
  14   0  -3  126.52   13.38
  14   0  -3  139.57   14.63
  14   0  -3  106.08   11.62
  14   0  -2   81.95   11.15
  14   0  -2   81.76   10.97
  14   0  -2   88.70   10.86
  14   0  -1  218.22   18.08
  14   0  -1  258.88   20.07
  14   0  -1  219.72   16.71
  14   0   0  202.26   17.08
  14   0   0  201.60   17.40
  14   0   0  193.07   16.21
  14   0   1  219.54   17.60
  14   0   1  250.45   19.10
  14   0   1  209.08   16.31
  14   0   2   93.73   11.64
  14   0   2   96.74   12.28
  14   0   2   84.07   10.55
  14   0   3  130.89   13.58
  14   0   3  110.01   12.63
  14   0   4  296.64   20.88
  14   0   4  295.85   21.18
  14   0   5  281.46   20.25
  14   0   5  236.55   19.02
  14   0   6  383.23   23.94
  14   0   7  277.72   20.24
  14   0   7  300.03   21.78
  14   0   8   44.75    7.68
  14   0   8   52.88    9.41
  14   0   9   14.99    4.88
  14   0   9   28.65    7.26
  14   0  10  260.94   20.13
  14   0  10  258.35   20.16
  14   0  11    7.28    4.76
  14   0  12  214.49   18.59
  14   0  13  200.42   18.21
  14   0  14   55.08    9.42
  14   0  15   31.11    7.94
  14   0  16  163.55   16.73
  14   0  17   10.00    4.81
  14   0  18    3.55    3.51
  14   0  19   22.10    6.90
  14   0  20   50.94   10.27
  14  -1 -22    0.84    2.85
  14   1 -22    4.37    4.82
  14  -1 -21    1.74    2.57
  14   1 -21    4.42    2.78
  14  -1 -20    8.37    5.56
  14   1 -20    9.07    5.18
  14  -1 -19   17.74    5.92
  14   1 -19   18.99    3.93
  14  -1 -18   22.63    5.98
  14   1 -18   21.29    6.85
  14  -1 -17    3.86    3.90
  14   1 -17    5.70    4.41
  14  -1 -16    3.28    3.92
  14   1 -16    8.91    3.67
  14  -1 -15   18.37    4.87
  14   1 -15   35.04    8.36
  14  -1 -14    2.01    3.43
  14   1 -14    3.91    3.54
  14  -1 -13    3.64    2.73
  14   1 -13    0.71    1.84
  14  -1 -12    1.55    2.09
  14   1 -12   -2.12    2.18
  14  -1 -11    3.76    3.74
  14   1 -11   -0.33    1.74
  14  -1 -11    4.42    4.02
  14  -1 -10    7.55    4.62
  14   1 -10   10.41    3.96
  14  -1 -10   12.47    3.86
  14  -1  -9   34.49    7.44
  14   1  -9   45.32    8.80
  14  -1  -9   40.58    7.32
  14  -1  -8   18.88    6.51
  14   1  -8    9.80    3.18
  14  -1  -8    6.89    3.85
  14   1  -7   49.77    8.19
  14  -1  -7   59.63    8.77
  14   1  -6    2.25    2.42
  14  -1  -6    4.14    2.85
  14  -1  -5    2.78    2.27
  14   1  -5    6.65    4.70
  14   1  -5    2.36    2.47
  14  -1  -5    3.54    3.48
  14  -1  -4   22.41    5.66
  14   1  -4   28.89    6.82
  14   1  -4   16.08    5.42
  14  -1  -4   30.84    6.89
  14  -1  -3   10.87    4.27
  14   1  -3    9.47    3.73
  14   1  -3   11.78    3.33
  14  -1  -3   11.28    4.59
  14   1  -2   71.97   10.45
  14  -1  -2   96.72   12.16
  14   1  -2   91.64   12.40
  14  -1  -2   75.14   10.63
  14  -1  -2   81.25   10.17
  14   1  -1  112.86   13.01
  14  -1  -1   84.70   11.18
  14   1  -1   92.45   12.66
  14  -1  -1  111.74   13.27
  14  -1  -1  136.64   12.97
  14   1   0  108.65   12.53
  14  -1   0   82.66   10.61
  14   1   0   81.61   11.02
  14  -1   0   89.46   11.15
  14  -1   0  106.20   11.83
  14   1   1  119.34   12.99
  14  -1   1  125.16   13.28
  14   1   1  116.81   13.12
  14  -1   1  100.10   12.02
  14  -1   1  119.70   12.68
  14   1   2   96.22   12.40
  14  -1   2  104.10   12.09
  14   1   2   74.68   11.14
  14  -1   2   85.49   11.35
  14  -1   2   91.79   11.01
  14   1   3   21.02    4.79
  14   1   3   18.68    5.33
  14  -1   3   24.36    6.18
  14  -1   3    9.63    4.63
  14  -1   3   14.34    5.05
  14   1   4   35.04    6.99
  14  -1   4   29.34    6.44
  14   1   4   33.22    6.82
  14  -1   4   29.98    7.60
  14  -1   4   32.12    6.33
  14   1   5   -0.68    2.98
  14  -1   5    0.25    2.15
  14   1   5    4.32    3.61
  14  -1   5   11.05    5.86
  14  -1   5    0.94    3.23
  14   1   6    7.51    4.11
  14  -1   6    3.79    2.58
  14   1   6    3.39    5.32
  14  -1   6    3.66    4.45
  14  -1   6    6.37    4.16
  14   1   7   56.96    9.26
  14  -1   7   62.10    9.56
  14   1   7   52.90    9.54
  14  -1   7   57.37   10.00
  14  -1   7   60.96    9.18
  14   1   8   21.37    6.22
  14  -1   8    8.44    4.14
  14   1   8    7.58    1.95
  14  -1   8   15.12    4.89
  14  -1   8   15.82    4.33
  14   1   9   46.20    9.01
  14  -1   9   23.14    5.27
  14  -1   9   50.16    9.05
  14   1   9   32.76    6.96
  14  -1   9   27.77    6.36
  14   1  10   10.93    5.59
  14   1  10   14.93    5.36
  14  -1  10   12.99    3.63
  14  -1  10   21.75    6.62
  14   1  11    3.12    2.00
  14   1  11    4.53    4.60
  14  -1  11    2.10    3.27
  14   1  12    0.14    4.21
  14  -1  12    5.25    5.01
  14   1  12   -0.76    2.75
  14  -1  13    4.91    4.16
  14   1  13   -0.58    1.90
  14  -1  14    4.47    4.54
  14   1  14    7.68    4.74
  14  -1  15   27.78    6.72
  14   1  15   27.86    6.67
  14   1  16    0.57    2.64
  14   1  17    3.93    4.49
  14   1  18   28.88    6.40
  14   1  19   20.31    6.46
  14   1  20    0.98    4.56
  14   1  21    3.67    4.05
  14   1  22   10.61    5.03
  14  -2 -22   40.38    9.03
  14   2 -22   39.18    9.02
  14   2 -21   58.27   12.09
  14  -2 -21   84.94   13.45
  14   2 -20   54.80   11.77
  14  -2 -20   65.71   11.81
  14  -2 -19    3.76    2.18
  14   2 -19    3.88    3.76
  14  -2 -18    4.80    1.89
  14   2 -18    5.36    4.70
  14  -2 -17   37.42    7.66
  14   2 -17   44.75   10.15
  14   2 -16  139.37   16.21
  14  -2 -16  110.07   13.88
  14   2 -15   77.40   12.08
  14  -2 -15   58.32    9.92
  14   2 -14  112.91   13.81
  14  -2 -14   95.32   12.14
  14  -2 -13   10.48    4.89
  14   2 -13    7.34    3.98
  14   2 -12  110.30   13.98
  14  -2 -12   81.87   11.80
  14  -2 -12  118.28   12.95
  14  -2 -11   24.60    6.49
  14  -2 -11   17.01    4.83
  14   2 -10   73.72   11.36
  14  -2 -10   90.67   11.90
  14  -2 -10  105.29   12.26
  14   2  -9  198.14   17.75
  14  -2  -9  185.12   17.05
  14  -2  -9  188.62   16.44
  14  -2  -8   29.01    6.50
  14  -2  -8   35.10    7.88
  14   2  -8   41.08    8.28
  14  -2  -7   39.33    8.00
  14  -2  -7   24.08    6.19
  14   2  -7   20.43    6.04
  14   2  -7   18.11    5.29
  14   2  -6  107.84   12.95
  14   2  -6  133.87   14.48
  14  -2  -6  162.57   15.61
  14  -2  -6  126.67   13.76
  14   2  -5  164.81   16.27
  14   2  -5  174.53   16.58
  14  -2  -5  178.52   16.67
  14  -2  -5  163.29   14.75
  14   2  -4  153.09   15.49
  14   2  -4  145.69   15.77
  14  -2  -4  143.73   14.55
  14  -2  -4  157.65   14.66
  14  -2  -3   25.55    5.52
  14  -2  -3   27.36    7.26
  14   2  -3   31.13    7.19
  14   2  -3   23.00    6.17
  14  -2  -2   15.93    5.51
  14  -2  -2   14.89    3.23
  14   2  -2   17.04    4.95
  14   2  -2   14.95    5.21
  14  -2  -1   32.49    6.52
  14  -2  -1   19.31    5.23
  14   2  -1   27.07    6.57
  14   2  -1   21.43    6.08
  14  -2  -1   22.90    6.23
  14   2   0  377.79   24.08
  14  -2   0  333.47   22.18
  14   2   0  374.98   24.25
  14  -2   0  332.47   22.63
  14  -2   0  420.57   24.15
  14  -2   1   21.31    5.45
  14  -2   1   17.66    4.87
  14   2   1   36.29    7.53
  14   2   1   18.45    5.47
  14  -2   1   20.44    5.95
  14  -2   2   23.67    5.50
  14  -2   2   23.31    6.04
  14   2   2    9.04    4.58
  14   2   2   25.57    6.63
  14  -2   2   29.54    6.93
  14   2   3   18.01    5.74
  14   2   3   35.91    7.57
  14  -2   3   37.05    7.54
  14  -2   3   20.52    5.38
  14  -2   3   18.95    4.76
  14   2   4  132.25   15.11
  14  -2   4  155.39   15.20
  14   2   4  162.62   16.07
  14  -2   4  166.49   15.86
  14   2   5  148.62   15.68
  14  -2   5  175.40   15.73
  14   2   5  164.72   16.56
  14  -2   5  149.20   15.41
  14  -2   5  135.69   13.84
  14   2   6  122.93   14.14
  14  -2   6  135.73   13.79
  14   2   6  125.76   13.94
  14  -2   6  132.77   14.13
  14  -2   6  140.06   14.23
  14   2   7   28.95    7.60
  14   2   7   19.11    4.75
  14  -2   7   17.66    5.10
  14  -2   7   23.19    6.45
  14  -2   7   39.40    8.39
  14   2   8   33.50    7.17
  14  -2   8   33.34    7.63
  14   2   8   37.37    7.69
  14  -2   8   33.36    7.54
  14  -2   8   44.34    7.80
  14   2   9  182.33   17.57
  14   2   9  230.52   19.27
  14  -2   9  201.30   17.52
  14  -2   9  176.88   16.00
  14   2  10   71.20   10.95
  14   2  10   87.81   12.30
  14  -2  10   89.52   12.19
  14  -2  10   93.90   11.38
  14   2  11   43.83    8.29
  14   2  11   31.87    8.17
  14  -2  11   32.08    7.61
  14   2  12  101.16   13.44
  14   2  12  112.63   14.27
  14  -2  12  109.89   13.05
  14   2  13   39.21    9.93
  14   2  13   30.79    7.58
  14  -2  13   14.98    5.42
  14   2  14  107.65   13.25
  14  -2  14   89.19   11.61
  14   2  15   47.15    8.72
  14  -2  15   52.11    9.27
  14   2  16  144.33   15.74
  14   2  17   45.84    9.43
  14   2  18    4.32    4.28
  14   2  19    2.09    3.41
  14   2  20   72.08   11.54
  14   2  21   57.16   11.29
  14   2  22   26.60    6.77
  14  -3 -21   -2.69    3.81
  14   3 -21   -1.08    2.90
  14  -3 -20   18.06    6.63
  14   3 -20    7.28    3.00
  14  -3 -19    6.01    5.19
  14   3 -19   -0.13    2.61
  14  -3 -18   12.25    5.35
  14   3 -18    4.85    5.41
  14  -3 -17    5.52    3.97
  14   3 -17   -1.75    4.75
  14  -3 -16   23.58    6.83
  14   3 -16   29.66    8.10
  14  -3 -15   41.07    8.25
  14   3 -15   50.29    9.61
  14  -3 -14    7.02    3.70
  14   3 -14   18.25    6.07
  14  -3 -13   10.38    4.58
  14   3 -13   12.04    5.64
  14  -3 -12    1.73    2.88
  14  -3 -12    5.13    1.50
  14   3 -12    8.65    4.68
  14  -3 -11   15.36    4.74
  14  -3 -11   12.63    4.48
  14  -3 -10   90.16   11.81
  14   3 -10   93.66   12.89
  14  -3 -10   92.87   11.05
  14  -3  -9   16.33    5.15
  14  -3  -9   10.48    4.25
  14   3  -9   14.07    5.90
  14   3  -9    5.61    4.10
  14  -3  -8    0.48    2.14
  14  -3  -8   -0.90    1.60
  14   3  -8    0.45    4.08
  14   3  -8    1.73    4.24
  14  -3  -7    9.59    4.49
  14  -3  -7   14.80    5.60
  14   3  -7   13.08    5.12
  14   3  -7    5.93    3.11
  14  -3  -6   12.92    5.27
  14  -3  -6   20.21    5.19
  14   3  -6   11.05    3.34
  14   3  -6   26.45    6.72
  14  -3  -5   23.22    6.26
  14  -3  -5   27.44    7.42
  14   3  -5   25.25    7.56
  14   3  -5   32.71    8.17
  14  -3  -4    9.89    3.14
  14  -3  -4    3.82    2.10
  14   3  -4   10.23    3.81
  14   3  -4    8.17    3.83
  14  -3  -3   16.21    4.81
  14  -3  -3   27.17    6.54
  14   3  -3   23.67    6.32
  14   3  -3   20.61    6.40
  14   3  -2  284.34   21.22
  14   3  -2  310.88   22.30
  14  -3  -2  223.82   18.34
  14  -3  -2  276.72   19.79
  14  -3  -1   37.10    7.99
  14  -3  -1   28.79    7.60
  14   3  -1   15.53    5.78
  14   3  -1   41.42    8.65
  14  -3  -1   36.99    7.80
  14   3   0  235.07   19.40
  14   3   0  201.88   18.56
  14  -3   0  220.87   18.09
  14  -3   0  246.90   19.22
  14  -3   0  196.65   16.94
  14  -3   1   37.55    6.90
  14   3   1   26.45    6.97
  14   3   1   25.38    6.85
  14  -3   1   39.06    7.53
  14   3   2  236.98   19.57
  14   3   2  283.71   21.12
  14  -3   2  285.05   20.38
  14  -3   2  281.09   20.62
  14  -3   2  289.14   19.88
  14  -3   3   25.00    6.44
  14  -3   3   20.83    5.45
  14   3   3   24.79    6.07
  14   3   3   22.40    6.87
  14  -3   3   18.87    6.38
  14  -3   4   11.64    4.88
  14  -3   4    6.42    2.56
  14   3   4    9.87    4.65
  14   3   4    9.75    5.27
  14  -3   4    6.49    3.33
  14  -3   5   32.03    7.20
  14  -3   5   38.75    7.96
  14   3   5   33.76    7.30
  14   3   5   20.13    6.49
  14  -3   5   23.75    6.07
  14  -3   6   23.45    6.67
  14   3   6   19.69    5.93
  14   3   6   15.91    5.11
  14  -3   6   23.54    6.82
  14  -3   7    5.30    3.68
  14   3   7    2.49    2.31
  14   3   7   12.27    4.89
  14  -3   8   -0.01    1.87
  14   3   8    0.36    3.24
  14   3   8    1.27    2.27
  14   3   9   13.41    5.43
  14   3   9   13.67    4.54
  14  -3   9   14.54    5.61
  14   3  10   85.78   12.30
  14   3  10   64.07   10.31
  14  -3  10   84.57   11.12
  14   3  11   22.42    6.77
  14   3  11   14.54    4.90
  14  -3  11   19.40    6.26
  14   3  12    6.23    4.56
  14   3  12    8.50    5.03
  14  -3  12    4.87    4.39
  14   3  13   12.42    4.45
  14   3  13   10.17    4.05
  14  -3  13    4.00    1.57
  14   3  14    7.70    4.17
  14  -3  14   14.39    4.69
  14   3  15   22.96    6.49
  14  -3  15   41.06    8.37
  14   3  16   25.99    6.69
  14  -3  16   21.82    6.88
  14   3  17    7.85    5.17
  14  -3  17    0.21    3.12
  14   3  18   16.36    3.87
  14  -3  18    7.19    3.89
  14   3  19   14.21    6.12
  14   3  20    9.49    3.76
  14   3  21    0.66    2.37
  14  -4 -20  112.64   15.06
  14   4 -20  100.16   15.68
  14  -4 -19    6.41    4.74
  14   4 -19   -5.92    5.43
  14  -4 -18   17.83    6.90
  14   4 -18   15.37    6.82
  14  -4 -17  114.01   13.49
  14   4 -17  114.42   15.19
  14  -4 -16   44.68    9.41
  14   4 -16   56.41   10.91
  14  -4 -15   41.92    8.43
  14   4 -15   51.94   10.34
  14  -4 -14   48.57    9.50
  14   4 -14   56.92   10.72
  14  -4 -13   24.40    6.80
  14   4 -13   10.83    5.25
  14  -4 -12   66.02   10.90
  14   4 -12   90.23   13.17
  14   4 -12   96.47   13.24
  14  -4 -12   76.77   10.77
  14  -4 -11  187.75   17.42
  14   4 -11  200.67   18.78
  14  -4 -11  207.54   17.50
  14  -4 -10   27.47    6.78
  14  -4 -10   39.80    7.81
  14   4 -10   48.00    8.96
  14   4 -10   43.45    9.71
  14  -4  -9  134.19   14.88
  14   4  -9  117.50   14.46
  14   4  -9  122.19   14.84
  14  -4  -9  131.51   14.18
  14  -4  -8   67.84   10.41
  14   4  -8   58.12   10.96
  14   4  -8   65.40   10.92
  14  -4  -8   62.84   10.01
  14  -4  -7   12.23    5.57
  14  -4  -7   11.87    3.58
  14   4  -7    4.48    4.47
  14   4  -7    4.47    3.63
  14  -4  -6  149.48   15.43
  14   4  -6  149.56   16.15
  14   4  -6  182.48   17.87
  14  -4  -6  191.53   16.72
  14  -4  -5   54.90    9.24
  14   4  -5   48.20    9.14
  14   4  -5   54.41    9.66
  14  -4  -5   55.35    8.94
  14  -4  -4  101.82   12.72
  14   4  -4   88.00   12.48
  14   4  -4  117.23   14.11
  14  -4  -4  112.41   13.25
  14  -4  -3   66.53   10.23
  14   4  -3   86.04   12.10
  14   4  -3   84.32   11.94
  14  -4  -3   55.09    8.87
  14  -4  -2   24.70    6.18
  14  -4  -2   33.52    7.46
  14   4  -2   29.34    7.29
  14   4  -2   16.87    5.67
  14  -4  -1   33.92    6.51
  14   4  -1   39.73    7.96
  14   4  -1   42.67    8.02
  14  -4  -1   51.75    9.94
  14  -4  -1   53.81    8.93
  14   4   0  772.32   35.90
  14   4   0  873.65   37.93
  14  -4   0  800.98   35.00
  14  -4   0  774.99   33.40
  14  -4   1   35.23    7.42
  14  -4   1   42.73    7.59
  14   4   1   39.30    8.04
  14   4   1   34.66    8.69
  14  -4   2   16.18    5.36
  14  -4   2   18.28    5.77
  14   4   2   18.15    5.74
  14   4   2   25.34    6.55
  14   4   3   86.46   12.11
  14   4   3   82.83   12.03
  14  -4   3   71.01   10.63
  14  -4   3   92.06   11.65
  14   4   4  111.37   13.99
  14   4   4  112.87   14.30
  14  -4   4   85.50   11.26
  14  -4   4  100.78   12.82
  14   4   5   77.11   11.23
  14   4   5   76.56   11.25
  14  -4   5   70.00   10.10
  14  -4   5   69.04   10.10
  14   4   6  151.38   16.41
  14   4   6  130.01   15.01
  14  -4   6  136.65   14.29
  14  -4   7   11.24    5.15
  14   4   7    9.97    4.95
  14   4   7    2.30    3.63
  14   4   8   74.78   11.84
  14   4   8   61.46   10.67
  14  -4   8   50.35    8.81
  14   4   9  130.07   15.50
  14   4   9  153.40   16.36
  14  -4   9  156.67   15.38
  14  -4  10   34.55    7.86
  14   4  10   43.83   10.00
  14   4  10   28.97    6.88
  14   4  11  205.68   19.43
  14  -4  11  178.75   16.94
  14   4  11  151.90   16.91
  14   4  12   84.84   12.15
  14  -4  12   63.58   10.21
  14   4  12   51.88   11.20
  14   4  13   17.18    7.07
  14   4  13    8.60    3.83
  14  -4  13   16.65    3.85
  14   4  14   62.43   11.39
  14   4  14   79.74   11.67
  14  -4  14   63.95   10.49
  14   4  15   52.66   10.23
  14   4  15   73.70   11.98
  14  -4  15   63.59   10.22
  14   4  16   48.81   10.45
  14  -4  16   71.10   11.31
  14   4  17  113.15   14.02
  14  -4  17  110.80   13.73
  14   4  18   19.85    6.45
  14  -4  18   19.92    7.62
  14   4  19    5.99    4.82
  14  -4  19   -0.23    4.07
  14   4  20   99.02   13.54
  14  -4  20   93.93   13.70
  14   5 -18   -3.30    3.92
  14  -5 -18    0.05    3.37
  14   5 -17    5.05    6.22
  14  -5 -17    5.20    3.47
  14   5 -17    0.31    4.10
  14   5 -16   15.15    7.45
  14  -5 -16   10.42    5.45
  14   5 -16    8.05    3.42
  14   5 -15    6.10    3.82
  14  -5 -15    1.81    2.56
  14   5 -15   -3.69    4.75
  14   5 -14    8.36    4.04
  14  -5 -14   12.01    3.81
  14   5 -14   17.21    5.28
  14  -5 -13   12.99    4.53
  14   5 -13    5.63    3.36
  14  -5 -13   11.68    5.12
  14   5 -13    8.96    5.08
  14  -5 -12   24.98    6.66
  14   5 -12   32.85    8.07
  14  -5 -12   26.95    7.44
  14   5 -12   27.80    7.68
  14  -5 -11   41.04    8.31
  14   5 -11   29.50    7.48
  14  -5 -11   40.82    8.58
  14   5 -11   31.27    7.80
  14  -5 -10   24.24    6.61
  14   5 -10   10.38    2.84
  14  -5 -10   13.09    6.48
  14   5 -10   18.43    6.28
  14  -5  -9   29.86    7.67
  14   5  -9   38.72    8.65
  14  -5  -9   37.37    7.77
  14   5  -9   31.33    7.90
  14  -5  -8    7.24    4.63
  14   5  -8    5.51    2.76
  14  -5  -8    5.40    4.05
  14   5  -8    7.06    3.71
  14  -5  -7   12.05    5.45
  14   5  -7   10.17    4.18
  14  -5  -7   18.03    6.10
  14   5  -7   14.72    5.51
  14  -5  -6   -2.20    2.98
  14   5  -6    1.55    3.15
  14  -5  -6   -0.51    1.76
  14   5  -6    4.39    3.96
  14  -5  -5    3.21    3.31
  14   5  -5    4.07    4.07
  14  -5  -5    7.70    4.01
  14   5  -5    8.52    4.15
  14  -5  -4   19.79    5.44
  14   5  -4   11.66    3.93
  14  -5  -4   13.94    5.37
  14   5  -4   16.71    6.38
  14  -5  -3   15.58    4.68
  14   5  -3   18.57    6.49
  14  -5  -3   33.57    7.29
  14   5  -3   19.75    7.18
  14  -5  -2   25.16    6.09
  14   5  -2   30.60    6.95
  14  -5  -2   18.27    5.57
  14   5  -2   22.22    6.69
  14  -5  -1  117.66   13.16
  14  -5  -1   79.99   11.38
  14   5  -1  101.93   13.36
  14   5  -1   93.35   13.02
  14  -5   0  201.46   17.60
  14  -5   0  150.63   15.76
  14   5   0  141.75   15.80
  14   5   0  162.76   17.29
  14  -5   1  115.25   13.19
  14   5   1  115.85   14.27
  14   5   1  121.68   14.62
  14  -5   1  103.61   12.11
  14  -5   2   18.12    5.40
  14   5   2   33.31    8.01
  14  -5   2   11.33    4.38
  14   5   2   20.21    6.25
  14  -5   3   12.56    4.58
  14   5   3   26.81    7.00
  14  -5   3   17.46    5.35
  14   5   3   28.18    8.37
  14  -5   4   23.06    6.22
  14   5   4   14.00    5.31
  14  -5   4   17.35    5.23
  14   5   4   20.67    5.96
  14  -5   5    5.72    3.43
  14   5   5   10.36    3.71
  14   5   5    6.07    5.04
  14  -5   6    0.62    2.22
  14   5   6    3.12    4.10
  14   5   6   -3.81    3.23
  14  -5   7    8.12    3.78
  14   5   7   11.56    4.93
  14   5   7   11.35    5.61
  14  -5   8    9.24    4.35
  14   5   8    5.35    3.92
  14   5   8   12.45    5.55
  14  -5   9   27.87    6.49
  14   5   9   26.74    8.37
  14   5   9   30.59    8.16
  14  -5  10   11.72    5.45
  14   5  10   21.93    7.78
  14   5  10   16.40    5.89
  14  -5  11   35.23    7.64
  14   5  11   30.67    8.01
  14   5  11   29.92    7.48
  14  -5  12   30.04    7.33
  14   5  12   21.15    7.11
  14   5  12   26.44    6.88
  14  -5  13    3.23    3.42
  14   5  13   13.30    5.38
  14   5  13    6.48    2.71
  14  -5  14    7.91    1.99
  14   5  14   17.02    7.83
  14   5  14   10.41    4.52
  14  -5  15    1.71    2.01
  14   5  15   -4.56    4.04
  14   5  15   -6.70    4.53
  14   5  16    4.77    3.05
  14  -5  16    0.74    1.81
  14   5  17   -0.35    4.19
  14  -5  17    5.02    4.76
  14   5  18   10.19    5.78
  14  -5  18    0.70    3.60
  14  -6 -16   95.79   13.53
  14   6 -16   75.25   13.41
  14   6 -16   55.12   11.23
  14   6 -15   23.12    7.57
  14  -6 -15   23.46    6.83
  14   6 -15   19.56    5.65
  14   6 -14   14.86    4.51
  14  -6 -14   10.95    5.19
  14   6 -14   12.39    5.92
  14  -6 -13    2.88    4.81
  14   6 -13   12.10    5.14
  14  -6 -13   13.89    6.10
  14   6 -13   20.80    6.93
  14  -6 -12   78.99   12.71
  14   6 -12   73.79   12.91
  14  -6 -12   64.19   10.09
  14   6 -12   56.03   10.80
  14  -6 -11   59.88    9.77
  14  -6 -11   54.92    9.73
  14   6 -11   55.14   11.11
  14   6 -11   45.19    9.65
  14  -6 -10  187.46   17.62
  14   6 -10  171.04   18.46
  14  -6 -10  184.91   17.57
  14   6 -10  206.59   20.17
  14  -6  -9   41.61    8.54
  14   6  -9   47.54    9.72
  14  -6  -9   32.52    6.34
  14   6  -9   48.44    9.68
  14   6  -8    7.08    2.15
  14   6  -8    5.71    3.42
  14  -6  -7   42.10    9.09
  14   6  -7   47.93    9.51
  14  -6  -7   40.07    8.08
  14   6  -7   53.18    9.93
  14  -6  -6  222.22   19.20
  14   6  -6  209.84   19.63
  14  -6  -6  239.23   20.24
  14   6  -6  203.97   19.71
  14  -6  -5   10.18    4.70
  14   6  -5    7.36    3.43
  14  -6  -5    9.06    4.16
  14   6  -5   10.08    5.72
  14  -6  -4  129.84   14.39
  14   6  -4  129.98   15.05
  14   6  -4  110.99   14.59
  14  -6  -3   55.36    9.68
  14   6  -3   62.28   11.01
  14  -6  -3   60.09   10.09
  14   6  -3   68.00   11.88
  14  -6  -2   69.30   10.16
  14  -6  -2   59.32   10.12
  14   6  -2   38.37    7.98
  14   6  -2   52.44   10.06
  14  -6  -1  100.69   12.91
  14   6  -1   81.22   11.80
  14  -6  -1   95.41   13.16
  14   6  -1  113.52   14.86
  14  -6   0  385.62   24.38
  14   6   0  360.24   25.27
  14  -6   0  369.46   24.51
  14   6   0  375.60   26.06
  14  -6   1  123.04   13.77
  14   6   1  106.47   14.52
  14  -6   1   89.57   12.10
  14   6   1  111.42   14.02
  14  -6   2   55.95    9.80
  14   6   2   66.64   10.77
  14  -6   2   62.73   10.25
  14   6   2   60.59   11.06
  14   6   3   55.52   10.73
  14  -6   3   58.04   10.05
  14   6   3   70.41   10.61
  14  -6   4  159.64   15.58
  14   6   4  127.69   15.40
  14   6   4  142.95   16.66
  14  -6   5    9.12    3.37
  14   6   5   17.99    6.71
  14   6   5   -0.44    3.32
  14   6   6  221.68   19.34
  14   6   6  184.89   18.69
  14  -6   7   30.28    7.09
  14   6   7   30.93    9.17
  14   6   7   31.39    7.88
  14  -6   8   15.20    5.94
  14   6   8   15.69    6.18
  14   6   8   24.80    8.23
  14  -6   9   41.48    8.53
  14   6   9   33.70    8.53
  14   6   9   57.34   11.26
  14   6  10  184.32   18.46
  14   6  10  184.11   19.79
  14  -6  10  175.76   16.88
  14   6  11   56.51   10.99
  14   6  11   47.48    9.73
  14  -6  11   53.21   10.26
  14   6  12   53.49   11.12
  14   6  12   57.81   10.73
  14  -6  12   75.31   11.65
  14   6  13   -0.82    3.36
  14  -6  13    6.61    4.54
  14   6  14    6.83    3.12
  14  -6  14   11.60    5.45
  14   6  14   13.82    6.59
  14  -6  15   10.38    5.35
  14   6  15   15.99    6.16
  14   6  15   21.17    8.02
  14  -6  16   54.45   10.55
  14   6  16   77.32   11.61
  14   6  16   52.84   11.30
  14  -7 -13    7.26    3.54
  14   7 -13   12.25    7.15
  14  -7 -13   19.76    6.61
  14   7 -13   15.64    6.52
  14  -7 -12   24.58    6.70
  14   7 -12   14.88    6.25
  14  -7 -12   26.46    7.40
  14   7 -12   11.82    6.47
  14  -7 -11   18.79    5.04
  14   7 -11   15.98    5.44
  14  -7 -11   15.61    5.34
  14   7 -11   16.18    6.10
  14  -7 -10   16.46    6.38
  14   7 -10   11.16    5.03
  14  -7 -10   12.05    5.42
  14   7 -10    2.91    2.99
  14  -7  -9    1.26    4.06
  14   7  -9   -0.62    2.74
  14  -7  -9   -2.25    3.26
  14   7  -9    8.59    5.50
  14  -7  -8   15.10    5.99
  14   7  -8   24.62    7.06
  14  -7  -8   26.66    6.93
  14   7  -8   24.24    7.69
  14  -7  -7    4.95    5.25
  14   7  -7    3.10    2.73
  14  -7  -7    3.50    2.11
  14   7  -7    7.78    4.30
  14  -7  -6   66.81   11.06
  14   7  -6   54.94   10.28
  14  -7  -6   40.81    8.52
  14   7  -6   43.18    9.84
  14  -7  -5   17.44    5.76
  14   7  -5   33.18    8.16
  14  -7  -5   32.33    7.18
  14   7  -5   25.13    8.44
  14  -7  -4   -0.24    2.52
  14  -7  -4    3.17    2.27
  14   7  -4    4.83    4.05
  14  -7  -3   30.72    7.13
  14   7  -3   38.53    9.18
  14  -7  -3   22.38    5.27
  14   7  -3   42.85    9.34
  14  -7  -2   24.42    5.91
  14   7  -2   47.76    9.39
  14  -7  -2   57.80    9.37
  14   7  -2   33.90    8.33
  14  -7  -1   -0.52    2.24
  14   7  -1   -0.92    2.25
  14  -7  -1   -1.07    1.95
  14   7  -1    0.29    4.15
  14  -7   0   72.56   10.71
  14   7   0   59.48   10.59
  14  -7   0   64.98   10.94
  14   7   0   63.97   11.34
  14  -7   1   -2.70    2.75
  14   7   1    0.69    3.54
  14  -7   1   -0.50    2.17
  14   7   1    0.56    3.67
  14  -7   2   50.08    9.52
  14   7   2   37.14    9.15
  14   7   2   48.84    9.24
  14  -7   3   34.47    8.67
  14   7   3   34.78    9.43
  14   7   3   40.49    9.65
  14  -7   4    0.40    2.99
  14   7   4    1.92    3.49
  14   7   4    6.79    4.78
  14  -7   5   29.18    6.73
  14   7   5   28.36    7.46
  14   7   5   27.17    7.32
  14  -7   6   59.02   10.38
  14   7   6   32.46    7.99
  14   7   6   67.92   11.54
  14  -7   7    5.90    2.44
  14   7   7   14.87    5.56
  14   7   7   11.11    4.72
  14   7   8   35.20    9.37
  14  -7   8   29.56    6.13
  14   7   8   25.41    8.41
  14   7   9    4.42    4.14
  14  -7   9    0.34    3.53
  14   7   9   -3.48    3.75
  14   7  10   10.64    6.91
  14  -7  10    7.01    5.06
  14   7  10    7.41    4.85
  14   7  11   10.07    5.18
  14  -7  11   26.04    7.27
  14   7  11   13.88    7.01
  14   7  12   21.46    7.31
  14  -7  12    7.56    4.14
  14   7  12   16.13    6.05
  14  -7  13   10.28    5.96
  14   7  13    5.12    4.83
  14   7  13    0.31    2.84
  14  -8  -8   21.99    7.54
  14   8  -8   29.22    8.43
  14   8  -8   14.72    7.63
  14  -8  -8   32.04    8.02
  14  -8  -7   29.92    7.80
  14   8  -7   18.41    8.26
  14   8  -7   16.44    6.54
  14  -8  -7   17.72    7.18
  14  -8  -6   35.19    8.37
  14   8  -6   29.82    8.71
  14   8  -6   28.28    8.78
  14  -8  -6   39.24    8.59
  14  -8  -5    1.81    3.23
  14   8  -5    3.10    3.22
  14   8  -5    2.90    3.79
  14  -8  -5    1.40    3.99
  14  -8  -4   58.48    9.66
  14   8  -4   52.59   10.44
  14  -8  -4   47.92    9.00
  14  -8  -3   18.24    5.88
  14   8  -3   16.17    6.55
  14   8  -3   13.64    5.89
  14  -8  -3   16.20    4.61
  14   8  -2    7.54    3.34
  14   8  -2    4.98    4.61
  14  -8  -2    3.51    3.79
  14   8  -1   11.70    7.58
  14  -8  -1   35.82    7.85
  14  -8  -1   30.85    6.97
  14   8  -1   37.55    8.49
  14  -8   0   -0.39    2.16
  14  -8   0   -2.68    2.54
  14   8   0   -0.76    2.74
  14   8   1   50.98   10.53
  14  -8   1   32.37    8.73
  14   8   1   39.00    8.03
  14   8   2   19.70    5.58
  14  -8   2   15.68    5.47
  14   8   2   16.06    5.36
  14   8   3   23.00    6.62
  14  -8   3    9.04    3.23
  14   8   3   31.53    8.98
  14  -8   4   73.59   11.29
  14   8   4   62.94   11.48
  14   8   4   72.97   12.03
  14   8   5    1.30    3.32
  14  -8   5    7.19    4.78
  14   8   5   12.26    6.23
  14   8   6   30.55    7.73
  14  -8   6   52.62   10.12
  14   8   6   33.29    8.70
  14   8   7    8.70    5.05
  14  -8   7   12.65    4.78
  14   8   7   14.34    6.43
  14   8   8   24.03    7.74
  14  -8   8   20.92    5.47
  14   8   8   25.04    7.25
  15   0 -21   -0.14    5.14
  15   0 -20   -1.52    3.05
  15   0 -19   -2.86    2.64
  15   0 -18   -2.07    2.90
  15   0 -17    3.50    5.76
  15   0 -16    0.06    1.89
  15   0 -15    2.84    4.04
  15   0 -14    2.50    3.44
  15   0 -13    0.21    2.34
  15   0 -12    3.82    3.30
  15   0 -11    7.20    5.07
  15   0 -10   -0.74    2.37
  15   0  -9   -0.57    2.08
  15   0  -8    0.26    2.08
  15   0  -7    3.39    3.51
  15   0  -6   -0.36    1.99
  15   0  -5   -0.46    2.93
  15   0  -4   -0.48    2.25
  15   0  -4   -1.34    2.91
  15   0  -3   -0.15    2.98
  15   0  -3    0.30    2.76
  15   0  -2   -1.27    2.51
  15   0  -2    2.54    3.94
  15   0  -1    0.57    3.08
  15   0  -1   -1.46    2.75
  15   0   0    1.07    2.45
  15   0   0    0.21    3.67
  15   0   1    0.22    1.49
  15   0   1    0.86    2.79
  15   0   2   -0.23    2.51
  15   0   2   -1.70    2.73
  15   0   3    1.45    2.98
  15   0   3    0.01    1.55
  15   0   4    3.15    3.16
  15   0   4    0.01    2.29
  15   0   5   -0.25    1.67
  15   0   5   -0.57    1.74
  15   0   6    0.32    3.57
  15   0   6   -1.03    3.80
  15   0   7   -2.20    3.33
  15   0   7   -2.99    3.37
  15   0   8    0.41    2.20
  15   0   8   -2.17    3.90
  15   0   9   -4.00    3.07
  15   0   9    1.88    3.17
  15   0  10    6.78    5.38
  15   0  10    0.72    1.74
  15   0  11   -1.62    3.40
  15   0  12    3.42    3.72
  15   0  13   -2.23    3.99
  15   0  14    0.58    3.31
  15   0  15    0.63    4.03
  15   0  16   -1.18    2.12
  15   0  17   -2.13    2.33
  15   0  18   -4.64    3.94
  15   0  19  -11.20    2.31
  15  -1 -21    9.32    6.47
  15   1 -21    0.35    3.60
  15  -1 -20   -0.43    1.93
  15   1 -20    5.03    5.04
  15  -1 -19   20.39    5.85
  15   1 -19   35.41    9.64
  15  -1 -18    2.76    4.43
  15   1 -18    0.05    1.96
  15   1 -17   84.75   12.90
  15  -1 -17   80.51   12.54
  15  -1 -16   60.93   12.09
  15   1 -16   57.90   10.29
  15  -1 -15   12.19    5.48
  15   1 -15   22.76    6.75
  15  -1 -14   32.64    6.97
  15   1 -14   31.81    7.85
  15   1 -13  273.51   21.75
  15  -1 -13  289.17   22.23
  15   1 -12   54.43   10.23
  15  -1 -12   46.70    9.64
  15  -1 -11    5.00    4.07
  15   1 -11    0.36    2.33
  15  -1 -11    4.53    3.14
  15  -1 -10   40.96    8.26
  15   1 -10   31.79    7.08
  15  -1 -10   28.14    6.29
  15  -1  -9   10.99    5.53
  15   1  -9   12.86    4.73
  15  -1  -9   10.61    4.84
  15   1  -8   78.34   12.19
  15  -1  -8   75.61   10.70
  15  -1  -8   71.59   10.21
  15   1  -7  163.90   16.38
  15  -1  -7  188.21   17.15
  15  -1  -7  151.12   15.14
  15  -1  -6   14.81    5.18
  15   1  -6   12.56    5.33
  15   1  -6    7.58    4.56
  15  -1  -6    8.68    3.52
  15   1  -5   62.32    9.56
  15  -1  -5   60.50    9.96
  15   1  -5   74.47   10.87
  15  -1  -5   44.74    8.27
  15   1  -4   81.08   11.38
  15  -1  -4   83.10   10.89
  15   1  -4   71.39   10.97
  15  -1  -4   70.29   10.22
  15   1  -3  104.98   12.80
  15  -1  -3   96.30   12.65
  15   1  -3   97.70   12.86
  15  -1  -3  104.12   12.87
  15  -1  -3   91.42   11.63
  15   1  -2   13.09    5.21
  15   1  -2   16.74    5.79
  15  -1  -2   20.53    6.44
  15  -1  -2   14.42    4.36
  15  -1  -2   15.83    5.52
  15   1  -1    9.23    4.35
  15   1  -1   12.89    5.20
  15  -1  -1    8.97    3.93
  15  -1  -1    5.37    3.24
  15  -1  -1   -0.04    2.90
  15   1   0   -0.18    3.01
  15   1   0   -2.12    4.13
  15  -1   0    1.68    3.34
  15  -1   0    0.69    2.94
  15  -1   0    1.36    2.45
  15   1   1    6.29    4.91
  15   1   1    8.60    4.73
  15  -1   1    5.02    2.40
  15  -1   1    1.55    2.04
  15  -1   1    5.15    3.10
  15   1   2   12.44    5.32
  15   1   2   14.65    5.29
  15  -1   2    7.16    3.91
  15  -1   2   13.56    5.61
  15  -1   2   13.43    4.86
  15   1   3  112.97   13.68
  15  -1   3  104.52   12.83
  15   1   3   90.25   12.17
  15  -1   3   97.71   12.48
  15  -1   3  108.38   12.48
  15   1   4   94.65   12.38
  15  -1   4   77.92   11.15
  15   1   4  106.38   13.31
  15  -1   4   80.63   11.23
  15  -1   4   53.83    8.75
  15   1   5   77.26   11.62
  15  -1   5   62.95   10.30
  15   1   5   67.68   10.50
  15  -1   5   68.11   10.76
  15  -1   5   81.40   10.99
  15   1   6    7.00    2.74
  15  -1   6   10.32    4.08
  15   1   6   13.99    6.34
  15  -1   6    9.51    4.86
  15  -1   6   19.73    5.79
  15   1   7  150.68   15.52
  15  -1   7  156.73   15.80
  15   1   7  176.33   17.07
  15  -1   7  160.85   16.09
  15  -1   7  178.11   15.87
  15   1   8   75.33   11.71
  15  -1   8   62.35   10.61
  15   1   8   85.34   11.79
  15  -1   8   68.26   11.38
  15  -1   8   57.73    9.93
  15   1   9   16.63    5.94
  15  -1   9    4.85    4.23
  15   1   9    9.44    4.46
  15  -1   9   13.19    4.69
  15  -1   9   11.83    4.89
  15   1  10   28.61    7.56
  15   1  10   30.54    7.73
  15  -1  10   35.25    7.36
  15   1  11    5.81    4.87
  15   1  11    3.00    4.11
  15  -1  11    6.80    2.30
  15  -1  12   43.83    8.20
  15   1  12   48.66    9.30
  15  -1  13  277.66   22.50
  15   1  13  286.54   22.58
  15  -1  14   59.16   11.78
  15   1  14   22.31    7.31
  15   1  15    9.59    5.34
  15   1  16   67.03   11.30
  15   1  17   66.52   11.44
  15   1  18   -1.95    4.24
  15   1  19   18.74    5.21
  15   1  20   -4.01    5.04
  15   1  21    7.55    4.19
  15  -2 -20    4.55    5.16
  15   2 -20    3.10    4.32
  15  -2 -19   13.76    6.35
  15   2 -19    8.32    4.22
  15  -2 -18   13.13    6.18
  15   2 -18    3.72    2.91
  15  -2 -17   -0.18    2.32
  15   2 -17    5.12    5.37
  15  -2 -16   21.36    6.44
  15   2 -16   29.73    8.38
  15  -2 -15   32.93    8.61
  15   2 -15   52.37   10.20
  15  -2 -14   45.04    9.98
  15   2 -14   33.06    7.65
  15   2 -13   64.74   10.64
  15  -2 -13   62.08   11.17
  15  -2 -12    7.81    4.83
  15   2 -12    9.02    6.66
  15  -2 -11   11.94    4.76
  15   2 -11   13.00    4.15
  15  -2 -11    8.18    3.14
  15   2 -10   25.42    6.37
  15  -2 -10   15.24    5.87
  15   2  -9    4.83    3.26
  15  -2  -9    9.62    4.26
  15  -2  -8    9.48    4.56
  15   2  -8   12.17    4.71
  15   2  -8    5.74    3.42
  15  -2  -8    3.96    4.11
  15  -2  -7   31.49    7.42
  15   2  -7   36.54    7.74
  15   2  -7   17.58    5.05
  15  -2  -7   23.93    4.93
  15  -2  -6    7.58    3.09
  15  -2  -6   16.50    5.80
  15   2  -6   14.25    4.56
  15  -2  -5   26.28    6.74
  15  -2  -5   26.45    7.10
  15   2  -5   20.35    5.58
  15   2  -5   24.43    6.62
  15  -2  -4   10.02    4.07
  15  -2  -4   20.11    4.73
  15   2  -4   16.67    5.46
  15   2  -4   13.56    4.15
  15  -2  -3    0.47    2.17
  15  -2  -3    3.05    2.29
  15   2  -3   -3.29    4.92
  15   2  -3    0.83    4.21
  15  -2  -2    6.88    3.98
  15   2  -2   -2.24    2.66
  15   2  -2   -3.31    3.64
  15  -2  -2    2.51    3.76
  15  -2  -2   -1.33    2.08
  15  -2  -1    4.50    3.01
  15   2  -1    7.41    3.24
  15   2  -1    3.93    1.78
  15  -2  -1    7.72    4.86
  15  -2  -1    2.01    2.40
  15  -2   0    2.18    2.37
  15   2   0   -0.49    2.26
  15   2   0    2.34    5.28
  15  -2   0   -1.80    1.96
  15  -2   0    4.61    4.37
  15   2   1    5.74    4.14
  15   2   1    9.06    4.51
  15  -2   1    2.46    2.69
  15  -2   1    1.44    2.92
  15  -2   1    0.65    3.71
  15   2   2    3.27    2.50
  15   2   2    6.55    3.90
  15  -2   2    1.28    2.56
  15  -2   2    6.72    4.97
  15  -2   2    0.54    2.76
  15   2   3    3.29    4.07
  15   2   3   -0.07    1.67
  15  -2   3    2.51    3.47
  15  -2   3    0.14    2.53
  15  -2   3    1.00    3.08
  15   2   4   24.36    7.15
  15   2   4   25.53    7.85
  15  -2   4   19.15    5.08
  15  -2   4   19.57    5.36
  15  -2   4   13.70    5.11
  15   2   5   14.22    5.01
  15   2   5   17.37    4.95
  15  -2   5   19.74    6.26
  15  -2   5   33.02    7.10
  15  -2   5   23.81    5.44
  15   2   6   11.97    5.18
  15   2   6   10.94    3.77
  15  -2   6   15.39    5.25
  15  -2   6   12.01    5.23
  15  -2   6   14.83    5.19
  15   2   7   43.77    8.60
  15  -2   7   42.02    8.75
  15   2   7   28.85    6.84
  15  -2   7   27.66    6.30
  15  -2   7   27.97    6.89
  15   2   8    8.56    4.73
  15   2   8    4.01    3.38
  15  -2   8    9.50    4.62
  15  -2   8    6.88    3.55
  15   2   9   13.39    5.65
  15   2   9   15.91    6.65
  15  -2   9   27.94    8.29
  15  -2   9   14.46    5.01
  15   2  10   16.38    5.52
  15   2  10   36.94    8.02
  15  -2  10   25.21    6.07
  15   2  11    5.36    5.45
  15   2  11    8.58    4.58
  15  -2  11   11.82    4.48
  15   2  12   11.67    4.36
  15   2  12    8.31    5.40
  15  -2  12    5.18    2.10
  15   2  13   71.91   11.56
  15  -2  13   72.08   10.44
  15   2  14   38.54    7.99
  15  -2  14   39.91    8.89
  15   2  15   43.06    8.73
  15   2  16   35.83    8.41
  15   2  17    8.39    2.52
  15   2  18   20.82    6.17
  15   2  19    6.83    4.34
  15   2  20    2.40    3.73
  15  -3 -19   16.28    4.18
  15   3 -19   13.24    6.44
  15  -3 -18   55.15    9.25
  15   3 -18   44.10    9.29
  15   3 -17  118.31   16.09
  15  -3 -17  100.97   14.35
  15  -3 -16   21.85    6.58
  15   3 -16   10.64    4.90
  15  -3 -15    9.43    4.22
  15   3 -15   21.17    7.45
  15  -3 -14   33.77    7.64
  15   3 -14   24.55    6.35
  15  -3 -13    8.91    3.61
  15   3 -13   13.02    5.43
  15   3 -12   90.58   13.12
  15  -3 -12  122.08   14.66
  15  -3 -11   53.20    8.81
  15  -3 -11   42.98    8.20
  15   3 -11   36.43    7.70
  15  -3 -10    4.57    2.06
  15  -3 -10    8.24    4.86
  15   3 -10    2.94    3.79
  15   3 -10   15.10    5.65
  15  -3  -9   27.76    7.51
  15  -3  -9   38.61    7.90
  15   3  -9   42.13    9.46
  15   3  -9   39.85    8.45
  15  -3  -8   21.71    5.54
  15  -3  -8   33.68    7.63
  15   3  -8   50.77   10.43
  15   3  -8   42.57    8.51
  15  -3  -7   22.24    6.64
  15  -3  -7   32.08    6.95
  15   3  -7   24.54    7.19
  15   3  -7   36.67    9.12
  15   3  -6   66.00   10.46
  15   3  -6   59.09   10.53
  15  -3  -6   72.83   10.84
  15  -3  -6   63.48   10.10
  15  -3  -5   48.35    7.88
  15  -3  -5   31.87    7.85
  15   3  -5   51.58    9.43
  15   3  -5   58.25   10.07
  15  -3  -4   30.43    6.97
  15  -3  -4   30.40    6.81
  15   3  -4   15.35    5.01
  15   3  -3  186.66   17.98
  15   3  -3  176.13   17.46
  15  -3  -3  184.33   17.09
  15  -3  -3  170.08   15.83
  15  -3  -2   25.39    5.84
  15  -3  -2   44.02    8.54
  15   3  -2   49.44    9.48
  15   3  -2   33.64    7.97
  15  -3  -2   44.82    9.08
  15   3  -1   27.72    6.84
  15  -3  -1   55.26    9.35
  15  -3  -1   54.11   10.18
  15   3  -1   45.07    9.08
  15  -3  -1   54.03    8.84
  15   3   0  140.08   15.16
  15   3   0  105.82   13.33
  15  -3   0   89.22   11.76
  15  -3   0  100.11   12.92
  15  -3   0   92.53   11.37
  15   3   1   49.17    9.23
  15   3   1   57.76    9.84
  15  -3   1   51.75    9.22
  15  -3   1   61.32   10.37
  15  -3   1   60.59    9.73
  15   3   2   35.57    8.11
  15  -3   2   55.09    9.15
  15   3   2   42.03    8.81
  15  -3   2   48.47    8.66
  15  -3   2   56.77    9.60
  15   3   3  199.00   18.00
  15  -3   3  169.53   16.54
  15   3   3  154.52   16.21
  15  -3   3  165.47   16.77
  15  -3   3  197.61   17.43
  15  -3   4   43.50    8.20
  15   3   4   35.99    7.51
  15   3   4   33.38    7.90
  15  -3   4   29.64    6.61
  15  -3   5   41.87    8.39
  15   3   5   63.83    9.61
  15   3   5   53.72    9.65
  15  -3   5   43.27    8.66
  15   3   6   86.64   11.83
  15  -3   6   68.26   10.47
  15   3   6   75.23   11.44
  15  -3   6   78.03   10.82
  15   3   7   32.50    7.83
  15   3   7   25.18    6.82
  15  -3   7   33.36    6.65
  15   3   8   26.16    7.29
  15   3   8   39.65    8.36
  15  -3   8   38.19    7.89
  15   3   9   25.75    6.97
  15   3   9   31.43    7.91
  15  -3   9   27.13    7.21
  15   3  10    4.81    3.98
  15   3  10    7.57    5.77
  15  -3  10    4.36    3.20
  15   3  11   55.14   11.09
  15   3  11   49.92   10.28
  15  -3  11   62.12   10.09
  15   3  12  110.03   14.45
  15  -3  12  114.97   13.39
  15   3  12  131.26   16.17
  15   3  13   15.92    6.10
  15   3  13    7.53    4.29
  15  -3  13   10.93    5.70
  15   3  14   34.54    7.92
  15  -3  14   27.26    7.33
  15   3  15   11.56    4.12
  15  -3  15   17.97    4.78
  15   3  16    4.35    3.08
  15  -3  16   20.42    6.24
  15   3  17  152.47   16.13
  15  -3  17  138.96   15.87
  15   3  18   66.12   12.07
  15   3  19    7.39    3.75
  15  -4 -18   23.46    6.44
  15   4 -18   19.81    6.98
  15  -4 -17   18.67    5.65
  15   4 -17   29.79    7.52
  15  -4 -16   33.23    8.03
  15   4 -16   27.69    7.25
  15  -4 -15   45.06    8.99
  15   4 -15   32.21    8.82
  15  -4 -14   50.49    9.56
  15   4 -14   35.30    8.03
  15   4 -14   51.32    9.85
  15  -4 -13   74.54   11.22
  15   4 -13   65.51   11.55
  15   4 -13   62.65   11.38
  15  -4 -12    0.31    4.85
  15  -4 -12    1.67    2.58
  15   4 -12    6.95    4.62
  15   4 -12   10.14    5.08
  15  -4 -11   58.43   10.01
  15  -4 -11   55.34    9.48
  15   4 -11   54.29   10.17
  15   4 -11   59.14   11.12
  15  -4 -10   33.30    7.53
  15  -4 -10   23.02    6.84
  15   4 -10   32.95    7.39
  15   4 -10   22.15    4.74
  15  -4  -9   40.32    8.02
  15  -4  -9   41.67    8.82
  15   4  -9   38.15    8.54
  15   4  -9   29.49    7.71
  15  -4  -8   71.26   11.18
  15   4  -8   79.25   11.56
  15   4  -8   58.01   10.42
  15  -4  -8   56.46    9.55
  15  -4  -7   72.39   10.89
  15   4  -7   60.61   10.07
  15   4  -7   64.90   11.35
  15  -4  -7   72.85   11.03
  15  -4  -6   18.60    5.94
  15  -4  -6   15.03    5.42
  15   4  -6   22.08    5.75
  15   4  -6   16.41    5.40
  15  -4  -5   37.68    8.36
  15  -4  -5   42.36    8.40
  15   4  -5   47.19    9.72
  15   4  -5   35.01    8.27
  15  -4  -4   14.38    5.43
  15  -4  -4   29.78    6.88
  15   4  -4   16.12    5.55
  15   4  -4   22.49    6.07
  15  -4  -3   20.50    5.21
  15  -4  -3   15.53    5.40
  15   4  -3   27.25    7.06
  15   4  -3   20.02    6.98
  15  -4  -2    1.44    1.69
  15  -4  -2   10.39    4.46
  15   4  -2   18.05    5.35
  15   4  -2    4.28    2.95
  15  -4  -2   10.94    5.49
  15  -4  -1   18.29    5.54
  15  -4  -1   21.28    6.28
  15   4  -1   13.51    5.23
  15   4  -1   15.09    6.09
  15  -4   0   38.94    7.82
  15  -4   0   48.07    8.82
  15   4   0   25.67    6.69
  15   4   0   38.39    8.31
  15  -4   1   13.28    4.54
  15   4   1   16.17    5.38
  15   4   1   16.69    6.18
  15  -4   2    9.27    3.86
  15  -4   2   12.01    4.75
  15   4   2   10.43    3.38
  15   4   2    0.35    2.78
  15  -4   3   16.39    4.85
  15  -4   3   18.85    6.55
  15   4   3   18.16    5.76
  15   4   3   23.04    7.07
  15  -4   4   28.72    7.97
  15  -4   4   33.13    7.13
  15   4   4   32.99    7.69
  15   4   4   38.98    8.67
  15  -4   5   30.36    7.29
  15   4   5   44.74    9.73
  15  -4   5   42.36    9.54
  15   4   5   35.98    7.66
  15  -4   6   21.97    6.10
  15   4   6   19.31    5.50
  15   4   6   15.58    4.08
  15   4   7   62.72   10.81
  15   4   7   61.48   10.41
  15  -4   7   80.34   11.74
  15  -4   8   44.82    8.82
  15   4   8   55.78    9.89
  15   4   8   47.90    9.56
  15  -4   9   43.77    8.16
  15   4   9   33.29    8.07
  15   4   9   38.52    8.69
  15  -4  10   51.19    9.10
  15   4  10   38.58    8.33
  15   4  10   23.54    6.25
  15   4  11   57.50   10.08
  15   4  11   74.95   12.30
  15  -4  11   45.19    9.34
  15   4  12    4.17    4.67
  15   4  12    2.11    2.48
  15  -4  12   -0.05    2.45
  15   4  13   53.46   10.14
  15  -4  13   65.28   11.00
  15   4  13   86.35   13.29
  15   4  14   43.19    9.84
  15   4  14   48.33    9.39
  15  -4  14   36.36    8.64
  15   4  15   35.33    8.65
  15  -4  15   46.77    8.85
  15   4  16   30.92    7.75
  15  -4  16   35.90    8.11
  15   4  17   26.47    7.46
  15  -4  17   15.20    5.84
  15   4  18    5.68    4.28
  15  -4  18    8.45    4.37
  15   5 -16   24.06    9.15
  15  -5 -16   16.19    6.17
  15   5 -16   18.44    7.74
  15   5 -15   22.04    6.96
  15  -5 -15   31.76    7.82
  15   5 -15   39.12    9.07
  15   5 -14   31.68    8.45
  15  -5 -14   30.47    6.97
  15   5 -14   35.86    8.08
  15  -5 -13   59.63   11.13
  15   5 -13   48.78   10.11
  15   5 -13   67.42   12.03
  15  -5 -12   15.90    5.93
  15   5 -12   13.43    5.28
  15  -5 -12   32.85    7.68
  15   5 -12   24.08    8.10
  15  -5 -11   11.40    5.14
  15   5 -11   15.58    6.67
  15  -5 -11   15.73    6.32
  15   5 -11   20.53    6.09
  15  -5 -10   47.29    9.21
  15  -5 -10   57.78   10.30
  15   5 -10   45.72    9.29
  15   5 -10   53.97    9.91
  15  -5  -9  147.47   15.74
  15   5  -9  133.64   15.98
  15   5  -9  101.88   13.53
  15  -5  -9  134.48   14.80
  15  -5  -8   22.68    5.87
  15   5  -8   27.24    7.89
  15  -5  -8   14.61    4.99
  15   5  -8   29.34    7.27
  15  -5  -7   26.16    6.72
  15   5  -7   15.51    3.88
  15  -5  -7   21.05    4.99
  15   5  -7   22.10    4.73
  15  -5  -6   46.73    8.19
  15  -5  -6   70.67   10.92
  15   5  -6   52.42   10.12
  15   5  -6   48.63    9.68
  15  -5  -5    6.25    2.60
  15   5  -5   16.03    5.33
  15  -5  -5    6.08    3.59
  15   5  -5   19.82    7.37
  15  -5  -4   40.08    7.85
  15   5  -4   42.29    8.29
  15  -5  -4   30.68    7.56
  15   5  -4   39.00    8.40
  15  -5  -3   94.17   12.69
  15   5  -3  113.21   14.62
  15   5  -3   90.42   12.88
  15  -5  -3  139.93   14.67
  15  -5  -2   -1.25    2.55
  15   5  -2    0.74    1.81
  15  -5  -2    2.63    2.33
  15   5  -2    4.39    3.90
  15   5  -1  143.95   15.85
  15   5  -1  146.93   16.36
  15  -5  -1  124.98   14.60
  15  -5  -1  144.18   15.74
  15   5   0  118.03   15.05
  15   5   0  139.06   16.31
  15  -5   0  124.42   14.90
  15  -5   0  123.68   14.11
  15   5   1  120.86   14.49
  15   5   1  141.16   16.05
  15  -5   1  128.72   14.89
  15  -5   1  123.52   13.84
  15  -5   2    0.31    2.34
  15   5   2   -1.22    2.83
  15  -5   2    1.44    2.17
  15   5   2   -0.11    3.51
  15   5   3  119.02   15.20
  15   5   3  139.96   15.71
  15  -5   3   98.16   13.15
  15  -5   3  105.46   12.79
  15   5   4   40.88    8.64
  15   5   4   26.19    7.39
  15  -5   4   52.59    9.27
  15  -5   5   10.61    5.20
  15   5   5   18.05    6.01
  15   5   5    9.44    3.38
  15   5   6   60.05   10.55
  15  -5   6   39.34    7.91
  15   5   6   44.06    9.86
  15  -5   7   24.25    7.19
  15   5   7   15.38    6.01
  15   5   7   29.64    8.74
  15  -5   8   27.25    7.63
  15   5   8   31.11    7.74
  15   5   8   27.60    5.64
  15   5   9  138.20   16.02
  15  -5   9  161.21   16.83
  15   5   9  158.18   17.53
  15  -5  10   52.13    9.36
  15   5  10   47.28   10.74
  15   5  10   45.04    9.64
  15  -5  11   20.46    6.03
  15   5  11   31.91    8.53
  15   5  11    7.31    3.32
  15  -5  12   26.02    6.89
  15   5  12   35.75    9.39
  15   5  12   33.25    8.24
  15  -5  13   50.20    9.97
  15   5  13   43.09   10.03
  15   5  13   45.91    9.09
  15   5  14   37.03    8.73
  15   5  14   43.90    9.39
  15  -5  14   46.46    9.67
  15   5  15   33.31   10.35
  15   5  15   27.37    7.96
  15  -5  15   22.78    7.11
  15   5  16   19.76    6.60
  15  -5  16   27.48    8.46
  15   6 -14    3.61    6.11
  15  -6 -14    1.10    2.50
  15   6 -14    0.93    3.97
  15   6 -13   -2.88    5.52
  15  -6 -13   -0.86    2.23
  15   6 -13    3.57    4.86
  15  -6 -12   12.93    4.00
  15   6 -12   12.38    6.52
  15  -6 -12    8.30    4.12
  15   6 -12    5.25    4.55
  15  -6 -11   18.91    6.58
  15   6 -11    7.77    3.24
  15  -6 -11   11.95    5.08
  15   6 -11   23.85    6.49
  15  -6 -10   24.45    6.70
  15   6 -10   49.46   10.35
  15  -6 -10   14.77    5.13
  15   6 -10   44.08    9.91
  15  -6  -9    7.10    3.46
  15   6  -9    2.99    3.90
  15  -6  -9    7.40    4.50
  15   6  -9   10.69    6.06
  15  -6  -8   12.49    5.15
  15   6  -8   10.47    5.29
  15  -6  -8    3.84    3.80
  15   6  -8    8.25    4.57
  15  -6  -7   19.32    6.31
  15   6  -7   20.21    7.17
  15  -6  -7    5.21    4.12
  15   6  -7   12.91    5.53
  15  -6  -6    9.45    3.29
  15   6  -6   21.58    7.12
  15  -6  -6    9.67    4.92
  15   6  -6    9.98    5.04
  15  -6  -5   23.33    6.62
  15   6  -5   11.03    5.12
  15  -6  -5   16.03    6.32
  15   6  -5   24.03    5.84
  15  -6  -4   52.69    9.25
  15  -6  -4   60.47    9.95
  15   6  -4   49.64    9.73
  15   6  -4   60.39   11.45
  15  -6  -3    2.81    3.07
  15   6  -3    6.34    3.25
  15  -6  -3    0.46    2.07
  15   6  -3    4.86    3.93
  15  -6  -2   82.76   11.24
  15   6  -2   68.33   11.46
  15  -6  -2   75.55   11.37
  15   6  -2   59.68   10.71
  15  -6  -1   82.21   11.76
  15  -6  -1   65.29   10.50
  15   6  -1   60.00   10.12
  15   6  -1   84.28   12.70
  15  -6   0   52.95   10.22
  15   6   0   63.31   11.01
  15  -6   0   51.95    9.39
  15   6   0   47.93   10.42
  15  -6   1   71.63   10.66
  15  -6   1   79.24   11.77
  15   6   1   75.96   12.21
  15   6   1   99.23   13.89
  15   6   2   63.97   11.95
  15  -6   2   47.11    8.30
  15   6   2   75.76   11.99
  15  -6   2   59.91   11.22
  15  -6   3    7.28    4.66
  15   6   3   10.29    4.85
  15   6   3    3.10    4.70
  15   6   4   49.26    9.90
  15   6   4   56.86   10.98
  15  -6   4   79.96   11.77
  15  -6   5   13.72    4.58
  15   6   5    9.88    5.14
  15   6   5   22.05    7.74
  15  -6   6   23.14    7.14
  15   6   6   28.29    7.97
  15   6   6   11.61    4.38
  15  -6   7   19.40    4.82
  15   6   7   14.93    7.16
  15   6   7    8.94    4.56
  15  -6   8    5.86    2.92
  15   6   8    8.65    5.16
  15   6   8   11.22    6.03
  15  -6   9    8.41    4.52
  15   6   9    5.09    4.03
  15   6   9    8.49    5.04
  15  -6  10   36.55    8.50
  15   6  10   36.94    9.06
  15   6  10   35.44    8.47
  15  -6  11   11.69    6.11
  15   6  11   14.93    5.84
  15   6  11   10.99    4.02
  15   6  12    2.54    3.54
  15   6  12    6.24    2.75
  15  -6  13   -2.55    3.46
  15   6  13   -0.51    3.10
  15   6  13    6.41    4.47
  15   6  14    9.79    5.87
  15  -6  14    6.34    5.90
  15   6  14   -2.99    4.83
  15  -7 -10   29.33    6.87
  15   7 -10   41.58    9.80
  15  -7 -10   36.33    8.10
  15   7 -10   45.49    9.11
  15  -7  -9   48.10    8.31
  15   7  -9   48.82   10.64
  15  -7  -9   51.87    9.67
  15   7  -9   53.24   12.03
  15  -7  -8   -3.16    4.58
  15   7  -8   -3.55    2.30
  15  -7  -8    1.13    2.69
  15   7  -8   -2.42    2.97
  15  -7  -7   34.16    7.55
  15   7  -7   29.99    7.48
  15  -7  -7   36.68    7.99
  15   7  -7   42.98   10.38
  15  -7  -6    2.10    3.15
  15   7  -6   12.05    6.63
  15  -7  -6    7.09    3.89
  15   7  -6    2.17    4.59
  15  -7  -5   15.51    5.42
  15   7  -5   18.52    7.06
  15  -7  -5   16.15    5.23
  15   7  -5   15.49    6.44
  15   7  -4   16.06    4.19
  15  -7  -4   24.82    6.40
  15   7  -4   28.57    8.10
  15  -7  -3   28.66    7.40
  15   7  -3   27.77    7.78
  15  -7  -3   35.76    7.84
  15   7  -3   32.47    7.83
  15  -7  -2    9.13    5.47
  15   7  -2    5.74    2.92
  15  -7  -2    7.94    4.75
  15  -7  -1   51.52    9.91
  15   7  -1   51.87   10.80
  15  -7  -1   42.96    8.71
  15   7  -1   50.83   10.92
  15   7   0   14.24    3.13
  15  -7   0   25.35    6.84
  15   7   0   30.65    7.98
  15  -7   1   46.04    8.18
  15   7   1   69.00   11.57
  15   7   1   47.50    9.64
  15  -7   2   18.21    5.24
  15   7   2   13.57    5.32
  15   7   2   10.10    5.43
  15  -7   3   38.88    8.97
  15   7   3   32.84    8.09
  15   7   3   55.75   10.80
  15  -7   4   26.70    7.50
  15   7   4   23.95    8.19
  15   7   4   30.57    6.70
  15  -7   5   16.22    5.67
  15   7   5   19.95    7.36
  15   7   5   15.38    5.58
  15  -7   6    9.83    4.29
  15   7   6    1.95    3.76
  15   7   6   17.36    6.21
  15  -7   7   36.40    8.13
  15   7   7   22.52    6.73
  15   7   7   32.95    8.30
  15  -7   8    5.43    3.56
  15   7   8    8.32    6.46
  15   7   8    8.27    5.30
  15   7   9   49.70   10.72
  15   7   9   45.80   10.11
  15  -7   9   61.87   10.29
  15   7  10   58.18   11.39
  15  -7  10   38.49    8.10
  15   7  10   40.69    8.91
  15  -8  -1   15.29    5.45
  15   8  -1   22.86    7.05
  15  -8  -1   31.94   10.76
  15   8  -1   20.65    7.38
  15  -8   0    9.83    5.53
  15   8   0   20.10    7.89
  15   8   0    7.20    4.06
  15  -8   1   27.22    7.54
  15   8   1   26.07    8.18
  15   8   1   22.20    6.70
  16   0 -19  185.20   19.15
  16   0 -18   50.30   10.37
  16   0 -17  132.70   15.94
  16   0 -16    7.00    2.18
  16   0 -15   28.32    7.04
  16   0 -14   -1.53    3.52
  16   0 -13  421.47   27.55
  16   0 -12    7.46    4.69
  16   0 -11   39.59    8.71
  16   0 -10   23.73    6.84
  16   0  -9   83.36   11.81
  16   0  -8   22.14    6.41
  16   0  -7  293.04   22.19
  16   0  -6   13.23    4.38
  16   0  -5    7.73    4.07
  16   0  -5    6.76    5.70
  16   0  -4   59.70    9.98
  16   0  -4   63.16   11.18
  16   0  -3  259.23   20.65
  16   0  -3  303.62   22.82
  16   0  -2  200.09   17.95
  16   0  -2  225.80   19.72
  16   0  -1   32.47    7.21
  16   0  -1   51.53    9.24
  16   0   0    2.20    3.45
  16   0   0    1.20    2.73
  16   0   1   38.29    8.41
  16   0   1   55.48    9.93
  16   0   2  183.75   16.93
  16   0   2  220.46   19.27
  16   0   3  236.48   20.08
  16   0   3  275.00   21.50
  16   0   4   42.29    8.22
  16   0   4   56.03    9.97
  16   0   5    9.02    4.91
  16   0   5    5.84    4.81
  16   0   6   14.23    4.71
  16   0   6   15.87    7.03
  16   0   7  284.09   22.58
  16   0   7  295.06   22.78
  16   0   8   29.39    7.79
  16   0   8   18.71    5.16
  16   0   9   63.52   10.96
  16   0   9   63.66   10.45
  16   0  10   35.78    8.40
  16   0  11   48.43    9.69
  16   0  12    7.96    3.24
  16   0  13  417.89   27.98
  16   0  14    0.68    3.01
  16   0  15   29.44    6.55
  16   0  16    5.57    3.19
  16   0  17  106.29   15.27
  16  -1 -19    0.68    2.40
  16   1 -19   -0.84    3.01
  16  -1 -18   -3.56    3.63
  16   1 -18    0.07    5.06
  16  -1 -17   18.36    6.38
  16   1 -17   12.72    4.77
  16  -1 -16    4.49    4.84
  16   1 -16    2.00    2.44
  16  -1 -15    8.91    5.49
  16   1 -15    4.12    2.73
  16  -1 -14   60.40   10.76
  16   1 -14   45.22    9.69
  16  -1 -13    9.93    4.78
  16   1 -13   27.54    7.71
  16  -1 -12    3.41    4.63
  16   1 -12    1.29    4.52
  16  -1 -11    1.93    3.02
  16   1 -11    3.82    2.00
  16  -1 -10    3.05    2.78
  16   1 -10    3.29    3.33
  16  -1 -10   -0.21    2.31
  16  -1  -9    8.86    5.87
  16   1  -9   13.44    5.71
  16  -1  -9   11.74    4.33
  16  -1  -8    6.28    4.56
  16   1  -8   -1.11    4.19
  16  -1  -8    2.74    3.77
  16  -1  -7    2.24    3.54
  16   1  -7   -0.01    1.81
  16   1  -7    0.08    2.82
  16  -1  -7    1.07    2.72
  16   1  -6    6.10    3.57
  16   1  -6   11.28    4.87
  16  -1  -6   15.18    5.24
  16  -1  -6   12.51    5.61
  16   1  -5   30.55    7.28
  16   1  -5   39.04    7.94
  16  -1  -5   33.71    6.97
  16  -1  -5   26.70    7.03
  16   1  -4    2.84    3.77
  16   1  -4    1.09    2.40
  16  -1  -4    1.47    3.26
  16  -1  -4    0.55    2.86
  16  -1  -4    1.72    1.89
  16  -1  -3   50.20    9.21
  16   1  -3   43.92    8.72
  16  -1  -3   58.82   10.75
  16   1  -3   38.95    8.46
  16  -1  -3   36.96    7.17
  16   1  -2    4.04    2.78
  16   1  -2    7.42    5.32
  16  -1  -2    2.64    4.79
  16  -1  -2   10.14    4.14
  16  -1  -2    2.31    4.12
  16   1  -1   22.48    6.17
  16   1  -1   13.25    5.44
  16  -1  -1    9.58    4.54
  16  -1  -1   16.03    5.40
  16  -1  -1   18.61    5.69
  16   1   0    4.31    3.24
  16   1   0    2.94    2.22
  16  -1   0    0.52    2.61
  16  -1   0    2.48    3.74
  16  -1   0    5.56    3.69
  16   1   1   13.21    4.16
  16   1   1   14.39    4.94
  16  -1   1    5.69    3.31
  16  -1   1   17.93    5.32
  16  -1   1   10.09    3.84
  16   1   2    6.14    4.86
  16  -1   2   -0.19    1.96
  16   1   2    5.72    4.85
  16  -1   2    1.00    4.24
  16  -1   2    4.15    2.56
  16   1   3   60.81   10.38
  16  -1   3   47.82    9.11
  16   1   3   37.32    8.42
  16  -1   3   42.54    8.63
  16  -1   3   53.07    9.24
  16   1   4   -0.09    2.04
  16  -1   4    2.03    2.04
  16   1   4    4.69    2.13
  16  -1   4   -1.13    3.02
  16  -1   4    3.61    3.27
  16   1   5   46.28    9.27
  16  -1   5   28.57    6.90
  16   1   5   55.86   10.33
  16  -1   5   38.43    8.47
  16  -1   5   41.57    8.04
  16   1   6    4.25    3.46
  16  -1   6    1.16    2.65
  16   1   6    4.78    1.93
  16  -1   6    6.41    3.01
  16  -1   6    4.93    4.75
  16   1   7   -1.93    2.75
  16  -1   7    2.21    3.35
  16   1   7   -1.88    1.99
  16  -1   7    3.92    3.60
  16  -1   7    5.95    4.21
  16   1   8    1.19    3.85
  16  -1   8    4.44    4.05
  16   1   8    1.30    3.47
  16  -1   8   -0.56    2.33
  16   1   9   19.46    4.69
  16   1   9   15.64    5.30
  16  -1   9    6.86    3.61
  16   1  10    1.02    2.92
  16   1  10    2.15    4.86
  16  -1  10    5.50    4.45
  16   1  11    2.17    4.75
  16  -1  11   -1.31    3.78
  16  -1  12   -5.06    6.24
  16   1  12   -1.51    1.91
  16  -1  13   11.74    6.02
  16   1  13   17.28    6.39
  16   1  14   41.19    9.89
  16   1  15    7.16    4.07
  16   1  16   -1.82    5.37
  16   1  17   16.69    6.69
  16   1  18   -6.40    5.12
  16   1  19    4.51    3.03
  16  -2 -18    8.27    4.15
  16   2 -18   10.93    6.28
  16   2 -17  152.75   17.55
  16  -2 -17  153.21   17.59
  16  -2 -16   15.55    5.70
  16   2 -16   18.15    7.00
  16  -2 -15    9.08    5.05
  16   2 -15    8.53    5.59
  16  -2 -14    3.14    2.63
  16   2 -14   11.47    4.48
  16   2 -13  237.04   20.87
  16  -2 -13  219.82   19.96
  16  -2 -12   11.41    5.75
  16   2 -12   27.69    8.02
  16  -2 -11   37.37    7.50
  16   2 -11   27.50    7.45
  16  -2 -10    2.85    1.98
  16  -2 -10    8.77    4.56
  16   2  -9   42.32    8.47
  16  -2  -9   48.58    9.28
  16   2  -9   43.68    8.79
  16  -2  -9   42.24    8.92
  16  -2  -8    8.12    4.16
  16   2  -8    5.60    5.02
  16   2  -8    4.13    2.19
  16  -2  -8   15.18    4.92
  16   2  -7  110.13   14.08
  16  -2  -7  131.33   14.91
  16   2  -7  156.52   16.49
  16  -2  -7  143.77   15.43
  16  -2  -6    2.03    2.68
  16   2  -6    4.62    3.85
  16   2  -6    3.23    3.90
  16  -2  -6    7.95    5.52
  16  -2  -5   28.21    7.03
  16   2  -5   21.43    6.37
  16   2  -5   32.66    7.26
  16  -2  -5   24.25    7.21
  16  -2  -4    8.05    4.32
  16   2  -4   10.43    5.28
  16   2  -4    7.30    5.30
  16  -2  -4    6.68    4.61
  16   2  -3  205.79   18.83
  16  -2  -3  180.94   17.47
  16   2  -3  194.06   18.43
  16  -2  -3  172.84   17.56
  16  -2  -3  172.72   16.63
  16  -2  -2    4.05    3.82
  16   2  -2   12.85    5.78
  16   2  -2    6.22    2.48
  16  -2  -2    3.07    4.41
  16  -2  -2    9.11    3.96
  16  -2  -1   17.52    4.54
  16   2  -1   14.38    5.26
  16   2  -1   18.34    5.37
  16  -2  -1   23.18    5.96
  16  -2  -1   24.04    5.93
  16   2   0    2.78    2.64
  16   2   0   -0.56    3.62
  16  -2   0    2.07    1.90
  16  -2   0   -0.95    1.90
  16  -2   0    1.93    2.09
  16   2   1   11.28    4.01
  16   2   1   17.94    6.08
  16  -2   1   23.96    6.29
  16  -2   1   16.07    5.05
  16  -2   1   15.38    5.35
  16   2   2    8.54    4.34
  16   2   2    6.12    4.76
  16  -2   2    7.78    3.76
  16  -2   2    5.13    2.75
  16  -2   2    0.39    2.62
  16   2   3  163.17   17.19
  16  -2   3  202.58   18.34
  16   2   3  208.57   19.06
  16  -2   3  176.66   16.88
  16  -2   3  200.83   17.53
  16   2   4   12.25    6.01
  16   2   4    7.21    3.26
  16  -2   4   11.21    3.98
  16  -2   4    5.23    1.95
  16  -2   4   14.90    6.08
  16   2   5   11.63    5.28
  16   2   5   26.37    7.56
  16  -2   5   24.75    6.60
  16  -2   5   26.36    6.94
  16  -2   5   17.70    5.65
  16   2   6    7.60    4.29
  16  -2   6    6.29    2.57
  16   2   6    6.96    3.83
  16  -2   6    1.53    2.31
  16  -2   6    4.96    2.82
  16   2   7  125.00   15.16
  16  -2   7  161.37   17.31
  16   2   7  142.91   16.10
  16  -2   7  105.31   14.81
  16  -2   7  151.96   15.11
  16   2   8    3.39    1.85
  16  -2   8   -1.65    2.02
  16  -2   8    7.87    4.77
  16   2   9   26.48    7.56
  16  -2   9   36.50    7.05
  16   2  10    8.76    3.94
  16   2  10    9.45    4.72
  16  -2  10    7.54    4.14
  16   2  11   33.45    7.91
  16   2  11   29.15    7.74
  16  -2  11   28.44    8.10
  16   2  12   23.91    6.13
  16  -2  12   24.67    6.90
  16   2  13  226.89   20.38
  16  -2  13  239.61   20.28
  16   2  14    7.48    5.19
  16   2  15    3.54    2.09
  16   2  16   21.52    7.43
  16   2  17  158.91   17.18
  16   2  18    9.18    5.31
  16  -3 -17   -1.00    3.77
  16   3 -17   -1.68    3.11
  16  -3 -16    9.85    4.03
  16   3 -16    7.04    4.37
  16  -3 -15    4.68    4.37
  16   3 -15    3.98    3.99
  16  -3 -14    0.74    2.34
  16   3 -14   -1.22    2.80
  16  -3 -13    5.43    2.94
  16   3 -13    8.34    5.59
  16  -3 -12    1.17    2.67
  16   3 -12    3.46    2.42
  16   3 -12    2.64    3.40
  16  -3 -11   13.52    4.94
  16  -3 -11   23.96    6.83
  16   3 -11   18.47    6.34
  16   3 -11   18.66    6.45
  16  -3 -10    5.91    2.06
  16  -3 -10    3.44    2.59
  16   3 -10    5.50    4.55
  16   3 -10    7.06    6.12
  16  -3  -9   15.53    5.39
  16  -3  -9    9.30    1.94
  16   3  -9   12.94    4.62
  16   3  -9    3.84    3.74
  16  -3  -8   11.95    4.97
  16  -3  -8   13.24    5.36
  16   3  -8    8.75    4.80
  16   3  -8    3.32    3.55
  16  -3  -7    8.41    3.67
  16  -3  -7   10.90    4.18
  16   3  -7   19.59    6.26
  16   3  -7    7.43    4.29
  16  -3  -6    1.04    3.32
  16  -3  -6    3.33    3.60
  16   3  -6    2.25    3.31
  16   3  -6    1.56    4.21
  16  -3  -5    1.91    2.39
  16  -3  -5    4.00    1.70
  16   3  -5    6.88    5.11
  16   3  -5    3.76    4.08
  16  -3  -4   11.09    4.77
  16  -3  -4   10.04    5.33
  16   3  -4   11.16    5.15
  16   3  -4    7.14    4.43
  16  -3  -3    1.08    2.69
  16  -3  -3   -3.03    4.02
  16   3  -3    0.29    2.04
  16   3  -3   -3.07    4.47
  16  -3  -3    1.90    3.25
  16  -3  -2   13.88    5.46
  16  -3  -2    9.62    4.26
  16   3  -2    5.74    2.87
  16   3  -2    5.58    4.69
  16  -3  -2    6.94    4.19
  16  -3  -1   -0.07    3.37
  16  -3  -1    4.58    4.10
  16   3  -1    1.55    2.74
  16   3  -1   -1.49    3.01
  16  -3  -1    1.69    2.65
  16  -3   0    1.17    2.17
  16  -3   0    3.82    3.10
  16   3   0   -0.48    2.61
  16   3   0    2.34    4.02
  16  -3   0   -1.43    4.53
  16  -3   1    7.03    4.69
  16  -3   1    2.03    4.27
  16   3   1    7.18    4.12
  16   3   1    3.88    3.33
  16  -3   1    1.38    2.44
  16  -3   2    9.52    4.84
  16  -3   2   10.04    4.32
  16   3   2    4.14    3.17
  16   3   2    5.15    2.89
  16  -3   2   11.57    8.32
  16  -3   3    2.38    2.73
  16   3   3   -4.84    4.64
  16   3   3   -0.94    3.83
  16  -3   3   -0.24    2.21
  16   3   4   13.03    5.10
  16   3   4   10.66    5.66
  16  -3   4    6.23    2.80
  16  -3   4    0.92    2.38
  16   3   5    7.62    3.36
  16   3   5    5.63    3.98
  16  -3   5   11.72    3.79
  16  -3   5   12.01    5.43
  16   3   6   10.69    5.35
  16   3   6    6.39    4.13
  16  -3   6    0.89    3.63
  16   3   7   10.06    3.82
  16   3   7   13.66    5.81
  16  -3   7    8.03    3.99
  16   3   8   13.75    6.26
  16   3   8    7.49    3.98
  16  -3   8   11.65    4.97
  16   3   9   10.85    3.52
  16   3   9    9.00    4.44
  16  -3   9    6.52    3.35
  16   3  10    7.05    5.60
  16   3  10    3.48    3.36
  16  -3  10    4.08    4.65
  16   3  11   17.67    6.82
  16   3  11   26.19    7.04
  16  -3  11   17.80    4.62
  16   3  12    5.05    2.76
  16   3  12    3.28    2.79
  16  -3  12    0.07    1.82
  16   3  13    7.03    3.87
  16  -3  13    9.53    4.01
  16   3  14    1.17    3.24
  16  -3  14    2.30    2.16
  16   3  15    2.12    2.36
  16  -3  15    5.76    4.52
  16   3  16    9.78    5.80
  16  -3  16    0.83    2.82
  16   3  17    1.58    2.75
  16  -4 -16    9.60    3.44
  16   4 -16    8.65    5.09
  16   4 -16   -0.24    6.29
  16   4 -15   20.03    6.39
  16   4 -15   14.44    5.48
  16  -4 -14    8.48    4.82
  16   4 -14    8.48    5.10
  16   4 -14    7.10    4.00
  16   4 -13  216.54   20.44
  16   4 -13  174.57   18.93
  16  -4 -13  219.83   20.18
  16  -4 -12    3.02    3.05
  16   4 -12   12.48    7.11
  16   4 -12   13.75    6.18
  16  -4 -11   32.94    8.63
  16  -4 -11   35.45    8.37
  16   4 -11   22.69    6.40
  16   4 -11   29.35    7.97
  16  -4 -10   13.21    3.91
  16  -4 -10   14.76    5.92
  16   4 -10   10.42    4.51
  16   4 -10    8.72    5.55
  16   4  -9  105.15   14.49
  16   4  -9   90.49   13.74
  16  -4  -9   92.86   13.24
  16  -4  -9   87.12   12.21
  16  -4  -8   -1.02    2.80
  16  -4  -8   -1.12    3.51
  16   4  -8    3.15    5.33
  16   4  -8    2.39    4.53
  16   4  -7  112.20   14.22
  16   4  -7   92.61   13.54
  16  -4  -7   91.92   12.50
  16  -4  -7   86.80   12.48
  16  -4  -6   -0.61    2.37
  16  -4  -6    3.87    3.52
  16   4  -6    1.76    3.80
  16   4  -6   -0.48    4.68
  16  -4  -5   49.95    8.95
  16  -4  -5   34.33    7.80
  16   4  -5   29.39    7.02
  16   4  -5   57.24   10.29
  16  -4  -4    8.11    3.95
  16  -4  -4    6.23    2.95
  16   4  -4    9.73    3.53
  16   4  -4    8.91    4.67
  16   4  -3  182.07   18.26
  16   4  -3  186.74   18.59
  16  -4  -3  203.18   18.29
  16  -4  -3  198.66   17.98
  16  -4  -2    7.68    3.30
  16  -4  -2   11.81    5.21
  16   4  -2    6.51    4.62
  16   4  -2    8.28    4.71
  16  -4  -1   46.69    9.29
  16  -4  -1   39.71    8.26
  16   4  -1   36.59    8.40
  16   4  -1   39.00    8.64
  16  -4   0    4.57    5.05
  16  -4   0   -0.09    1.93
  16   4   0   -1.74    1.91
  16  -4   1   38.89    7.95
  16  -4   1   29.52    7.30
  16   4   1   36.76    7.86
  16   4   1   25.46    6.25
  16  -4   2    5.99    2.90
  16  -4   2   11.48    4.79
  16   4   2    9.24    3.57
  16   4   2   13.64    5.62
  16   4   3  174.76   17.97
  16   4   3  186.16   18.31
  16  -4   3  164.77   17.30
  16  -4   3  167.91   16.59
  16  -4   4    4.51    4.70
  16  -4   4   11.40    4.46
  16   4   4    9.48    5.02
  16   4   4    3.15    4.16
  16   4   5   30.50    9.11
  16   4   5   34.99    7.76
  16  -4   5   50.98    9.53
  16  -4   6    3.72    3.82
  16   4   6    2.51    2.68
  16   4   6    3.23    2.17
  16   4   7   87.64   13.06
  16   4   7  101.24   13.74
  16  -4   7   91.93   12.41
  16  -4   8    0.97    2.41
  16   4   8   -3.19    3.62
  16   4   8   -1.76    3.19
  16   4   9   65.03   11.36
  16   4   9   67.06   11.13
  16  -4   9   83.93   11.75
  16   4  10   15.00    5.99
  16   4  10   24.02    7.63
  16  -4  10   26.81    6.93
  16   4  11   30.40    8.65
  16   4  11   37.65    8.81
  16  -4  11   26.41    6.28
  16   4  12    6.65    3.25
  16   4  12   12.50    4.65
  16  -4  12    2.61    3.63
  16   4  13  208.25   19.42
  16  -4  13  196.21   18.10
  16   4  13  211.07   21.26
  16   4  14    1.60    2.90
  16  -4  14    7.80    4.98
  16   4  15   38.19    9.13
  16  -4  15   22.30    5.05
  16   4  16   22.76    7.53
  16  -4  16   12.19    5.58
  16  -5 -14   77.10   13.03
  16   5 -14   81.38   13.12
  16   5 -14  101.53   15.09
  16   5 -13    1.27    4.37
  16  -5 -13   -3.09    3.81
  16   5 -13    0.71    2.50
  16   5 -12   22.57    8.02
  16  -5 -12   21.72    7.31
  16   5 -12   10.63    6.13
  16  -5 -11    5.98    3.78
  16   5 -11   19.15    6.28
  16  -5 -11    8.59    3.85
  16   5 -11   13.32    6.11
  16  -5 -10   29.27    6.81
  16   5 -10   20.61    5.97
  16  -5 -10   37.94    8.10
  16   5 -10   20.73    6.45
  16  -5  -9   -1.42    2.51
  16   5  -9   -5.19    3.82
  16  -5  -9   -2.68    2.49
  16   5  -9    2.36    3.15
  16  -5  -8    1.78    2.78
  16   5  -8   -2.91    5.62
  16  -5  -8   -1.44    3.55
  16   5  -8   -0.47    3.10
  16  -5  -7    3.29    3.88
  16   5  -7    1.86    2.88
  16  -5  -7    3.75    2.56
  16   5  -7    4.28    2.20
  16  -5  -6    8.86    4.53
  16   5  -6    3.45    4.25
  16  -5  -6    4.42    3.15
  16   5  -6    5.74    3.93
  16  -5  -5   26.09    6.34
  16   5  -5   50.92   10.17
  16  -5  -5   49.05    9.13
  16   5  -5   38.07    8.60
  16  -5  -4   23.94    6.69
  16  -5  -4   27.01    7.57
  16   5  -4   12.43    6.07
  16   5  -4   27.56    6.71
  16  -5  -3    6.28    2.21
  16  -5  -3   17.61    6.45
  16   5  -3    4.47    3.65
  16   5  -3   13.64    6.10
  16  -5  -2   27.06    6.58
  16  -5  -2   15.79    5.41
  16   5  -2   14.54    6.01
  16   5  -2   23.24    6.98
  16  -5  -1   28.38    7.47
  16  -5  -1   30.52    7.99
  16   5  -1   21.17    7.00
  16   5  -1   16.95    6.49
  16  -5   0   -1.41    2.06
  16  -5   0   -1.13    3.30
  16   5   0    1.92    3.79
  16   5   0   -1.35    2.25
  16  -5   1   25.77    7.31
  16  -5   1   36.70    8.46
  16   5   1   19.86    6.87
  16   5   1   30.59    7.55
  16  -5   2   13.56    4.38
  16  -5   2   25.12    7.51
  16   5   2   14.32    6.66
  16   5   2   12.01    3.95
  16  -5   3    0.25    2.16
  16   5   3    3.21    2.77
  16   5   3    8.13    5.14
  16  -5   4   28.43    8.49
  16   5   4   27.28    8.04
  16   5   4   11.01    2.82
  16   5   5   27.99    7.76
  16   5   5   40.26    8.69
  16  -5   5   55.65    9.93
  16  -5   6   -2.57    3.75
  16   5   6   -2.73    3.78
  16   5   6    1.61    5.35
  16  -5   7    4.87    3.43
  16   5   7    1.74    2.08
  16   5   7   -0.95    4.46
  16  -5   8    2.73    3.05
  16   5   8    1.22    2.21
  16   5   8   -0.60    3.15
  16  -5   9    5.25    4.08
  16   5   9    3.24    3.29
  16   5   9   -0.15    2.11
  16  -5  10   24.93    7.12
  16   5  10   19.74    7.22
  16   5  10   22.57    6.84
  16  -5  11   20.47    7.15
  16   5  11   10.90    5.08
  16   5  11   20.00    6.09
  16  -5  12   22.93    6.81
  16   5  12    7.30    5.49
  16   5  12   23.45    6.77
  16   5  13    3.70    2.78
  16  -5  13   -0.84    2.47
  16   5  14   66.28   12.32
  16   5  14   59.86   11.01
  16  -5  14   73.43   12.16
  16  -6 -11   33.58    7.86
  16   6 -11   37.37    8.91
  16  -6 -11   29.68    8.12
  16   6 -11   35.09    8.57
  16  -6 -10   15.73    4.77
  16   6 -10   25.50    7.53
  16  -6 -10   14.51    5.36
  16   6 -10   25.88    8.78
  16  -6  -9  123.91   15.26
  16   6  -9   76.64   13.83
  16   6  -9  114.29   15.17
  16  -6  -9   94.19   13.02
  16  -6  -8    3.87    4.41
  16   6  -8    2.42    3.33
  16  -6  -8   -0.84    3.45
  16   6  -8   -4.73    6.22
  16  -6  -7  127.44   15.12
  16   6  -7  102.71   14.90
  16   6  -7  103.26   14.74
  16  -6  -7  109.96   13.71
  16  -6  -6    9.86    5.09
  16   6  -6    4.81    4.45
  16  -6  -6    3.51    2.75
  16   6  -6    5.46    4.21
  16  -6  -5    0.58    4.02
  16   6  -5    4.35    2.66
  16  -6  -5   12.39    6.21
  16   6  -5    2.86    4.58
  16  -6  -4   11.46    4.32
  16   6  -4   10.22    4.25
  16   6  -4    5.89    2.93
  16  -6  -3  107.76   13.90
  16   6  -3  142.94   16.61
  16   6  -3  126.30   15.44
  16  -6  -3   93.45   13.05
  16   6  -2   86.19   13.60
  16  -6  -2   59.83   10.25
  16   6  -2   78.09   12.63
  16  -6  -2   75.25   11.43
  16   6  -1  109.85   14.85
  16   6  -1  101.13   14.37
  16  -6  -1   85.98   12.29
  16  -6  -1   95.37   13.49
  16  -6   0    3.76    2.41
  16   6   0   -0.37    2.15
  16  -6   0    1.73    2.68
  16   6   0    2.16    2.66
  16   6   1   86.11   13.10
  16   6   1   89.83   12.91
  16  -6   1   85.04   12.74
  16  -6   1   95.96   13.37
  16   6   2   70.35   11.58
  16   6   2   86.80   13.54
  16  -6   2   63.09   10.74
  16   6   3  115.95   14.47
  16   6   3  140.28   16.60
  16  -6   3  146.85   16.14
  16  -6   4   22.06    6.50
  16   6   4   28.86    7.94
  16   6   4   20.66    6.77
  16  -6   5    3.18    2.82
  16   6   5    0.11    3.93
  16   6   5    6.15    4.54
  16  -6   6    8.76    5.83
  16   6   6    0.85    3.15
  16   6   6    0.51    3.92
  16   6   7  105.35   14.72
  16  -6   7  100.24   13.50
  16   6   7  121.84   15.70
  16  -6   8    5.33    3.51
  16   6   8    0.72    4.05
  16   6   8    2.12    3.89
  16   6   9  114.84   14.75
  16   6   9   99.11   14.61
  16  -6   9  127.45   15.27
  16  -6  10   30.69    7.55
  16   6  10    9.61    5.64
  16   6  10   26.07    6.90
  16  -6  11   41.41    9.29
  16   6  11   44.05   10.19
  16   6  11   40.43    8.70
  16  -7  -6    2.20    3.56
  16   7  -6    5.66    4.77
  16  -7  -6    8.91    4.16
  16   7  -6   11.01    3.32
  16  -7  -5   37.42    8.44
  16   7  -5   63.06   12.07
  16  -7  -5   33.79    7.55
  16   7  -5   38.46   10.16
  16  -7  -4   -0.02    4.96
  16   7  -4    4.63    4.78
  16  -7  -4   -3.43    3.43
  16   7  -4    5.90    4.47
  16  -7  -3   40.42    8.79
  16   7  -3   31.51    7.09
  16  -7  -3   23.46    6.67
  16   7  -3   41.30    9.67
  16  -7  -2    6.14    4.42
  16   7  -2   -6.43    5.43
  16  -7  -2   -0.02    2.03
  16   7  -2   -0.15    4.57
  16  -7  -1    1.91    3.13
  16   7  -1   -2.56    3.46
  16  -7  -1    0.11    3.04
  16   7  -1   -2.73    4.44
  16  -7   0    5.26    2.15
  16   7   0    1.35    3.10
  16  -7   0    6.72    5.87
  16   7   0    4.09    2.70
  16  -7   1   -4.92    4.65
  16   7   1   -0.11    2.91
  16   7   1    0.96    4.50
  16  -7   2   -3.32    4.08
  16   7   2    4.49    4.27
  16   7   2    7.70    5.93
  16  -7   3   37.08    8.50
  16   7   3   47.92   10.40
  16   7   3   30.50    8.23
  16   7   4   -2.32    3.18
  16   7   4   -1.24    2.45
  16  -7   5   31.94    7.43
  16   7   5   34.54   10.26
  16   7   5   41.34    8.26
  16  -7   6    9.91    5.78
  16   7   6    3.09    2.17
  17   0 -17   -0.25    3.19
  17   0 -16    2.57    3.09
  17   0 -15   -2.34    3.85
  17   0 -14   -2.16    3.69
  17   0 -13   -0.73    2.65
  17   0 -12    1.60    2.64
  17   0 -11   -3.03    2.35
  17   0 -10    6.30    4.64
  17   0  -9    3.43    4.02
  17   0  -8    1.91    4.24
  17   0  -7   -1.14    1.98
  17   0  -7   -0.08    1.83
  17   0  -6    0.57    3.46
  17   0  -6    3.23    2.34
  17   0  -5    0.71    1.61
  17   0  -5    3.66    4.63
  17   0  -4   -3.49    2.78
  17   0  -4    5.17    5.16
  17   0  -3    0.64    3.39
  17   0  -3    1.17    3.60
  17   0  -2    0.32    2.58
  17   0  -2    0.16    4.35
  17   0  -1    0.69    1.81
  17   0  -1   -0.59    2.74
  17   0   0    3.23    3.41
  17   0   0   -1.17    2.24
  17   0   1    2.09    3.93
  17   0   1    2.43    4.43
  17   0   2   -3.38    3.46
  17   0   2    0.03    1.94
  17   0   3   -1.97    2.10
  17   0   3    6.51    4.85
  17   0   4    0.57    2.52
  17   0   4   -0.57    2.05
  17   0   5    1.05    4.15
  17   0   5    2.21    4.78
  17   0   6   -2.08    2.44
  17   0   6   -1.53    3.67
  17   0   7   -4.36    4.75
  17   0   7   -0.16    3.73
  17   0   8    2.62    4.62
  17   0   8    2.57    5.25
  17   0   9  -10.46    4.38
  17   0   9   -0.23    2.89
  17   0  10    1.34    3.40
  17   0  11    0.17    3.55
  17   0  12    0.37    2.22
  17   0  13    0.73    2.85
  17   0  14    1.62    3.73
  17   0  15   -2.49    3.29
  17   0  16   23.70    9.40
  17   1 -17   99.31   14.34
  17  -1 -17  119.15   15.55
  17   1 -16   97.67   14.09
  17  -1 -16   84.20   13.29
  17  -1 -15    4.71    5.36
  17   1 -15    1.67    2.38
  17  -1 -14   18.18    6.02
  17   1 -14   26.43    7.24
  17  -1 -13   26.75    8.01
  17   1 -13   40.08    9.20
  17  -1 -12   50.09   10.74
  17   1 -12   53.27   10.31
  17  -1 -11   62.40   10.23
  17   1 -11   71.11   11.59
  17   1 -10   53.48    9.97
  17  -1 -10   47.14    8.16
  17   1  -9   40.61    8.12
  17  -1  -9   45.03    9.28
  17  -1  -9   51.54    9.51
  17   1  -8   53.51    9.69
  17   1  -8   46.80    9.47
  17  -1  -8   50.66    9.16
  17  -1  -8   39.14    8.64
  17   1  -7   10.66    3.85
  17   1  -7    8.45    5.22
  17  -1  -7    7.87    4.99
  17  -1  -7    9.78    5.29
  17   1  -6   38.18    8.10
  17   1  -6   14.20    4.20
  17  -1  -6   32.69    7.31
  17  -1  -6   35.44    9.10
  17  -1  -6   29.23    7.50
  17   1  -5   11.48    5.17
  17   1  -5    8.66    5.41
  17  -1  -5   11.16    5.20
  17  -1  -5   14.03    5.87
  17  -1  -5   12.04    5.69
  17   1  -4   87.01   12.68
  17  -1  -4  111.43   14.02
  17   1  -4  114.37   14.96
  17  -1  -4  124.88   15.23
  17  -1  -4  106.76   12.76
  17   1  -3  179.72   18.12
  17  -1  -3  171.55   16.99
  17   1  -3  162.74   16.89
  17  -1  -3  181.68   18.44
  17  -1  -3  188.99   17.10
  17   1  -2   53.71   10.00
  17  -1  -2   70.77   11.66
  17   1  -2   96.71   13.20
  17  -1  -2   80.98   12.95
  17  -1  -2   81.85   11.12
  17   1  -1   30.00    7.93
  17   1  -1   13.94    4.54
  17  -1  -1   21.88    6.77
  17  -1  -1   29.82    6.69
  17  -1  -1   17.55    6.25
  17   1   0  125.14   14.97
  17  -1   0  119.23   14.29
  17   1   0  118.74   14.79
  17  -1   0  138.27   15.85
  17  -1   0  106.86   13.48
  17  -1   1   39.09    9.37
  17   1   1   29.95    8.01
  17   1   1   13.81    5.83
  17  -1   1   26.39    6.87
  17  -1   1   21.78    5.90
  17   1   2   56.67   10.25
  17  -1   2   49.68   10.17
  17   1   2   94.12   13.16
  17  -1   2   79.96   12.28
  17  -1   2   58.19    9.45
  17   1   3  186.54   18.54
  17  -1   3  189.29   18.09
  17   1   3  163.86   17.40
  17  -1   3  176.55   18.16
  17  -1   3  177.43   17.19
  17   1   4  106.95   13.62
  17  -1   4   90.64   12.25
  17   1   4  114.93   15.00
  17  -1   4   92.15   12.69
  17  -1   4  106.15   13.02
  17   1   5   14.23    7.06
  17  -1   5   11.10    4.72
  17   1   5    5.67    2.86
  17  -1   5    5.72    4.84
  17  -1   5    8.63    4.77
  17   1   6    9.68    5.94
  17  -1   6   16.55    4.84
  17   1   6   16.33    4.31
  17  -1   6   26.32    7.86
  17   1   7    7.50    5.11
  17  -1   7    1.83    2.32
  17   1   7   11.50    6.32
  17  -1   7    6.15    2.73
  17   1   8   59.14   11.28
  17   1   8   42.91    9.31
  17  -1   8   45.88    9.35
  17   1   9   50.96    8.65
  17   1   9   65.36   11.28
  17  -1   9   43.43    8.53
  17   1  10   61.09   12.07
  17   1  10   59.21   11.27
  17  -1  10   53.71   11.02
  17   1  11   85.67   12.60
  17  -1  11   30.59    7.11
  17   1  12   55.96   11.04
  17   1  13   30.52    8.63
  17   1  14   23.41    6.43
  17   1  15    0.56    2.86
  17   1  16   85.17   13.72
  17   1  17   94.32   14.29
  17  -2 -16   10.77    4.57
  17   2 -16   -1.42    5.93
  17  -2 -15   18.42    7.74
  17   2 -15    9.88    5.13
  17  -2 -14   15.15    6.45
  17   2 -14   21.61    8.11
  17  -2 -13   16.53    5.47
  17   2 -13   20.79    7.17
  17  -2 -12   15.61    4.96
  17   2 -12   17.43    5.70
  17  -2 -11    0.05    3.74
  17   2 -11    0.08    3.76
  17   2 -11   -4.41    4.64
  17  -2 -10   13.06    5.66
  17   2 -10   17.83    5.92
  17   2 -10    8.58    4.62
  17  -2 -10    5.80    3.56
  17  -2  -9   11.33    4.35
  17   2  -9   27.23    6.71
  17   2  -9   13.37    4.87
  17  -2  -9   21.88    5.05
  17  -2  -8   36.51    7.76
  17   2  -8   44.18    9.35
  17   2  -8   31.95    8.16
  17  -2  -8   37.65    7.86
  17  -2  -7   12.38    5.69
  17   2  -7   20.98    6.03
  17   2  -7   25.89    7.61
  17  -2  -7   16.38    6.90
  17  -2  -6   16.69    5.56
  17   2  -6   28.76    7.54
  17   2  -6   16.10    4.71
  17  -2  -6   21.74    7.50
  17  -2  -5   -0.57    2.65
  17   2  -5    0.13    3.26
  17   2  -5    3.68    3.86
  17  -2  -5    8.97    5.35
  17  -2  -5    5.99    3.87
  17  -2  -4    9.98    5.96
  17   2  -4   10.58    5.79
  17   2  -4   13.25    5.47
  17  -2  -4    6.84    2.48
  17  -2  -4   18.77    5.78
  17   2  -3    8.22    4.81
  17   2  -3    3.31    2.10
  17  -2  -3    3.99    5.57
  17  -2  -3   -1.42    4.05
  17  -2  -3    2.14    3.69
  17   2  -2    9.88    3.35
  17   2  -2    7.88    4.51
  17  -2  -2   10.09    4.46
  17  -2  -2    8.97    5.01
  17  -2  -2    0.83    1.87
  17   2  -1   -1.11    2.23
  17   2  -1    3.27    3.51
  17  -2  -1    5.37    3.88
  17  -2  -1    2.13    2.12
  17  -2  -1    4.16    2.61
  17   2   0    7.30    4.14
  17   2   0    0.08    3.29
  17  -2   0   -0.94    4.37
  17  -2   0    0.12    2.37
  17  -2   0    5.50    3.44
  17   2   1    2.83    4.51
  17   2   1   -0.38    2.09
  17  -2   1    0.39    2.43
  17  -2   1    0.95    3.69
  17  -2   1    2.76    1.79
  17   2   2   10.20    4.16
  17   2   2    4.85    2.58
  17  -2   2   11.21    4.80
  17  -2   2   10.99    5.40
  17  -2   2    9.31    3.72
  17   2   3    2.86    4.05
  17   2   3    4.35    3.44
  17  -2   3    2.80    2.59
  17  -2   3    0.85    1.86
  17  -2   3    3.73    5.00
  17   2   4   10.03    3.78
  17   2   4   12.61    4.45
  17  -2   4   20.13    6.37
  17  -2   4    2.87    3.10
  17  -2   4   14.40    4.32
  17   2   5    5.38    3.37
  17  -2   5    7.84    4.14
  17   2   5    1.99    2.11
  17  -2   5    1.61    2.22
  17  -2   5    5.09    2.28
  17   2   6   19.21    6.57
  17  -2   6   -0.16    3.68
  17   2   6   13.99    4.88
  17  -2   6   24.03    9.92
  17  -2   6   20.74    6.76
  17   2   7   35.82    8.45
  17   2   7   23.54    6.88
  17  -2   7   10.82    4.30
  17   2   8   44.68    9.34
  17   2   8   29.17    6.62
  17  -2   8   22.48    6.90
  17   2   9   22.44    6.64
  17   2   9   25.97    7.41
  17  -2   9   27.37    6.24
  17   2  10   10.61    5.84
  17   2  10   11.12    5.81
  17  -2  10   18.72    4.25
  17   2  11   -0.99    2.77
  17  -2  11    4.55    3.97
  17   2  12   10.53    5.39
  17   2  13   18.12    6.42
  17   2  14   13.71    5.50
  17   2  15    5.22    2.17
  17   2  16    7.88    6.10
  17  -3 -15   43.76    9.33
  17   3 -15   30.41    8.92
  17  -3 -14   19.62    7.17
  17   3 -14   18.25    6.19
  17   3 -14   24.90    7.40
  17  -3 -13   29.93    7.64
  17   3 -13   46.49   10.15
  17   3 -13   59.82   10.33
  17  -3 -12   18.45    6.22
  17   3 -12   30.84    9.29
  17   3 -12   14.27    6.30
  17  -3 -11   33.79    7.70
  17   3 -11   19.41    7.30
  17   3 -11   23.71    7.20
  17   3 -10   84.27   13.13
  17   3 -10   99.53   13.78
  17  -3 -10   97.43   13.69
  17  -3 -10   75.86   12.01
  17  -3  -9   51.28    9.58
  17   3  -9   55.75   10.03
  17   3  -9   45.21   10.41
  17  -3  -9   43.47    9.24
  17  -3  -8   -1.85    3.94
  17  -3  -8    2.62    4.59
  17   3  -8   -0.60    2.51
  17   3  -8    2.15    2.95
  17  -3  -7   34.10    8.38
  17  -3  -7   34.08    7.79
  17   3  -7   32.29    8.02
  17   3  -7   37.24    8.48
  17  -3  -6    2.84    2.44
  17  -3  -6    9.06    4.58
  17   3  -6    4.79    3.56
  17   3  -6    9.28    5.45
  17   3  -5   83.17   12.26
  17  -3  -5   94.40   12.87
  17   3  -5   81.08   11.45
  17  -3  -5   82.55   12.00
  17   3  -4  123.97   15.09
  17  -3  -4  118.21   14.59
  17   3  -4  104.13   13.52
  17  -3  -4   96.61   14.62
  17  -3  -4  114.59   13.88
  17  -3  -3   15.02    5.28
  17  -3  -3    7.38    3.10
  17   3  -3   13.25    4.86
  17   3  -3   20.27    6.49
  17  -3  -3   17.21    5.59
  17   3  -2  109.45   14.68
  17  -3  -2  155.72   16.45
  17   3  -2  134.51   16.18
  17  -3  -2  117.48   14.94
  17  -3  -2  119.99   14.48
  17   3  -1  199.81   19.44
  17  -3  -1  202.17   19.01
  17   3  -1  226.98   20.42
  17  -3  -1  224.35   21.06
  17  -3  -1  195.88   17.97
  17  -3   0    0.69    3.03
  17   3   0   -0.26    1.98
  17   3   0    6.24    3.47
  17  -3   0   -0.10    2.19
  17  -3   0   -3.26    4.65
  17   3   1  238.65   20.76
  17  -3   1  205.21   19.31
  17   3   1  199.25   18.91
  17  -3   1  223.98   18.69
  17   3   2  168.61   17.63
  17  -3   2  139.17   15.87
  17   3   2  115.95   14.61
  17  -3   2  153.15   15.96
  17   3   3    7.14    3.41
  17   3   3    9.33    4.22
  17  -3   3   20.50    7.21
  17  -3   3   20.70    6.28
  17   3   4  105.39   14.06
  17  -3   4  122.91   14.65
  17   3   4  155.50   16.68
  17  -3   4  121.33   14.33
  17   3   5   74.09   12.12
  17  -3   5  106.87   15.90
  17   3   5   89.31   12.49
  17  -3   5   80.18   11.52
  17   3   6    6.94    4.46
  17   3   6   11.25    4.40
  17  -3   6    3.08    2.86
  17   3   7   29.32    7.94
  17  -3   7   28.11    6.40
  17   3   8   -1.81    3.88
  17   3   8   -0.59    2.12
  17  -3   8    3.91    3.20
  17   3   9   41.32    9.48
  17   3   9   23.22    8.16
  17  -3   9   33.68    7.39
  17   3  10   93.98   13.35
  17   3  10   92.86   13.32
  17  -3  10   93.16   12.71
  17   3  11    8.96    3.94
  17   3  11   26.03    6.80
  17  -3  11   17.06    6.12
  17   3  12   24.09    8.13
  17   3  12    8.83    5.29
  17  -3  12    9.00    4.75
  17   3  13   34.21    7.68
  17  -3  13   53.65    9.81
  17   3  14   21.87    6.77
  17  -3  14   20.60    6.04
  17   3  15   51.35   11.18
  17  -3  15   38.40    7.66
  17   4 -14   50.13   10.35
  17  -4 -14   71.07   11.63
  17   4 -13   65.97   12.04
  17   4 -13   83.18   13.12
  17  -4 -13   77.27   12.15
  17  -4 -12   11.56    4.73
  17   4 -12    9.75    5.00
  17   4 -12   18.50    6.18
  17  -4 -11   17.65    5.40
  17   4 -11   25.54    8.72
  17   4 -11   14.80    8.12
  17  -4 -10    9.54    2.82
  17  -4 -10    0.87    3.48
  17   4 -10   14.03    5.77
  17   4 -10    7.50    4.13
  17  -4  -9    2.86    2.58
  17  -4  -9    0.90    1.66
  17   4  -9    2.19    2.34
  17   4  -9    0.28    4.69
  17  -4  -8   24.08    7.36
  17  -4  -8   14.11    5.48
  17   4  -8   21.04    7.12
  17   4  -8   15.84    5.14
  17  -4  -7    0.73    3.34
  17  -4  -7    5.06    3.02
  17   4  -7    3.51    3.73
  17   4  -7    9.62    5.49
  17  -4  -6   32.58    8.38
  17  -4  -6   32.94    8.00
  17   4  -6   42.93    9.93
  17   4  -6   34.25    6.47
  17  -4  -5   52.22    9.67
  17  -4  -5   56.75   10.13
  17   4  -5   45.56    9.34
  17   4  -5   54.61   10.23
  17  -4  -4   10.80    4.28
  17  -4  -4    6.20    4.22
  17   4  -4    9.75    5.56
  17   4  -4    8.59    4.90
  17  -4  -3   20.53    5.76
  17  -4  -3   14.31    5.02
  17   4  -3   13.04    5.49
  17   4  -3   20.29    6.66
  17  -4  -2   37.52    7.78
  17  -4  -2   32.67    7.75
  17   4  -2   46.86    9.88
  17   4  -2   26.82    6.01
  17  -4  -1   51.95    9.95
  17  -4  -1   29.92    7.11
  17   4  -1   35.21    8.21
  17   4  -1   31.60    8.25
  17  -4   0   29.92    8.76
  17  -4   0   26.78    7.25
  17   4   0   18.65    6.64
  17   4   0   24.94    6.58
  17  -4   1   48.69    9.41
  17   4   1   36.09    8.69
  17   4   1   61.14   11.41
  17  -4   1   56.42   10.83
  17  -4   2   32.68    8.57
  17  -4   2   46.17    9.12
  17   4   2   31.35    7.80
  17   4   2   31.49    7.72
  17  -4   3   12.74    3.59
  17  -4   3    7.67    5.18
  17   4   3   21.94    6.71
  17   4   3    9.62    4.73
  17  -4   4    4.14    2.81
  17   4   4    9.36    5.53
  17   4   4    8.42    2.16
  17   4   5   53.64   10.18
  17   4   5   68.36   10.99
  17  -4   5   59.20   10.61
  17  -4   6   42.83    8.88
  17   4   6   27.13    7.41
  17   4   6   28.99    7.92
  17   4   7   -0.44    2.36
  17   4   7   -1.09    2.98
  17  -4   7    3.27    2.65
  17   4   8   12.08    4.55
  17   4   8   14.63    6.18
  17  -4   8    8.59    4.18
  17   4   9   -2.98    3.50
  17   4   9    1.79    2.02
  17   4  10    3.85    3.86
  17  -4  10    6.34    3.61
  17   4  11   10.52    5.08
  17   4  11   11.86    4.54
  17  -4  11   21.44    5.75
  17   4  12   20.03    6.64
  17   4  12   11.70    5.84
  17  -4  12   20.33    6.87
  17   4  13   57.77   11.28
  17  -4  13   74.49   11.53
  17   4  14   61.88   10.67
  17  -4  14   98.32   13.52
  17  -5 -11   27.13    7.31
  17  -5 -11   31.41    7.92
  17   5 -11   17.16    6.77
  17   5 -11   37.55    9.20
  17   5 -10  103.03   14.90
  17   5 -10   93.33   14.04
  17  -5 -10  108.80   13.70
  17  -5 -10  104.93   14.76
  17  -5  -9   27.03    8.03
  17  -5  -9   24.17    8.27
  17   5  -9   10.81    3.55
  17   5  -9   14.00    5.52
  17  -5  -8   11.74    4.70
  17  -5  -8   18.34    6.71
  17   5  -8    2.48    4.98
  17   5  -8   10.28    4.46
  17   5  -7   83.21   13.35
  17   5  -7   86.13   13.87
  17  -5  -7   69.47   11.07
  17  -5  -7  101.92   13.09
  17   5  -6  109.51   14.29
  17   5  -6  112.83   14.64
  17  -5  -6   86.15   12.74
  17  -5  -6   93.16   12.57
  17  -5  -5   13.53    4.88
  17  -5  -5   30.76    7.99
  17   5  -5   27.39    7.64
  17   5  -5   28.66    8.17
  17  -5  -4   29.47    8.13
  17  -5  -4    7.69    2.74
  17   5  -4   29.59    7.55
  17   5  -4   17.87    5.22
  17  -5  -3   26.25    6.49
  17  -5  -3   18.58    4.72
  17   5  -3   31.42    8.17
  17   5  -3   22.16    5.97
  17  -5  -2   16.55    5.42
  17  -5  -2   17.36    5.80
  17   5  -2   12.82    6.44
  17   5  -2   17.48    6.82
  17  -5  -1   46.09    9.77
  17  -5  -1   46.42    9.90
  17   5  -1   20.54    6.51
  17   5  -1   40.19   10.43
  17  -5   0   43.79    9.39
  17  -5   0   48.06    9.19
  17   5   0   44.96    9.77
  17   5   0   40.36    8.58
  17  -5   1   34.40    8.00
  17  -5   1   32.54    8.38
  17   5   1   41.62    9.67
  17   5   1   38.74    9.33
  17  -5   2   25.09    7.60
  17  -5   2    9.66    3.94
  17   5   2   10.78    6.21
  17   5   2   14.61    6.76
  17  -5   3   42.44    8.36
  17   5   3   31.68    8.61
  17   5   3   17.91    5.64
  17  -5   4   13.21    4.26
  17   5   4    9.41    6.50
  17   5   4   19.92    7.32
  17  -5   5   23.49    6.14
  17   5   5   20.87    7.40
  17   5   5   22.44    6.89
  17   5   6  117.86   15.74
  17   5   6  113.59   14.60
  17  -5   6  113.31   15.07
  17   5   7   82.43   13.22
  17   5   7   76.30   11.91
  17  -5   7   69.55   12.23
  17  -5   8   12.07    6.14
  17   5   8    1.54    3.74
  17   5   8    4.47    3.96
  17  -5   9   26.63    6.16
  17   5   9   23.99    8.14
  17   5   9   25.42    6.52
  17   5  10   66.39   12.10
  17   5  10  113.81   14.94
  17  -5  10   94.16   13.12
  17   5  11   15.02    6.99
  17  -5  11   28.90    6.61
  17  -6  -7   15.01    5.54
  17   6  -7   11.22    2.53
  17  -6  -7   11.13    6.49
  17   6  -7    2.90    3.48
  17  -6  -6   14.45    5.93
  17   6  -6   15.70    6.86
  17  -6  -6   21.03    6.79
  17   6  -6   15.10    6.17
  17  -6  -5    8.81    4.09
  17   6  -5   18.49    7.12
  17  -6  -5   11.41    5.02
  17   6  -5   14.35    6.13
  17  -6  -4    8.88    5.08
  17   6  -4   15.50    4.95
  17  -6  -4   10.90    5.79
  17   6  -4   18.25    5.87
  17  -6  -3   14.50    4.97
  17   6  -3   16.11    6.37
  17  -6  -3   25.95    7.70
  17   6  -3   32.76    8.86
  17  -6  -2   18.71    6.44
  17   6  -2    8.63    4.78
  17  -6  -2   13.44    5.25
  17   6  -2   12.49    5.97
  17  -6  -1   -4.48    4.90
  17   6  -1   -1.59    3.04
  17  -6  -1   -1.38    3.94
  17   6  -1   -1.02    5.01
  17  -6   0    2.99    3.53
  17   6   0    2.87    2.87
  17  -6   0    0.62    3.50
  17   6   0    4.90    3.74
  17  -6   1    2.09    2.76
  17   6   1    5.56    4.42
  17   6   1   -3.39    5.00
  17  -6   2   16.81    6.24
  17   6   2    9.80    5.19
  17   6   2   20.10    7.70
  17  -6   3   25.55    6.59
  17   6   3   15.93    7.33
  17   6   3   14.32    4.87
  17  -6   4   12.03    5.63
  17   6   4    5.13    3.58
  17   6   4   12.41    5.01
  17  -6   5    9.55    4.71
  17   6   5   15.89    5.71
  17   6   5    8.93    5.37
  17  -6   6   14.50    5.43
  17   6   6    5.57    5.38
  17   6   6   19.23    5.51
  17  -6   7   14.21    6.28
  17   6   7    8.94    4.23
  17   6   7   14.69    7.10
  18   0 -15  898.27   42.48
  18   0 -14    3.55    4.92
  18   0 -13   98.65   13.85
  18   0 -12  134.23   16.16
  18   0 -11  683.28   35.95
  18   0 -10  107.11   14.51
  18   0  -9  124.71   15.44
  18   0  -8   27.91    8.47
  18   0  -8   45.07    9.94
  18   0  -7   36.37    7.77
  18   0  -7   39.73    8.92
  18   0  -6   12.08    4.15
  18   0  -6    8.81    5.46
  18   0  -5  202.17   19.24
  18   0  -5  192.59   19.42
  18   0  -4  291.59   23.57
  18   0  -4  332.15   25.31
  18   0  -3  181.65   18.37
  18   0  -3  226.61   20.68
  18   0  -2   85.36   12.42
  18   0  -2   81.71   12.45
  18   0  -1   80.24   12.51
  18   0  -1   62.39    9.71
  18   0   0  116.27   14.86
  18   0   0  120.46   14.78
  18   0   1   94.47   13.16
  18   0   1   64.52   11.46
  18   0   2   69.92   11.07
  18   0   2   65.11   10.77
  18   0   3  218.30   20.79
  18   0   3  209.55   20.03
  18   0   4  319.15   24.60
  18   0   4  325.80   24.83
  18   0   5  213.42   20.06
  18   0   5  211.99   20.03
  18   0   6    5.54    3.27
  18   0   6    3.68    2.24
  18   0   7   50.89   10.87
  18   0   7   31.58    7.78
  18   0   8   69.50   13.64
  18   0   8   42.55    9.93
  18   0   9  129.32   15.35
  18   0  10  141.54   16.33
  18   0  11  538.50   32.71
  18   0  12  104.21   14.09
  18   0  13   97.11   14.69
  18   0  14   12.31    7.17
  18  -1 -15   89.21   13.28
  18   1 -15   51.12   10.34
  18   1 -14    1.23    3.31
  18  -1 -14   -0.41    3.02
  18   1 -13   15.12    4.86
  18  -1 -13    6.42    4.39
  18   1 -12    1.15    3.33
  18  -1 -12   -3.08    4.74
  18   1 -11    8.22    4.27
  18  -1 -11   12.85    5.70
  18   1 -10   76.84   12.25
  18  -1 -10   66.31   11.04
  18   1 -10   74.14   12.06
  18   1  -9    9.78    3.63
  18   1  -9   19.36    6.18
  18  -1  -9    7.67    5.23
  18   1  -8    1.59    2.15
  18   1  -8    6.21    3.01
  18  -1  -8    0.59    2.52
  18   1  -7   10.57    4.60
  18   1  -7    0.14    2.58
  18  -1  -7    5.92    3.46
  18  -1  -7    7.03    4.73
  18  -1  -6   74.01   12.09
  18   1  -6   51.88   10.08
  18   1  -6   69.19   11.41
  18  -1  -6   70.88   11.94
  18  -1  -6   70.22   11.36
  18   1  -5   -3.82    4.09
  18   1  -5    0.02    2.72
  18  -1  -5    4.82    2.59
  18  -1  -5    5.40    5.60
  18  -1  -5   -1.74    2.69
  18   1  -4   -2.41    3.27
  18   1  -4   -1.70    2.70
  18  -1  -4   -1.18    2.56
  18  -1  -4    0.18    1.99
  18  -1  -4    1.28    3.57
  18   1  -3   -0.31    2.71
  18   1  -3   -1.75    3.45
  18  -1  -3    1.43    2.67
  18  -1  -3   -0.47    4.34
  18  -1  -3    1.51    3.42
  18   1  -2    0.03    2.98
  18  -1  -2    1.92    2.77
  18   1  -2    4.39    3.95
  18  -1  -2    1.47    3.72
  18  -1  -2    1.17    2.47
  18   1  -1    4.54    2.55
  18  -1  -1    3.38    2.91
  18   1  -1    7.70    2.51
  18  -1  -1    7.82    3.76
  18   1   0    0.53    2.76
  18  -1   0    7.49    5.53
  18   1   0    6.93    3.47
  18  -1   0    3.48    4.07
  18  -1   0   13.47    4.49
  18   1   1    8.30    4.95
  18  -1   1    6.70    4.14
  18   1   1    9.64    5.23
  18  -1   1    1.82    2.77
  18  -1   1   12.53    4.68
  18   1   2   -2.36    4.42
  18  -1   2   -0.21    3.81
  18   1   2    3.28    3.29
  18  -1   2   -6.78    4.69
  18   1   3   -0.22    2.49
  18  -1   3    4.94    3.97
  18   1   3    7.29    4.71
  18  -1   3   -3.07    1.94
  18   1   4   -2.17    4.24
  18  -1   4   -2.55    2.65
  18   1   4   -0.89    3.97
  18  -1   4    3.08    3.08
  18   1   5    1.55    1.93
  18  -1   5   -0.73    3.76
  18   1   5    0.54    4.51
  18  -1   5    0.29    4.51
  18  -1   6   66.60   11.84
  18   1   6   50.37    9.95
  18   1   6   59.09   10.84
  18  -1   6   53.60   11.37
  18   1   7   21.33    7.04
  18   1   7   10.05    4.87
  18  -1   7   16.34    7.37
  18   1   8    3.02    3.32
  18   1   8   10.79    6.11
  18  -1   8    7.97    2.61
  18   1   9   10.78    6.14
  18   1   9   10.70    5.14
  18  -1   9   16.30    5.87
  18   1  10   77.67   12.47
  18  -1  10   47.69   10.18
  18   1  11   12.14    5.83
  18   1  12    6.14    4.92
  18   1  13   14.51    7.81
  18   1  14   -1.08    3.21
  18   1  15   68.50   12.48
  18  -2 -14   26.86    8.49
  18   2 -14   23.39    7.24
  18  -2 -13   37.21    9.01
  18   2 -13   26.64    6.99
  18   2 -13   31.33    6.89
  18  -2 -12    0.82    2.73
  18   2 -12    7.09    3.85
  18   2 -12    5.61    2.77
  18   2 -11   54.30   10.50
  18   2 -11   41.39    8.15
  18   2 -10  117.03   15.35
  18  -2 -10  130.87   15.56
  18   2 -10  128.59   15.81
  18  -2  -9   -3.68    4.33
  18   2  -9    5.47    3.91
  18   2  -9   -1.44    3.93
  18  -2  -9    1.14    3.42
  18  -2  -8    6.27    5.01
  18   2  -8    3.60    2.73
  18   2  -8    5.40    3.96
  18  -2  -8    6.83    4.91
  18  -2  -7    7.21    4.30
  18   2  -7   -1.61    2.30
  18   2  -7    7.57    3.11
  18  -2  -7    3.88    4.62
  18   2  -6   77.64   12.46
  18  -2  -6   75.92   12.36
  18   2  -6   77.88   12.28
  18  -2  -6   65.19   11.18
  18  -2  -6   75.07   11.39
  18   2  -5  119.41   14.93
  18  -2  -5  103.25   13.78
  18   2  -5  117.58   15.27
  18  -2  -5   91.90   14.01
  18  -2  -5  115.65   14.23
  18   2  -4  108.35   14.42
  18  -2  -4   89.96   12.89
  18   2  -4  105.70   14.73
  18  -2  -4  109.16   14.47
  18  -2  -4   99.01   13.56
  18   2  -3    6.36    3.44
  18   2  -3   11.83    5.51
  18  -2  -3   15.51    5.46
  18  -2  -3   12.08    5.03
  18  -2  -3   11.97    4.45
  18   2  -2   52.43   10.64
  18   2  -2   48.08    9.63
  18  -2  -2   49.90   10.07
  18  -2  -2   57.70   10.33
  18  -2  -2   30.41    8.58
  18   2  -1  146.00   16.80
  18  -2  -1  132.95   15.29
  18   2  -1  136.86   16.47
  18  -2  -1  108.96   14.21
  18  -2  -1  142.55   15.43
  18   2   0  158.81   17.33
  18  -2   0  141.79   16.08
  18   2   0  199.17   19.71
  18  -2   0  176.36   18.18
  18  -2   0  164.69   16.92
  18   2   1  118.56   15.39
  18  -2   1  119.79   14.71
  18   2   1  142.82   16.16
  18  -2   1  119.53   14.71
  18  -2   1  127.23   15.18
  18   2   2   66.48   11.51
  18   2   2   47.97    9.45
  18  -2   2   51.84    9.99
  18  -2   2   57.83   10.10
  18  -2   2   49.41    8.94
  18   2   3   15.45    5.90
  18   2   3   11.26    4.38
  18  -2   3   15.46    6.89
  18  -2   3   19.12    6.69
  18  -2   3   20.29    6.82
  18   2   4  114.79   15.06
  18  -2   4  101.17   13.74
  18   2   4   84.05   13.47
  18  -2   4  104.76   14.65
  18  -2   4  100.10   13.07
  18   2   5  109.51   14.93
  18  -2   5  108.54   14.58
  18   2   5   92.98   13.07
  18  -2   5  139.15   14.93
  18   2   6   88.65   12.83
  18   2   6   73.30   12.37
  18  -2   6   90.13   12.70
  18   2   7    6.40    2.41
  18   2   7    6.18    3.50
  18  -2   7    0.64    2.66
  18   2   8    3.75    4.49
  18   2   8    2.40    4.81
  18  -2   8    8.34    4.82
  18   2   9   -1.78    3.67
  18   2   9   -1.40    4.39
  18  -2   9    5.34    3.89
  18   2  10   89.64   13.54
  18   2  10   84.72   12.97
  18   2  11   69.24   11.92
  18   2  12   12.21    6.08
  18   2  13   15.20    4.70
  18   2  14   10.83    4.21
  18   3 -13   59.59   11.17
  18  -3 -13   56.33   10.78
  18  -3 -12   50.37    9.87
  18   3 -12   60.36   11.47
  18   3 -12   43.11    9.37
  18  -3 -11    0.30    3.67
  18   3 -11   -1.68    2.76
  18  -3 -10   12.52    6.42
  18   3 -10   12.91    5.47
  18   3 -10    8.75    5.54
  18  -3  -9    5.65    3.63
  18   3  -9    8.38    4.46
  18   3  -9    9.11    4.28
  18  -3  -9    7.98    5.21
  18  -3  -8   -1.91    2.30
  18   3  -8   -3.18    2.67
  18   3  -8   -1.30    2.57
  18  -3  -8    2.81    2.97
  18  -3  -7   18.86    5.99
  18   3  -7    8.41    4.04
  18   3  -7   19.28    7.08
  18  -3  -7   17.43    6.38
  18   3  -6  124.96   15.75
  18  -3  -6   89.50   12.97
  18   3  -6  114.88   15.80
  18  -3  -6  113.97   15.02
  18  -3  -5    3.05    3.06
  18   3  -5    6.28    4.08
  18   3  -5   10.38    5.80
  18  -3  -5    2.24    3.76
  18  -3  -5    6.45    5.41
  18  -3  -4   33.48    8.71
  18   3  -4   32.21    8.16
  18   3  -4   43.21    9.41
  18  -3  -4   31.29    9.19
  18  -3  -4   35.12    8.67
  18  -3  -3    1.69    3.79
  18   3  -3    2.06    2.25
  18   3  -3    1.78    3.41
  18  -3  -3    4.83    3.99
  18  -3  -3    7.00    4.60
  18  -3  -2    3.62    5.45
  18   3  -2    9.32    4.62
  18   3  -2   -0.41    1.91
  18  -3  -2    3.54    5.21
  18  -3  -2    8.61    4.62
  18   3  -1    0.40    1.88
  18   3  -1    3.09    4.17
  18  -3  -1    2.50    3.40
  18  -3  -1    4.81    4.36
  18   3   0   14.10    3.52
  18   3   0   18.26    6.59
  18  -3   0    8.50    3.59
  18  -3   0   21.91    6.35
  18   3   1    1.75    3.69
  18   3   1    1.73    2.54
  18  -3   1   -0.49    2.54
  18  -3   1    1.35    2.37
  18   3   2    0.62    2.37
  18   3   2    3.59    2.29
  18  -3   2    3.54    3.10
  18  -3   2    1.77    1.92
  18   3   3   -0.92    3.65
  18   3   3    0.51    1.98
  18  -3   3    0.56    3.28
  18  -3   3   -4.46    3.93
  18   3   4   26.71    7.42
  18   3   4   49.97    9.64
  18  -3   4   34.11    9.23
  18  -3   4   23.37    6.85
  18   3   5    7.20    3.66
  18   3   5    5.20    3.76
  18  -3   5    3.70    2.00
  18   3   6  147.00   17.32
  18  -3   6  138.54   15.28
  18   3   7   11.37    4.82
  18   3   7   10.21    4.64
  18  -3   7   14.30    5.45
  18   3   8    0.20    2.90
  18   3   8    0.60    4.04
  18  -3   8    5.96    4.35
  18   3   9   12.19    6.54
  18   3   9   10.46    5.48
  18  -3   9    6.38    5.04
  18   3  10    3.90    2.50
  18   3  10    8.27    2.28
  18   3  11    3.65    4.38
  18   3  11   -2.90    3.74
  18  -3  11    0.25    3.07
  18   3  12   55.02   11.14
  18  -3  12   40.46    8.28
  18   3  13   57.57   10.73
  18  -3  13   58.76    9.98
  18   4 -10  106.51   14.64
  18   4 -10  122.13   16.65
  18  -4 -10  129.45   15.71
  18  -4 -10  100.23   14.53
  18  -4  -9   10.55    4.10
  18  -4  -9   11.42    4.99
  18   4  -9   19.35    7.38
  18   4  -9   19.45    6.07
  18  -4  -8    1.73    4.70
  18  -4  -8    3.61    4.88
  18   4  -8   11.66    6.04
  18   4  -8    3.97    2.16
  18   4  -7   82.35   13.01
  18   4  -7  103.84   14.66
  18  -4  -7   99.23   13.10
  18  -4  -7   78.19   12.60
  18   4  -6  243.87   21.78
  18   4  -6  241.43   22.03
  18  -4  -6  221.24   20.54
  18  -4  -6  212.03   19.66
  18   4  -5  140.97   16.41
  18   4  -5  117.60   15.47
  18  -4  -5  119.66   14.72
  18  -4  -5   96.64   13.49
  18  -4  -4    8.27    4.64
  18  -4  -4    4.32    3.98
  18   4  -4    8.73    4.84
  18   4  -4   -0.38    4.07
  18  -4  -3    1.39    4.47
  18  -4  -3    0.74    3.33
  18   4  -3    9.98    5.65
  18   4  -3    3.10    5.31
  18  -4  -2   11.09    4.99
  18  -4  -2   12.94    5.55
  18   4  -2   16.54    6.80
  18   4  -2   15.67    6.02
  18   4  -1  154.92   17.60
  18  -4  -1  109.96   14.22
  18   4  -1  131.73   15.91
  18  -4  -1  130.09   15.10
  18   4   0  166.63   18.09
  18  -4   0  170.67   17.90
  18   4   0  156.34   17.76
  18  -4   0  186.02   18.07
  18   4   1  132.27   16.45
  18  -4   1  130.44   15.64
  18   4   1  120.98   15.27
  18  -4   1  109.59   13.94
  18  -4   2    8.28    3.67
  18   4   2   -2.40    3.94
  18   4   2    7.90    5.76
  18  -4   2    8.43    4.68
  18  -4   3   -3.06    2.95
  18   4   3   -1.21    2.33
  18   4   3    3.81    4.55
  18   4   4   12.16    5.17
  18   4   4    2.91    2.25
  18  -4   4    9.38    5.64
  18   4   5  107.90   14.70
  18   4   5   95.84   14.19
  18  -4   5  118.01   14.19
  18   4   6  198.43   20.00
  18   4   6  263.40   22.53
  18  -4   6  249.23   20.90
  18   4   7   76.77   12.73
  18   4   7  108.92   14.50
  18  -4   7   89.64   12.08
  18   4   8    2.22    2.09
  18   4   8   11.36    5.57
  18  -4   8    7.21    5.17
  18   4   9    0.73    3.49
  18  -4   9    5.57    2.00
  18   4  10   92.35   14.73
  18   4  10  102.86   14.31
  18  -4  10  126.12   15.07
  18  -5  -7    3.50    2.91
  18  -5  -7    1.62    2.28
  18   5  -7   -1.60    3.56
  18   5  -7   -2.49    4.69
  18  -5  -6   10.28    5.56
  18  -5  -6   12.03    6.05
  18   5  -6   11.31    5.52
  18   5  -6    7.32    5.49
  18  -5  -5    1.61    3.42
  18  -5  -5    2.43    3.86
  18   5  -5    1.46    2.84
  18   5  -5   -1.79    3.23
  18  -5  -4   11.69    6.19
  18   5  -4    1.04    3.93
  18   5  -4    4.57    4.51
  18  -5  -3   -1.36    4.03
  18  -5  -3    1.19    2.50
  18   5  -3    2.53    4.62
  18   5  -3   -1.30    3.09
  18  -5  -2    0.08    3.54
  18  -5  -2    2.61    3.75
  18   5  -2    6.21    3.50
  18   5  -2    4.61    4.11
  18  -5  -1    2.52    3.43
  18  -5  -1    8.24    2.39
  18   5  -1    0.84    2.89
  18   5  -1   12.67    6.22
  18  -5   0   -1.30    4.16
  18  -5   0   -1.51    3.29
  18   5   0    1.33    1.84
  18   5   0   -0.46    2.38
  18  -5   1    2.51    2.28
  18  -5   1    1.01    4.01
  18   5   1   12.18    6.43
  18   5   1    4.36    4.29
  18  -5   2   11.06    5.67
  18   5   2    7.71    3.67
  18   5   2    7.89    4.17
  18  -5   3    5.22    5.51
  18   5   3   12.93    5.00
  18   5   3    1.69    3.23
  18  -5   4   28.62    8.18
  18   5   4   12.70    5.09
  18   5   4   19.87    7.81
  18  -5   5    2.30    4.20
  18   5   5    0.65    1.90
  18   5   5   -1.01    2.93
  18  -5   6   14.27    5.91
  18   5   6    6.72    4.37
  18   5   6   10.86    5.65
  18  -5   7    4.25    3.90
  18   5   7   -0.46    2.44
  18   5   7    2.70    4.25
  19   0 -12    0.82    4.40
  19   0 -11   -0.93    3.37
  19   0 -10    1.17    5.20
  19   0 -10   -2.50    4.59
  19   0  -9   -1.16    4.20
  19   0  -9    2.92    4.50
  19   0  -8    5.68    4.18
  19   0  -8    2.30    3.49
  19   0  -7    0.59    3.37
  19   0  -7   -3.81    4.96
  19   0  -6   -0.17    2.57
  19   0  -6   -0.90    2.00
  19   0  -5   -1.05    3.12
  19   0  -5    1.94    2.54
  19   0  -4   -0.27    2.96
  19   0  -4   -1.43    3.05
  19   0  -3   -3.04    4.66
  19   0  -3    0.63    2.09
  19   0  -2   -2.87    4.31
  19   0  -2    3.75    5.31
  19   0  -1    0.67    2.58
  19   0  -1   -0.96    2.89
  19   0   0    0.10    3.14
  19   0   0   -1.45    3.61
  19   0   1    3.46    5.18
  19   0   1    3.02    4.83
  19   0   2    5.45    4.68
  19   0   2   -1.49    3.67
  19   0   3    6.36    5.17
  19   0   3   -1.57    2.48
  19   0   4   -2.53    3.09
  19   0   4    0.44    3.30
  19   0   5   -0.62    2.13
  19   0   5   -1.81    4.14
  19   0   6   -5.39    5.38
  19   0   6   -3.30    4.60
  19   0   7    1.03    2.96
  19   0   7    2.52    4.61
  19   0   8    6.74    5.88
  19   0   9    3.41    2.97
  19   0  10   -1.97    3.64
  19   0  11    3.22    4.31
  19   0  12    3.90    4.57
  19   1 -11   63.08   11.83
  19  -1 -11   89.04   13.01
  19   1 -11   73.01   12.05
  19   1 -10  169.50   18.27
  19  -1 -10  179.15   18.58
  19   1 -10  185.96   19.09
  19   1  -9   46.96   10.04
  19   1  -9   36.78    8.98
  19  -1  -9   47.53    9.36
  19  -1  -9   41.91    9.32
  19   1  -8   12.80    4.74
  19   1  -8   16.29    6.44
  19  -1  -8   19.74    6.43
  19  -1  -8   28.17    7.08
  19  -1  -7   64.33   11.20
  19   1  -7   40.25    9.36
  19   1  -7   30.35    7.39
  19  -1  -7   48.85   10.56
  19   1  -6  106.02   14.32
  19  -1  -6  104.55   14.57
  19   1  -6  105.47   14.62
  19  -1  -6  103.10   14.13
  19   1  -5  104.39   14.41
  19  -1  -5   86.17   12.75
  19   1  -5   86.31   13.25
  19  -1  -5   87.21   13.83
  19   1  -4   48.95    9.38
  19  -1  -4   33.60    8.26
  19   1  -4   45.22   10.02
  19  -1  -4   49.24   10.21
  19   1  -3   24.01    6.75
  19  -1  -3   22.45    6.72
  19   1  -3   29.88    7.23
  19  -1  -3   37.96    9.17
  19   1  -2   84.40   12.38
  19  -1  -2   70.09   11.62
  19   1  -2   73.49   12.51
  19  -1  -2   73.26   11.54
  19   1  -1  144.02   16.01
  19  -1  -1  110.10   14.94
  19   1  -1  121.42   15.14
  19  -1  -1   94.17   14.08
  19   1   0   50.53   10.09
  19  -1   0   39.63    8.86
  19   1   0   64.49   10.74
  19  -1   0   33.48    8.93
  19   1   1  123.37   15.92
  19  -1   1  115.90   15.36
  19   1   1  124.67   15.87
  19  -1   1  124.40   15.75
  19   1   2   78.46   12.71
  19  -1   2   85.08   13.20
  19   1   2   77.24   12.56
  19  -1   2   84.42   12.72
  19   1   3   27.97    7.64
  19  -1   3   25.28    8.91
  19   1   3   21.01    6.62
  19  -1   3   25.26    7.40
  19   1   4   45.17    9.76
  19  -1   4   34.86    8.26
  19   1   4   31.02    7.91
  19  -1   4   40.45    9.50
  19   1   5  103.51   14.70
  19  -1   5   90.22   12.93
  19   1   5  103.50   13.98
  19  -1   5   92.34   14.32
  19   1   6  108.73   14.74
  19  -1   6  105.22   16.14
  19   1   6   95.62   14.38
  19  -1   6   97.96   14.54
  19   1   7   35.51    9.37
  19   1   7   35.90    9.39
  19  -1   7   26.31    7.62
  19   1   8    6.46    4.03
  19   1   8   15.94    4.57
  19  -1   8   17.23    8.37
  19   1   9   29.06    8.40
  19   1  10  178.44   18.67
  19   1  11   52.78   11.15
  19   2 -10    6.17    3.06
  19   2 -10   11.35    5.33
  19  -2 -10    5.85    5.20
  19   2  -9    4.39    5.25
  19   2  -9    3.18    5.35
  19  -2  -9    8.08    4.79
  19   2  -8   -1.77    4.21
  19   2  -8    7.74    4.60
  19  -2  -8    2.46    3.99
  19  -2  -8   -0.99    3.95
  19  -2  -8   12.14    5.59
  19   2  -7   28.77    8.91
  19   2  -7   15.06    6.39
  19  -2  -7   20.26    6.92
  19  -2  -7   17.77    5.92
  19  -2  -7   19.91    6.17
  19   2  -6   38.25    8.96
  19   2  -6   51.78    9.95
  19  -2  -6   53.62   12.18
  19  -2  -6   51.55   10.17
  19  -2  -6   52.09    9.26
  19   2  -5   52.45   10.31
  19   2  -5   63.22   11.47
  19  -2  -5   45.03    9.72
  19  -2  -5   33.98    9.20
  19  -2  -5   56.72   10.32
  19   2  -4   36.42    8.47
  19   2  -4   23.33    6.19
  19  -2  -4   33.86    7.92
  19  -2  -4   39.43    9.35
  19  -2  -4   41.66    9.09
  19   2  -3   19.41    7.63
  19   2  -3   17.78    6.37
  19  -2  -3   25.45    7.73
  19  -2  -3    9.96    4.38
  19  -2  -3   10.45    5.78
  19   2  -2   10.32    5.19
  19  -2  -2    2.81    2.31
  19  -2  -2    5.09    4.21
  19  -2  -2    2.80    2.84
  19   2  -1    4.09    3.64
  19   2  -1   12.14    5.85
  19  -2  -1    8.02    6.19
  19  -2  -1   15.87    4.62
  19  -2  -1    5.50    4.01
  19   2   0   12.16    5.07
  19   2   0   15.04    6.23
  19  -2   0   13.68    6.76
  19  -2   0    0.94    3.53
  19  -2   0    0.72    3.06
  19   2   1   21.23    7.26
  19  -2   1    9.13    2.74
  19   2   1    9.00    6.45
  19  -2   1   12.27    5.12
  19  -2   1    8.56    3.69
  19   2   2    2.90    4.78
  19  -2   2    4.64    2.86
  19   2   2    4.44    2.90
  19  -2   2   13.16    6.24
  19  -2   2    6.77    3.80
  19   2   3   19.61    5.93
  19  -2   3   24.88    6.36
  19   2   3   15.62    6.94
  19  -2   3   28.85    6.92
  19   2   4   41.33    9.61
  19  -2   4   36.51    9.37
  19   2   4   22.12    8.30
  19  -2   4   41.48    9.02
  19   2   5   59.73    9.71
  19   2   5   32.46    8.19
  19  -2   5   47.08    9.33
  19   2   6   46.71   10.76
  19   2   6   51.33    9.82
  19  -2   6   45.44    9.11
  19   2   7   10.43    5.06
  19   2   7   19.08    6.11
  19  -2   7    7.32    3.42
  19   2   8    6.72    5.12
  19   2   8    7.63    4.27
  19   2   9    1.47    4.77
  19   2   9    5.50    6.46
  19   2  10    4.21    4.68
  19  -3  -9   30.78    8.42
  19   3  -9   36.31    9.06
  19   3  -9   27.33    7.69
  19  -3  -9   28.17    6.95
  19   3  -8   59.42   11.37
  19  -3  -8   68.55   11.72
  19   3  -8   36.62    8.99
  19  -3  -8   38.92    9.26
  19  -3  -7   12.34    6.19
  19   3  -7   17.51    4.00
  19   3  -7   15.32    6.33
  19  -3  -7   22.17    6.40
  19  -3  -7   12.79    5.45
  19  -3  -6   12.88    4.76
  19   3  -6    4.33    4.19
  19   3  -6   14.98    6.87
  19  -3  -6   13.52    4.85
  19  -3  -6   12.28    5.56
  19  -3  -5   32.19    8.45
  19   3  -5   32.92    8.03
  19   3  -5   27.18    7.61
  19  -3  -5   31.74    8.83
  19  -3  -5   42.85    8.43
  19  -3  -4   15.65    5.65
  19   3  -4   24.68    7.08
  19   3  -4   33.03    7.99
  19  -3  -4   15.05    7.04
  19  -3  -4   20.94    6.58
  19   3  -3   26.37    7.62
  19   3  -3   20.52    5.99
  19  -3  -3   16.73    6.62
  19  -3  -3   16.04    6.23
  19   3  -2   21.97    6.79
  19   3  -2   23.68    7.19
  19  -3  -2   25.12    7.65
  19  -3  -2   34.02    8.96
  19   3  -1    9.85    3.85
  19  -3  -1   13.35    5.31
  19  -3  -1   13.53    5.35
  19   3   0    0.18    2.44
  19   3   0    9.10    5.23
  19  -3   0   10.74    5.53
  19  -3   0    6.45    2.88
  19   3   1   20.50    6.97
  19   3   1   10.83    5.53
  19  -3   1   17.06    6.23
  19  -3   1   14.02    5.82
  19   3   2   25.12    7.16
  19   3   2   27.12    7.25
  19  -3   2   34.02    8.37
  19  -3   2   27.30    7.78
  19   3   3    5.10    3.38
  19   3   3   20.45    7.03
  19  -3   3   14.90    5.33
  19  -3   3   14.05    4.89
  19   3   4   14.51    7.18
  19   3   4   20.52    6.73
  19  -3   4   14.18    5.71
  19   3   5   22.31    7.03
  19   3   5   32.51    8.24
  19  -3   5   39.94    8.64
  19   3   6   17.96    6.37
  19   3   6   12.49    6.57
  19  -3   6   11.93    6.14
  19   3   7   20.36    6.46
  19  -3   7   20.39    4.34
  19   3   8   48.05   10.72
  19   3   8   62.85   11.54
  19  -3   8   71.62   11.01
  19   3   9   27.51    8.80
  19   3   9   36.18    9.25
  19  -3   9   17.56    4.21
  19  -4  -5    2.69    3.53
  19   4  -5    4.18    3.89
  19   4  -5   10.03    5.63
  19  -4  -5    1.81    4.35
  19  -4  -4   20.93    7.16
  19   4  -4   20.53    6.52
  19   4  -4   19.08    6.91
  19  -4  -4   33.92    8.54
  19  -4  -3   16.66    7.10
  19   4  -3    5.34    5.12
  19   4  -3   15.19    7.27
  19  -4  -3   11.41    5.38
  19  -4  -2   20.75    7.48
  19   4  -2   27.42    7.17
  19   4  -2   11.50    3.64
  19  -4  -2   10.97    4.27
  19  -4  -1    6.92    4.21
  19   4  -1    9.61    4.40
  19   4  -1   -0.30    2.88
  19  -4  -1   13.71    6.69
  19   4   0   17.63    6.40
  19   4   0   10.06    4.73
  19  -4   0   15.79    6.93
  19  -4   0    3.64    3.54
  19   4   1    8.56    6.20
  19   4   1    7.32    3.92
  19  -4   1    5.26    3.01
  19  -4   1    1.92    3.49
  19   4   2   20.02    5.81
  19   4   2   20.50    6.50
  19  -4   2   10.61    3.44
  19   4   3    7.46    5.39
  19   4   3    1.77    2.85
  19  -4   3    2.04    3.25
  19   4   4   23.76    6.75
  19   4   4   24.22    7.52
  19  -4   4   27.44    6.96
  19   4   5    5.31    5.92
  19   4   5    1.93    3.21
  19  -4   5   -2.28    3.07
  20   0  -7   31.59    8.80
  20   0  -7   28.59    8.20
  20   0  -6    8.21    3.25
  20   0  -6    3.50    3.58
  20   0  -5  213.58   21.05
  20   0  -5  233.34   22.05
  20   0  -4  389.03   27.86
  20   0  -4  413.94   29.67
  20   0  -3   15.78    4.34
  20   0  -3   35.65    8.93
  20   0  -2  567.14   34.04
  20   0  -2  562.53   34.37
  20   0  -1   91.84   14.08
  20   0  -1  114.72   15.08
  20   0   0   -0.97    3.50
  20   0   0    5.85    2.91
  20   0   1   88.34   12.97
  20   0   1   94.76   13.69
  20   0   2  484.03   31.95
  20   0   2  496.52   32.35
  20   0   3   34.08    9.22
  20   0   3   16.10    5.89
  20   0   4  461.11   30.98
  20   0   4  390.79   29.29
  20   0   5  204.19   21.79
  20   0   5  224.77   22.01
  20   0   6   14.72    6.64
  20   0   6    1.53    4.85
  20   0   7   27.38    9.89
  20   1  -7    1.74    5.31
  20  -1  -7    3.40    2.61
  20   1  -7    7.22    5.14
  20  -1  -7    3.75    2.34
  20   1  -6    1.44    1.79
  20  -1  -6   -0.60    2.51
  20   1  -6    0.18    3.98
  20  -1  -6    8.08    5.44
  20   1  -5    6.32    2.38
  20  -1  -5   10.44    5.96
  20   1  -5   15.97    7.17
  20  -1  -5   12.17    6.17
  20   1  -4    1.90    4.26
  20  -1  -4    0.10    3.46
  20   1  -4   -0.93    1.89
  20  -1  -4   -1.04    3.17
  20   1  -3   75.10   12.22
  20   1  -3   62.39   12.02
  20  -1  -3   58.67   10.67
  20  -1  -3   38.17    8.96
  20   1  -2   11.93    6.27
  20  -1  -2   22.36    7.31
  20   1  -2    9.09    5.37
  20  -1  -2   13.70    5.97
  20   1  -1    7.16    4.42
  20  -1  -1    6.88    6.34
  20   1  -1    5.27    3.82
  20  -1  -1    8.84    4.49
  20   1   0   -0.65    4.26
  20  -1   0    4.85    3.23
  20   1   0    6.81    5.31
  20  -1   0    6.05    5.13
  20   1   1    9.88    5.09
  20  -1   1   18.90    6.82
  20   1   1    3.39    2.40
  20  -1   1   11.62    7.58
  20   1   2   12.50    6.57
  20  -1   2   13.62    5.48
  20   1   2    7.34    4.18
  20  -1   2    8.97    5.79
  20   1   3   43.51    9.55
  20  -1   3   50.93   10.66
  20   1   3   35.71    9.63
  20  -1   3   59.07   11.53
  20   1   4   -2.22    4.99
  20  -1   4   -1.85    3.09
  20   1   4   -2.82    2.78
  20  -1   4   -1.57    5.19
  20   1   5    0.24    2.81
  20  -1   5   17.52    6.70
  20   1   5    9.30    5.26
  20  -1   5    9.37    7.15
  20   1   6    2.04    3.32
  20   1   6    1.77    5.20
  20  -1   6    9.79    7.48
  20   1   7    5.17    3.51
  20   1   7    4.27    6.54
  20  -1   7   -6.54    3.76
  20   2  -5   10.35    5.49
  20   2  -5    8.11    4.53
  20  -2  -5   16.21    6.59
  20  -2  -5   18.34    6.01
  20  -2  -5    8.58    5.78
  20   2  -4   36.49    9.09
  20   2  -4   58.01   11.10
  20  -2  -4   71.30   13.01
  20  -2  -4   48.05   10.81
  20  -2  -4   31.51    7.34
  20   2  -3   25.20    7.32
  20   2  -3   18.82    6.66
  20  -2  -3   33.59    7.74
  20  -2  -3   25.17    7.01
  20  -2  -3   21.36    6.88
  20   2  -2  205.57   20.49
  20  -2  -2  189.04   19.54
  20   2  -2  198.94   20.11
  20  -2  -2  197.31   20.50
  20  -2  -2  170.85   17.67
  20   2  -1   18.42    6.50
  20  -2  -1    8.73    2.73
  20   2  -1   25.83    7.79
  20  -2  -1   12.99    7.02
  20  -2  -1   30.83    6.35
  20   2   0    3.03    4.14
  20  -2   0    1.70    4.91
  20   2   0   -0.68    2.33
  20  -2   0   -3.72    6.67
  20  -2   0   -1.20    2.77
  20   2   1   28.78    8.16
  20  -2   1   12.92    7.13
  20   2   1   20.81    6.72
  20  -2   1   14.47    5.84
  20   2   2  208.35   21.07
  20  -2   2  181.33   20.13
  20   2   2  203.73   21.03
  20  -2   2  203.57   18.95
  20   2   3   27.80    6.99
  20  -2   3   35.19    8.72
  20   2   3   44.51    9.21
  20  -2   3   40.36    8.48
  20   2   4   51.75   10.32
  20  -2   4   58.22   12.78
  20   2   4   36.56    7.13
  20  -2   4   45.63    9.86
  20   2   5    5.41    2.97
  20   2   5    7.27    4.00
   0   0   0    0.00    0.00
TITL 016_160K_SulfamerazineF1_ in Pna2(1)
REM Pna2(1) (#33, found as Pbn2(1) in ba-c setting)
CELL 0.68890  14.459688   8.180176  21.781166  90.0000  90.0000  90.0000
ZERR    8.00   0.000104   0.000070   0.000229   0.0000   0.0000   0.0000
LATT -1
SYMM -x,-y, z+1/2
SYMM  x+1/2,-y+1/2, z
SYMM -x+1/2, y+1/2, z+1/2
SFAC C H N O S
UNIT 88.00 96.00 32.00 16.00 8.00
TREF
HKLF 4
END
_computing_structure_solution     'SHELXT 2014/5 (Sheldrick, 2014)'
;
_shelx_hkl_checksum              17744
loop_
_space_group_symop_operation_xyz
'x, y, z'
'-x, -y, z+1/2'
'x+1/2, -y+1/2, z'
'-x+1/2, y+1/2, z+1/2'
loop_
_atom_site_label
_atom_site_type_symbol
_atom_site_fract_x
_atom_site_fract_y
_atom_site_fract_z
_atom_site_U_iso_or_equiv
_atom_site_adp_type
_atom_site_occupancy
_atom_site_site_symmetry_order
_atom_site_calc_flag
_atom_site_refinement_flags_posn
_atom_site_refinement_flags_adp
_atom_site_refinement_flags_occupancy
_atom_site_disorder_assembly
_atom_site_disorder_group
S1 S 0.35626(5) 0.50563(8) 0.65646(4) 0.02039(15) Uani 1 1 d . . . . .
S2 S 0.42185(5) 0.50165(8) 0.34663(4) 0.01989(16) Uani 1 1 d . . . . .
O1 O 0.31302(15) 0.6305(3) 0.69257(12) 0.0273(5) Uani 1 1 d . . . . .
O2 O 0.45386(14) 0.4783(3) 0.66303(12) 0.0263(5) Uani 1 1 d . . . . .
O3 O 0.32415(14) 0.5292(3) 0.34023(12) 0.0258(5) Uani 1 1 d . . . . .
O4 O 0.46424(15) 0.3752(2) 0.31110(11) 0.0263(5) Uani 1 1 d . . . . .
N1 N 0.1591(2) -0.1176(3) 0.68773(16) 0.0316(6) Uani 1 1 d . . . . .
N2 N 0.34700(18) 0.5535(3) 0.58276(13) 0.0232(5) Uani 1 1 d . . . . .
N3 N 0.18703(17) 0.5921(3) 0.58360(13) 0.0241(5) Uani 1 1 d . . . . .
N4 N 0.2725(2) 0.5682(4) 0.49029(14) 0.0352(7) Uani 1 1 d . . . . .
N5 N 0.6202(2) 1.1204(3) 0.30554(17) 0.0386(8) Uani 1 1 d . . . . .
H5A H 0.5932 1.2120 0.3129 0.050 Uiso 1 1 calc R U . . .
H5B H 0.6764 1.1191 0.2926 0.050 Uiso 1 1 calc R U . . .
N6 N 0.43159(18) 0.4580(3) 0.42015(14) 0.0252(6) Uani 1 1 d . . . . .
N7 N 0.59070(17) 0.4116(3) 0.41927(13) 0.0253(6) Uani 1 1 d . . . . .
N8 N 0.5054(2) 0.4348(4) 0.51275(14) 0.0348(7) Uani 1 1 d . . . . .
C1 C 0.29725(19) 0.3226(3) 0.66638(16) 0.0198(6) Uani 1 1 d . . . . .
C2 C 0.20737(18) 0.3212(3) 0.69006(15) 0.0207(6) Uani 1 1 d . . . . .
H2 H 0.1786 0.4186 0.7010 0.027 Uiso 1 1 calc R U . . .
C3 C 0.16180(19) 0.1748(4) 0.69704(16) 0.0209(6) Uani 1 1 d . . . . .
H3 H 0.1018 0.1740 0.7125 0.027 Uiso 1 1 calc R U . . .
C4 C 0.2046(2) 0.0264(3) 0.68117(14) 0.0215(6) Uani 1 1 d . . . . .
C5 C 0.2953(2) 0.0298(3) 0.65734(18) 0.0243(6) Uani 1 1 d . . . . .
H5 H 0.3245 -0.0673 0.6465 0.032 Uiso 1 1 calc R U . . .
C6 C 0.3408(2) 0.1768(3) 0.65013(16) 0.0236(6) Uani 1 1 d . . . . .
H6 H 0.4005 0.1787 0.6344 0.031 Uiso 1 1 calc R U . . .
C7 C 0.2641(2) 0.5719(4) 0.55138(14) 0.0230(6) Uani 1 1 d . . . . .
C8 C 0.1937(3) 0.5911(7) 0.4591(2) 0.0487(11) Uani 1 1 d . . . . .
H8 H 0.1956 0.5911 0.4165 0.063 Uiso 1 1 calc R U . . .
C9 C 0.1100(2) 0.6145(6) 0.48798(19) 0.0453(10) Uani 1 1 d . . . . .
H9 H 0.0562 0.6314 0.4655 0.059 Uiso 1 1 calc R U . . .
C10 C 0.1085(2) 0.6121(4) 0.55105(17) 0.0306(7) Uani 1 1 d . . . . .
C11 C 0.0222(2) 0.6331(5) 0.5875(2) 0.0405(9) Uani 1 1 d . . . . .
H11A H 0.0226 0.7385 0.6069 0.053 Uiso 1 1 calc R U . . .
H11B H 0.0188 0.5493 0.6183 0.053 Uiso 1 1 calc R U . . .
H11C H -0.0304 0.6251 0.5608 0.053 Uiso 1 1 calc R U . . .
C12 C 0.48081(19) 0.6829(3) 0.33421(14) 0.0204(6) Uani 1 1 d . . . . .
C13 C 0.4362(2) 0.8309(3) 0.3448(2) 0.0269(7) Uani 1 1 d . . . . .
H13 H 0.3752 0.8315 0.3583 0.035 Uiso 1 1 calc R U . . .
C14 C 0.4819(2) 0.9766(3) 0.33530(18) 0.0304(8) Uani 1 1 d . . . . .
H14 H 0.4518 1.0750 0.3429 0.040 Uiso 1 1 calc R U . . .
C15 C 0.5738(2) 0.9772(4) 0.31428(16) 0.0251(6) Uani 1 1 d . . . . .
C16 C 0.6183(2) 0.8272(3) 0.30359(15) 0.0226(6) Uani 1 1 d . . . . .
H16 H 0.6793 0.8259 0.2901 0.029 Uiso 1 1 calc R U . . .
C17 C 0.57198(19) 0.6813(4) 0.31298(16) 0.0209(6) Uani 1 1 d . . . . .
H17 H 0.6015 0.5824 0.3052 0.027 Uiso 1 1 calc R U . . .
C18 C 0.5140(2) 0.4335(4) 0.45150(15) 0.0236(6) Uani 1 1 d . . . . .
C19 C 0.5833(3) 0.4044(7) 0.54355(19) 0.0486(11) Uani 1 1 d . . . . .
H19 H 0.5814 0.4018 0.5862 0.063 Uiso 1 1 calc R U . . .
C20 C 0.6663(3) 0.3770(6) 0.5147(2) 0.0489(11) Uani 1 1 d . . . . .
H20 H 0.7194 0.3539 0.5371 0.064 Uiso 1 1 calc R U . . .
C21 C 0.6685(2) 0.3846(4) 0.45133(18) 0.0307(7) Uani 1 1 d . . . . .
C22 C 0.7551(2) 0.3626(5) 0.4146(2) 0.0434(9) Uani 1 1 d . . . . .
H22A H 0.7545 0.2570 0.3953 0.056 Uiso 1 1 calc R U . . .
H22B H 0.8079 0.3706 0.4412 0.056 Uiso 1 1 calc R U . . .
H22C H 0.7586 0.4460 0.3837 0.056 Uiso 1 1 calc R U . . .
H1N1 H 0.110(3) -0.124(5) 0.708(2) 0.040(11) Uiso 1 1 d . . . . .
H2N1 H 0.195(3) -0.208(6) 0.684(2) 0.053(13) Uiso 1 1 d . . . . .
H1N2 H 0.388(3) 0.518(4) 0.561(2) 0.029(10) Uiso 1 1 d . . . . .
H1N6 H 0.384(3) 0.490(5) 0.439(3) 0.053(14) Uiso 1 1 d . . . . .
loop_
_atom_site_aniso_label
_atom_site_aniso_U_11
_atom_site_aniso_U_22
_atom_site_aniso_U_33
_atom_site_aniso_U_23
_atom_site_aniso_U_13
_atom_site_aniso_U_12
S1 0.0189(3) 0.0220(3) 0.0203(4) 0.0019(3) -0.0010(3) -0.0012(2)
S2 0.0186(3) 0.0211(3) 0.0199(4) 0.0023(3) -0.0006(3) -0.0013(2)
O1 0.0309(11) 0.0229(9) 0.0282(13) -0.0035(9) -0.0002(10) 0.0000(8)
O2 0.0194(9) 0.0329(10) 0.0267(13) 0.0038(10) -0.0033(10) -0.0022(8)
O3 0.0179(9) 0.0326(11) 0.0269(13) 0.0052(10) -0.0043(9) -0.0029(8)
O4 0.0298(11) 0.0219(9) 0.0273(12) -0.0025(8) 0.0003(10) -0.0009(8)
N1 0.0279(13) 0.0234(12) 0.0435(18) -0.0060(12) 0.0112(13) -0.0047(10)
N2 0.0174(11) 0.0311(13) 0.0211(14) 0.0047(11) 0.0007(10) 0.0011(9)
N3 0.0192(11) 0.0271(12) 0.0261(15) 0.0015(10) 0.0017(10) 0.0023(9)
N4 0.0239(13) 0.0566(19) 0.0250(16) 0.0035(14) -0.0019(12) 0.0106(12)
N5 0.0319(14) 0.0225(12) 0.061(2) -0.0037(13) 0.0125(15) -0.0059(10)
N6 0.0186(11) 0.0341(13) 0.0227(15) 0.0071(12) 0.0018(10) 0.0012(10)
N7 0.0199(11) 0.0288(12) 0.0271(15) 0.0015(11) 0.0002(10) 0.0031(9)
N8 0.0263(13) 0.0544(18) 0.0238(17) 0.0039(13) -0.0007(12) 0.0093(13)
C1 0.0184(12) 0.0200(11) 0.0209(16) 0.0009(11) 0.0001(11) 0.0006(9)
C2 0.0202(12) 0.0216(12) 0.0202(15) -0.0009(10) 0.0000(11) 0.0028(9)
C3 0.0176(12) 0.0254(13) 0.0198(16) -0.0006(11) 0.0051(11) 0.0004(9)
C4 0.0225(13) 0.0212(12) 0.0207(15) -0.0013(10) 0.0007(11) 0.0001(9)
C5 0.0226(13) 0.0217(12) 0.0286(17) -0.0013(13) 0.0041(14) 0.0012(9)
C6 0.0205(12) 0.0250(13) 0.0252(17) 0.0005(12) 0.0058(12) 0.0015(9)
C7 0.0198(13) 0.0265(13) 0.0226(17) 0.0043(11) -0.0016(12) 0.0025(10)
C8 0.0333(19) 0.087(3) 0.026(2) 0.002(2) -0.0055(16) 0.018(2)
C9 0.0238(16) 0.080(3) 0.033(2) -0.005(2) -0.0097(16) 0.0140(17)
C10 0.0222(14) 0.0332(16) 0.036(2) -0.0018(14) -0.0023(14) 0.0051(12)
C11 0.0234(15) 0.051(2) 0.047(2) -0.0067(18) 0.0034(16) 0.0074(14)
C12 0.0191(11) 0.0208(11) 0.0211(16) 0.0005(11) 0.0000(11) -0.0008(9)
C13 0.0204(13) 0.0225(13) 0.038(2) -0.0001(14) 0.0072(15) 0.0030(9)
C14 0.0285(15) 0.0204(12) 0.042(2) -0.0010(13) 0.0042(15) 0.0030(10)
C15 0.0256(15) 0.0251(13) 0.0244(17) -0.0011(11) 0.0002(13) -0.0017(10)
C16 0.0208(12) 0.0237(12) 0.0234(16) -0.0031(11) 0.0019(11) -0.0012(10)
C17 0.0218(13) 0.0227(12) 0.0182(16) -0.0016(11) 0.0000(12) 0.0005(10)
C18 0.0199(13) 0.0262(13) 0.0247(17) 0.0026(12) -0.0020(12) 0.0010(10)
C19 0.0332(19) 0.089(3) 0.024(2) 0.001(2) -0.0049(16) 0.016(2)
C20 0.0287(17) 0.082(3) 0.036(2) -0.006(2) -0.0104(17) 0.0236(18)
C21 0.0215(14) 0.0360(16) 0.035(2) -0.0039(14) -0.0023(13) 0.0059(12)
C22 0.0219(15) 0.056(2) 0.052(2) -0.005(2) 0.0038(16) 0.0058(15)
loop_
_atom_type_symbol
_atom_type_description
_atom_type_scat_dispersion_real
_atom_type_scat_dispersion_imag
_atom_type_scat_source
C C 0.0033 0.0016 'International Tables Vol C Tables 4.2.6.8 and 6.1.1.4'
H H 0.0000 0.0000 'International Tables Vol C Tables 4.2.6.8 and 6.1.1.4'
N N 0.0061 0.0033 'International Tables Vol C Tables 4.2.6.8 and 6.1.1.4'
O O 0.0106 0.0060 'International Tables Vol C Tables 4.2.6.8 and 6.1.1.4'
S S 0.1246 0.1234 'International Tables Vol C Tables 4.2.6.8 and 6.1.1.4'
loop_
_geom_angle_atom_site_label_1
_geom_angle_atom_site_label_2
_geom_angle_atom_site_label_3
_geom_angle
_geom_angle_site_symmetry_1
_geom_angle_site_symmetry_3
O1 S1 O2 119.01(14) . .
O1 S1 N2 109.14(15) . .
O2 S1 N2 102.28(14) . .
O1 S1 C1 109.38(15) . .
O2 S1 C1 109.65(13) . .
N2 S1 C1 106.53(15) . .
O4 S2 O3 118.83(14) . .
O4 S2 N6 109.43(14) . .
O3 S2 N6 102.26(14) . .
O4 S2 C12 108.90(14) . .
O3 S2 C12 109.55(13) . .
N6 S2 C12 107.18(15) . .
C4 N1 H1N1 121(3) . .
C4 N1 H2N1 115(3) . .
H1N1 N1 H2N1 118(4) . .
C7 N2 S1 124.9(2) . .
C7 N2 H1N2 113(3) . .
S1 N2 H1N2 114(3) . .
C7 N3 C10 116.4(3) . .
C7 N4 C8 115.0(3) . .
C15 N5 H5A 120.0 . .
C15 N5 H5B 120.0 . .
H5A N5 H5B 120.0 . .
C18 N6 S2 125.7(2) . .
C18 N6 H1N6 121(4) . .
S2 N6 H1N6 109(4) . .
C18 N7 C21 116.6(3) . .
C19 N8 C18 114.9(3) . .
C6 C1 C2 120.4(2) . .
C6 C1 S1 119.0(2) . .
C2 C1 S1 120.6(2) . .
C3 C2 C1 119.6(2) . .
C3 C2 H2 120.2 . .
C1 C2 H2 120.2 . .
C2 C3 C4 120.9(2) . .
C2 C3 H3 119.5 . .
C4 C3 H3 119.5 . .
N1 C4 C3 120.7(3) . .
N1 C4 C5 120.4(3) . .
C3 C4 C5 118.9(2) . .
C6 C5 C4 120.1(3) . .
C6 C5 H5 119.9 . .
C4 C5 H5 119.9 . .
C5 C6 C1 120.1(3) . .
C5 C6 H6 119.9 . .
C1 C6 H6 119.9 . .
N3 C7 N4 127.3(3) . .
N3 C7 N2 118.6(3) . .
N4 C7 N2 114.1(3) . .
N4 C8 C9 122.4(4) . .
N4 C8 H8 118.8 . .
C9 C8 H8 118.8 . .
C10 C9 C8 117.9(3) . .
C10 C9 H9 121.1 . .
C8 C9 H9 121.1 . .
N3 C10 C9 120.9(3) . .
N3 C10 C11 116.1(3) . .
C9 C10 C11 123.0(3) . .
C10 C11 H11A 109.5 . .
C10 C11 H11B 109.5 . .
H11A C11 H11B 109.5 . .
C10 C11 H11C 109.5 . .
H11A C11 H11C 109.5 . .
H11B C11 H11C 109.5 . .
C13 C12 C17 120.0(2) . .
C13 C12 S2 119.4(2) . .
C17 C12 S2 120.6(2) . .
C14 C13 C12 120.3(3) . .
C14 C13 H13 119.8 . .
C12 C13 H13 119.8 . .
C13 C14 C15 120.4(3) . .
C13 C14 H14 119.8 . .
C15 C14 H14 119.8 . .
N5 C15 C14 120.9(3) . .
N5 C15 C16 120.1(3) . .
C14 C15 C16 118.9(3) . .
C17 C16 C15 120.5(3) . .
C17 C16 H16 119.7 . .
C15 C16 H16 119.7 . .
C16 C17 C12 119.8(3) . .
C16 C17 H17 120.1 . .
C12 C17 H17 120.1 . .
N7 C18 N8 127.3(3) . .
N7 C18 N6 118.5(3) . .
N8 C18 N6 114.2(3) . .
N8 C19 C20 122.5(4) . .
N8 C19 H19 118.7 . .
C20 C19 H19 118.7 . .
C19 C20 C21 118.1(3) . .
C19 C20 H20 121.0 . .
C21 C20 H20 121.0 . .
N7 C21 C20 120.5(3) . .
N7 C21 C22 116.3(3) . .
C20 C21 C22 123.2(3) . .
C21 C22 H22A 109.5 . .
C21 C22 H22B 109.5 . .
H22A C22 H22B 109.5 . .
C21 C22 H22C 109.5 . .
H22A C22 H22C 109.5 . .
H22B C22 H22C 109.5 . .
loop_
_geom_bond_atom_site_label_1
_geom_bond_atom_site_label_2
_geom_bond_distance
_geom_bond_site_symmetry_2
S1 O1 1.433(2) .
S1 O2 1.436(2) .
S1 N2 1.658(3) .
S1 C1 1.737(3) .
S2 O4 1.430(2) .
S2 O3 1.437(2) .
S2 N6 1.647(3) .
S2 C12 1.731(3) .
N1 C4 1.357(4) .
N1 H1N1 0.84(4) .
N1 H2N1 0.91(5) .
N2 C7 1.388(4) .
N2 H1N2 0.81(4) .
N3 C7 1.327(4) .
N3 C10 1.349(4) .
N4 C7 1.337(4) .
N4 C8 1.340(5) .
N5 C15 1.363(4) .
N5 H5A 0.8600 .
N5 H5B 0.8600 .
N6 C18 1.388(4) .
N6 H1N6 0.83(5) .
N7 C18 1.325(4) .
N7 C21 1.342(4) .
N8 C19 1.334(5) .
N8 C18 1.340(4) .
C1 C6 1.394(4) .
C1 C2 1.398(4) .
C2 C3 1.375(4) .
C2 H2 0.9300 .
C3 C4 1.406(4) .
C3 H3 0.9300 .
C4 C5 1.411(4) .
C5 C6 1.380(4) .
C5 H5 0.9300 .
C6 H6 0.9300 .
C8 C9 1.377(5) .
C8 H8 0.9300 .
C9 C10 1.374(6) .
C9 H9 0.9300 .
C10 C11 1.489(5) .
C11 H11A 0.9600 .
C11 H11B 0.9600 .
C11 H11C 0.9600 .
C12 C13 1.391(4) .
C12 C17 1.397(4) .
C13 C14 1.379(4) .
C13 H13 0.9300 .
C14 C15 1.405(4) .
C14 H14 0.9300 .
C15 C16 1.405(4) .
C16 C17 1.383(4) .
C16 H16 0.9300 .
C17 H17 0.9300 .
C19 C20 1.372(5) .
C19 H19 0.9300 .
C20 C21 1.382(6) .
C20 H20 0.9300 .
C21 C22 1.497(5) .
C22 H22A 0.9600 .
C22 H22B 0.9600 .
C22 H22C 0.9600 .
loop_
_geom_hbond_atom_site_label_D
_geom_hbond_atom_site_label_H
_geom_hbond_atom_site_label_A
_geom_hbond_distance_DH
_geom_hbond_distance_HA
_geom_hbond_distance_DA
_geom_hbond_angle_DHA
_geom_hbond_site_symmetry_A
N2 H1N2 N8 0.81(4) 2.11(4) 2.918(4) 174(4) .
N6 H1N6 N4 0.83(5) 2.07(5) 2.904(4) 176(5) .
loop_
_geom_torsion_atom_site_label_1
_geom_torsion_atom_site_label_2
_geom_torsion_atom_site_label_3
_geom_torsion_atom_site_label_4
_geom_torsion
_geom_torsion_site_symmetry_1
_geom_torsion_site_symmetry_2
_geom_torsion_site_symmetry_3
_geom_torsion_site_symmetry_4
O1 S1 N2 C7 -61.4(3) . . . .
O2 S1 N2 C7 171.7(3) . . . .
C1 S1 N2 C7 56.6(3) . . . .
O4 S2 N6 C18 58.5(3) . . . .
O3 S2 N6 C18 -174.7(3) . . . .
C12 S2 N6 C18 -59.5(3) . . . .
O1 S1 C1 C6 -162.1(3) . . . .
O2 S1 C1 C6 -29.9(3) . . . .
N2 S1 C1 C6 80.0(3) . . . .
O1 S1 C1 C2 18.1(3) . . . .
O2 S1 C1 C2 150.3(3) . . . .
N2 S1 C1 C2 -99.7(3) . . . .
C6 C1 C2 C3 -0.3(5) . . . .
S1 C1 C2 C3 179.5(3) . . . .
C1 C2 C3 C4 0.5(5) . . . .
C2 C3 C4 N1 -179.5(3) . . . .
C2 C3 C4 C5 -0.5(5) . . . .
N1 C4 C5 C6 179.3(3) . . . .
C3 C4 C5 C6 0.2(5) . . . .
C4 C5 C6 C1 0.0(5) . . . .
C2 C1 C6 C5 0.0(5) . . . .
S1 C1 C6 C5 -179.8(3) . . . .
C10 N3 C7 N4 -0.4(5) . . . .
C10 N3 C7 N2 178.9(3) . . . .
C8 N4 C7 N3 1.5(5) . . . .
C8 N4 C7 N2 -177.9(4) . . . .
S1 N2 C7 N3 17.1(4) . . . .
S1 N2 C7 N4 -163.4(3) . . . .
C7 N4 C8 C9 -0.8(7) . . . .
N4 C8 C9 C10 -0.7(7) . . . .
C7 N3 C10 C9 -1.3(5) . . . .
C7 N3 C10 C11 179.4(3) . . . .
C8 C9 C10 N3 1.8(6) . . . .
C8 C9 C10 C11 -178.9(4) . . . .
O4 S2 C12 C13 157.1(3) . . . .
O3 S2 C12 C13 25.6(3) . . . .
N6 S2 C12 C13 -84.7(3) . . . .
O4 S2 C12 C17 -22.1(3) . . . .
O3 S2 C12 C17 -153.6(3) . . . .
N6 S2 C12 C17 96.2(3) . . . .
C17 C12 C13 C14 -1.0(5) . . . .
S2 C12 C13 C14 179.9(3) . . . .
C12 C13 C14 C15 0.7(6) . . . .
C13 C14 C15 N5 -179.1(4) . . . .
C13 C14 C15 C16 -0.5(5) . . . .
N5 C15 C16 C17 179.3(3) . . . .
C14 C15 C16 C17 0.7(5) . . . .
C15 C16 C17 C12 -1.0(5) . . . .
C13 C12 C17 C16 1.2(5) . . . .
S2 C12 C17 C16 -179.7(3) . . . .
C21 N7 C18 N8 1.4(5) . . . .
C21 N7 C18 N6 -178.5(3) . . . .
C19 N8 C18 N7 -2.6(6) . . . .
C19 N8 C18 N6 177.3(4) . . . .
S2 N6 C18 N7 -13.8(4) . . . .
S2 N6 C18 N8 166.3(3) . . . .
C18 N8 C19 C20 1.1(7) . . . .
N8 C19 C20 C21 1.3(8) . . . .
C18 N7 C21 C20 1.4(5) . . . .
C18 N7 C21 C22 -179.1(3) . . . .
C19 C20 C21 N7 -2.6(7) . . . .
C19 C20 C21 C22 177.9(4) . . . .
