#------------------------------------------------------------------------------
#$Date: 2017-11-07 03:21:18 +0200 (Tue, 07 Nov 2017) $
#$Revision: 202825 $
#$URL: file:///home/coder/svn-repositories/cod/cif/1/54/75/1547528.cif $
#------------------------------------------------------------------------------
#
# This file is available in the Crystallography Open Database (COD),
# http://www.crystallography.net/
#
# All data on this site have been placed in the public domain by the
# contributors.
#
data_1547528
loop_
_publ_author_name
'Li, Hanyuan'
'Luo, Jiesi'
'Li, Bojuan'
'Yi, Xizhen'
'He, Zhengjie'
_publ_section_title
;
 Enantioselective [4 + 1]-Annulation of \a,\b-Unsaturated Imines with
 Allylic Carbonates Catalyzed by a Hybrid P-Chiral Phosphine
 Oxide-Phosphine.
;
_journal_issue                   20
_journal_name_full               'Organic letters'
_journal_page_first              5637
_journal_page_last               5640
_journal_paper_doi               10.1021/acs.orglett.7b02800
_journal_volume                  19
_journal_year                    2017
_chemical_formula_moiety         'C27 H22 Br Cl N2 O6 S'
_chemical_formula_sum            'C27 H22 Br Cl N2 O6 S'
_chemical_formula_weight         617.88
_chemical_name_systematic
;
 ? 
;
_space_group_crystal_system      triclinic
_space_group_IT_number           2
_space_group_name_Hall           '-P 1'
_space_group_name_H-M_alt        'P -1'
_symmetry_space_group_name_Hall  '-P 1'
_symmetry_space_group_name_H-M   'P -1'
_atom_sites_solution_hydrogens   geom
_atom_sites_solution_primary     direct
_audit_creation_date             2016-10-18
_audit_creation_method
;
Olex2 1.2
(compiled 2016.09.09 svn.r3337 for OlexSys, GUI svn.r5227)
;
_cell_angle_alpha                100.941(9)
_cell_angle_beta                 98.338(15)
_cell_angle_gamma                93.200(11)
_cell_formula_units_Z            2
_cell_length_a                   7.762(6)
_cell_length_b                   12.126(9)
_cell_length_c                   14.580(12)
_cell_measurement_reflns_used    2177
_cell_measurement_temperature    113(2)
_cell_measurement_theta_max      27.4
_cell_measurement_theta_min      3.0
_cell_volume                     1328.2(18)
_computing_cell_refinement       'CrystalClear-SM Expert 2.1 b42'
_computing_data_collection
'CrystalClear-SM Expert 2.1 b42 (Rigaku, 2015)'
_computing_data_reduction        'CrystalClear-SM Expert 2.1 b42'
_computing_molecular_graphics    'Olex2 (Dolomanov et al., 2009)'
_computing_publication_material  'Olex2 (Dolomanov et al., 2009)'
_computing_structure_refinement  'ShelXL (Sheldrick, 2015)'
_computing_structure_solution    'ShelXS (Sheldrick, 2008)'
_diffrn_ambient_temperature      113.15
_diffrn_detector_area_resol_mean 5.814
_diffrn_measured_fraction_theta_full 0.965
_diffrn_measured_fraction_theta_max 0.947
_diffrn_measurement_device_type  'Rigaku XtaLAB P200'
_diffrn_measurement_method       '\w and \f scans'
_diffrn_radiation_type           MoK\a
_diffrn_radiation_wavelength     0.71073
_diffrn_reflns_av_R_equivalents  0.0362
_diffrn_reflns_av_unetI/netI     0.0505
_diffrn_reflns_Laue_measured_fraction_full 0.965
_diffrn_reflns_Laue_measured_fraction_max 0.947
_diffrn_reflns_limit_h_max       9
_diffrn_reflns_limit_h_min       -9
_diffrn_reflns_limit_k_max       15
_diffrn_reflns_limit_k_min       -15
_diffrn_reflns_limit_l_max       18
_diffrn_reflns_limit_l_min       -18
_diffrn_reflns_number            11264
_diffrn_reflns_point_group_measured_fraction_full 0.965
_diffrn_reflns_point_group_measured_fraction_max 0.947
_diffrn_reflns_theta_full        25.000
_diffrn_reflns_theta_max         27.501
_diffrn_reflns_theta_min         3.042
_exptl_absorpt_coefficient_mu    1.772
_exptl_absorpt_correction_T_max  0.8155
_exptl_absorpt_correction_T_min  0.7182
_exptl_absorpt_correction_type   multi-scan
_exptl_absorpt_process_details   'REQAB (Rigaku, 1998)'
_exptl_crystal_colour            Colorless
_exptl_crystal_density_diffrn    1.545
_exptl_crystal_density_method    'not measured'
_exptl_crystal_description       Prism
_exptl_crystal_F_000             628
_exptl_crystal_size_max          0.2
_exptl_crystal_size_mid          0.18
_exptl_crystal_size_min          0.12
_refine_diff_density_max         1.257
_refine_diff_density_min         -0.366
_refine_diff_density_rms         0.120
_refine_ls_extinction_method     none
_refine_ls_goodness_of_fit_ref   1.052
_refine_ls_hydrogen_treatment    constr
_refine_ls_matrix_type           full
_refine_ls_number_parameters     344
_refine_ls_number_reflns         5770
_refine_ls_number_restraints     0
_refine_ls_restrained_S_all      1.052
_refine_ls_R_factor_all          0.0676
_refine_ls_R_factor_gt           0.0481
_refine_ls_shift/su_max          0.002
_refine_ls_shift/su_mean         0.000
_refine_ls_structure_factor_coef Fsqd
_refine_ls_weighting_details
'w=1/[\s^2^(Fo^2^)+(0.0714P)^2^+0.7390P] where P=(Fo^2^+2Fc^2^)/3'
_refine_ls_weighting_scheme      calc
_refine_ls_wR_factor_gt          0.1193
_refine_ls_wR_factor_ref         0.1289
_reflns_Friedel_coverage         0.000
_reflns_number_gt                4468
_reflns_number_total             5770
_reflns_threshold_expression     'I > 2\s(I)'
_cod_data_source_file            ol7b02800_si_004.cif
_cod_data_source_block           shelx
_cod_depositor_comments
;
The following automatic conversions were performed:

'_exptl_absorpt_correction_type' value 'MULTI-SCAN' changed to
'multi-scan' according to
/home/data/users/saulius/crontab/automatic-downloads/rss-feeds/ACS/lib/dictionaries/cif_core.dic
dictionary named 'cif_core.dic' version 2.4.2 from 2011-04-26.

Automatic conversion script
Id: cif_fix_values 4973 2017-02-22 13:04:09Z antanas 

 Adding full bibliography for 1547527--1547529.cif.
;
_cod_original_cell_volume        1328.1(18)
_cod_database_code               1547528
_shelx_space_group_comment
;
The symmetry employed for this shelxl refinement is uniquely defined
by the following loop, which should always be used as a source of
symmetry information in preference to the above space-group names.
They are only intended as comments.
;
_shelx_estimated_absorpt_t_max   0.815
_shelx_estimated_absorpt_t_min   0.718
_olex2_refinement_description
;
1. Fixed Uiso
 At 1.2 times of:
  All C(H) groups, All C(H,H) groups
 At 1.5 times of:
  All C(H,H,H) groups
2.a Ternary CH refined with riding coordinates:
 C9(H9), C10(H10)
2.b Secondary CH2 refined with riding coordinates:
 C14(H14A,H14B)
2.c Aromatic/amide H refined with riding coordinates:
 C1(H1), C2(H2), C4(H4), C5(H5), C8(H8), C17(H17), C18(H18), C20(H20),
 C21(H21), C23(H23), C24(H24), C26(H26), C27(H27)
2.d X=CH2 refined with riding coordinates:
 C12(H12A,H12B)
2.e Idealised Me refined as rotating group:
 C15(H15A,H15B,H15C)
;
_shelx_res_file
;
    shelx.res created by SHELXL-2014/8

TITL shelx in P-1
CELL 0.71073 7.7618 12.1259 14.5799 100.941 98.338 93.2
ZERR 2 0.0061 0.0092 0.0117 0.009 0.015 0.011
LATT 1
SFAC C H N O S Cl Br
UNIT 54 44 4 12 2 2 2

L.S. 4
PLAN  20
SIZE 0.2 0.18 0.12
TEMP -160
CONF
HTAB
BOND $H
MORE -1
fmap 2
acta 50
OMIT -5 -6 2
OMIT 2 1 0
OMIT -4 -2 2
REM <olex2.extras>
REM <HklSrc "%.\\shelx.hkl">
REM </olex2.extras>

WGHT    0.071400    0.739000
FVAR       0.24945
BR1   7    0.036651    0.152665    1.123934    11.00000    0.03219    0.04983 =
         0.02862    0.01686    0.00980   -0.00175
S1    5    0.577850    0.387918    0.803533    11.00000    0.01166    0.02133 =
         0.01921    0.00362    0.00188    0.00307
CL1   6    0.178506    0.829421    0.542518    11.00000    0.03357    0.01952 =
         0.03929    0.01090   -0.00254    0.00125
O1    4    0.315119    0.246722    0.438854    11.00000    0.04082    0.02126 =
         0.02199    0.00559    0.00683    0.00390
O2    4    0.251868    0.064859    0.441750    11.00000    0.02989    0.02011 =
         0.01970    0.00344    0.00016    0.00258
O3    4    0.600380    0.364860    0.896946    11.00000    0.01895    0.02704 =
         0.02272    0.00597   -0.00029    0.00438
O4    4    0.710335    0.366140    0.744748    11.00000    0.01487    0.03155 =
         0.02680    0.00329    0.00445    0.00361
O5    4    0.407712    0.921068    0.911097    11.00000    0.04253    0.02681 =
         0.04412   -0.00094    0.00309    0.01179
O6    4    0.431388    0.911093    0.763623    11.00000    0.06459    0.03050 =
         0.04953    0.02026    0.00780    0.00996
N1    3    0.399459    0.312315    0.743333    11.00000    0.01314    0.01873 =
         0.01777    0.00332    0.00271    0.00166
N2    3    0.432458    0.869617    0.834013    11.00000    0.02483    0.02317 =
         0.03822    0.00621   -0.00211    0.00205
C1    1    0.273570    0.193069    0.894686    11.00000    0.01521    0.02365 =
         0.02201    0.00295    0.00462    0.00381
AFIX  43
H1    2    0.354595    0.154646    0.860092    11.00000   -1.20000
AFIX   0
C2    1    0.223731    0.153058    0.970567    11.00000    0.02049    0.02225 =
         0.02282    0.00676    0.00052    0.00311
AFIX  43
H2    2    0.268365    0.087020    0.987410    11.00000   -1.20000
AFIX   0
C3    1    0.107760    0.210757    1.021602    11.00000    0.02191    0.03154 =
         0.01895    0.00648    0.00635   -0.00112
C4    1    0.043191    0.307300    0.999432    11.00000    0.02514    0.03648 =
         0.03156    0.00850    0.01612    0.00663
AFIX  43
H4    2   -0.034069    0.346869    1.036043    11.00000   -1.20000
AFIX   0
C5    1    0.092940    0.346152    0.922377    11.00000    0.02633    0.02386 =
         0.03198    0.00982    0.01159    0.00819
AFIX  43
H5    2    0.048723    0.412708    0.906398    11.00000   -1.20000
AFIX   0
C6    1    0.206952    0.288738    0.868159    11.00000    0.01507    0.02203 =
         0.01986    0.00342    0.00412   -0.00135
C7    1    0.234057    0.321500    0.778486    11.00000    0.01584    0.01679 =
         0.02310    0.00339    0.00579    0.00229
C8    1    0.110387    0.344570    0.713289    11.00000    0.01479    0.01976 =
         0.02531    0.00627    0.00605    0.00215
AFIX  43
H8    2   -0.008058    0.350952    0.721593    11.00000   -1.20000
AFIX   0
C9    1    0.179913    0.359390    0.624824    11.00000    0.01269    0.01943 =
         0.02210    0.00527    0.00063    0.00200
AFIX  13
H9    2    0.104372    0.309296    0.569527    11.00000   -1.20000
AFIX   0
C10   1    0.361364    0.309950    0.639340    11.00000    0.01526    0.01730 =
         0.01687    0.00354    0.00300    0.00100
AFIX  13
H10   2    0.452647    0.358498    0.620170    11.00000   -1.20000
AFIX   0
C11   1    0.358240    0.188589    0.587204    11.00000    0.01603    0.02130 =
         0.01923    0.00279    0.00342    0.00345
C12   1    0.405299    0.103590    0.627647    11.00000    0.02990    0.02216 =
         0.02540    0.00362    0.00348    0.00652
AFIX  93
H12A  2    0.406674    0.030678    0.589920    11.00000   -1.20000
H12B  2    0.437684    0.115526    0.694386    11.00000   -1.20000
AFIX   0
C13   1    0.306879    0.171131    0.482171    11.00000    0.01778    0.02157 =
         0.02295    0.00371    0.00649    0.00550
C14   1    0.197217    0.042390    0.339252    11.00000    0.03708    0.02466 =
         0.02011    0.00339   -0.00083    0.00425
AFIX  23
H14A  2    0.299673    0.050298    0.306981    11.00000   -1.20000
H14B  2    0.113506    0.096457    0.321747    11.00000   -1.20000
AFIX   0
C15   1    0.112186   -0.076034    0.310403    11.00000    0.04184    0.03167 =
         0.02965    0.00076   -0.00412   -0.00358
AFIX 137
H15A  2    0.195642   -0.128619    0.328988    11.00000   -1.50000
H15B  2    0.075810   -0.094286    0.241644    11.00000   -1.50000
H15C  2    0.009663   -0.082413    0.341766    11.00000   -1.50000
AFIX   0
C16   1    0.184531    0.479292    0.607512    11.00000    0.01360    0.02025 =
         0.02058    0.00458   -0.00087    0.00201
C17   1    0.254248    0.504699    0.529941    11.00000    0.01909    0.02089 =
         0.02454    0.00377    0.00392    0.00543
AFIX  43
H17   2    0.302673    0.447400    0.489979    11.00000   -1.20000
AFIX   0
C18   1    0.253667    0.612501    0.510528    11.00000    0.02078    0.02657 =
         0.02599    0.00930    0.00271    0.00238
AFIX  43
H18   2    0.301563    0.629090    0.457816    11.00000   -1.20000
AFIX   0
C19   1    0.182903    0.694917    0.568554    11.00000    0.02070    0.01617 =
         0.02657    0.00612   -0.00358    0.00298
C20   1    0.113300    0.672735    0.646130    11.00000    0.02654    0.02176 =
         0.02467    0.00384    0.00230    0.00883
AFIX  43
H20   2    0.065196    0.730573    0.685717    11.00000   -1.20000
AFIX   0
C21   1    0.114789    0.564268    0.665357    11.00000    0.02435    0.02448 =
         0.02108    0.00669    0.00487    0.00571
AFIX  43
H21   2    0.067653    0.548404    0.718514    11.00000   -1.20000
AFIX   0
C22   1    0.536957    0.531334    0.812874    11.00000    0.01326    0.01863 =
         0.02155    0.00293   -0.00021    0.00023
C23   1    0.583595    0.589458    0.745009    11.00000    0.02331    0.02328 =
         0.01912    0.00303    0.00330   -0.00143
AFIX  43
H23   2    0.640235    0.553210    0.695412    11.00000   -1.20000
AFIX   0
C24   1    0.546157    0.700849    0.750932    11.00000    0.02301    0.02583 =
         0.02479    0.00856    0.00026   -0.00270
AFIX  43
H24   2    0.573630    0.741872    0.704781    11.00000   -1.20000
AFIX   0
C25   1    0.467626    0.750600    0.825982    11.00000    0.01870    0.02046 =
         0.02669    0.00322   -0.00243   -0.00014
C26   1    0.421649    0.694394    0.894404    11.00000    0.01820    0.02665 =
         0.02307    0.00231    0.00337    0.00157
AFIX  43
H26   2    0.369052    0.731924    0.945188    11.00000   -1.20000
AFIX   0
C27   1    0.454307    0.582094    0.886899    11.00000    0.02030    0.02519 =
         0.01990    0.00714    0.00285    0.00135
AFIX  43
H27   2    0.420993    0.540361    0.931395    11.00000   -1.20000
AFIX   0
HKLF 4

REM  shelx in P-1
REM R1 =  0.0481 for    4468 Fo > 4sig(Fo)  and  0.0676 for all    5770 data
REM    344 parameters refined using      0 restraints

END

WGHT      0.0738      0.4988

REM Instructions for potential hydrogen bonds
EQIV $1 x, y-1, z
HTAB C2 O5_$1
EQIV $2 x-1, y, z
HTAB C8 O4_$2
EQIV $3 -x, -y+1, -z+1
HTAB C9 Cl1_$3
EQIV $4 -x+1, -y+1, -z+1
HTAB C14 O6_$4
EQIV $5 x, y, z-1
HTAB C14 Br1_$5
EQIV $6 -x, -y+1, -z+2
HTAB C20 Br1_$6
HTAB C24 O1_$4
EQIV $7 -x+1, -y+1, -z+2
HTAB C27 O3_$7

REM Highest difference peak  1.257,  deepest hole -0.366,  1-sigma level  0.120
Q1    1   0.0514  0.2292  1.1431  11.00000  0.05    1.26
Q2    1   0.0645  0.0789  1.1385  11.00000  0.05    1.04
Q3    1   0.0890  0.0998  1.1555  11.00000  0.05    0.95
Q4    1   0.0383  0.0631  1.1177  11.00000  0.05    0.91
Q5    1   0.5562  0.4627  0.8011  11.00000  0.05    0.90
Q6    1   0.0559  0.1578  1.0640  11.00000  0.05    0.86
Q7    1   0.1180  0.1346  1.1803  11.00000  0.05    0.78
Q8    1  -0.0461  0.1233  1.0685  11.00000  0.05    0.72
Q9    1   0.0085  0.1581  1.1793  11.00000  0.05    0.60
Q10   1   0.1880  0.3763  0.7617  11.00000  0.05    0.59
Q11   1   0.1857  0.7574  0.5559  11.00000  0.05    0.59
Q12   1   0.3607  0.1773  0.5409  11.00000  0.05    0.56
Q13   1   0.3677  0.2423  0.6240  11.00000  0.05    0.54
Q14   1   0.2257  0.3109  0.8277  11.00000  0.05    0.50
Q15   1   0.1837  0.4168  0.6210  11.00000  0.05    0.49
Q16   1   0.3788  0.3158  0.7010  11.00000  0.05    0.48
Q17   1   0.5663  0.3850  0.8589  11.00000  0.05    0.48
Q18   1   0.4668  0.3558  0.7605  11.00000  0.05    0.48
Q19   1   0.6417  0.3797  0.8605  11.00000  0.05    0.46
Q20   1   0.1173  0.6205  0.6593  11.00000  0.05    0.46
;
_shelx_res_checksum              85431
_shelx_hkl_file
;
   0   0  -3  413.59   11.18
   0   0   3  407.44   13.73
   0   0  -4  131.16    4.85
   0   0   4  136.66    5.88
   0   0   4  129.18    5.49
   0   0  -5  104.91    3.85
   0   0   5  106.74    4.20
   0   0  -6   41.96    1.92
   0   0   6   43.63    2.12
   0   0  -7   30.43    1.22
   0   0   7   31.94    1.24
   0   0  -8  120.20    5.20
   0   0   8  125.90    5.40
   0   0  -9  248.27    9.39
   0   0   9  244.18    9.44
   0   0 -10    0.26    0.83
   0   0  10    0.76    0.83
   0   0  11   22.91    1.61
   0   0  12   47.23    2.26
   0   0  13   49.72    2.91
   0   0  13   55.88    3.00
   0   0  14   21.60    1.54
   0   0  15    7.63    1.42
   0   0  16   44.88    2.34
   0   0  17    2.64    1.42
   0   0  18    3.35    1.46
   0  -1  18   29.52    1.72
   0  -1  13    1.56    0.92
   0  -1  12    5.60    1.03
   0  -1  11   36.65    2.30
   0   1 -10    4.31    0.82
   0  -1  10    5.00    0.90
   0  -1  10    5.00    0.83
   0   1  -9  244.28    9.39
   0  -1   9  269.38   11.61
   0  -1   9  256.67   10.16
   0   1  -8   13.18    0.96
   0  -1   8   16.05    1.04
   0  -1   8   15.34    1.00
   0   1  -7  266.56    6.41
   0  -1   7  254.14    8.74
   0  -1   7  246.69    7.00
   0   1  -6  378.23   10.21
   0  -1   6  370.93   12.88
   0  -1   6  372.49   12.54
   0   1  -5   32.78    1.60
   0  -1   5   34.35    1.71
   0  -1   5   32.62    1.71
   0   1  -4  496.90   14.46
   0  -1   4  496.11   14.44
   0  -1   4  447.15   15.81
   0  -1   3  341.75   12.33
   0  -1   3  359.94   10.15
   0  -1   3  327.59    9.02
   0  -1   2  500.07   12.78
   0  -1  -2   15.02    2.02
   0   1   2   17.62    1.66
   0  -1  -3  342.33    9.89
   0   1   3  341.59   12.08
   0  -1  -4    3.40    0.85
   0   1   4    2.93    0.72
   0  -1  -5   56.94    2.39
   0   1   5   55.58    2.35
   0  -1  -6  427.70   10.00
   0   1   6  422.44   14.59
   0   1   6  417.10   12.27
   0  -1  -7   13.87    0.98
   0   1   7   13.37    1.04
   0   1   7   12.53    1.05
   0  -1  -8   18.60    1.29
   0   1   8   17.33    1.14
   0   1   8   17.59    1.08
   0  -1  -9    2.03    0.87
   0   1   9    2.33    0.93
   0   1   9    1.03    0.82
   0  -1 -10  134.75    5.51
   0   1  10  115.36    5.25
   0   1  10  130.01    5.35
   0   1  11   16.51    1.45
   0   1  11   16.73    1.44
   0   1  12   15.01    1.31
   0   1  12   14.48    1.09
   0   1  13    9.37    1.16
   0   1  13    9.32    1.09
   0   1  14    1.34    1.23
   0   1  15    5.60    1.40
   0   1  16    3.14    1.49
   0   1  17    1.56    1.60
   0   1  18    6.28    1.54
   0  -2  16    2.62    1.28
   0   2 -16    4.27    1.28
   0  -2  15    8.86    1.43
   0   2 -15   10.47    2.66
   0  -2  14   25.88    1.67
   0   2 -14   33.60    1.99
   0  -2  13   19.04    1.25
   0  -2  13   18.19    1.26
   0   2 -13   20.04    1.64
   0  -2  12   23.87    1.22
   0  -2  12   28.73    1.79
   0   2 -12   28.27    1.69
   0  -2  11   31.96    1.98
   0  -2  11   32.57    2.21
   0  -2  10   26.02    1.68
   0  -2  10   25.74    1.92
   0  -2   9   -0.12    0.67
   0  -2   9    0.11    0.76
   0  -2   8  199.47    8.18
   0  -2   8  216.53    9.77
   0  -2   7  258.00    6.12
   0  -2   7  255.74    7.90
   0   2  -7  260.34    6.14
   0  -2   6   67.18    2.57
   0  -2   6   66.45    3.03
   0   2  -6   68.91    2.78
   0  -2   5   10.08    1.12
   0  -2   5   10.33    1.12
   0   2  -5    9.59    1.15
   0  -2   4  130.95    5.56
   0  -2   4  124.79    5.10
   0   2  -4  120.62    5.34
   0  -2   3  231.25    7.69
   0  -2   3  225.82    7.51
   0   2  -3  225.62    8.48
   0  -2   2  218.28    7.43
   0  -2   1  546.41   16.61
   0  -2   1  532.36   16.80
   0  -2   0  642.05   19.76
   0  -2   0  634.99   16.92
   0   2   1 1839.15   49.35
   0  -2  -2  989.15   26.83
   0   2   2 1047.82   30.40
   0   2   2 1012.42   28.96
   0  -2  -3    4.17    0.89
   0   2   3    2.06    1.16
   0   2   3    4.68    0.92
   0  -2  -4  167.82    3.63
   0   2   4  178.94    6.74
   0   2   4  156.80    4.21
   0  -2  -5    3.46    0.77
   0   2   5    3.93    0.88
   0   2   5    4.33    0.87
   0  -2  -6  200.73    4.74
   0   2   6  199.11    6.71
   0   2   6  194.68    5.68
   0  -2  -7   14.42    1.16
   0   2   7   14.14    1.30
   0   2   7   12.90    1.25
   0  -2  -8    0.40    0.75
   0   2   8    0.84    0.85
   0   2   8    0.75    0.82
   0  -2  -9   67.78    3.43
   0   2   9   64.73    3.52
   0   2   9   63.05    3.26
   0   2  10    3.62    0.91
   0   2  10    4.56    0.94
   0   2  11   38.88    2.18
   0   2  11   38.41    2.02
   0   2  12    0.66    1.11
   0   2  12    0.72    1.07
   0   2  13   49.04    2.36
   0   2  13   47.56    2.28
   0   2  14    4.37    1.36
   0   2  15   24.38    1.63
   0   2  16   20.87    2.20
   0   2  17   12.92    1.73
   0  -3  18    0.32    1.53
   0  -3  17   36.26    3.07
   0  -3  16    4.32    1.35
   0   3 -16    3.57    1.33
   0  -3  15   15.11    1.45
   0   3 -15   14.04    1.37
   0  -3  14    7.68    1.29
   0   3 -14    9.81    1.25
   0  -3  13    3.48    1.08
   0  -3  13    1.38    0.95
   0   3 -13    3.82    1.18
   0  -3  12   45.74    2.17
   0  -3  12   50.26    2.47
   0   3 -12   51.84    2.42
   0  -3  11   11.35    1.06
   0  -3  11   11.88    1.26
   0   3 -11   12.54    1.29
   0  -3  10   22.14    1.49
   0  -3  10   22.61    1.62
   0   3 -10   23.88    1.62
   0  -3   9    3.56    0.81
   0  -3   9    4.62    0.83
   0   3  -9    4.89    0.99
   0  -3   8   63.08    2.55
   0  -3   8   63.80    2.89
   0   3  -8   61.34    2.62
   0  -3   7  342.99    7.49
   0  -3   7  332.87    9.82
   0   3  -7  335.49    9.66
   0  -3   6  288.24    7.68
   0  -3   6  285.49    5.98
   0   3  -6  287.59    8.65
   0  -3   5   12.73    1.32
   0  -3   5   13.22    1.33
   0   3  -5   13.59    1.43
   0  -3   4  234.53    6.60
   0  -3   4  237.65    7.17
   0   3  -4  237.82    8.38
   0  -3   3  505.59   14.09
   0  -3   3  485.81   13.11
   0   3  -3  506.84   18.86
   0  -3   2  158.76    3.79
   0  -3   1    5.93    1.03
   0  -3   1    4.49    0.76
   0  -3   0   10.17    1.13
   0  -3   0   10.31    1.10
   0   3   0   11.66    1.28
   0  -3  -1   10.24    1.14
   0   3   1   10.08    1.21
   0   3   1   11.41    1.31
   0  -3  -2  710.91   19.46
   0   3   2  775.52   23.92
   0   3   2  735.00   23.01
   0  -3  -3  204.96    5.78
   0   3   3  209.41    7.16
   0   3   3  204.51    7.17
   0  -3  -4   30.02    1.47
   0   3   4   31.16    1.69
   0   3   4   31.45    1.69
   0  -3  -5   63.51    2.58
   0   3   5   66.31    3.18
   0   3   5   64.64    3.01
   0  -3  -6    2.56    0.77
   0   3   6    2.11    0.94
   0   3   6    1.30    0.85
   0  -3  -7   14.33    0.99
   0   3   7   13.20    1.14
   0   3   7   13.69    1.08
   0  -3  -8    1.97    0.87
   0   3   8    0.63    0.85
   0   3   8    1.67    0.85
   0  -3  -9   62.00    2.84
   0   3   9   60.79    3.03
   0   3   9   61.32    2.93
   0   3  10    9.71    1.08
   0   3  10    9.96    1.14
   0   3  11   67.46    2.82
   0   3  11   65.16    2.65
   0   3  12   86.41    4.05
   0   3  12   92.36    4.19
   0   3  13   -0.93    1.06
   0   3  13   -0.08    1.20
   0   3  14   42.00    2.00
   0   3  15   15.45    1.70
   0   3  16   -0.08    1.54
   0   3  17    3.47    1.61
   0  -4  18    3.84    1.59
   0  -4  17   11.87    1.56
   0  -4  16   31.47    1.84
   0   4 -16   31.60    1.95
   0  -4  15   -0.78    1.28
   0   4 -15    2.05    1.33
   0  -4  14   18.09    1.41
   0   4 -14   20.60    1.44
   0  -4  13   67.32    3.47
   0  -4  13   68.53    3.68
   0   4 -13   69.57    3.62
   0  -4  12   83.17    3.05
   0  -4  12   84.66    3.42
   0   4 -12   74.83    2.93
   0  -4  11   34.26    2.12
   0  -4  11   37.92    2.38
   0   4 -11   37.84    2.38
   0  -4  10    9.77    0.95
   0  -4  10    9.71    0.98
   0   4 -10   10.30    1.15
   0  -4   9  271.36    9.90
   0  -4   9  254.90   10.58
   0   4  -9  251.97   10.04
   0  -4   8   90.60    3.64
   0  -4   8   92.86    3.79
   0   4  -8   94.02    3.97
   0  -4   7    3.52    0.74
   0  -4   7    4.01    0.71
   0   4  -7    3.82    0.82
   0  -4   6  239.76    5.96
   0  -4   6  223.09    5.90
   0   4  -6  220.41    6.38
   0  -4   5  202.52    4.68
   0  -4   5  202.00    4.63
   0   4  -5  207.58    6.96
   0  -4   4   17.69    1.65
   0  -4   4   17.30    1.57
   0   4  -4   17.63    1.76
   0  -4   3   86.52    3.19
   0   4  -3   83.31    3.69
   0  -4   2    9.24    1.01
   0  -4   1  640.14   16.80
   0  -4   1  639.51   16.01
   0  -4   0 1100.01   28.82
   0  -4   0 1118.29   29.52
   0   4   0 1194.03   36.76
   0  -4  -1    0.20    0.67
   0   4   1   -0.23    0.75
   0   4   1   -0.31    0.79
   0  -4  -2  144.04    4.91
   0   4   2  144.26    5.67
   0   4   2  148.32    5.71
   0  -4  -3   65.08    2.69
   0   4   3   60.59    2.92
   0   4   3   56.57    2.61
   0  -4  -4   38.15    1.31
   0   4   4   37.00    1.56
   0   4   4   36.21    1.51
   0  -4  -5   23.10    1.35
   0   4   5   19.04    1.29
   0   4   5   21.36    1.33
   0  -4  -6   58.61    2.86
   0   4   6   58.17    2.67
   0   4   6   57.21    2.99
   0  -4  -7    7.09    0.83
   0   4   7    7.61    0.99
   0   4   7    7.59    0.99
   0  -4  -8   72.57    3.18
   0   4   8   71.66    3.35
   0   4   8   72.34    3.25
   0  -4  -9   34.92    2.23
   0   4   9   32.32    2.34
   0   4   9   34.96    2.35
   0   4  10    9.01    1.16
   0   4  10    6.78    1.16
   0   4  11   18.52    1.39
   0   4  11   19.03    1.31
   0   4  12    9.76    1.36
   0   4  12    7.85    1.23
   0   4  13    2.21    1.13
   0   4  13    2.56    1.31
   0   4  14    1.41    1.46
   0   4  15   14.25    1.40
   0   4  16    7.80    1.64
   0  -5  18   28.99    1.77
   0  -5  17    9.40    1.53
   0  -5  16   -0.75    1.27
   0   5 -16    0.78    1.25
   0  -5  15   45.78    2.03
   0   5 -15   47.61    1.92
   0  -5  14   11.21    1.34
   0   5 -14   11.30    1.29
   0  -5  13    0.48    0.97
   0  -5  13    1.94    1.07
   0   5 -13    0.73    1.17
   0  -5  12    9.21    1.08
   0  -5  12   10.90    1.11
   0   5 -12    8.09    1.13
   0  -5  11   49.47    2.30
   0  -5  11   45.45    2.23
   0   5 -11   51.99    2.52
   0  -5  10    2.19    0.86
   0  -5  10    2.93    0.87
   0   5 -10    2.83    1.03
   0  -5   9   82.03    3.79
   0  -5   9   85.20    3.94
   0   5  -9   82.99    3.99
   0  -5   8   15.68    1.18
   0  -5   8   15.38    1.17
   0   5  -8   13.93    1.18
   0  -5   7   10.34    0.93
   0  -5   7   10.24    0.82
   0   5  -7   10.07    0.97
   0  -5   6  290.35   11.73
   0  -5   6  307.60   12.28
   0   5  -6  276.03   12.32
   0  -5   5   86.80    3.37
   0  -5   5   86.12    3.34
   0   5  -5   87.50    3.89
   0  -5   4   42.29    1.95
   0  -5   4   42.33    1.86
   0   5  -4   39.15    2.04
   0  -5   3  275.00    6.10
   0   5  -3  290.12    9.55
   0  -5   2    4.22    0.79
   0  -5   2    4.79    0.73
   0  -5   1  131.65    4.51
   0  -5   1  136.41    4.59
   0  -5   0   37.25    1.73
   0  -5   0   38.26    1.69
   0   5   0   36.66    1.79
   0  -5  -1  106.86    4.03
   0   5   1   94.11    4.00
   0   5   1  105.18    4.36
   0  -5  -2  157.57    2.58
   0   5   2  160.01    4.37
   0   5   2  154.49    6.48
   0  -5  -3    0.21    0.69
   0   5   3   -0.01    0.70
   0   5   3    0.05    0.82
   0  -5  -4    0.42    0.71
   0   5   4    1.54    0.82
   0   5   4    0.47    0.77
   0  -5  -5  101.38    4.06
   0   5   5  100.62    4.62
   0   5   5   95.25    4.25
   0  -5  -6   60.42    2.92
   0   5   6   60.18    3.11
   0   5   6   59.09    3.00
   0  -5  -7    9.43    0.99
   0   5   7   10.82    1.29
   0   5   7   10.09    1.21
   0  -5  -8    8.02    1.07
   0   5   8    5.43    1.10
   0   5   8    6.64    1.06
   0  -5  -9   55.45    2.56
   0   5   9   54.47    2.66
   0   5   9   49.98    2.47
   0   5  10   52.02    2.92
   0   5  10   51.85    2.93
   0   5  11   24.01    1.74
   0   5  11   23.78    1.71
   0   5  12   44.75    2.59
   0   5  12   40.89    2.33
   0   5  13   48.89    1.91
   0   5  13   43.88    1.69
   0   5  14   26.12    2.48
   0   5  15    1.63    1.51
   0   5  16    2.73    1.68
   0  -6  18    1.33    1.41
   0  -6  17   13.43    1.50
   0  -6  16    2.16    1.19
   0   6 -16    1.16    1.39
   0  -6  15   69.08    2.14
   0   6 -15   73.76    2.18
   0  -6  14   12.11    1.40
   0  -6  14   12.26    1.42
   0   6 -14   12.66    1.34
   0  -6  13    2.08    1.08
   0  -6  13    1.33    1.12
   0   6 -13    1.45    1.22
   0  -6  12  139.50    6.69
   0  -6  12  144.34    7.01
   0   6 -12  141.24    6.89
   0  -6  11   21.59    1.29
   0  -6  11   22.88    1.24
   0   6 -11   20.93    1.42
   0  -6  10   10.52    1.09
   0  -6  10   10.91    1.06
   0   6 -10   12.74    1.34
   0  -6   9   83.14    3.55
   0  -6   9   80.43    3.45
   0   6  -9   72.03    3.49
   0  -6   8  180.01    7.85
   0  -6   8  182.42    7.82
   0   6  -8  188.77    8.73
   0  -6   7  127.17    4.92
   0  -6   7  127.32    4.94
   0   6  -7  135.22    5.73
   0  -6   6    9.59    0.91
   0  -6   6   10.24    0.83
   0   6  -6   10.32    1.05
   0  -6   5    9.68    0.91
   0  -6   5    9.82    0.77
   0   6  -5    9.51    0.98
   0  -6   4   10.55    0.95
   0  -6   4    9.64    0.75
   0   6  -4   10.61    0.94
   0  -6   3   35.83    1.18
   0   6  -3   31.45    1.46
   0  -6   2   20.12    1.09
   0  -6   2   21.60    0.99
   0  -6   1  167.05    4.18
   0  -6   1  170.52    3.88
   0  -6   0  226.83    5.26
   0  -6   0  227.53    5.48
   0   6   0  225.09    5.76
   0  -6  -1  192.42    4.39
   0   6   1  185.91    5.78
   0   6   1  188.22    5.04
   0  -6  -2  435.40   17.18
   0   6   2  379.78   17.04
   0   6   2  387.45   16.99
   0  -6  -3   16.76    1.04
   0   6   3   14.43    1.07
   0   6   3   15.45    1.11
   0  -6  -4   52.21    2.60
   0   6   4   43.68    2.45
   0   6   4   47.65    2.57
   0  -6  -5   66.78    3.34
   0   6   5   57.85    3.08
   0   6   5   63.80    3.35
   0  -6  -6    9.71    1.01
   0   6   6    8.48    1.12
   0   6   6    9.82    1.04
   0  -6  -7   -1.09    0.85
   0   6   7   -0.09    1.03
   0   6   7   -0.11    1.03
   0  -6  -8   41.11    2.08
   0   6   8   44.29    2.23
   0   6   8   43.32    2.23
   0  -6  -9    6.33    1.06
   0   6   9    6.18    1.23
   0   6   9    7.74    1.25
   0   6  10   -0.13    0.97
   0   6  10   -0.50    1.17
   0   6  11    3.52    1.17
   0   6  11    3.39    1.19
   0   6  12    3.74    1.42
   0   6  12    6.31    1.36
   0   6  13   -1.61    1.46
   0   6  13   -1.93    1.41
   0   6  14   13.30    1.41
   0   6  15   -0.34    1.62
   0  -7  18    8.33    1.43
   0  -7  17   33.40    1.89
   0  -7  16   53.26    3.86
   0  -7  15   -1.76    1.21
   0   7 -15   -0.01    1.39
   0  -7  14   31.01    1.62
   0  -7  14   28.85    1.60
   0   7 -14   28.83    1.74
   0  -7  13   82.99    3.38
   0  -7  13   73.26    3.03
   0   7 -13   65.61    2.96
   0  -7  12    4.26    1.05
   0  -7  12    1.78    1.09
   0   7 -12    2.98    1.24
   0  -7  11   -0.62    1.02
   0  -7  11   -0.35    0.95
   0   7 -11    0.43    1.14
   0  -7  10   10.53    1.09
   0  -7  10    9.32    0.91
   0   7 -10    9.07    1.16
   0  -7   9   51.78    2.63
   0  -7   9   54.95    2.79
   0   7  -9   47.27    2.98
   0  -7   8    3.00    0.93
   0  -7   8    2.63    0.82
   0   7  -8    3.38    1.03
   0  -7   7  210.77    9.10
   0  -7   7  196.72    8.49
   0   7  -7  206.02    9.59
   0  -7   6    1.39    0.78
   0  -7   6    1.46    0.66
   0   7  -6    1.57    0.99
   0  -7   5   78.35    3.26
   0  -7   5   77.41    3.14
   0   7  -5   82.05    3.54
   0  -7   4  132.58    5.16
   0  -7   4  131.90    5.01
   0   7  -4  142.19    5.81
   0  -7   3   12.00    0.80
   0   7  -3   13.33    1.05
   0  -7   2    1.05    0.82
   0  -7   2    0.41    0.65
   0  -7   1  129.78    5.62
   0  -7   1  130.93    5.42
   0  -7   0    3.93    0.82
   0  -7   0    4.77    0.77
   0   7   0    3.04    0.84
   0  -7  -1   12.14    1.06
   0   7   1   10.24    1.04
   0   7   1   11.62    1.07
   0  -7  -2    1.41    0.86
   0   7   2    0.92    0.87
   0   7   2    1.47    0.87
   0   7   3   88.08    4.28
   0  -7  -4    6.27    0.97
   0   7   4    4.44    0.92
   0   7   4    6.31    1.04
   0  -7  -5    1.21    0.92
   0   7   5    1.46    0.92
   0   7   5   -0.27    1.02
   0  -7  -6   29.93    2.00
   0   7   6   24.51    1.80
   0   7   6   29.17    2.07
   0  -7  -7   -0.07    0.99
   0   7   7   -0.40    1.05
   0   7   7   -0.45    1.13
   0  -7  -8  122.73    5.95
   0   7   8  125.17    6.19
   0   7   8  120.62    5.93
   0   7   9    5.34    1.21
   0   7   9    6.22    1.15
   0   7  10    7.91    1.48
   0   7  10    8.37    1.49
   0   7  11   50.60    2.08
   0   7  11   53.56    2.10
   0   7  12   24.36    1.87
   0   7  12   22.28    1.83
   0   7  13    2.45    1.48
   0   7  13    0.58    1.44
   0   7  14    5.30    1.37
   0  -8  17    3.93    1.52
   0  -8  16    3.93    1.37
   0  -8  15   18.54    1.56
   0   8 -15   17.11    1.71
   0  -8  14   18.10    1.37
   0  -8  14   16.21    1.43
   0   8 -14   14.32    1.49
   0  -8  13   19.08    1.37
   0  -8  13   18.01    1.21
   0   8 -13   19.37    1.50
   0  -8  12   18.12    1.32
   0  -8  12   15.48    1.13
   0   8 -12   17.50    1.51
   0  -8  11   14.81    1.26
   0  -8  11   12.89    1.10
   0   8 -11   14.03    1.33
   0  -8  10   45.38    2.20
   0  -8  10   44.40    2.09
   0   8 -10   45.30    2.36
   0  -8   9    1.01    0.97
   0  -8   9    0.35    0.86
   0   8  -9    0.39    1.12
   0  -8   8   15.37    1.40
   0  -8   8   13.25    1.21
   0   8  -8   14.07    1.41
   0  -8   7   97.54    4.06
   0  -8   7   89.96    3.83
   0   8  -7   92.72    4.05
   0  -8   6  112.00    4.61
   0  -8   6  111.95    4.53
   0   8  -6  112.05    4.75
   0  -8   5    2.18    0.94
   0  -8   5    0.32    0.65
   0   8  -5    0.75    0.96
   0  -8   4   -0.32    0.61
   0   8  -4   -1.16    0.87
   0  -8   3    8.09    0.87
   0   8  -3    8.71    1.00
   0  -8   2   11.37    1.05
   0  -8   2   11.11    0.92
   0  -8   1  167.20    7.29
   0  -8   1  154.85    6.75
   0  -8   0   27.06    1.75
   0   8   0   22.64    1.62
   0   8   0   25.82    1.76
   0  -8  -1   13.78    1.16
   0   8   1   12.27    1.03
   0   8   1   14.23    1.19
   0  -8  -2   15.94    1.38
   0   8   2   13.99    1.29
   0   8   2   15.70    1.41
   0  -8  -3  153.49    6.21
   0   8   3  135.57    5.83
   0   8   3  152.79    6.38
   0  -8  -4   11.83    1.28
   0   8   4   11.16    1.19
   0   8   4   10.23    1.09
   0  -8  -5   20.53    1.20
   0   8   5   17.48    1.26
   0   8   5   18.97    1.29
   0  -8  -6  169.16    5.77
   0   8   6  175.07    6.04
   0  -8  -7   19.82    1.50
   0   8   7   18.94    1.37
   0   8   7   20.49    1.48
   0  -8  -8    0.67    1.15
   0   8   8   -0.21    1.20
   0   8   8    1.38    1.24
   0   8   9   86.09    4.25
   0   8   9   99.90    4.89
   0   8  10    3.13    1.36
   0   8  10    2.55    1.58
   0   8  11   -0.18    1.37
   0   8  11    1.70    1.55
   0   8  12    0.88    1.39
   0   8  12    0.33    1.37
   0   8  13    2.21    1.49
   0   8  13   -1.42    1.53
   0  -9  17    1.54    1.42
   0  -9  16   28.59    1.58
   0  -9  15   52.89    3.86
   0   9 -15   49.35    3.75
   0  -9  14    3.44    1.24
   0  -9  14    0.20    1.22
   0   9 -14    0.27    1.40
   0  -9  13   -0.55    1.12
   0  -9  13   -0.61    1.13
   0   9 -13   -0.12    1.32
   0  -9  12   42.87    2.36
   0  -9  12   45.39    2.49
   0   9 -12   42.50    2.56
   0  -9  11    6.86    1.27
   0  -9  11    6.81    1.13
   0   9 -11    4.78    1.30
   0  -9  10    7.64    1.20
   0  -9  10    7.47    1.04
   0   9 -10    7.62    1.14
   0  -9   9   26.57    1.62
   0  -9   9   24.15    1.44
   0   9  -9   28.57    1.82
   0  -9   8    1.00    1.08
   0  -9   8    2.87    0.88
   0   9  -8    3.03    1.17
   0  -9   7    0.87    1.04
   0  -9   7    0.75    0.76
   0   9  -7    2.16    1.16
   0  -9   6   21.24    1.66
   0  -9   6   18.70    1.38
   0   9  -6   17.20    1.56
   0  -9   5   29.12    1.99
   0  -9   5   26.27    1.69
   0   9  -5   27.43    1.94
   0  -9   4    7.09    0.82
   0   9  -4    6.68    1.11
   0  -9   3  184.05    7.35
   0  -9   3  165.68    6.61
   0   9  -3  191.33    7.83
   0  -9   2    0.55    0.93
   0  -9   2    1.94    0.83
   0  -9   1    9.99    1.18
   0  -9   1    8.05    0.85
   0  -9   0  152.20    6.78
   0   9   0  158.47    7.06
   0  -9  -1    1.88    0.92
   0   9   1    0.36    0.83
   0   9   1    0.30    1.00
   0  -9  -2   60.29    3.06
   0   9   2   47.84    2.91
   0   9   2   60.10    3.15
   0  -9  -3  103.77    3.47
   0  -9  -4    9.06    1.07
   0   9   4    7.72    1.14
   0   9   4    7.00    1.16
   0  -9  -5   78.14    4.06
   0   9   5   73.20    3.83
   0   9   5   80.35    4.19
   0  -9  -6    2.49    1.22
   0   9   6    1.31    1.09
   0   9   6    0.25    1.34
   0  -9  -7   14.44    1.46
   0   9   7   16.08    1.38
   0   9   7   17.25    1.62
   0  -9  -8    1.16    1.17
   0   9   8    1.21    1.23
   0   9   8   -0.83    1.40
   0   9   9   10.68    1.39
   0   9   9    9.68    1.53
   0   9  10   10.99    1.53
   0   9  10    8.74    1.47
   0   9  11   -0.51    1.56
   0   9  12   17.09    1.85
   0 -10  16    1.07    1.25
   0 -10  15    2.46    1.32
   0  10 -15    1.41    1.59
   0 -10  14    4.53    1.42
   0 -10  14    3.93    1.13
   0  10 -14    5.51    1.62
   0 -10  13   15.10    1.61
   0 -10  13   14.35    1.43
   0  10 -13   14.28    1.71
   0 -10  12   55.81    2.10
   0 -10  12   59.33    2.03
   0  10 -12   56.15    2.27
   0 -10  11    7.20    1.21
   0 -10  11    4.46    1.17
   0  10 -11    4.96    1.43
   0 -10  10   20.97    1.29
   0 -10  10   23.30    1.30
   0  10 -10   26.70    1.86
   0 -10   9   38.29    2.16
   0 -10   9   33.11    1.83
   0  10  -9   38.45    2.32
   0 -10   8   15.01    1.35
   0 -10   8   13.29    1.06
   0  10  -8   14.12    1.43
   0 -10   7   65.30    3.42
   0 -10   7   65.13    3.34
   0  10  -7   61.61    3.46
   0 -10   6   10.13    1.20
   0  10  -6   11.39    1.38
   0 -10   5   -0.32    0.96
   0  10  -5   -1.33    1.22
   0  10  -4  105.98    3.56
   0 -10   3    0.64    1.09
   0  10  -3    0.05    1.16
   0 -10   2    0.55    1.03
   0 -10   1    0.43    0.94
   0 -10   0    6.22    0.94
   0  10   0    4.15    0.97
   0  10   0    5.76    1.07
   0 -10  -1   18.74    1.26
   0  10   1   16.69    1.28
   0  10   1   16.10    1.22
   0 -10  -2   12.34    1.35
   0  10   2   10.15    1.17
   0  10   2    9.83    1.16
   0 -10  -3    3.86    1.04
   0  10   3    4.49    1.14
   0  10   3    3.86    1.12
   0 -10  -4    5.37    1.14
   0  10   4    5.32    1.09
   0  10   4    6.62    1.32
   0 -10  -5   87.77    3.56
   0  10   5   98.99    4.05
   0 -10  -6   17.30    1.47
   0  10   6   22.35    1.72
   0 -10  -7    2.60    1.41
   0  10   7    4.37    1.47
   0  10   8    1.88    1.45
   0  10   9    2.80    1.63
   0  10  10   -1.85    1.75
   0  10  11   -0.09    1.77
   0  11 -15   18.99    1.81
   0 -11  14   12.84    1.52
   0  11 -14   14.44    1.70
   0 -11  13   66.99    4.82
   0  11 -13   73.51    5.30
   0 -11  12    7.42    1.45
   0  11 -12    7.45    1.66
   0 -11  11    4.66    1.19
   0  11 -11    3.49    1.61
   0 -11  10    5.66    1.23
   0  11 -10    6.67    1.48
   0 -11   9   15.16    1.42
   0  11  -9   15.56    1.62
   0 -11   8    1.19    1.24
   0  11  -8    1.68    1.35
   0 -11   7    0.85    1.15
   0  11  -7   -0.17    1.17
   0 -11   6    8.91    1.31
   0  11  -6    8.55    1.44
   0 -11   5    4.24    1.18
   0  11  -5    6.16    1.39
   0  11  -4   72.69    3.84
   0 -11   3   46.15    1.76
   0  11  -3   46.58    1.80
   0 -11   2    0.82    1.26
   0 -11   1  110.94    5.50
   0 -11   0    1.62    1.27
   0  11   0    1.17    1.33
   0 -11  -1   19.82    1.67
   0  11   1   17.55    1.49
   0 -11  -2   14.73    1.35
   0  11   2   14.16    1.49
   0 -11  -3   25.98    1.59
   0  11   3   24.62    1.60
   0 -11  -4   19.82    1.66
   0  11   4   17.65    1.46
   0 -11  -5    9.12    1.28
   0  11   5   13.05    1.64
   0 -11  -6   17.77    1.61
   0  11   6   18.80    1.83
   0 -11  -7    3.03    1.52
   0  11   7    4.63    1.65
   0  11   8   24.72    2.47
   0  11   9   -0.24    1.72
   0  11  10    4.54    1.85
   0 -12  14    0.06    1.47
   0  12 -14   -0.12    1.60
   0 -12  13   19.73    1.90
   0  12 -13   15.08    1.83
   0 -12  12   33.46    2.83
   0  12 -12   33.94    3.01
   0 -12  11   -0.14    1.41
   0  12 -11    1.61    1.68
   0 -12  10   26.91    1.92
   0  12 -10   30.48    2.00
   0 -12   9    3.91    1.38
   0  12  -9    1.94    1.40
   0 -12   8    0.81    1.44
   0  12  -8    0.37    1.59
   0 -12   7   63.26    3.33
   0  12  -7   61.39    3.30
   0 -12   6   22.35    1.65
   0  12  -6   24.99    1.81
   0  12  -5    6.89    1.56
   0  12  -4   -1.29    1.33
   0 -12   3   80.37    3.35
   0  12  -3   89.02    3.66
   0 -12   2    1.81    1.24
   0 -12   1   34.26    2.23
   0 -12   0   18.62    1.59
   0  12   0   19.70    1.67
   0 -12  -1    1.56    1.45
   0  12   1    0.96    1.25
   0 -12  -2   36.92    1.92
   0  12   2   33.03    1.76
   0 -12  -3   23.45    1.75
   0  12   3   18.95    1.68
   0 -12  -4    4.21    1.57
   0  12   4    3.71    1.65
   0 -12  -5   16.39    1.86
   0  12   5   17.62    1.91
   0 -12  -6   36.83    3.06
   0  12   6   37.30    3.17
   0 -12  -7    9.78    1.68
   0  12   7    9.63    1.65
   0  12   8    3.23    1.65
   0 -13  13   13.23    1.55
   0  13 -13   14.19    1.91
   0 -13  12    8.04    1.52
   0  13 -12    7.64    1.78
   0 -13  11    0.21    1.50
   0  13 -11    1.71    1.53
   0 -13  10    0.06    1.53
   0  13 -10    3.22    1.76
   0 -13   9   44.44    3.42
   0  13  -9   47.71    3.83
   0 -13   8   -0.63    1.51
   0  13  -8    0.89    1.75
   0 -13   7    5.89    1.60
   0  13  -7    6.51    1.67
   0 -13   6   15.00    1.43
   0  13  -6   12.68    1.67
   0  13  -5   17.63    1.72
   0  13  -4    4.13    1.51
   0 -13   3    9.93    1.57
   0  13  -3   11.98    1.57
   0 -13   2    2.24    1.49
   0 -13   1    9.12    1.59
   0 -13   0   50.06    1.93
   0  13   0   46.60    1.90
   0 -13  -1    4.34    1.58
   0  13   1    2.63    1.54
   0 -13  -2    3.51    1.41
   0  13   2    1.56    1.50
   0 -13  -3   28.52    2.50
   0  13   3   30.55    2.65
   0 -13  -4    3.85    1.60
   0  13   4    3.67    1.85
   0 -13  -5   -1.93    1.59
   0  13   5    0.34    1.53
   0 -13  -6   10.96    1.79
   0  13   6    9.38    1.92
   0  13   7    1.70    1.67
   0 -14  11    5.25    1.56
   0  14 -11    4.53    1.85
   0 -14  10    4.07    1.69
   0  14 -10    3.31    1.75
   0 -14   9    2.43    1.62
   0  14  -9    0.26    1.58
   0 -14   8    7.74    1.48
   0  14  -8    8.22    1.67
   0 -14   7    1.75    1.39
   0  14  -7    4.00    1.60
   0 -14   6   48.97    3.84
   0  14  -6   55.19    4.21
   0  14  -5   13.19    1.85
   0 -14   4   15.07    1.56
   0  14  -4   14.58    1.79
   0 -14   3   37.73    3.15
   0  14  -3   46.20    3.64
   0 -14   2    1.88    1.53
   0 -14   1   23.72    2.41
   0 -14   0    3.98    1.47
   0  14   0    6.11    1.65
   0 -14  -1   14.63    1.85
   0  14   1   18.01    1.99
   0 -14  -2    0.49    1.46
   0  14   2   -0.84    1.69
   0 -14  -3    0.58    1.58
   0  14   3    2.33    1.80
   0 -14  -4    4.17    1.59
   0  14   4    3.37    1.66
   0 -14  -5   27.00    1.94
   0 -15   9    5.26    1.62
   0  15  -9    3.59    1.97
   0 -15   8   18.78    1.87
   0  15  -8   18.54    2.20
   0 -15   7   20.12    1.84
   0  15  -7   22.77    2.08
   0 -15   6    3.82    1.78
   0  15  -6    1.33    1.90
   0  15  -5   -0.06    1.66
   0 -15   4    2.81    1.72
   0  15  -4   -0.22    1.81
   0 -15   3    4.23    1.63
   0  15  -3    3.02    1.79
   0 -15   2    4.31    1.80
   0 -15   1   26.38    1.92
   0 -15   0    8.31    1.93
   0  15   0   10.32    2.00
   0 -15  -1    1.40    1.61
   0  15   1    0.19    1.69
   1 -15  -2    7.01    1.77
   1 -15  -1   13.82    1.65
   1 -15   0    1.24    1.71
  -1  15   0    0.20    1.78
   1 -15   1    5.19    1.74
  -1  15  -1    6.74    1.92
   1 -15   2   19.24    1.90
  -1  15  -2   16.13    1.98
   1 -15   3    2.32    1.79
  -1  15  -3    1.82    1.88
   1 -15   4    7.78    1.78
  -1  15  -4    3.17    1.83
   1 -15   5   22.36    2.04
  -1  15  -5   25.24    1.95
  -1  15  -6    5.67    1.94
   1 -15   7   14.71    1.84
  -1  15  -7   16.13    1.96
   1 -15   8   30.88    1.86
  -1  15  -8   28.95    1.99
   1 -14  -5   15.49    1.76
  -1  14   5   18.81    1.92
   1 -14  -4    1.71    1.71
  -1  14   4    3.55    1.92
   1 -14  -3    0.76    1.45
  -1  14   3    4.21    1.87
   1 -14  -2   25.65    2.18
   1 -14  -1   -0.45    1.53
   1 -14   0    0.21    1.45
  -1  14   0   -1.44    1.66
   1 -14   1   29.37    2.65
  -1  14  -1   33.64    2.87
   1 -14   2   -1.75    1.45
  -1  14  -2    0.29    1.64
   1 -14   3    1.02    1.37
  -1  14  -3    1.77    1.47
   1 -14   4    2.67    1.52
  -1  14  -4    5.85    1.49
   1 -14   5    1.69    1.51
  -1  14  -5    1.67    1.71
  -1  14  -6   13.13    1.79
   1 -14   7    0.67    1.56
  -1  14  -7   -0.85    1.69
   1 -14   8    5.79    1.48
  -1  14  -8    8.98    1.64
   1 -14   9    9.17    1.73
  -1  14  -9    7.07    1.81
   1 -14  10   -0.13    1.72
  -1  14 -10    2.40    1.63
   1 -14  11   -0.34    1.71
  -1  14 -11   -0.44    1.79
  -1  13   7   10.09    2.01
  -1  13   6    9.16    1.99
   1 -13  -5    0.20    1.63
  -1  13   5    4.01    1.89
   1 -13  -4    6.96    1.65
  -1  13   4    8.83    1.75
   1 -13  -3    2.12    1.57
  -1  13   3    1.48    1.65
   1 -13  -2   11.07    1.63
   1 -13  -1    8.66    1.55
   1 -13   0    2.91    1.49
  -1  13   0    0.24    1.29
   1 -13   1   -0.54    1.42
  -1  13  -1    0.51    1.43
   1 -13   2    4.77    1.52
  -1  13  -2    4.80    1.53
   1 -13   3    0.48    1.47
  -1  13  -3    0.02    1.51
   1 -13   4   13.45    1.31
  -1  13  -4   14.21    1.69
   1 -13   5    3.16    1.40
  -1  13  -5    1.09    1.41
  -1  13  -6   -0.14    1.43
   1 -13   7   37.16    2.23
  -1  13  -7   41.25    2.43
   1 -13   8   27.86    2.00
  -1  13  -8   24.63    1.90
   1 -13   9   13.62    1.47
  -1  13  -9   14.87    1.61
   1 -13  10   -1.56    1.56
  -1  13 -10   -0.75    1.72
   1 -13  11   59.64    3.35
  -1  13 -11   57.24    3.31
   1 -13  12   -0.61    1.57
  -1  13 -12    0.89    1.59
   1 -13  13    9.50    1.71
  -1  12   9   -1.56    1.85
  -1  12   8   -2.54    1.91
  -1  12   7   10.90    1.65
   1 -12  -6    1.15    1.56
  -1  12   6    0.97    1.63
   1 -12  -5   14.56    1.67
  -1  12   5   17.52    1.93
   1 -12  -4    9.35    1.48
  -1  12   4    7.13    1.62
   1 -12  -3    6.78    1.42
  -1  12   3    7.01    1.61
   1 -12  -2    7.41    1.41
  -1  12   2    6.02    1.33
   1 -12  -1   -1.14    1.11
   1 -12   0    5.34    1.39
  -1  12   0    5.73    1.34
   1 -12   1    0.15    1.40
  -1  12  -1    0.97    1.34
   1 -12   2   24.05    1.39
  -1  12  -2   32.71    2.07
   1 -12   3    9.98    1.44
  -1  12  -3   13.41    1.48
   1 -12   4    6.47    1.39
  -1  12  -4    9.16    1.62
  -1  12  -5    8.90    1.58
  -1  12  -6   20.97    1.75
   1 -12   7    5.21    1.39
  -1  12  -7    7.40    1.54
   1 -12   8   21.89    1.59
  -1  12  -8   23.76    1.74
   1 -12   9    3.77    1.30
  -1  12  -9    4.22    1.60
   1 -12  10   -0.77    1.49
  -1  12 -10   -0.25    1.58
   1 -12  11    0.34    1.35
  -1  12 -11    1.42    1.59
   1 -12  12    9.13    1.53
  -1  12 -12    8.45    1.67
   1 -12  13   10.10    1.64
  -1  12 -13    8.26    1.66
   1 -12  14   31.15    1.89
  -1  11  10   -0.09    1.87
  -1  11   9    8.83    1.65
  -1  11   8   -1.55    1.81
  -1  11   7    8.39    1.48
   1 -11  -6    7.64    1.38
  -1  11   6    8.69    1.67
   1 -11  -5    7.26    1.48
  -1  11   5    8.82    1.65
   1 -11  -4    1.12    1.28
  -1  11   4    2.25    1.45
   1 -11  -3    6.63    1.32
  -1  11   3    5.77    1.27
   1 -11  -2    0.32    1.22
  -1  11   2   -0.34    1.08
   1 -11  -1   10.08    1.38
   1 -11   0    6.90    1.24
  -1  11   0    6.43    1.18
   1 -11   1    2.39    1.21
  -1  11  -1    3.86    1.30
   1 -11   2   20.59    1.51
  -1  11  -2   23.61    1.75
   1 -11   3    9.86    1.36
  -1  11  -3    7.60    1.33
   1 -11   4    0.25    1.25
  -1  11  -4   -0.45    1.34
  -1  11  -5    6.86    1.38
  -1  11  -6   32.56    2.11
   1 -11   7   16.10    1.34
  -1  11  -7   15.55    1.51
   1 -11   8    0.73    1.36
  -1  11  -8    0.12    1.38
   1 -11   9   64.04    3.33
  -1  11  -9   68.89    3.63
   1 -11  10   56.66    2.19
  -1  11 -10   50.88    2.02
   1 -11  11    5.36    1.42
  -1  11 -11    5.59    1.47
   1 -11  12   10.00    1.61
  -1  11 -12    8.55    1.50
   1 -11  13   16.02    1.53
  -1  11 -13   15.78    1.62
   1 -11  14    0.65    1.40
   1 -11  15    7.12    1.53
  -1  10  12    3.70    1.95
  -1  10  11   16.03    1.76
  -1  10  10    7.05    1.86
  -1  10   9    5.48    1.43
  -1  10   8    8.39    1.66
  -1  10   7    7.21    1.62
   1 -10  -6   12.50    1.35
  -1  10   6   11.43    1.70
   1 -10  -5    9.55    1.41
  -1  10   5    9.44    1.47
   1 -10  -4   38.56    2.23
  -1  10   4   35.02    2.09
   1 -10  -3    5.09    1.25
  -1  10   3    8.02    1.30
   1 -10  -2   38.94    1.97
  -1  10   2   41.55    2.22
   1 -10  -1   18.15    1.28
   1 -10   0   32.20    1.89
  -1  10   0   32.78    1.88
   1 -10   1    3.17    1.11
  -1  10  -1    3.12    1.12
   1 -10   2    3.86    0.97
  -1  10  -2    2.90    1.23
   1 -10   3   17.70    1.26
  -1  10  -3   16.53    1.39
   1 -10   4  146.06    4.33
  -1  10  -4  128.93    3.97
  -1  10  -5    7.49    1.40
   1 -10   6    0.65    0.98
  -1  10  -6    0.16    1.20
   1 -10   7   32.47    1.80
  -1  10  -7   29.40    1.83
   1 -10   8   85.06    3.80
  -1  10  -8   90.32    4.09
   1 -10   9    1.69    1.06
  -1  10  -9   -0.50    1.30
   1 -10  10    0.67    1.18
  -1  10 -10    0.31    1.32
   1 -10  11    2.33    1.14
  -1  10 -11    1.14    1.18
   1 -10  12    8.32    1.38
  -1  10 -12    9.33    1.54
   1 -10  13   39.56    2.03
  -1  10 -13   38.51    2.19
   1 -10  14    0.65    1.38
   1 -10  15    3.65    1.42
  -1   9  13   -0.31    1.53
  -1   9  12    1.46    1.72
  -1   9  11    2.53    1.41
  -1   9  10    1.92    1.58
  -1   9   9   -0.95    1.54
  -1   9   8    4.19    1.56
   1  -9  -7   15.61    1.35
  -1   9   7   16.77    1.63
   1  -9  -6   12.64    1.33
  -1   9   6   11.93    1.43
   1  -9  -5   46.08    1.64
  -1   9   5   49.87    2.85
   1  -9  -4   13.05    1.26
  -1   9   4   10.54    1.24
   1  -9  -3   28.73    1.74
  -1   9   3   25.33    1.39
  -1   9   3   33.21    2.01
   1  -9  -2   64.27    3.16
  -1   9   2   57.29    2.94
  -1   9   2   60.83    3.07
   1  -9  -1   84.33    3.97
  -1   9   1   69.71    3.45
   1  -9   0    0.81    0.95
  -1   9   0   -0.12    0.79
   1  -9   1   33.69    2.10
  -1   9  -1   33.57    2.14
   1  -9   2   76.51    3.30
  -1   9  -2   81.83    3.55
   1  -9   3    4.80    1.00
  -1   9  -3    4.00    1.25
   1  -9   4   54.33    2.71
  -1   9  -4   64.97    3.26
  -1   9  -5   -1.43    1.05
   1  -9   6    2.77    0.98
  -1   9  -6    3.06    1.21
   1  -9   7  250.73    6.89
  -1   9  -7  263.14    7.34
   1  -9   8  175.41    5.81
   1  -9   8  175.30    5.74
  -1   9  -8  169.39    5.71
   1  -9   9    2.26    1.16
   1  -9   9    2.36    0.87
  -1   9  -9    1.20    1.14
   1  -9  10  139.72    5.87
   1  -9  10  120.35    5.04
  -1   9 -10  131.95    5.66
   1  -9  11   21.53    1.43
   1  -9  11   19.36    1.12
  -1   9 -11   18.34    1.47
   1  -9  12    9.79    1.47
   1  -9  12    6.67    1.23
  -1   9 -12    7.68    1.40
   1  -9  13    4.39    1.36
   1  -9  13    5.09    1.05
  -1   9 -13    3.30    1.39
   1  -9  14   10.38    1.52
   1  -9  14    8.32    1.28
   1  -9  15    8.33    1.35
   1  -9  15   10.80    1.37
   1  -9  16   13.86    1.53
  -1   8  14    0.70    1.50
  -1   8  13   -0.58    1.62
  -1   8  12   27.16    2.55
  -1   8  11   70.88    3.17
  -1   8  10    2.46    1.26
  -1   8  10    1.16    1.23
  -1   8   9    0.70    1.08
  -1   8   9   -0.46    1.22
  -1   8   8   48.83    2.50
  -1   8   8   48.63    2.57
   1  -8  -7    3.68    1.06
  -1   8   7    2.45    1.01
  -1   8   7    2.99    1.30
   1  -8  -6    6.02    1.08
  -1   8   6    6.21    1.10
  -1   8   6    7.14    1.11
   1  -8  -5   10.44    1.12
  -1   8   5   10.43    1.10
  -1   8   5   11.37    1.14
   1  -8  -4    2.89    1.04
  -1   8   4    3.76    0.92
  -1   8   4    3.92    1.01
   1  -8  -3    1.48    0.93
  -1   8   3    1.69    0.83
  -1   8   3    2.61    1.10
   1  -8  -2   38.77    2.45
  -1   8   2   34.51    2.41
  -1   8   2   45.46    3.02
   1  -8  -1   15.61    1.35
  -1   8   1   13.31    1.04
   1  -8   0   28.29    1.81
  -1   8   0   23.25    1.60
   1  -8   1   58.08    2.92
  -1   8  -1   59.36    3.21
   1  -8   2    5.97    0.93
  -1   8  -2    6.85    1.03
   1  -8   3   25.17    1.55
   1  -8   3   27.03    1.60
  -1   8  -3   24.79    1.62
   1  -8   4   15.50    1.12
  -1   8  -4   17.69    1.45
   1  -8   5  206.87    8.00
  -1   8  -5  193.61    8.16
   1  -8   6  105.22    4.33
   1  -8   6  103.86    4.21
  -1   8  -6   89.88    3.91
   1  -8   7    6.79    1.08
   1  -8   7    6.68    0.84
  -1   8  -7    6.00    1.12
   1  -8   8  149.79    4.44
   1  -8   8  151.35    4.41
  -1   8  -8  154.32    4.86
   1  -8   9    0.51    1.06
   1  -8   9    1.22    0.84
  -1   8  -9   -0.51    1.07
   1  -8  10    3.44    1.16
   1  -8  10    2.24    0.96
  -1   8 -10    2.13    1.09
   1  -8  11    1.63    1.13
   1  -8  11    2.63    1.03
  -1   8 -11    0.92    1.16
   1  -8  12    4.74    1.23
   1  -8  12    3.80    1.05
  -1   8 -12    4.61    1.26
   1  -8  13   42.10    1.78
   1  -8  13   40.21    1.75
  -1   8 -13   40.09    1.86
   1  -8  14   20.07    1.44
   1  -8  14   18.49    1.43
   1  -8  15    8.39    1.39
   1  -8  15    7.47    1.38
   1  -8  16    2.43    1.41
   1  -8  17   26.16    1.52
  -1   7  14    1.73    1.32
  -1   7  14    2.89    1.63
  -1   7  13   20.28    2.02
  -1   7  13   20.50    2.18
  -1   7  12    8.53    1.19
  -1   7  12    8.09    1.41
  -1   7  11    2.04    1.16
  -1   7  11    1.79    1.39
  -1   7  10   -0.23    1.03
  -1   7  10    0.05    1.32
  -1   7   9    4.34    1.12
  -1   7   9    6.82    1.37
  -1   7   8   15.21    1.31
  -1   7   8   18.32    1.48
   1  -7  -7    6.69    1.00
  -1   7   7    6.48    1.10
  -1   7   7    8.25    1.21
   1  -7  -6   51.50    2.63
  -1   7   6   43.79    2.65
  -1   7   6   53.05    2.83
   1  -7  -5   23.38    1.62
  -1   7   5   22.28    1.68
  -1   7   5   27.38    1.93
   1  -7  -4   25.44    1.68
  -1   7   4   25.31    1.74
  -1   7   4   31.69    2.03
   1  -7  -3  141.98    6.24
  -1   7   3  126.58    6.14
  -1   7   3  142.75    6.37
   1  -7  -2    0.68    0.84
  -1   7   2    1.15    0.75
  -1   7   2    0.25    0.89
   1  -7  -1   28.29    1.67
  -1   7   1   26.16    1.64
   1  -7   0  215.46    7.90
  -1   7   0  179.66    7.16
   1  -7   1  262.28   10.59
   1  -7   1  242.00    9.68
  -1   7  -1  261.96   10.64
   1  -7   2   31.65    1.59
   1  -7   2   30.46    1.46
  -1   7  -2   29.84    1.62
   1  -7   3   11.03    0.88
   1  -7   3   12.40    0.81
  -1   7  -3   10.73    1.03
   1  -7   4   75.31    2.98
  -1   7  -4   79.58    3.37
   1  -7   5    1.44    0.67
  -1   7  -5   -0.32    0.84
   1  -7   6   89.11    4.11
   1  -7   6   84.37    3.80
  -1   7  -6   83.23    4.01
   1  -7   7    0.58    0.94
   1  -7   7    1.10    0.76
  -1   7  -7   -0.13    0.95
   1  -7   8   95.71    3.95
   1  -7   8  105.30    4.30
  -1   7  -8  107.26    4.53
   1  -7   9  176.38    7.76
   1  -7   9  162.52    7.12
  -1   7  -9  189.55    8.51
   1  -7  10  208.78    6.82
   1  -7  10  210.76    6.75
  -1   7 -10  206.44    7.15
   1  -7  11  181.69    8.50
   1  -7  11  181.69    8.49
  -1   7 -11  164.26    8.08
   1  -7  12    1.37    1.10
   1  -7  12    0.37    1.04
  -1   7 -12    0.11    1.08
   1  -7  13   54.27    2.83
   1  -7  13   63.27    3.19
  -1   7 -13   56.44    3.04
   1  -7  14    3.13    1.25
   1  -7  14    2.57    1.15
   1  -7  15    5.46    1.25
   1  -7  15    4.03    1.10
   1  -7  16    6.68    1.31
   1  -7  17    2.32    1.52
  -1   6  15    1.54    1.47
  -1   6  15   -0.23    1.61
  -1   6  14    2.32    1.36
  -1   6  14    0.01    1.32
  -1   6  13    3.60    1.39
  -1   6  13    3.18    1.52
  -1   6  12   47.13    1.95
  -1   6  12   49.38    2.15
  -1   6  11   -1.79    1.13
  -1   6  11    1.23    1.30
  -1   6  10    0.65    1.18
  -1   6  10    0.94    1.04
  -1   6   9   77.80    3.05
  -1   6   9   83.84    3.27
  -1   6   8    0.65    0.96
  -1   6   8    2.13    1.12
   1  -6  -7   16.97    1.39
  -1   6   7   17.33    1.54
  -1   6   7   18.60    1.57
   1  -6  -6   36.91    2.21
  -1   6   6   32.71    2.10
  -1   6   6   38.61    2.39
   1  -6  -5  148.65    6.49
  -1   6   5  142.30    6.76
  -1   6   5  129.40    5.97
   1  -6  -4   14.99    1.16
  -1   6   4   13.52    1.05
  -1   6   4   15.17    1.29
   1  -6  -3   34.60    1.89
  -1   6   3   35.42    1.99
  -1   6   3   35.50    2.08
   1  -6  -2  106.30    3.91
  -1   6   2   98.23    4.03
  -1   6   2  107.16    4.27
   1  -6  -1   31.67    2.21
  -1   6   1   38.46    2.02
   1  -6   0  235.37    5.46
  -1   6   0  205.64    5.69
   1  -6   1  187.46    4.62
   1  -6   1  181.75    4.07
  -1   6  -1  178.44    4.77
   1  -6   2   -0.95    0.61
   1  -6   3    2.43    0.81
   1  -6   3    2.77    0.63
  -1   6  -3    1.69    0.94
   1  -6   4  588.77   23.00
  -1   6  -4  609.84   25.08
   1  -6   5  106.07    3.86
   1  -6   5  107.02    3.85
  -1   6  -5  108.12    4.37
   1  -6   6    4.30    0.85
   1  -6   6    3.60    0.75
  -1   6  -6    2.61    0.84
   1  -6   7  274.29   10.01
   1  -6   7  293.54   10.55
  -1   6  -7  244.69    9.77
   1  -6   8    1.79    0.91
   1  -6   8    2.52    0.79
  -1   6  -8    0.61    0.95
   1  -6   9    5.88    0.98
   1  -6   9    3.33    0.86
  -1   6  -9    4.26    0.98
   1  -6  10   24.40    1.33
   1  -6  10   22.58    1.18
  -1   6 -10   25.48    1.33
   1  -6  11    0.04    0.98
   1  -6  11    2.29    0.95
  -1   6 -11    1.18    1.06
   1  -6  12    1.29    1.05
   1  -6  12    0.28    0.95
  -1   6 -12    0.11    0.99
   1  -6  13   -0.78    1.09
   1  -6  13    1.04    0.89
  -1   6 -13   -0.04    1.11
   1  -6  14   27.01    1.53
   1  -6  14   27.71    1.52
   1  -6  15   -0.59    1.18
   1  -6  15    0.58    1.24
   1  -6  16   28.24    2.39
   1  -6  17   -0.19    1.25
  -1   5  16    1.37    1.53
  -1   5  15   26.56    2.06
  -1   5  15   30.99    2.31
  -1   5  14   42.65    2.26
  -1   5  14   45.94    2.46
  -1   5  13    0.12    1.28
  -1   5  13   -0.99    1.35
  -1   5  12   23.19    1.56
  -1   5  12   24.87    1.48
  -1   5  11   79.46    3.69
  -1   5  11   80.70    3.76
  -1   5  10   18.25    1.28
  -1   5  10   17.35    1.24
  -1   5   9   42.75    2.14
  -1   5   9   40.16    2.09
   1  -5  -8   16.97    1.37
  -1   5   8   15.99    1.42
  -1   5   8   17.04    1.55
   1  -5  -7   43.21    2.33
  -1   5   7   37.63    2.26
  -1   5   7   37.86    2.44
   1  -5  -6   48.51    2.37
  -1   5   6   47.97    2.56
  -1   5   6   52.44    2.73
   1  -5  -5   20.97    1.31
  -1   5   5   18.57    1.35
  -1   5   5   20.86    1.48
   1  -5  -4    8.25    1.12
  -1   5   4    7.99    1.53
  -1   5   4   11.71    1.62
   1  -5  -3    8.62    0.82
  -1   5   3    7.36    0.81
  -1   5   3    8.12    0.93
   1  -5  -2  339.72    7.13
  -1   5   2  330.40    8.70
  -1   5   2  320.41    9.15
   1  -5  -1  206.96    4.80
  -1   5   1  195.71    5.13
   1  -5   0   41.63    1.96
   1  -5   0   42.39    1.86
   1  -5   1 1207.01   25.33
   1  -5   1 1235.46    6.48
  -1   5  -1 1252.33   25.76
   1  -5   2  178.64    4.03
   1  -5   2  180.77    3.88
  -1   5  -2  186.14    5.43
   1  -5   3  139.07    5.14
   1  -5   3  139.22    4.93
  -1   5  -3  139.81    5.64
   1  -5   4   94.47    3.47
  -1   5  -4   92.27    3.87
   1  -5   5   15.78    0.98
   1  -5   5   15.65    0.83
  -1   5  -5   16.09    1.06
   1  -5   6    2.24    0.78
   1  -5   6    1.23    0.61
  -1   5  -6    1.57    0.89
   1  -5   7  166.43    6.37
   1  -5   7  164.53    6.14
  -1   5  -7  170.89    6.81
   1  -5   8    8.95    0.98
   1  -5   8    8.39    0.85
  -1   5  -8    9.20    1.03
   1  -5   9   10.99    1.15
   1  -5   9    9.91    0.93
  -1   5  -9    9.14    1.02
   1  -5  10  257.15   11.08
   1  -5  10  259.29   11.14
  -1   5 -10  276.06   12.13
   1  -5  11    2.44    1.00
   1  -5  11    2.61    0.85
  -1   5 -11    2.70    1.00
   1  -5  12    5.09    1.10
   1  -5  12    6.26    1.08
  -1   5 -12    6.13    1.18
   1  -5  13   43.50    2.28
   1  -5  13   43.08    2.26
  -1   5 -13   44.42    2.33
   1  -5  14   13.40    1.30
   1  -5  14   15.79    1.38
   1  -5  15   12.03    1.34
   1  -5  15   11.53    1.21
   1  -5  16    1.14    1.29
   1  -5  17   44.36    2.72
   1  -5  18    2.41    1.61
  -1   4  16    0.32    1.50
  -1   4  15    3.91    1.40
  -1   4  15    1.40    1.47
  -1   4  14   10.25    1.29
  -1   4  14   11.35    1.48
  -1   4  13    1.73    1.27
  -1   4  13   -0.45    1.32
  -1   4  12    2.47    1.19
  -1   4  12    1.11    1.24
  -1   4  11   55.16    3.10
  -1   4  11   59.56    3.29
  -1   4  10    6.19    1.08
  -1   4  10    4.67    1.06
  -1   4   9   -0.10    0.93
  -1   4   9    0.94    1.01
   1  -4  -8   54.62    2.78
  -1   4   8   58.69    3.14
  -1   4   8   58.12    3.13
   1  -4  -7   29.51    1.67
  -1   4   7   26.40    1.65
  -1   4   7   26.04    1.85
   1  -4  -6    6.63    0.80
  -1   4   6    5.82    0.93
  -1   4   6    6.74    0.94
   1  -4  -5  143.21    5.93
  -1   4   5  142.84    6.44
  -1   4   5  141.93    6.45
   1  -4  -4  155.93    2.32
  -1   4   4  149.09    5.90
  -1   4   4  153.20    6.09
   1  -4  -3  107.70    3.99
  -1   4   3  119.06    4.73
  -1   4   3  112.00    4.52
   1  -4  -2    7.75    1.62
  -1   4   2   10.00    1.26
  -1   4   2    8.05    1.34
   1  -4  -1   19.64    1.80
  -1   4   1   26.87    1.68
   1  -4   0    2.14    0.80
   1  -4   0    1.62    0.94
   1  -4   1  323.95    9.17
   1  -4   1  338.29    8.60
  -1   4  -1  331.08   10.14
   1  -4   2  105.12    3.84
   1  -4   2  100.84    3.46
  -1   4  -2   98.46    3.95
   1  -4   3   83.58    2.94
  -1   4  -3   75.49    3.19
   1  -4   4   94.54    3.28
  -1   4  -4   93.45    3.74
   1  -4   5   57.96    2.45
   1  -4   5   60.50    2.42
  -1   4  -5   58.96    2.58
   1  -4   6   90.96    3.53
   1  -4   6   86.90    3.28
  -1   4  -6   90.83    3.62
   1  -4   7  134.08    5.58
   1  -4   7  128.47    5.27
  -1   4  -7  132.40    5.90
   1  -4   8   27.91    1.65
   1  -4   8   27.47    1.56
  -1   4  -8   29.25    1.76
   1  -4   9    4.83    0.91
   1  -4   9    4.65    0.78
  -1   4  -9    4.91    0.92
   1  -4  10   76.78    3.33
   1  -4  10   76.94    3.35
  -1   4 -10   79.24    3.40
   1  -4  11   26.86    1.28
   1  -4  11   27.04    1.60
  -1   4 -11   26.99    1.59
   1  -4  12    5.83    1.08
   1  -4  12    5.34    1.00
  -1   4 -12    5.21    1.07
   1  -4  13   49.93    2.45
   1  -4  13   54.82    2.71
  -1   4 -13   55.84    2.69
   1  -4  14    4.70    1.12
   1  -4  14    2.06    1.19
   1  -4  15   -0.17    1.26
   1  -4  16   11.93    1.51
   1  -4  17   15.93    1.64
   1  -4  18   13.84    1.74
  -1   3  17   11.00    1.47
  -1   3  16    7.30    1.47
  -1   3  15   16.33    1.63
  -1   3  15   17.64    1.73
  -1   3  14   67.04    2.32
  -1   3  14   63.24    2.23
  -1   3  13  135.07    5.36
  -1   3  13  143.23    5.40
  -1   3  12   16.44    1.21
  -1   3  12   14.40    1.21
  -1   3  11   -0.26    1.07
  -1   3  11   -2.37    1.01
  -1   3  10   17.37    1.47
  -1   3  10   19.24    1.58
  -1   3   9   85.23    3.98
  -1   3   9   82.56    3.82
   1  -3  -8  102.82    4.07
  -1   3   8  106.49    4.72
  -1   3   8  100.87    4.39
   1  -3  -7    0.12    0.69
  -1   3   7   -0.08    0.73
  -1   3   7   -0.41    0.76
   1  -3  -6    9.94    0.80
  -1   3   6    8.47    0.83
  -1   3   6    9.79    0.96
   1  -3  -5  635.85   12.90
  -1   3   5  597.88   16.04
   1  -3  -4   22.20    1.05
  -1   3   4   23.71    1.29
  -1   3   4   19.52    1.77
   1  -3  -3  325.12    8.60
  -1   3   3  342.59   10.33
   1  -3  -2    0.97    0.63
  -1   3   2    1.13    0.70
  -1   3   2    1.16    0.75
   1  -3   0  620.67   20.05
   1  -3   0  598.48   15.42
  -1   3   0  628.02   15.53
   1  -3   1  178.85    6.48
   1  -3   1  185.94    5.01
  -1   3  -1  206.37    6.25
   1  -3   2  137.65    5.10
   1  -3   2  134.69    4.45
  -1   3  -2  137.41    5.26
   1  -3   3  276.13    7.26
  -1   3  -3  250.61    8.28
   1  -3   4   26.20    1.28
  -1   3  -4   25.15    1.39
   1  -3   5    3.45    0.79
   1  -3   5    3.98    0.75
  -1   3  -5    3.52    0.76
   1  -3   6   84.38    3.27
   1  -3   6   86.47    3.33
  -1   3  -6   82.40    3.16
   1  -3   7   33.93    1.67
   1  -3   7   33.30    1.61
  -1   3  -7   32.92    1.61
   1  -3   8  142.47    5.41
   1  -3   8  144.84    6.24
  -1   3  -8  148.99    5.57
   1  -3   9  127.99    5.68
   1  -3   9  146.50    6.73
  -1   3  -9  141.66    6.21
   1  -3  10    1.71    0.89
   1  -3  10    0.51    0.82
  -1   3 -10   -0.26    0.94
   1  -3  11   43.79    2.55
   1  -3  11   52.99    2.71
  -1   3 -11   46.88    2.71
   1  -3  12   60.11    2.40
   1  -3  12   60.91    2.50
  -1   3 -12   65.09    2.55
   1  -3  13    1.06    0.96
   1  -3  13   -0.11    0.90
  -1   3 -13    1.33    1.05
   1  -3  14    0.63    1.01
   1  -3  14    0.52    1.23
   1  -3  15   10.87    2.64
   1  -3  16   38.80    2.17
   1  -3  17   13.96    1.66
   1  -3  18    1.71    1.45
  -1   2  17    8.40    1.63
  -1   2  16   -0.24    1.42
  -1   2  16   -1.74    1.15
  -1   2  15    0.82    1.39
  -1   2  15    0.27    1.32
  -1   2  14    1.08    1.28
  -1   2  14    0.11    1.20
  -1   2  13   19.78    1.63
  -1   2  13   20.39    1.58
  -1   2  12   62.14    3.48
  -1   2  12   66.48    3.54
  -1   2  11   73.80    2.95
  -1   2  11   70.58    2.74
  -1   2  10   15.69    1.40
  -1   2  10   15.23    1.34
  -1   2   9   81.24    4.06
  -1   2   9   85.12    4.17
   1  -2  -8   23.62    1.51
  -1   2   8   21.25    1.46
  -1   2   8   22.43    1.48
   1  -2  -7  103.07    3.79
  -1   2   7  102.21    4.20
  -1   2   7  100.71    4.06
   1  -2  -6  216.96    5.00
  -1   2   6  220.76    5.73
  -1   2   6  216.73    6.10
   1  -2  -5    4.06    0.71
  -1   2   5    3.88    0.78
  -1   2   5    4.17    0.82
   1  -2  -4   39.86    1.72
  -1   2   4   48.03    1.98
  -1   2   4   43.10    1.94
  -1   2   3  221.59    6.15
  -1   2   2   66.69    2.64
   1  -2  -1    0.87    0.67
  -1   2   1    1.71    0.56
   1  -2  -1    0.95    0.61
   1  -2   0    7.12    0.98
   1  -2   0    3.61    0.44
  -1   2   0    7.14    0.95
   1  -2   1  245.31    9.17
   1  -2   1  233.66    6.86
   1  -2   2  103.75    4.27
   1  -2   2  113.39    3.95
  -1   2  -2  106.99    4.01
   1  -2   3  298.00   10.09
  -1   2  -3  273.98    7.50
   1  -2   4    1.75    0.66
  -1   2  -4    1.74    0.69
  -1   2  -5   27.09    1.47
   1  -2   5   24.28    1.33
  -1   2  -5   23.86    1.30
  -1   2  -6  171.52    4.14
   1  -2   6  185.38    5.50
  -1   2  -6  175.36    4.00
  -1   2  -7  167.83    4.08
   1  -2   7  164.52    5.20
  -1   2  -7  168.54    3.87
  -1   2  -8   19.70    1.41
   1  -2   8   17.76    1.31
  -1   2  -8   18.03    1.10
  -1   2  -9   71.59    3.03
   1  -2   9   68.71    2.19
  -1   2  -9   69.98    2.94
  -1   2 -10   51.53    2.91
   1  -2  10   46.73    2.74
  -1   2 -10   48.08    2.68
   1  -2  11   24.10    1.77
  -1   2 -11   24.30    1.70
   1  -2  12    2.44    0.94
   1  -2  12    1.53    1.11
  -1   2 -12    3.72    0.98
   1  -2  13   84.25    3.74
   1  -2  13   81.94    3.92
  -1   2 -13   88.79    3.90
   1  -2  14   23.49    1.43
   1  -2  14   24.68    1.38
   1  -2  15   30.00    1.62
   1  -2  16    3.90    1.44
   1  -2  17   -1.61    1.52
   1  -2  18   17.98    1.74
  -1   1  18   11.70    1.66
  -1   1  17    3.97    1.54
  -1   1  16    8.39    1.50
  -1   1  16    7.39    1.32
  -1   1  15   24.78    1.52
  -1   1  15   32.21    1.73
  -1   1  14   19.38    1.46
  -1   1  14   16.84    1.41
  -1   1  13   20.88    1.59
  -1   1  13   21.04    1.57
  -1   1  12  156.44    6.17
  -1   1  12  160.13    5.72
  -1   1  11   94.43    4.59
  -1   1  11  107.81    5.25
  -1   1  10    6.50    0.89
  -1   1  10    8.38    1.00
  -1   1   9    5.64    0.87
  -1   1   9    7.11    0.90
   1  -1  -8  102.30    3.84
  -1   1   8  102.02    4.27
  -1   1   8   99.86    4.03
   1  -1  -7  175.20    4.16
  -1   1   7  179.98    5.51
  -1   1   7  173.91    5.01
   1  -1  -6    0.48    0.63
  -1   1   6    0.43    0.72
  -1   1   6    0.19    0.63
   1  -1  -5    0.18    0.63
  -1   1   5    0.81    0.65
  -1   1   5    0.27    0.74
   1  -1  -4    8.86    1.43
  -1   1   4   14.63    1.39
  -1   1   4   13.60    1.37
  -1   1   3  152.22    5.10
   1  -1  -2  424.54   11.14
  -1   1   2  468.81   11.73
  -1   1   2  427.07   10.80
   1  -1  -1  278.19    7.51
  -1   1   1  276.12    7.08
  -1   1   0  800.03   19.60
  -1   1  -1  426.91   10.82
   1  -1   1  407.14   10.30
  -1   1  -2  105.04    3.99
  -1   1  -2  100.88    3.83
  -1   1  -3    5.71    0.93
   1  -1   3    5.07    0.94
  -1   1  -4  171.01    5.01
   1  -1   4  171.83    6.92
   1  -1   4  161.76    2.52
  -1   1  -5   23.75    1.36
   1  -1   5   25.14    1.45
   1  -1   5   22.11    0.95
  -1   1  -6    2.85    0.81
   1  -1   6    1.84    0.71
   1  -1   6    3.20    0.66
  -1   1  -7    2.40    0.84
   1  -1   7    2.88    0.75
   1  -1   7    2.55    0.66
  -1   1  -8   63.59    2.66
   1  -1   8   65.33    3.03
   1  -1   8   65.27    2.59
  -1   1  -9   98.98    4.03
   1  -1   9  100.68    4.96
   1  -1   9   97.41    3.80
  -1   1 -10   65.03    2.96
   1  -1  10   62.32    3.18
   1  -1  10   60.94    2.68
  -1   1 -11    4.72    1.00
   1  -1  11    4.44    0.98
   1  -1  11    4.44    0.90
   1  -1  12    3.13    1.15
   1  -1  13  109.17    4.85
   1  -1  14   36.41    2.29
   1  -1  15   -0.77    1.17
   1  -1  16   59.42    2.77
   1  -1  17   13.19    1.49
  -1   0  18    3.68    1.71
  -1   0  17   36.02    2.43
  -1   0  16    9.53    1.55
  -1   0  16    7.28    1.28
  -1   0  15    4.45    1.34
  -1   0  15    4.11    1.22
  -1   0  14    1.03    1.02
  -1   0  14   -0.41    1.06
  -1   0  13   -0.36    0.86
  -1   0  13    0.02    0.96
  -1   0  12   24.80    1.34
  -1   0  12   28.81    1.71
  -1   0  11  108.58    5.49
  -1   0  11  106.97    5.03
  -1   0  10    5.27    0.82
  -1   0  10    4.36    0.89
  -1   0   9   17.06    1.26
  -1   0   9   18.69    1.32
   1   0  -8   85.55    3.29
  -1   0   8   97.04    4.10
  -1   0   8   96.75    3.85
   1   0  -7  223.88    5.21
  -1   0   7  231.42    6.62
  -1   0   7  237.60    7.02
   1   0  -6   30.17    1.47
  -1   0   6   32.58    1.54
  -1   0   6   30.33    1.55
   1   0  -5  214.39    5.91
  -1   0   5  226.01    6.22
  -1   0   5  199.62    6.56
  -1   0   4  118.48    4.08
  -1   0   4  123.42    4.25
  -1   0   3    7.99    1.04
   1   0   1  135.72    4.56
  -1   0  -2  190.65    5.99
   1   0   2  189.16    5.11
  -1   0  -3  909.82   25.84
   1   0   3 1028.49   36.60
   1   0   3  894.27   22.36
  -1   0  -4  120.91    4.40
   1   0   4  130.09    5.75
   1   0   4  117.63    4.00
  -1   0  -5  156.72    3.00
   1   0   5  157.38    5.79
   1   0   5  144.99    4.85
  -1   0  -6  144.36    5.26
   1   0   6  136.18    6.19
   1   0   6  141.85    5.06
  -1   0  -7  110.16    4.09
   1   0   7  105.36    4.89
   1   0   7  101.73    3.72
  -1   0  -8   26.95    1.67
   1   0   8   22.99    1.57
   1   0   8   25.56    1.52
  -1   0  -9  135.32    6.04
   1   0   9  129.19    6.44
   1   0   9  131.66    5.77
  -1   0 -10   54.88    3.08
   1   0  10   51.34    3.01
   1   0  10   50.28    2.77
  -1   0 -11   32.87    1.84
   1   0  11   26.72    1.52
   1   0  11   28.85    1.58
  -1  -1  18    2.98    1.61
   1   1 -18    2.74    1.59
  -1  -1  17   13.47    1.52
  -1  -1  16   21.49    1.45
  -1  -1  16   20.65    1.42
  -1  -1  15   10.07    1.39
  -1  -1  15   10.20    1.36
  -1  -1  14  169.19    6.76
  -1  -1  14  177.70    6.81
  -1  -1  13  138.48    7.16
  -1  -1  13  122.21    6.10
  -1  -1  12   14.16    1.23
  -1  -1  12   15.81    1.16
  -1  -1  11   84.84    3.98
  -1  -1  11   92.93    4.46
  -1  -1  10  128.74    5.75
  -1  -1  10  143.35    6.59
  -1  -1   9  187.79    7.12
  -1  -1   9  202.01    8.31
  -1  -1   8   53.48    2.25
  -1  -1   8   65.26    2.81
  -1  -1   7    2.32    0.73
  -1  -1   7    3.81    0.74
  -1  -1   6   31.63    1.48
  -1  -1   6   30.73    1.57
  -1  -1   5  607.47   18.47
  -1  -1   5  561.05   14.76
  -1  -1   4    4.69    1.13
  -1  -1   4    4.47    0.78
  -1  -1   3    1.21    0.94
  -1  -1   3    1.13    0.63
  -1  -1   3    1.46    0.67
  -1  -1   2  533.33   13.34
  -1  -1   2  559.98   14.09
  -1  -1   0    3.02    0.73
   1   1   0    2.62    1.26
  -1  -1  -1   27.83    1.43
   1   1   1   33.27    1.65
   1   1   1   35.69    1.92
  -1  -1  -2   16.73    1.63
   1   1   2   19.56    1.87
   1   1   2   18.40    1.68
  -1  -1  -3 1400.59   38.87
   1   1   3 1430.12   55.02
   1   1   3 1409.26   37.34
  -1  -1  -4    0.76    0.73
   1   1   4    2.09    0.76
   1   1   4    0.87    0.65
  -1  -1  -5   22.68    1.11
   1   1   5   21.95    1.04
  -1  -1  -6  120.91    4.60
   1   1   6  115.03    4.21
  -1  -1  -7    2.19    0.86
   1   1   7    1.38    0.68
  -1  -1  -8    1.14    0.78
   1   1   8    0.24    0.73
  -1  -1  -9    1.17    0.96
   1   1   9    2.56    0.85
  -1  -1 -10   45.91    2.75
   1   1  10   41.07    2.41
  -1  -1 -11   13.04    1.21
   1   1  11   13.33    1.08
   1   1  13    0.42    1.21
   1   1  14    4.11    1.23
   1   1  15   25.61    1.95
   1   1  16    5.19    1.55
   1   1  17   -0.23    1.55
  -1  -2  18   38.10    2.07
   1   2 -18   36.85    1.99
   1   2 -17   -1.21    1.44
   1   2 -16   15.23    1.55
   1   2 -15   41.94    2.50
   1   2 -14   16.68    1.41
  -1  -2  12   25.20    1.28
  -1  -2  11   38.92    2.29
  -1  -2  11   43.12    2.60
  -1  -2  10    8.85    0.86
  -1  -2  10    9.26    1.01
  -1  -2  10   10.99    0.98
  -1  -2   9    0.44    0.74
  -1  -2   9    0.75    0.77
  -1  -2   9    0.98    0.76
  -1  -2   8   14.48    0.97
  -1  -2   8   15.17    1.00
  -1  -2   8   15.10    1.02
  -1  -2   7  151.66    5.88
  -1  -2   7  156.31    3.79
  -1  -2   6  497.09   13.69
   1   2  -6  476.57   13.91
  -1  -2   5   10.84    1.15
  -1  -2   5   13.05    1.37
  -1  -2   4   54.31    2.30
  -1  -2   4   48.33    2.03
  -1  -2   3  678.52   18.69
  -1  -2   3  652.61   19.87
   1   2  -3  723.47   20.65
  -1  -2   2   38.15    1.74
  -1  -2   2   38.82    1.74
   1   2  -2   43.99    1.93
  -1  -2   1    1.88    0.67
   1   2  -1    2.50    0.76
  -1  -2   0  332.36    9.72
  -1  -2   0  324.29    8.96
   1   2   0  341.69    9.12
  -1  -2  -1  591.93   15.77
  -1  -2  -2  350.84    9.88
   1   2   2  378.57   10.66
  -1  -2  -3   84.75    3.09
   1   2   3   83.30    3.23
  -1  -2  -4    1.77    0.72
   1   2   4    2.40    0.69
  -1  -2  -5   40.81    1.88
   1   2   5   38.09    1.34
  -1  -2  -6  152.94    5.46
   1   2   6  152.59    5.43
  -1  -2  -7   29.68    1.56
   1   2   7   31.19    1.72
   1   2   7   31.35    1.61
  -1  -2  -8   25.93    1.61
   1   2   8   26.11    1.72
   1   2   8   27.30    1.63
  -1  -2  -9  174.48    6.92
   1   2   9  168.85    7.17
   1   2   9  167.01    6.55
  -1  -2 -10  141.68    6.39
   1   2  10  138.50    6.30
   1   2  10  135.60    6.06
  -1  -2 -11    0.82    0.97
   1   2  11    2.24    1.14
   1   2  11    1.44    0.99
   1   2  12    3.57    1.31
   1   2  13  172.14    3.06
   1   2  14    3.50    1.41
   1   2  15    2.43    1.47
   1   2  16    0.69    1.43
   1   2  17    2.50    1.64
   1   3 -18    0.56    1.53
   1   3 -17   17.29    1.69
  -1  -3  16    0.23    1.21
   1   3 -16    3.82    1.38
  -1  -3  15   64.49    3.41
   1   3 -15   55.54    2.98
  -1  -3  14    1.08    0.99
   1   3 -14    0.84    1.33
  -1  -3  13   32.46    1.92
   1   3 -13   31.54    1.86
  -1  -3  12  166.03    5.14
   1   3 -12  163.12    5.44
  -1  -3  11   28.20    1.81
  -1  -3  11   29.68    1.99
   1   3 -11   26.01    1.91
  -1  -3  10    4.37    0.82
  -1  -3  10    4.64    0.85
   1   3 -10    4.46    1.09
  -1  -3   9   98.91    3.98
  -1  -3   9   99.63    4.36
   1   3  -9  109.66    4.58
  -1  -3   8  190.15    8.20
  -1  -3   8  191.41    8.83
   1   3  -8  176.24    8.24
  -1  -3   7    2.43    0.65
  -1  -3   7    4.19    0.75
   1   3  -7    3.92    0.85
  -1  -3   6    4.39    0.75
  -1  -3   6    3.67    0.79
   1   3  -6    4.05    0.88
  -1  -3   5   77.06    3.00
  -1  -3   5   78.53    3.19
  -1  -3   4    1.78    0.67
  -1  -3   4    1.71    0.67
  -1  -3   3  172.38    5.47
  -1  -3   3  169.02    4.93
   1   3  -3  170.93    5.90
  -1  -3   2   14.13    1.46
  -1  -3   2   14.66    1.44
   1   3  -2   16.21    1.62
  -1  -3   1   16.60    1.56
   1   3  -1   16.90    1.59
  -1  -3   0   19.08    1.74
  -1  -3   0   20.86    1.84
   1   3   0   19.11    1.75
  -1  -3  -1   30.03    1.52
   1   3   1   29.66    1.68
   1   3   1   32.52    1.65
  -1  -3  -2   -0.62    0.75
   1   3   2    0.00    0.75
   1   3   2    0.24    0.70
  -1  -3  -3    1.15    0.71
   1   3   3    0.22    0.86
   1   3   3    0.51    0.72
  -1  -3  -4  432.26    9.62
   1   3   4  398.23   13.28
   1   3   4  382.86    9.72
  -1  -3  -5   22.39    1.08
   1   3   5   21.60    1.27
   1   3   5   23.61    1.19
  -1  -3  -6   35.31    1.69
   1   3   6   34.77    1.92
   1   3   6   38.76    1.84
  -1  -3  -7  147.62    5.58
   1   3   7  144.22    6.01
   1   3   7  146.96    5.62
  -1  -3  -8   31.02    1.88
   1   3   8   30.16    1.89
   1   3   8   30.87    1.84
  -1  -3  -9   20.80    1.60
   1   3   9   20.10    1.58
   1   3   9   21.35    1.57
  -1  -3 -10   10.45    1.18
   1   3  10    8.54    1.19
   1   3  10    9.97    1.10
   1   3  11    0.32    1.20
   1   3  11   -0.17    0.98
   1   3  12   18.17    1.41
   1   3  13    3.35    1.21
   1   3  14   33.75    1.61
   1   3  15    1.63    1.48
   1   3  16   36.35    2.03
  -1  -4  18   38.08    1.96
   1   4 -18   38.60    2.03
  -1  -4  17   30.64    2.70
   1   4 -17   27.69    2.54
  -1  -4  16   28.99    1.63
   1   4 -16   25.50    1.63
  -1  -4  15    0.85    1.12
   1   4 -15    1.20    1.29
  -1  -4  14   31.06    1.85
   1   4 -14   32.78    1.97
  -1  -4  13   -0.61    1.09
   1   4 -13    2.01    1.17
  -1  -4  12   72.54    2.62
  -1  -4  12   80.81    3.14
   1   4 -12   81.78    2.94
  -1  -4  11   49.84    2.54
  -1  -4  11   53.17    2.92
   1   4 -11   60.40    3.13
  -1  -4  10    1.92    0.81
  -1  -4  10    1.06    0.84
   1   4 -10    0.58    1.00
  -1  -4   9   32.18    1.76
  -1  -4   9   34.63    1.95
   1   4  -9   28.96    1.89
  -1  -4   8    6.94    0.83
  -1  -4   8    6.90    0.82
   1   4  -8    6.18    0.97
  -1  -4   7    3.96    0.86
  -1  -4   7    3.49    0.85
   1   4  -7    3.63    1.27
  -1  -4   6   74.18    2.95
  -1  -4   6   75.05    3.12
   1   4  -6   61.46    3.05
  -1  -4   5   82.83    3.38
  -1  -4   5   87.14    3.31
  -1  -4   4   14.89    1.49
  -1  -4   4   15.81    1.49
  -1  -4   3    1.08    0.78
  -1  -4   3    1.18    0.72
   1   4  -3    1.25    0.86
  -1  -4   2  382.47   10.14
  -1  -4   2  425.02   11.24
   1   4  -2  425.95   14.77
  -1  -4   1   19.67    1.77
   1   4  -1   16.04    1.54
  -1  -4   0   50.96    2.10
  -1  -4   0   46.48    1.96
   1   4   0   45.04    2.08
  -1  -4  -1  362.44    9.71
   1   4   1  364.40   13.55
   1   4   1  366.05   12.16
  -1  -4  -2  192.73    4.42
   1   4   2  189.03    6.50
   1   4   2  191.03    5.53
  -1  -4  -3   26.92    1.18
   1   4   3   24.81    1.40
   1   4   3   27.22    1.37
  -1  -4  -4    9.43    0.91
   1   4   4    9.52    0.99
   1   4   4    8.57    0.93
  -1  -4  -5   19.35    1.27
   1   4   5   19.97    1.36
   1   4   5   19.56    1.35
  -1  -4  -6  136.79    5.20
   1   4   6  129.85    5.69
   1   4   6  140.16    5.68
  -1  -4  -7  119.92    5.35
   1   4   7  117.63    5.64
   1   4   7  122.12    5.44
  -1  -4  -8    4.36    0.97
   1   4   8    6.39    1.14
   1   4   8    6.78    1.06
  -1  -4  -9   29.50    1.75
   1   4   9   30.44    1.78
   1   4   9   31.51    1.76
  -1  -4 -10  160.54    5.46
   1   4  10  161.88    5.51
   1   4  10  160.80    5.42
   1   4  11   26.36    1.81
   1   4  11   24.52    1.71
   1   4  12   11.26    1.59
   1   4  13    3.91    1.41
   1   4  14   38.48    2.30
   1   4  15   17.91    1.89
   1   4  16   -1.45    1.66
  -1  -5  18   30.93    1.99
   1   5 -18   23.51    1.83
  -1  -5  17    1.43    1.44
   1   5 -17    1.93    1.48
  -1  -5  16   -1.41    1.32
   1   5 -16    0.07    1.39
  -1  -5  15   26.34    5.88
   1   5 -15   25.42    1.59
  -1  -5  14   19.98    1.43
   1   5 -14   19.04    1.43
  -1  -5  13   32.62    1.89
   1   5 -13   31.91    2.03
  -1  -5  12    5.57    1.02
  -1  -5  12    6.17    1.06
   1   5 -12    8.13    1.30
  -1  -5  11  101.54    3.30
  -1  -5  11  100.08    3.53
   1   5 -11  107.84    3.69
  -1  -5  10   96.34    4.11
  -1  -5  10   96.02    4.17
   1   5 -10   82.54    4.10
  -1  -5   9   41.38    2.27
  -1  -5   9   42.44    2.30
   1   5  -9   41.34    2.47
  -1  -5   8  172.82    6.59
  -1  -5   8  182.03    7.28
   1   5  -8  184.87    7.75
  -1  -5   7    0.83    0.68
  -1  -5   7    0.49    0.79
  -1  -5   6  227.64    9.32
  -1  -5   6  222.94    8.86
   1   5  -6  249.06   11.16
  -1  -5   5    1.65    0.69
  -1  -5   5    1.81    0.62
  -1  -5   4    3.13    0.75
  -1  -5   4    2.14    0.65
  -1  -5   3   43.93    2.02
  -1  -5   3   45.01    1.96
   1   5  -3   42.01    2.21
  -1  -5   2  242.61    5.17
   1   5  -2  215.75    6.10
  -1  -5   1   42.35    2.15
   1   5  -1   38.20    2.98
  -1  -5   0    9.28    0.85
  -1  -5   0   10.22    0.82
   1   5   0    9.68    0.91
  -1  -5  -1  235.48    5.35
   1   5   1  245.79    8.15
   1   5   1  239.03    6.30
  -1  -5  -2   35.73    1.38
   1   5   2   35.41    1.74
   1   5   2   35.89    1.50
  -1  -5  -3  259.64   10.32
   1   5   3  251.94   11.65
   1   5   3  244.62   10.48
  -1  -5  -4   40.82    1.85
   1   5   4   38.14    2.01
   1   5   4   38.31    1.86
  -1  -5  -5   69.37    2.92
   1   5   5   65.46    3.31
   1   5   5   68.08    1.84
  -1  -5  -6  135.73    5.96
   1   5   6  143.80    6.68
   1   5   6  137.91    6.32
  -1  -5  -7   30.77    1.96
   1   5   7   33.06    2.12
   1   5   7   31.57    2.03
  -1  -5  -8   23.38    1.33
   1   5   8   21.10    1.34
   1   5   8   21.73    1.33
  -1  -5  -9    5.63    1.11
   1   5   9    6.12    1.24
   1   5   9    5.34    1.15
  -1  -5 -10   14.48    1.26
   1   5  10   15.86    1.47
   1   5  10   15.69    1.42
   1   5  11    0.09    1.26
   1   5  11    2.62    1.14
   1   5  12    1.55    1.35
   1   5  13   -0.57    1.24
   1   5  14    4.38    1.64
   1   5  15   58.09    2.32
  -1  -6  18    9.61    1.54
   1   6 -18    7.13    1.61
  -1  -6  17   11.29    1.64
   1   6 -17   10.10    1.58
  -1  -6  16   36.42    2.07
   1   6 -16   36.35    2.16
  -1  -6  15   43.43    1.97
   1   6 -15   44.06    2.02
  -1  -6  14   13.96    1.37
   1   6 -14   11.41    1.63
  -1  -6  13    6.73    1.17
  -1  -6  13    7.58    1.06
   1   6 -13    8.52    1.41
  -1  -6  12   98.81    4.89
  -1  -6  12  110.62    5.44
   1   6 -12  104.67    5.38
  -1  -6  11    1.35    1.00
  -1  -6  11    0.48    0.81
   1   6 -11   -0.04    1.18
  -1  -6  10    0.86    0.86
  -1  -6  10   -0.41    0.88
   1   6 -10    0.42    1.06
  -1  -6   9    0.24    0.80
  -1  -6   9    0.34    0.72
   1   6  -9    0.26    1.00
  -1  -6   8  151.67    6.69
  -1  -6   8  151.26    6.68
   1   6  -8  143.02    7.10
  -1  -6   7    0.06    0.77
  -1  -6   6   39.77    2.10
  -1  -6   6   38.66    1.97
   1   6  -6   38.56    2.17
  -1  -6   5   94.51    3.54
  -1  -6   5   95.75    3.52
  -1  -6   4    6.20    1.51
  -1  -6   3  524.09   20.58
  -1  -6   3  539.64   20.98
   1   6  -3  508.89   20.98
  -1  -6   2  122.62    4.49
   1   6  -2  116.40    4.80
  -1  -6   1   41.30    1.95
  -1  -6   1   44.23    1.96
   1   6  -1   38.60    1.46
  -1  -6   0  444.67   17.65
  -1  -6   0  474.25   18.95
   1   6   0  394.19   17.02
  -1  -6  -1  175.06    7.11
   1   6   1  176.93    8.62
   1   6   1  172.21    7.51
  -1  -6  -2  244.32    9.75
   1   6   2  241.33   10.89
   1   6   2  242.87   10.39
  -1  -6  -3   11.52    1.01
   1   6   3   11.33    1.12
   1   6   3   10.70    1.08
  -1  -6  -4   13.89    1.07
   1   6   4   13.14    1.14
   1   6   4   12.38    1.09
  -1  -6  -5    5.95    0.98
   1   6   5    6.52    1.06
   1   6   5    5.94    0.99
  -1  -6  -6   61.76    2.79
   1   6   6   56.15    3.20
   1   6   6   59.13    1.79
  -1  -6  -7    3.73    0.98
   1   6   7    2.23    1.09
   1   6   7    2.60    1.04
  -1  -6  -8   33.86    1.83
   1   6   8   30.54    1.71
   1   6   8   31.47    1.74
  -1  -6  -9   33.61    1.89
   1   6   9   40.57    2.12
   1   6   9   39.39    2.00
  -1  -6 -10    4.34    1.15
   1   6  10    5.94    1.24
   1   6  10    6.83    1.29
   1   6  11    2.24    1.37
   1   6  11    1.24    1.25
   1   6  12   35.93    1.76
   1   6  13   42.95    3.43
   1   6  14    2.45    1.41
   1   6  15    6.07    1.64
  -1  -7  18   24.35    1.66
   1   7 -18   20.87    1.64
  -1  -7  17    4.32    1.50
   1   7 -17    2.72    1.74
  -1  -7  16    0.59    1.35
   1   7 -16   -0.68    1.49
  -1  -7  15    6.72    1.33
   1   7 -15    6.01    1.50
  -1  -7  14    3.86    1.27
   1   7 -14    3.91    1.44
  -1  -7  13    2.92    1.07
  -1  -7  13    3.01    1.02
   1   7 -13    1.98    1.38
  -1  -7  12  129.88    5.58
  -1  -7  12  135.33    5.89
   1   7 -12  124.15    5.54
  -1  -7  11    0.78    1.01
  -1  -7  11   -0.22    0.99
   1   7 -11    3.24    1.33
  -1  -7  10    9.00    1.04
  -1  -7  10    6.55    0.99
   1   7 -10    7.70    1.34
  -1  -7   9  301.01   12.94
  -1  -7   9  300.10   13.17
   1   7  -9  307.63    6.51
  -1  -7   8    0.70    0.89
  -1  -7   8   -0.34    0.93
   1   7  -8    0.38    1.26
  -1  -7   7    0.54    0.87
  -1  -7   7    1.21    0.75
   1   7  -7   -0.09    0.98
  -1  -7   6   74.52    3.53
  -1  -7   6   70.63    1.57
   1   7  -6   70.88    2.14
  -1  -7   5   58.05    2.80
  -1  -7   5   59.70    2.78
  -1  -7   4   43.48    2.24
  -1  -7   4   45.17    2.24
  -1  -7   3    2.93    0.86
  -1  -7   3    2.57    0.74
   1   7  -3    3.02    0.89
  -1  -7   2   74.62    3.05
   1   7  -2   64.60    3.10
  -1  -7   1    1.43    0.76
   1   7  -1    1.01    0.94
  -1  -7   0    2.21    0.86
  -1  -7   0    2.96    0.81
   1   7   0    4.16    0.91
  -1  -7  -1   -0.06    0.86
   1   7   1    0.91    0.94
   1   7   1    0.69    0.90
  -1  -7  -2   58.74    2.98
   1   7   2   52.16    2.94
   1   7   2   59.70    3.10
   1   7   3   92.17    4.52
   1   7   3   88.66    4.19
  -1  -7  -4   66.97    2.99
   1   7   4   72.70    3.32
   1   7   4   73.41    3.27
  -1  -7  -5    2.20    1.00
   1   7   5    0.69    1.01
   1   7   5    3.25    0.92
  -1  -7  -6    8.36    1.15
   1   7   6    8.68    1.17
   1   7   6    7.51    1.13
  -1  -7  -7  101.71    3.68
   1   7   7   98.63    3.71
   1   7   7  110.76    4.02
  -1  -7  -8    0.54    1.10
   1   7   8    0.37    1.27
   1   7   8    0.59    1.10
  -1  -7  -9    5.01    1.19
   1   7   9    3.49    1.37
   1   7   9    2.13    1.28
   1   7  10    7.87    1.46
   1   7  10    7.72    1.37
   1   7  11    2.42    1.46
   1   7  11    2.91    1.33
   1   7  12    1.40    1.46
   1   7  13    3.44    1.49
   1   7  14   -1.10    1.63
  -1  -8  17    3.80    1.50
   1   8 -17    2.16    1.65
  -1  -8  16    1.24    1.43
   1   8 -16    1.00    1.35
  -1  -8  15   35.72    2.02
   1   8 -15   33.44    2.24
  -1  -8  14   43.51    1.75
   1   8 -14   41.56    1.81
  -1  -8  13   16.65    1.33
  -1  -8  13   17.71    1.33
   1   8 -13   19.21    1.53
  -1  -8  12    5.16    1.05
  -1  -8  12    4.80    1.01
   1   8 -12    5.11    1.21
  -1  -8  11   20.47    1.46
  -1  -8  11   21.02    1.44
   1   8 -11   19.37    1.48
  -1  -8  10   62.03    2.49
  -1  -8  10   61.02    2.40
   1   8 -10   65.61    2.88
  -1  -8   9   11.12    1.06
  -1  -8   9   13.25    1.13
   1   8  -9   11.61    1.15
  -1  -8   8   15.74    1.44
  -1  -8   8   12.96    1.27
   1   8  -8   11.24    1.34
  -1  -8   7   30.38    1.96
  -1  -8   7   31.16    1.96
   1   8  -7   27.19    1.88
  -1  -8   6  196.54    7.61
  -1  -8   6  210.00    8.17
   1   8  -6  206.60    8.35
  -1  -8   5    3.57    1.10
  -1  -8   5    0.93    0.90
  -1  -8   4   23.36    1.59
  -1  -8   4   23.30    1.47
  -1  -8   3   31.60    1.80
   1   8  -3   27.92    1.73
  -1  -8   2  146.34    6.37
   1   8  -2  145.38    6.45
  -1  -8   1   89.31    4.12
  -1  -8   1   87.83    4.08
   1   8  -1   83.80    3.90
  -1  -8   0    8.23    1.05
   1   8   0    6.36    1.08
   1   8   0    8.29    1.07
  -1  -8  -1  265.89   10.27
   1   8   1  261.39   10.86
   1   8   1  277.47   10.74
  -1  -8  -2   25.30    1.83
   1   8   2   23.41    1.85
   1   8   2   26.33    1.86
  -1  -8  -3   17.06    1.46
   1   8   3   15.02    1.43
   1   8   3   15.14    1.47
  -1  -8  -4   14.70    1.12
   1   8   4   15.88    1.31
   1   8   4   16.43    1.31
  -1  -8  -5    1.85    1.07
   1   8   5    0.52    1.07
   1   8   5   -0.10    1.08
  -1  -8  -6    0.63    1.14
   1   8   6    0.57    1.15
   1   8   6    2.13    1.22
  -1  -8  -7    3.11    1.20
   1   8   7    2.45    1.19
   1   8   7    2.77    1.30
  -1  -8  -8   31.29    1.74
   1   8   8   34.58    1.96
   1   8   8   37.59    2.13
  -1  -8  -9   -0.61    1.18
   1   8   9    1.75    1.33
   1   8   9    2.68    1.15
   1   8  10    5.04    1.28
   1   8  10    7.55    1.48
   1   8  11    2.95    1.50
   1   8  11   -0.61    1.43
   1   8  12   15.10    1.69
   1   8  13   19.91    1.82
  -1  -9  17    4.56    1.56
   1   9 -17    7.76    1.54
  -1  -9  16   11.76    1.36
   1   9 -16   11.22    1.77
  -1  -9  15   16.91    1.51
   1   9 -15   14.55    1.84
  -1  -9  14   -0.86    1.25
   1   9 -14    2.18    1.35
  -1  -9  13    1.86    1.16
  -1  -9  13    1.29    1.17
   1   9 -13    1.01    1.49
  -1  -9  12   18.29    1.40
  -1  -9  12   16.88    1.19
   1   9 -12   16.79    1.55
  -1  -9  11   88.75    3.50
  -1  -9  11   84.72    3.30
   1   9 -11   95.30    3.85
  -1  -9  10   76.86    3.53
  -1  -9  10   81.17    3.61
   1   9 -10   71.02    3.47
  -1  -9   9    3.21    1.09
  -1  -9   9    2.83    1.01
   1   9  -9    2.82    1.32
  -1  -9   8   44.09    2.19
  -1  -9   8   43.71    2.12
   1   9  -8   49.64    2.52
  -1  -9   7  135.00    4.12
  -1  -9   7  136.72    4.03
  -1  -9   6  103.70    3.32
  -1  -9   6  106.53    3.25
   1   9  -6  103.77    3.40
  -1  -9   5   63.59    3.17
  -1  -9   5   59.63    2.92
  -1  -9   4  108.29    4.98
  -1  -9   4  107.89    4.86
  -1  -9   3   52.89    2.66
   1   9  -3   56.92    2.90
  -1  -9   2    3.16    0.93
   1   9  -2    2.19    0.93
  -1  -9   1    0.14    1.03
  -1  -9   1    1.13    0.91
   1   9  -1    0.37    1.01
  -1  -9   0    5.53    1.13
   1   9   0    4.56    1.15
   1   9   0    3.23    1.06
  -1  -9  -1   10.65    1.26
   1   9   1    9.50    1.20
   1   9   1    8.78    1.04
  -1  -9  -2  119.27    3.68
   1   9   2  103.75    3.68
   1   9   2  113.98    3.75
  -1  -9  -3   19.86    1.39
   1   9   3   18.36    1.36
   1   9   3   19.26    1.41
  -1  -9  -4   21.51    1.44
   1   9   4   20.90    1.57
   1   9   4   21.04    1.62
  -1  -9  -5    0.27    1.11
   1   9   5    0.14    1.19
   1   9   5    1.34    1.24
  -1  -9  -6   62.70    2.83
   1   9   6   56.63    2.59
   1   9   6   59.62    2.64
  -1  -9  -7   -1.09    1.25
   1   9   7    0.28    1.23
   1   9   7   -0.03    1.41
  -1  -9  -8    0.76    1.30
   1   9   8    1.64    1.41
   1   9   8    0.63    1.24
  -1  -9  -9   25.81    1.63
   1   9   9   25.19    1.85
   1   9   9   26.85    1.93
   1   9  10    0.85    1.47
   1   9  10    1.41    1.39
   1   9  11    2.39    1.32
   1   9  12   18.78    1.72
  -1 -10  16    4.25    1.50
   1  10 -16   -0.86    1.65
  -1 -10  15    6.45    1.44
   1  10 -15    7.25    1.65
  -1 -10  14   27.32    2.38
   1  10 -14   26.66    2.59
  -1 -10  13   25.07    1.84
  -1 -10  13   21.10    1.76
   1  10 -13   20.93    1.88
  -1 -10  12   25.24    1.55
  -1 -10  12   23.70    1.33
   1  10 -12   21.05    1.62
  -1 -10  11    4.88    1.28
  -1 -10  11    3.99    1.15
   1  10 -11    5.13    1.36
  -1 -10  10    3.21    1.28
  -1 -10  10    5.33    1.17
   1  10 -10    3.98    1.39
  -1 -10   9   40.41    1.62
  -1 -10   9   42.86    2.20
   1  10  -9   37.77    2.16
  -1 -10   8    5.26    1.24
  -1 -10   8    5.82    1.03
   1  10  -8    8.26    1.37
  -1 -10   7   21.46    1.44
  -1 -10   7   24.01    1.46
   1  10  -7   24.78    1.79
  -1 -10   6  140.84    4.84
  -1 -10   6  136.75    4.61
   1  10  -6  141.02    4.83
  -1 -10   5   25.41    1.66
  -1 -10   5   23.02    1.43
  -1 -10   4   21.38    1.58
  -1 -10   4   20.57    1.39
  -1 -10   3   -0.49    0.85
   1  10  -3    1.48    1.23
  -1 -10   2    2.95    1.01
  -1 -10   2    2.92    0.84
   1  10  -2    4.44    1.19
  -1 -10   1   28.61    1.67
  -1 -10   1   31.49    1.74
   1  10  -1   28.36    1.76
  -1 -10   0  170.52    5.68
   1  10   0  158.44    5.73
   1  10   0  156.59    5.29
  -1 -10  -1    2.33    1.06
   1  10   1    1.56    1.06
   1  10   1    2.01    1.27
  -1 -10  -2   46.65    1.57
   1  10   2   48.14    2.79
   1  10   2   47.12    1.61
  -1 -10  -3   68.48    3.28
   1  10   3   58.01    2.83
   1  10   3   71.81    3.40
  -1 -10  -4   28.63    1.70
   1  10   4   25.74    1.43
   1  10   4   31.30    1.93
  -1 -10  -5   20.06    1.50
   1  10   5   19.07    1.38
   1  10   5   20.47    1.42
  -1 -10  -6    6.01    1.39
   1  10   6    6.20    1.36
   1  10   6    7.61    1.49
  -1 -10  -7   -2.97    1.32
   1  10   7   -0.83    1.31
   1  10   7    1.02    1.54
  -1 -10  -8   20.18    1.79
   1  10   8   18.77    1.75
   1  10   8   22.09    1.93
   1  10   9    8.33    1.32
   1  10   9   11.21    1.56
   1  10  10    4.97    1.78
  -1 -11  15    9.15    1.51
   1  11 -15   10.72    1.78
  -1 -11  14   14.90    1.36
   1  11 -14   14.78    1.64
  -1 -11  13    1.56    1.41
  -1 -11  13    2.34    1.25
   1  11 -13    0.83    1.66
  -1 -11  12    2.45    1.37
  -1 -11  12    4.23    1.11
   1  11 -12    4.42    1.65
  -1 -11  11   -0.05    1.15
  -1 -11  11    2.10    1.18
   1  11 -11    0.43    1.39
  -1 -11  10   29.86    1.57
  -1 -11  10   32.85    1.56
   1  11 -10   34.33    2.04
  -1 -11   9   78.94    3.90
  -1 -11   9   77.80    3.81
   1  11  -9   81.41    4.11
  -1 -11   8    8.96    1.32
  -1 -11   8    7.04    1.05
   1  11  -8    7.99    1.58
  -1 -11   7   10.86    1.17
  -1 -11   7   10.23    1.07
   1  11  -7   11.06    1.48
  -1 -11   6   56.73    2.75
  -1 -11   6   56.96    2.73
   1  11  -6   61.74    3.06
  -1 -11   5   11.62    1.33
  -1 -11   4   15.51    1.49
   1  11  -3   65.98    3.13
  -1 -11   2    3.57    1.29
   1  11  -2    5.13    1.13
  -1 -11   1    3.10    1.25
   1  11  -1    2.69    1.23
   1  11  -1    1.81    1.18
  -1 -11   0    1.13    1.23
   1  11   0    0.18    1.13
   1  11   0   -0.21    1.21
  -1 -11  -1    5.00    1.14
   1  11   1    4.60    1.19
   1  11   1    3.98    1.31
  -1 -11  -2   -0.68    1.29
   1  11   2    0.19    1.16
   1  11   2    1.39    1.17
  -1 -11  -3    6.58    1.44
   1  11   3    5.83    1.31
   1  11   3    7.64    1.53
  -1 -11  -4   13.11    1.55
   1  11   4   13.80    1.45
   1  11   4   16.23    1.66
  -1 -11  -5    1.67    1.50
   1  11   5    2.10    1.23
   1  11   5    2.51    1.48
  -1 -11  -6   25.83    1.82
   1  11   6   25.37    1.91
  -1 -11  -7    2.22    1.52
   1  11   7    4.87    1.71
  -1 -11  -8    5.92    1.41
   1  11   8    6.77    1.56
   1  11   9    4.74    1.86
  -1 -12  14    0.11    1.32
   1  12 -14    1.10    1.86
  -1 -12  13    4.47    1.50
   1  12 -13    5.21    1.74
  -1 -12  12   33.86    2.40
   1  12 -12   34.25    2.50
  -1 -12  11   12.63    1.71
   1  12 -11   10.64    1.83
  -1 -12  10   12.88    1.65
   1  12 -10   11.92    1.64
  -1 -12   9   -0.32    1.45
   1  12  -9   -0.63    1.57
  -1 -12   8   14.46    1.46
   1  12  -8   17.16    1.58
  -1 -12   7    1.79    1.19
   1  12  -7    0.51    1.35
  -1 -12   6   -0.45    1.36
   1  12  -6   -0.04    1.31
  -1 -12   5    1.29    1.38
   1  12  -3    2.40    1.29
  -1 -12   2   20.46    1.62
   1  12  -2   22.18    1.60
  -1 -12   1   16.38    1.53
   1  12  -1   16.16    1.42
  -1 -12   0   15.04    1.57
   1  12   0   15.99    1.44
  -1 -12  -1   18.73    1.50
   1  12   1   19.84    1.49
  -1 -12  -2    2.54    1.30
   1  12   2    1.77    1.37
  -1 -12  -3   -0.15    1.46
   1  12   3    1.03    1.60
  -1 -12  -4    1.97    1.57
   1  12   4    2.23    1.55
  -1 -12  -5    2.54    1.57
   1  12   5    1.19    1.36
  -1 -12  -6    0.43    1.39
   1  12   6   -2.52    1.68
  -1 -12  -7    3.80    1.72
   1  12   7    6.91    1.86
  -1 -12  -8    6.49    1.71
   1  12   8    4.75    2.00
  -1 -13  13    6.72    1.47
   1  13 -13    8.02    1.92
  -1 -13  12   37.12    2.02
   1  13 -12   41.17    2.41
  -1 -13  11   -0.24    1.49
   1  13 -11    1.97    1.82
  -1 -13  10   22.49    2.22
   1  13 -10   25.23    2.51
  -1 -13   9   13.49    1.46
   1  13  -9   12.15    1.85
  -1 -13   8   10.61    1.59
   1  13  -8   12.51    1.95
  -1 -13   7   50.45    2.59
   1  13  -7   53.45    2.69
  -1 -13   6   -1.26    1.31
   1  13  -6   -0.42    1.45
  -1 -13   5   22.25    1.69
   1  13  -3    4.28    1.62
  -1 -13   2   23.40    1.60
   1  13  -2   28.49    1.89
  -1 -13   1    1.80    1.46
   1  13  -1    0.72    1.54
  -1 -13   0    0.26    1.38
   1  13   0   -0.94    1.42
  -1 -13  -1    3.49    1.56
   1  13   1    0.42    1.57
  -1 -13  -2   28.17    2.63
   1  13   2   30.95    2.76
  -1 -13  -3    3.32    1.41
   1  13   3    0.91    1.64
  -1 -13  -4   -0.94    1.45
   1  13   4   -0.55    1.51
  -1 -13  -5    4.78    1.89
   1  13   5    1.39    1.59
  -1 -13  -6    0.34    1.76
   1  13   6    1.50    1.84
  -1 -14  11    8.51    1.74
   1  14 -11    5.23    1.97
  -1 -14  10    6.30    1.64
   1  14 -10    9.47    1.79
  -1 -14   9   12.49    1.77
   1  14  -9   10.00    1.84
  -1 -14   8    9.58    1.74
   1  14  -8    6.78    1.90
  -1 -14   7    1.37    1.60
   1  14  -7   -0.73    1.74
  -1 -14   6   19.53    2.14
   1  14  -6   23.39    2.58
  -1 -14   5    2.75    1.47
   1  14  -5    2.44    1.78
  -1 -14   3    2.35    1.43
   1  14  -3    0.90    1.34
  -1 -14   2   -0.71    1.73
   1  14  -2   -0.11    1.75
  -1 -14   1    6.92    1.77
   1  14  -1    9.03    1.76
  -1 -14   0   44.52    2.89
   1  14   0   51.79    3.24
  -1 -14  -1   13.49    1.87
   1  14   1   13.59    1.83
  -1 -14  -2    2.16    1.76
   1  14   2    2.27    1.57
  -1 -14  -3    3.51    1.76
   1  14   3    7.38    2.00
  -1 -14  -4    0.78    1.60
   1  14   4   -2.20    1.80
  -1 -15   8    3.89    1.54
   1  15  -8    7.52    1.85
  -1 -15   7    0.79    1.56
   1  15  -7    2.26    1.80
  -1 -15   6   48.19    2.02
   1  15  -6   54.38    2.25
  -1 -15   5    3.43    1.78
   1  15  -5    8.46    1.82
  -1 -15   3   35.95    2.03
   1  15  -3   37.21    2.16
  -1 -15   2   -0.21    1.62
   1  15  -2    2.26    1.98
  -1 -15   1    6.22    1.83
   1  15  -1    3.85    1.66
  -1 -15   0    6.25    1.97
   1  15   0    5.03    1.89
  -1 -15  -1    1.10    1.73
   2 -15  -1   28.15    1.92
  -2  15   1   27.06    1.90
   2 -15   0   29.20    1.87
  -2  15   0   29.76    1.92
   2 -15   1    1.40    1.51
  -2  15  -1   -0.82    1.64
   2 -15   2   18.09    1.72
  -2  15  -2   20.58    2.03
   2 -15   3   -1.88    1.69
  -2  15  -3   -1.26    1.77
   2 -15   4    0.11    1.71
  -2  15  -4    0.07    1.65
   2 -15   5   13.44    1.84
  -2  15  -5   16.67    2.03
   2 -15   6   -0.66    1.84
  -2  15  -6   -0.26    1.85
  -2  15  -7    2.47    1.66
  -2  14   5    1.49    1.72
   2 -14  -4   30.22    1.77
   2 -14  -3    0.00    1.63
   2 -14  -2    4.29    1.60
  -2  14   2    1.46    1.72
   2 -14  -1    8.63    1.60
  -2  14   1    9.86    1.78
   2 -14   0   -0.57    1.34
  -2  14   0    0.41    1.46
   2 -14   1    5.19    1.59
  -2  14  -1    7.52    1.48
   2 -14   2   -0.66    1.56
  -2  14  -2    0.52    1.45
   2 -14   3    8.60    1.61
  -2  14  -3    8.15    1.51
   2 -14   4   15.90    1.83
  -2  14  -4   15.00    1.63
   2 -14   5   31.60    2.81
  -2  14  -5   37.17    3.19
   2 -14   6    3.81    1.71
  -2  14  -6    2.85    1.69
  -2  14  -7   24.96    2.05
   2 -14   8   32.30    1.91
  -2  14  -8   35.16    2.07
   2 -14   9   43.22    2.33
  -2  14  -9   49.59    2.30
   2 -14  10   14.57    1.90
  -2  14 -10   13.34    1.82
  -2  13   7    5.88    2.05
  -2  13   6   16.45    2.19
  -2  13   5   -0.68    1.72
   2 -13  -4    4.72    1.47
   2 -13  -3    0.05    1.30
   2 -13  -2   14.31    1.55
  -2  13   2   16.17    1.85
   2 -13  -1   28.81    2.03
  -2  13   1   29.79    2.00
   2 -13   0    0.30    1.43
  -2  13   0    1.01    1.63
   2 -13   1   17.62    1.55
  -2  13  -1   14.57    1.48
   2 -13   2   28.08    1.77
  -2  13  -2   30.26    1.91
   2 -13   3    9.02    1.56
  -2  13  -3   10.93    1.67
   2 -13   4   48.11    1.93
  -2  13  -4   43.38    1.93
   2 -13   5   -2.32    1.43
  -2  13  -5    0.28    1.55
   2 -13   6   35.17    2.05
  -2  13  -6   41.65    2.42
  -2  13  -7    2.51    1.43
   2 -13   8    4.49    1.34
  -2  13  -8    8.08    1.67
   2 -13   9   12.50    1.76
  -2  13  -9   12.19    1.48
   2 -13  10   33.61    2.45
  -2  13 -10   30.84    2.36
   2 -13  11   16.29    1.73
   2 -13  12    1.69    1.66
  -2  12   9    3.95    1.94
  -2  12   8   15.14    1.96
  -2  12   7   11.79    1.69
  -2  12   6    3.08    1.58
   2 -12  -5   53.30    2.60
  -2  12   5   51.03    2.59
   2 -12  -4    0.54    1.36
   2 -12  -3   14.78    1.59
   2 -12  -2   11.55    1.48
  -2  12   2    8.77    1.48
   2 -12  -1   17.95    1.51
  -2  12   1   14.43    1.61
   2 -12   0    8.00    1.41
  -2  12   0    7.79    1.58
   2 -12   1   -0.08    1.39
  -2  12  -1    0.38    1.44
  -2  12  -2  136.00    2.60
   2 -12   3   17.57    1.50
  -2  12  -3   16.85    1.54
   2 -12   4   20.65    1.43
  -2  12  -4   20.21    1.51
   2 -12   5    2.00    1.38
  -2  12  -5   -0.96    1.32
  -2  12  -6    7.57    1.49
  -2  12  -7   41.69    2.01
   2 -12   8   15.78    1.66
  -2  12  -8   18.17    1.61
   2 -12   9    3.05    1.36
  -2  12  -9    5.06    1.45
   2 -12  10   37.33    2.09
  -2  12 -10   37.04    2.22
   2 -12  11   33.29    2.82
   2 -12  12   17.88    1.93
   2 -12  13    1.28    1.52
  -2  11  10   10.07    1.91
  -2  11   9   -0.90    1.91
  -2  11   8   15.80    2.00
  -2  11   7   13.81    1.86
  -2  11   6   47.16    1.94
   2 -11  -5    2.04    1.08
  -2  11   5    1.38    1.38
   2 -11  -4   15.44    1.45
   2 -11  -3    2.31    1.10
   2 -11  -2    7.46    1.25
  -2  11   2    9.51    1.30
   2 -11  -1   10.84    1.27
  -2  11   1   15.44    1.61
   2 -11   0   -0.15    1.13
  -2  11   0   -1.57    1.26
   2 -11   1   21.90    1.54
  -2  11  -1   23.27    1.73
   2 -11   2   14.34    1.19
  -2  11  -2   15.31    1.57
   2 -11   3    6.62    1.29
  -2  11  -3    8.20    1.37
   2 -11   4   13.58    1.46
  -2  11  -4   10.88    1.42
   2 -11   5   85.57    3.81
  -2  11  -5   87.13    3.92
  -2  11  -6   -0.17    1.37
  -2  11  -7    4.27    1.39
   2 -11   8   95.75    4.59
  -2  11  -8  100.29    4.84
   2 -11   9   10.04    1.49
  -2  11  -9    7.70    1.45
   2 -11  10   12.51    1.52
  -2  11 -10   14.73    1.51
   2 -11  11    1.90    1.44
   2 -11  12    2.67    1.53
   2 -11  13    8.04    1.55
   2 -11  14   16.99    1.68
  -2  10  12   -0.92    1.86
  -2  10  11   -0.01    1.78
  -2  10  10    5.09    1.71
  -2  10   9   -4.40    1.71
  -2  10   8    4.08    1.63
  -2  10   7    8.64    1.44
  -2  10   6    3.81    1.44
   2 -10  -5   15.82    1.39
  -2  10   5   12.99    1.48
   2 -10  -4  194.39    7.96
   2 -10  -3   21.33    1.55
   2 -10  -2    0.29    1.13
  -2  10   2   -0.13    1.21
   2 -10  -1   20.57    1.46
  -2  10   1   21.83    1.64
   2 -10   0   12.64    1.21
  -2  10   0   11.86    1.35
   2 -10   1   40.78    2.05
  -2  10  -1   42.81    2.27
   2 -10   2   57.32    2.56
  -2  10  -2   58.39    2.52
   2 -10   3    3.55    0.91
  -2  10  -3    2.93    1.11
   2 -10   4    5.55    1.20
  -2  10  -4    6.85    1.18
   2 -10   5    9.46    1.09
  -2  10  -5   10.95    1.33
  -2  10  -6    2.28    1.23
   2 -10   7   36.66    2.09
  -2  10  -7   41.64    2.35
   2 -10   8   77.83    3.58
  -2  10  -8   79.84    3.69
   2 -10   9   -0.55    1.31
  -2  10  -9    0.97    1.19
   2 -10  10    2.85    1.39
  -2  10 -10    1.60    1.32
   2 -10  11   31.46    1.75
   2 -10  12    5.52    1.53
   2 -10  13   10.19    1.36
   2 -10  14   23.39    1.97
   2 -10  15    9.10    1.54
  -2   9  13    4.58    1.70
  -2   9  12    6.46    1.76
  -2   9  11    9.62    1.77
  -2   9  10   29.92    2.09
  -2   9   9    9.05    1.61
  -2   9   8    8.31    1.48
  -2   9   7    6.05    1.38
   2  -9  -6   10.54    1.27
  -2   9   6    9.24    1.40
   2  -9  -5   13.83    1.28
  -2   9   5   12.48    1.47
   2  -9  -4    4.90    1.13
   2  -9  -3    0.89    0.94
   2  -9  -2    4.40    1.02
  -2   9   2    4.44    1.17
   2  -9  -1   94.55    4.37
  -2   9   1   96.23    4.63
   2  -9   0  105.88    4.83
  -2   9   0  112.18    5.15
   2  -9   1   91.67    4.34
  -2   9  -1   91.64    4.40
   2  -9   2   22.06    1.65
  -2   9  -2   19.91    1.50
   2  -9   3   33.35    2.11
  -2   9  -3   35.92    2.31
   2  -9   4   33.76    2.12
  -2   9  -4   31.19    2.13
   2  -9   5   85.44    2.83
  -2   9  -5   89.52    3.14
  -2   9  -6   12.31    1.22
   2  -9   7    4.50    1.07
  -2   9  -7    4.26    1.14
   2  -9   8   29.28    1.77
  -2   9  -8   28.41    1.67
   2  -9   9    3.87    1.29
  -2   9  -9    4.50    1.18
   2  -9  10    5.90    1.09
  -2   9 -10    2.95    1.21
   2  -9  11    9.83    1.45
   2  -9  12    1.36    1.13
   2  -9  13    0.10    1.31
   2  -9  14   26.76    2.36
   2  -9  15    1.21    1.41
   2  -9  16    7.57    1.56
  -2   8  14    5.45    1.85
  -2   8  13    8.54    1.82
  -2   8  12   44.33    3.56
  -2   8  11   20.85    1.99
  -2   8  10    5.63    1.57
  -2   8   9    7.73    1.50
  -2   8   8   26.69    1.90
  -2   8   7   74.08    3.92
   2  -8  -6   85.61    3.14
  -2   8   6   99.47    3.68
   2  -8  -5   35.45    1.88
  -2   8   5   36.26    2.05
   2  -8  -4  184.86    8.10
   2  -8  -3  127.93    5.75
   2  -8  -2  163.78    6.44
  -2   8   2  143.98    6.18
   2  -8  -1    3.23    0.96
  -2   8   1    3.34    0.90
   2  -8   0    6.51    0.99
  -2   8   0    6.35    1.09
   2  -8   1  102.28    4.59
  -2   8  -1   87.64    4.02
  -2   8  -1  105.86    4.82
   2  -8   2   50.39    2.64
  -2   8  -2   45.61    2.52
   2  -8   3    6.65    0.98
  -2   8  -3    9.12    1.09
   2  -8   4   20.61    1.55
  -2   8  -4   17.70    1.49
   2  -8   5    2.80    0.99
  -2   8  -5    2.96    0.99
  -2   8  -6    4.28    1.04
   2  -8   7  105.93    3.38
  -2   8  -7  103.74    3.40
   2  -8   8    0.89    1.08
   2  -8   8    0.52    0.88
  -2   8  -8    0.86    1.06
   2  -8   9   21.74    1.45
   2  -8   9   21.02    1.31
  -2   8  -9   21.51    1.50
   2  -8  10   94.56    4.15
   2  -8  10   89.03    3.92
  -2   8 -10   94.29    4.18
   2  -8  11   10.21    1.28
   2  -8  11    9.02    1.09
   2  -8  12    5.33    1.25
   2  -8  12    4.42    0.99
   2  -8  13   66.28    1.96
   2  -8  13   63.16    1.84
   2  -8  14    4.28    1.36
   2  -8  14    3.63    1.19
   2  -8  15    2.51    1.21
   2  -8  15    2.23    1.21
   2  -8  16    2.47    1.38
   2  -8  16    4.10    1.44
  -2   7  15    0.97    1.76
  -2   7  14   -0.82    1.65
  -2   7  13   -0.20    1.42
  -2   7  12    0.89    1.45
  -2   7  11   26.78    1.79
  -2   7  10   18.04    1.30
  -2   7  10   17.65    1.40
  -2   7   9   18.73    1.38
  -2   7   9   21.05    1.54
  -2   7   8   68.77    3.56
  -2   7   8   86.41    4.43
  -2   7   7   30.26    1.66
  -2   7   7   31.53    1.92
   2  -7  -6   42.14    2.49
  -2   7   6   35.98    2.19
  -2   7   6   42.72    2.66
   2  -7  -5   54.59    3.02
  -2   7   5   42.78    2.46
  -2   7   5   54.09    3.19
   2  -7  -4   52.58    2.92
  -2   7   4   40.74    2.31
   2  -7  -3    5.37    0.91
  -2   7   3    4.34    0.73
   2  -7  -2    0.99    0.85
  -2   7   2    1.28    0.95
   2  -7  -1   19.83    1.33
  -2   7   1   17.48    1.40
  -2   7   1   19.87    1.41
   2  -7   0    1.13    0.81
  -2   7   0    0.87    0.82
  -2   7   0    2.50    0.83
   2  -7   1   25.42    1.56
  -2   7  -1   24.80    1.64
   2  -7   2    2.94    0.84
  -2   7  -2    2.05    0.91
   2  -7   3    1.04    0.89
  -2   7  -3    2.44    1.00
   2  -7   4   94.58    3.78
   2  -7   4   91.11    3.52
  -2   7  -4   97.00    3.94
   2  -7   5   48.96    2.47
  -2   7  -5   42.83    2.37
   2  -7   6    3.64    0.76
  -2   7  -6    2.77    0.93
   2  -7   7  107.71    4.42
   2  -7   7  113.85    4.56
  -2   7  -7  114.49    4.83
   2  -7   8  123.25    5.56
   2  -7   8  116.30    5.25
  -2   7  -8  118.63    5.49
   2  -7   9    1.74    1.09
   2  -7   9    0.52    0.83
  -2   7  -9    0.97    0.95
   2  -7  10   28.08    1.67
   2  -7  10   26.61    1.45
  -2   7 -10   26.89    1.67
   2  -7  11   10.38    1.29
   2  -7  11   11.56    1.08
  -2   7 -11    9.74    1.19
   2  -7  12    8.75    1.26
   2  -7  12    8.15    1.13
   2  -7  13    2.33    1.25
   2  -7  13    1.32    1.12
   2  -7  14    0.05    1.28
   2  -7  14    1.83    1.20
   2  -7  15    0.27    1.35
   2  -7  15    2.43    1.24
   2  -7  16   28.72    1.66
   2  -7  16   30.84    1.73
   2  -7  17   11.86    1.58
  -2   6  15    1.32    1.63
  -2   6  14   16.02    1.41
  -2   6  14   16.35    1.57
  -2   6  13   37.06    2.06
  -2   6  13   41.97    2.48
  -2   6  12    2.34    1.12
  -2   6  12    3.26    1.40
  -2   6  11    7.97    1.21
  -2   6  11   10.46    1.46
  -2   6  10   36.94    2.00
  -2   6  10   36.03    2.12
  -2   6   9    3.67    0.96
  -2   6   9    5.86    1.22
  -2   6   8    2.93    0.94
  -2   6   8    3.86    1.26
  -2   6   7    0.04    0.73
  -2   6   7   -0.36    1.02
   2  -6  -6    2.49    0.78
  -2   6   6    3.29    0.85
  -2   6   6    2.41    1.02
   2  -6  -5   84.03    3.86
  -2   6   5   68.91    3.46
  -2   6   5   87.83    4.26
   2  -6  -4  106.82    4.19
  -2   6   4   93.40    3.74
   2  -6  -3    8.95    0.92
  -2   6   3    8.01    0.78
   2  -6  -2   37.72    1.80
  -2   6   2   33.63    1.80
  -2   6   2   36.95    1.99
   2  -6  -1  129.33    5.44
  -2   6   1  134.47    5.99
   2  -6   0   15.10    0.96
  -2   6   0   15.08    1.06
   2  -6   1    8.79    0.91
   2  -6   1    8.73    0.99
  -2   6  -1    9.24    1.14
   2  -6   2  233.45    9.60
   2  -6   2  225.07    8.88
  -2   6  -2  210.63    9.05
   2  -6   3    7.33    0.88
   2  -6   3    7.11    0.66
  -2   6  -3    6.60    0.95
   2  -6   4    0.93    0.87
   2  -6   4    1.48    0.61
  -2   6  -4    0.12    0.74
   2  -6   5   51.41    2.44
  -2   6  -5   52.20    2.71
   2  -6   6   14.08    1.10
   2  -6   6   14.01    0.91
  -2   6  -6   13.89    1.03
   2  -6   7    7.37    1.04
   2  -6   7    8.56    0.89
  -2   6  -7    7.19    0.93
   2  -6   8    1.49    0.92
   2  -6   8    1.72    0.77
  -2   6  -8    2.19    0.91
   2  -6   9    7.11    1.09
   2  -6   9    5.04    0.90
  -2   6  -9    6.31    1.05
   2  -6  10   55.46    2.51
   2  -6  10   59.63    2.34
  -2   6 -10   59.68    2.47
   2  -6  11    4.19    1.10
   2  -6  11    3.43    0.99
   2  -6  12   11.86    1.12
   2  -6  12   14.69    1.20
   2  -6  13   17.01    1.34
   2  -6  13   14.91    1.26
   2  -6  14  152.26    2.54
   2  -6  14  151.98    2.82
   2  -6  15   16.56    1.64
   2  -6  15   17.43    1.59
   2  -6  16   14.75    1.47
   2  -6  16   17.86    1.73
   2  -6  17   22.98    1.63
  -2   5  16   10.50    1.58
  -2   5  16   11.42    1.60
  -2   5  15    4.59    1.42
  -2   5  15    1.71    1.57
  -2   5  14    0.64    1.27
  -2   5  14    0.97    1.52
  -2   5  13    5.32    1.22
  -2   5  13    6.20    1.31
  -2   5  12    5.40    1.26
  -2   5  12    5.39    1.40
  -2   5  11    0.96    1.02
  -2   5  11   -1.01    1.12
  -2   5  10   81.62    4.19
  -2   5  10   94.43    4.88
  -2   5   9   18.80    1.20
  -2   5   9   23.08    1.43
  -2   5   8   11.78    1.15
  -2   5   8   13.17    1.40
  -2   5   7   58.79    3.28
  -2   5   7   67.46    3.26
   2  -5  -6   27.28    1.60
  -2   5   6   26.02    1.64
  -2   5   6   27.82    1.83
   2  -5  -5    1.05    0.74
  -2   5   5    1.08    0.67
  -2   5   5    1.06    0.95
   2  -5  -4    2.82    0.74
  -2   5   4    2.50    0.72
   2  -5  -3   88.07    3.45
  -2   5   3   76.52    2.97
   2  -5  -2   36.39    1.39
  -2   5   2   35.54    1.35
  -2   5   2   33.43    2.02
   2  -5  -1  101.27    3.83
  -2   5   1  107.27    4.29
   2  -5   0  120.84    4.49
  -2   5   0  129.04    5.13
   2  -5   1    7.00    0.81
   2  -5   1    6.32    0.81
  -2   5  -1    7.11    0.95
   2  -5   2   10.74    0.90
   2  -5   2   11.64    0.74
  -2   5  -2   10.90    0.90
   2  -5   3  138.05    5.13
   2  -5   3  136.95    4.82
  -2   5  -3  136.05    5.31
   2  -5   4    8.86    1.12
   2  -5   4    8.88    0.99
  -2   5  -4    8.68    1.05
   2  -5   5  175.60    7.05
  -2   5  -5  185.01    7.91
   2  -5   6   70.97    2.97
   2  -5   6   69.74    2.83
  -2   5  -6   66.03    3.24
   2  -5   7   24.16    1.57
   2  -5   7   25.27    1.44
  -2   5  -7   22.90    1.51
   2  -5   8  137.50    6.11
   2  -5   8  137.50    5.98
  -2   5  -8  130.82    6.04
   2  -5   9   33.53    2.15
   2  -5   9   33.50    2.07
  -2   5  -9   34.66    2.22
   2  -5  10  275.38    3.56
   2  -5  10  275.80    3.67
  -2   5 -10  273.92    7.53
   2  -5  11   -0.55    1.08
   2  -5  11   -0.29    0.96
   2  -5  12    2.58    1.11
   2  -5  12    2.43    0.89
   2  -5  13   33.43    1.84
   2  -5  13   32.02    1.96
   2  -5  14   15.82    1.30
   2  -5  14   11.86    1.18
   2  -5  15    2.01    1.24
   2  -5  15    0.82    1.17
   2  -5  16    2.49    1.45
   2  -5  17   -0.29    1.25
  -2   4  17    0.67    1.41
  -2   4  17    2.00    1.70
  -2   4  16   10.69    1.38
  -2   4  16   15.76    1.71
  -2   4  15   10.34    1.44
  -2   4  15   10.35    1.68
  -2   4  14   15.65    1.48
  -2   4  14   14.28    1.64
  -2   4  13   32.67    2.06
  -2   4  13   33.56    2.26
  -2   4  12  162.79    6.25
  -2   4  12  163.69    6.18
  -2   4  11   25.54    1.56
  -2   4  11   28.35    1.84
  -2   4  10   -0.83    0.82
  -2   4  10   -0.58    0.91
  -2   4   9   35.37    2.27
  -2   4   9   40.82    2.58
  -2   4   8   24.94    1.76
  -2   4   8   26.13    1.84
   2  -4  -7   14.80    1.14
  -2   4   7   13.53    1.05
  -2   4   7   14.34    1.01
   2  -4  -6    2.10    0.71
  -2   4   6    0.92    0.72
  -2   4   6    2.18    0.85
   2  -4  -5    1.82    0.67
  -2   4   5   -0.41    0.74
  -2   4   5   -0.14    1.01
   2  -4  -4  377.27    8.08
  -2   4   4  356.52    8.54
   2  -4  -3   61.80    2.61
  -2   4   3   58.25    2.37
   2  -4  -2  103.80    4.07
  -2   4   2  113.33    4.08
  -2   4   2  109.91    4.41
   2  -4  -1    7.02    0.98
  -2   4   1    7.93    1.00
   2  -4   0   42.95    1.90
  -2   4   0   48.22    2.12
   2  -4   1  236.85    7.20
   2  -4   1  232.66    6.07
  -2   4  -1  243.51    7.33
   2  -4   2    3.93    0.90
   2  -4   2    4.09    0.70
  -2   4  -2    4.07    0.98
   2  -4   3    8.66    1.07
   2  -4   3    8.49    0.80
  -2   4  -3    8.27    0.96
   2  -4   4  150.30    5.45
   2  -4   4  155.64    2.29
  -2   4  -4  150.59    5.80
   2  -4   5    2.61    0.71
  -2   4  -5    2.57    0.78
   2  -4   6    0.28    0.86
   2  -4   6    0.78    0.64
  -2   4  -6    0.85    0.65
   2  -4   7   29.05    1.71
   2  -4   7   27.89    1.55
  -2   4  -7   27.19    1.62
   2  -4   8   69.61    3.47
   2  -4   8   68.68    3.34
  -2   4  -8   72.13    3.42
   2  -4   9    3.28    0.99
   2  -4   9    3.41    0.88
  -2   4  -9    3.95    0.90
   2  -4  10   11.67    1.28
   2  -4  10   12.87    1.19
  -2   4 -10   12.95    1.25
   2  -4  11    3.67    1.10
   2  -4  11    3.99    0.87
   2  -4  12    2.15    1.10
   2  -4  12    0.50    1.07
   2  -4  13   40.27    2.07
   2  -4  13   34.20    1.77
   2  -4  14    3.48    1.27
   2  -4  14    2.06    1.37
   2  -4  15    1.70    1.27
   2  -4  15    2.45    1.34
   2  -4  16   48.20    3.59
   2  -4  17    5.25    1.38
  -2   3  17   15.55    1.51
  -2   3  17   15.93    1.70
  -2   3  16    4.07    1.45
  -2   3  16    9.44    1.64
  -2   3  15    1.35    1.32
  -2   3  15   -1.24    1.22
  -2   3  14    0.96    1.23
  -2   3  14    0.15    1.35
  -2   3  13   12.68    1.27
  -2   3  13   14.11    1.44
  -2   3  12    1.81    1.02
  -2   3  12    0.98    1.13
  -2   3  11   42.58    2.22
  -2   3  11   46.07    2.36
  -2   3  10    2.88    0.92
  -2   3  10    2.65    1.15
  -2   3   9    3.08    0.83
  -2   3   9    3.81    0.97
  -2   3   8  137.17    6.29
  -2   3   8  128.64    6.06
   2  -3  -7   21.63    1.33
  -2   3   7   19.51    1.32
  -2   3   7   22.23    1.53
   2  -3  -6   20.27    1.15
  -2   3   6   22.85    1.36
  -2   3   6   24.44    1.56
   2  -3  -5   39.25    1.80
  -2   3   5   41.69    2.00
  -2   3   5   35.72    1.53
   2  -3  -4   40.22    1.91
  -2   3   4   37.05    1.44
   2  -3  -3   46.96    2.00
  -2   3   3   44.80    1.87
   2  -3  -2   13.14    1.34
  -2   3   2   16.45    1.58
  -2   3   2   15.20    1.49
   2  -3  -1  295.20    9.57
  -2   3   1  300.53    7.71
   2  -3   0   81.28    3.28
   2  -3   0   89.34    3.16
  -2   3   0   86.48    3.27
   2  -3   1   30.75    1.70
   2  -3   1   30.87    1.68
  -2   3  -1   33.19    1.59
   2  -3   2  561.52   16.72
   2  -3   2  539.08   14.05
  -2   3  -2  568.45   16.17
   2  -3   3    3.65    0.88
   2  -3   3    4.38    0.73
  -2   3  -3    3.37    0.75
   2  -3   4  210.41    5.14
  -2   3  -4  206.92    5.53
   2  -3   5    2.02    0.81
  -2   3  -5    6.64    0.91
   2  -3   6  105.62    4.01
   2  -3   6  115.47    2.15
  -2   3  -6  115.43    2.52
   2  -3   7  379.46   15.02
  -2   3  -7  392.47    3.60
   2  -3   8   10.74    0.96
  -2   3  -8   12.79    0.96
   2  -3   9    0.99    0.99
  -2   3  -9    1.70    0.84
   2  -3  10   81.52    3.86
   2  -3  10   83.21    3.95
  -2   3 -10   85.18    3.96
   2  -3  11   84.64    3.10
   2  -3  11   98.70    3.73
   2  -3  12   14.65    1.21
   2  -3  12   14.54    1.33
   2  -3  13   -1.45    1.16
   2  -3  13    0.00    1.09
   2  -3  14   20.91    1.48
   2  -3  14   22.66    1.44
   2  -3  15    1.16    1.23
   2  -3  15    0.31    1.14
   2  -3  16   35.20    2.90
   2  -3  17    1.74    1.47
  -2   2  17    9.05    1.57
  -2   2  17    7.86    1.61
  -2   2  16    1.68    1.23
  -2   2  16   -0.94    1.51
  -2   2  15   -0.24    1.27
  -2   2  15    1.10    1.44
  -2   2  14   74.52    3.90
  -2   2  14   77.02    3.96
  -2   2  13    7.73    1.25
  -2   2  13    8.37    1.25
  -2   2  12    0.67    1.05
  -2   2  12   -0.38    1.09
  -2   2  11  128.93    4.25
  -2   2  11  138.86    4.76
  -2   2  10  176.61    8.29
  -2   2  10  183.16    8.65
  -2   2   9    5.76    0.99
  -2   2   9    5.51    1.05
  -2   2   8    9.89    0.93
  -2   2   8    9.58    1.03
   2  -2  -7   40.53    1.82
  -2   2   7   44.69    2.01
  -2   2   7   39.44    1.88
   2  -2  -6    9.35    0.81
  -2   2   6    9.73    0.88
  -2   2   6    9.01    0.91
  -2   2   5  246.32    5.33
  -2   2   5  254.14    6.63
   2  -2  -4   14.55    1.41
  -2   2   4   16.59    1.50
   2  -2  -3    9.23    1.06
  -2   2   3   10.29    1.07
   2  -2  -2 1181.30   30.94
  -2   2   2 1244.93   30.03
  -2   2   2 1309.75   32.64
   2  -2  -1    1.64    0.74
  -2   2   1    2.70    0.95
  -2   2   1    1.62    0.65
   2  -2   0   69.14    2.95
  -2   2   0   73.26    2.75
   2  -2   1  115.87    4.05
  -2   2  -1  113.28    3.95
   2  -2   2  440.23   13.15
  -2   2  -2  425.06   11.87
  -2   2  -3   35.10    1.71
   2  -2   3   33.61    1.66
  -2   2  -3   30.82    1.68
  -2   2  -4   12.78    1.59
   2  -2   4    6.64    1.81
  -2   2  -5  195.11    4.51
   2  -2   5  194.85    5.81
  -2   2  -5  198.61    4.35
  -2   2  -6    1.19    0.82
   2  -2   6    1.90    0.77
  -2   2  -6    3.11    0.74
  -2   2  -7   51.76    2.25
   2  -2   7   56.35    2.47
  -2   2  -7   56.35    2.32
  -2   2  -8   83.43    3.46
   2  -2   8   80.16    3.82
  -2   2  -8   78.50    3.17
  -2   2  -9    1.36    0.95
   2  -2   9    1.96    0.91
  -2   2  -9    1.53    0.81
  -2   2 -10    1.02    1.03
   2  -2  10    1.10    1.02
  -2   2 -10    0.88    0.95
  -2   2 -11   20.49    1.37
   2  -2  11   18.26    1.27
  -2   2 -12   27.84    1.73
   2  -2  12   27.13    1.69
  -2   2 -13    3.05    1.18
   2  -2  13    1.56    1.08
   2  -2  14   35.21    1.67
   2  -2  15    9.79    1.34
   2  -2  15    9.85    1.44
   2  -2  16    0.26    1.31
   2  -2  17   10.33    1.60
  -2   1  18    1.69    1.59
  -2   1  18    3.16    1.41
  -2   1  17    7.45    1.61
  -2   1  17    7.78    1.43
  -2   1  16   29.45    2.03
  -2   1  16   31.07    1.93
  -2   1  15   14.86    1.45
  -2   1  15   14.11    1.45
  -2   1  14   -0.65    1.15
  -2   1  14    2.32    1.22
  -2   1  13   -0.01    1.08
  -2   1  13    1.21    1.05
  -2   1  12   10.91    1.18
  -2   1  12   10.30    1.22
  -2   1  11   85.10    4.37
  -2   1  11   81.63    4.18
  -2   1  10    2.51    0.94
  -2   1  10    1.57    0.95
  -2   1   9  109.19    5.01
  -2   1   9  112.97    5.43
  -2   1   8   89.51    3.85
  -2   1   8   95.55    4.08
  -2   1   6   39.41    1.87
  -2   1   6   32.80    1.59
   2  -1  -5    1.75    0.42
   2  -1  -5    2.13    0.46
  -2   1   5    4.43    0.83
  -2   1   5    4.40    0.89
   2  -1  -4  288.54    7.52
  -2   1   4  313.82    8.03
   2  -1  -3  142.56    5.05
  -2   1   3  144.15    4.81
  -2   1   2  753.72   18.94
  -2   1   2  777.16   19.13
  -2   1   1 1958.46   49.37
  -2   1   1 1986.05   47.82
  -2   1   1 2025.87   50.87
  -2   1   0   48.81    2.05
  -2   1   0   50.40    2.18
   2  -1   1  576.50   16.48
  -2   1  -1  587.14   14.54
  -2   1  -3  118.20    4.23
   2  -1   3  124.18    5.41
  -2   1  -4   62.54    2.48
   2  -1   4   59.63    2.77
  -2   1  -4   59.41    2.31
  -2   1  -5  189.92    4.40
   2  -1   5  206.42    6.47
  -2   1  -6   27.87    1.28
   2  -1   6   26.50    1.35
  -2   1  -7   59.79    2.52
   2  -1   7   65.56    3.01
   2  -1   7   54.84    2.18
  -2   1  -8  324.61   11.80
   2  -1   8  336.10   14.48
  -2   1  -9   84.59    3.70
   2  -1   9   77.35    3.68
  -2   1 -10  182.05    8.13
   2  -1  10  175.97    8.29
  -2   1 -11   23.92    1.56
   2  -1  11   22.96    1.54
  -2   1 -12   35.31    1.95
   2  -1  12   33.18    1.81
  -2   1 -13    2.53    1.24
   2  -1  13    0.75    1.10
   2  -1  14    0.38    1.30
   2  -1  15   -0.38    1.34
   2  -1  16    1.91    1.57
   2  -1  17    0.42    1.65
  -2   0  18    2.00    1.59
  -2   0  18    0.05    1.39
  -2   0  17   23.69    2.04
  -2   0  17   19.89    1.88
  -2   0  16    3.01    1.25
  -2   0  16    4.69    1.18
  -2   0  15   11.76    1.43
  -2   0  15   11.46    1.30
  -2   0  14    0.61    1.15
  -2   0  14    0.09    1.12
  -2   0  13   19.75    1.47
  -2   0  13   19.95    1.44
  -2   0  12   26.47    1.65
  -2   0  12   27.02    1.69
  -2   0  11    1.15    0.97
  -2   0  11    1.49    0.95
  -2   0  10  169.45    7.46
  -2   0  10  154.24    6.31
  -2   0   9   42.05    2.18
  -2   0   9   44.57    2.34
  -2   0   9   45.14    2.40
  -2   0   8  169.11    7.20
  -2   0   8  159.85    7.26
  -2   0   7   45.83    2.01
  -2   0   7   47.59    2.05
  -2   0   6    3.17    1.39
  -2   0   6    2.27    1.96
  -2   0   5  289.42    7.55
  -2   0   5  303.21    8.36
   2   0  -4   31.61    1.38
  -2   0   4   38.57    1.63
  -2   0   3    4.65    1.10
  -2   0   2  112.46    4.01
  -2   0   2  122.92    4.46
  -2   0   2  116.55    3.96
  -2   0   1 1447.20   36.93
  -2   0   1 1485.72   35.89
  -2   0   1 1475.87   37.00
  -2   0   0   51.31    2.20
  -2   0   0   55.53    2.21
  -2   0  -2 1020.24   26.48
   2   0   2 1123.96   40.74
   2   0   2 1090.93   27.66
  -2   0  -3   74.41    3.04
   2   0   3   74.60    3.77
   2   0   3   72.40    2.68
  -2   0  -4  580.25   15.34
   2   0   4  582.53   26.31
   2   0   4  584.52   14.48
  -2   0  -5   52.98    2.30
   2   0   5   49.31    2.44
   2   0   5   51.07    2.12
  -2   0  -6    5.98    0.88
   2   0   6    6.12    0.99
   2   0   6    7.09    0.76
  -2   0  -7  122.19    4.78
   2   0   7  120.31    5.24
   2   0   7  119.98    4.58
  -2   0  -8    6.65    1.00
   2   0   8    8.53    1.26
   2   0   8    7.16    0.87
  -2   0  -9    2.55    1.04
   2   0   9    2.70    1.07
  -2   0 -10    0.36    1.00
   2   0  10    0.04    1.10
  -2   0 -11    0.83    1.15
   2   0  11    3.02    1.01
  -2   0 -12    1.64    1.11
   2   0  12    0.38    0.95
   2   0  13   47.62    2.29
   2   0  14    1.30    1.39
   2   0  15    5.82    1.28
   2   0  16   69.95    2.04
   2   0  17   10.65    1.70
  -2  -1  18   10.96    1.70
   2   1 -18    8.92    1.79
  -2  -1  17   24.97    2.40
  -2  -1  17   22.23    2.01
  -2  -1  16   -0.03    1.39
  -2  -1  16   -0.56    1.03
  -2  -1  15   30.25    1.60
  -2  -1  15   30.88    1.62
  -2  -1  14   22.71    1.49
  -2  -1  14   21.39    1.45
  -2  -1  13   16.44    1.27
  -2  -1  13   15.58    1.28
  -2  -1  12    6.27    1.07
  -2  -1  12    6.24    0.89
  -2  -1  11    2.59    0.99
  -2  -1  11    0.46    1.09
  -2  -1  10    3.21    0.86
  -2  -1  10    1.32    0.85
  -2  -1   9    7.80    0.84
  -2  -1   9    5.95    1.42
  -2  -1   9    6.88    1.72
  -2  -1   8   68.36    2.78
  -2  -1   8   69.35    2.76
  -2  -1   8   77.75    3.04
  -2  -1   7  337.25    7.09
  -2  -1   7  319.85    7.13
  -2  -1   7  321.82    7.59
  -2  -1   6   15.64    0.95
  -2  -1   6   13.53    0.93
  -2  -1   6   15.96    1.04
  -2  -1   5  478.71   12.04
  -2  -1   5  429.32   11.16
  -2  -1   5  460.03   12.03
  -2  -1   4  181.58    5.03
  -2  -1   4  168.51    4.57
  -2  -1   3   28.99    1.42
   2   1   0   61.50    3.56
   2   1   1 5727.55  206.54
   2   1   1 6021.45   56.72
  -2  -1  -2  556.18   14.74
   2   1   2  559.08   24.08
   2   1   2  596.28   15.48
  -2  -1  -3    1.65    0.91
   2   1   3    0.31    0.89
   2   1   3    2.00    0.64
  -2  -1  -4   56.24    2.54
   2   1   4   55.58    3.44
   2   1   4   55.07    2.45
  -2  -1  -5  183.75    4.26
   2   1   5  172.05    6.52
   2   1   5  174.17    3.93
  -2  -1  -6    8.77    0.98
   2   1   6    8.03    0.99
   2   1   6    8.47    0.82
  -2  -1  -7  254.84    9.33
   2   1   7  258.15   11.10
   2   1   7  240.03    8.72
  -2  -1  -8   17.54    1.39
   2   1   8   15.05    1.41
   2   1   8   17.04    1.23
  -2  -1  -9   30.42    2.00
   2   1   9   29.68    2.17
  -2  -1 -10  243.26    6.93
   2   1  10  243.31    6.74
  -2  -1 -11   62.66    2.62
   2   1  11   63.53    2.65
  -2  -1 -12    0.98    1.13
  -2  -2  18    0.39    1.63
   2   2 -18    1.04    1.48
  -2  -2  17    0.97    1.34
   2   2 -17    0.57    1.59
  -2  -2  16    7.67    1.40
   2   2 -16    8.43    1.66
  -2  -2  15    2.25    1.15
   2   2 -15    1.83    1.42
  -2  -2  14   11.31    1.26
  -2  -2  13    2.67    1.10
  -2  -2  13    2.57    1.06
  -2  -2  12    9.60    1.14
  -2  -2  12   14.42    1.19
  -2  -2  11  114.35    5.84
  -2  -2  11  127.04    6.15
  -2  -2  10  179.56    7.95
  -2  -2  10  211.57    9.48
  -2  -2   9    4.19    0.73
  -2  -2   9    5.47    0.91
  -2  -2   8  202.08    8.32
  -2  -2   8  226.98    9.67
  -2  -2   7   49.18    2.12
  -2  -2   6  261.62    5.76
   2   2  -6  252.19    7.78
  -2  -2   5   -0.21    0.71
   2   2  -5    3.46    1.11
  -2  -2   4   33.45    1.56
   2   2  -4   37.76    1.81
  -2  -2   3   18.22    1.67
  -2  -2   3   15.06    1.39
   2   2  -3   17.70    1.75
  -2  -2   2  591.20   15.66
  -2  -2   2  590.20   15.13
   2   2  -2  632.90   15.90
  -2  -2   1   36.66    1.93
  -2  -2   1   32.85    1.60
  -2  -2   0   28.18    1.43
   2   2   0   29.87    1.44
  -2  -2  -1  116.05    4.53
   2   2   1  131.67    6.44
   2   2   1  138.72    5.06
  -2  -2  -2  117.70    4.19
   2   2   2  124.08    5.55
   2   2   2  127.22    4.78
  -2  -2  -3  232.37    5.14
   2   2   3  234.47    8.86
   2   2   3  216.89    5.66
  -2  -2  -4    7.27    0.88
   2   2   4    5.78    0.91
   2   2   4    5.59    0.75
  -2  -2  -5   45.74    2.07
   2   2   5   43.18    2.50
   2   2   5   43.97    1.94
  -2  -2  -6   13.26    1.03
   2   2   6   14.13    0.95
  -2  -2  -7   13.40    1.08
   2   2   7   12.31    1.01
  -2  -2  -8   61.68    2.81
   2   2   8   58.90    1.58
  -2  -2  -9    1.21    1.01
  -2  -2 -10    4.10    1.01
  -2  -2 -11    0.27    1.02
  -2  -2 -12   17.78    1.39
   2   2  13   21.47    1.58
   2   2  14    2.37    1.43
   2   2  15    0.71    1.56
   2   2  16   -1.75    1.50
  -2  -3  18   -0.22    1.53
   2   3 -18    0.14    1.64
  -2  -3  17   27.87    2.51
   2   3 -17   29.60    2.74
   2   3 -16   44.63    2.05
   2   3 -15   11.12    1.42
   2   3 -14   -0.63    1.36
   2   3 -13  103.45    5.76
   2   3 -12    9.48    1.47
   2   3 -11    2.68    1.13
  -2  -3  10    4.79    0.81
   2   3 -10    5.41    1.15
  -2  -3   9    2.74    0.75
  -2  -3   9    3.01    0.72
   2   3  -9    3.35    1.01
  -2  -3   8   62.79    3.02
  -2  -3   8   64.57    3.16
   2   3  -8   60.99    3.12
  -2  -3   7    4.71    0.75
  -2  -3   7    3.00    1.07
  -2  -3   6   34.16    1.27
  -2  -3   6   34.29    1.37
   2   3  -6   29.55    1.56
  -2  -3   5  136.21    5.08
  -2  -3   5  119.23    4.54
   2   3  -5  129.59    5.45
  -2  -3   4  313.12    8.50
  -2  -3   4  316.23    9.61
   2   3  -4  291.40    9.31
  -2  -3   3  215.71    6.05
  -2  -3   3  215.17    7.02
   2   3  -3  221.14    6.45
  -2  -3   2    3.95    1.07
  -2  -3   2    6.63    1.11
   2   3  -2    8.09    1.32
  -2  -3   1  438.33   12.39
  -2  -3   1  413.76   11.90
   2   3  -1  445.24   12.50
  -2  -3   0  261.19    7.70
   2   3   0  258.92    7.97
  -2  -3  -1    1.20    0.72
   2   3   1    1.14    0.72
  -2  -3  -2  317.14    6.96
   2   3   2  310.38    8.30
  -2  -3  -3  260.10    5.86
   2   3   3  245.87    6.89
  -2  -3  -4  181.01    4.15
   2   3   4  172.20    4.76
  -2  -3  -5   21.67    1.36
   2   3   5   19.79    1.19
  -2  -3  -6   41.26    2.18
   2   3   6   39.77    2.06
  -2  -3  -7    7.67    0.99
   2   3   7    6.39    1.02
   2   3   7    5.61    0.85
  -2  -3  -8   13.21    1.32
   2   3   8   12.02    1.31
   2   3   8   13.16    1.24
  -2  -3  -9   76.02    2.64
   2   3   9   81.07    2.82
  -2  -3 -10    3.64    1.11
   2   3  10    2.54    1.18
  -2  -3 -11   33.76    2.06
   2   3  11   27.82    1.86
  -2  -3 -12   28.96    1.52
   2   3  12   24.97    1.64
   2   3  13   14.12    1.49
   2   3  14   23.38    1.90
   2   3  15    1.94    1.42
   2   3  16   19.23    1.70
   2   4 -18   30.24    1.98
   2   4 -17   16.71    1.81
   2   4 -16    8.62    1.55
  -2  -4  15    2.30    1.28
   2   4 -15    1.85    1.37
  -2  -4  14   13.28    1.31
   2   4 -14   13.11    1.43
  -2  -4  13   21.55    1.54
   2   4 -13   19.34    1.67
  -2  -4  12    5.92    1.06
   2   4 -12    4.80    1.18
  -2  -4  11    0.44    0.79
  -2  -4  11   -0.71    0.86
   2   4 -11   -1.54    1.02
  -2  -4  10  191.04    7.71
  -2  -4  10  216.66    9.11
   2   4 -10  215.14    9.63
  -2  -4   9  133.69    6.01
  -2  -4   9  127.59    5.87
   2   4  -9  118.05    6.57
  -2  -4   8   49.86    2.49
  -2  -4   8   54.31    2.80
   2   4  -8   52.61    2.81
  -2  -4   7   31.90    1.60
  -2  -4   7   30.10    1.55
  -2  -4   6  325.08   13.24
  -2  -4   6  347.85   15.01
   2   4  -6  328.62   15.89
  -2  -4   5  549.53   12.38
  -2  -4   5  524.21   11.37
   2   4  -5  487.95   15.63
  -2  -4   4   73.37    2.91
  -2  -4   4   71.46    2.96
   2   4  -4   70.31    3.16
  -2  -4   3    4.62    0.83
  -2  -4   3    3.78    0.94
   2   4  -3    3.53    1.04
  -2  -4   2   76.89    3.08
  -2  -4   2   80.43    3.27
   2   4  -2   75.61    3.37
  -2  -4   1   47.22    2.09
  -2  -4   1   44.17    1.94
   2   4  -1   44.00    2.10
  -2  -4   0  208.62    5.11
   2   4   0  183.95    5.52
  -2  -4  -1    0.93    0.74
   2   4   1    0.11    0.92
   2   4   1    0.05    0.80
  -2  -4  -2    0.55    0.73
   2   4   2    0.76    0.82
   2   4   2    0.37    0.76
  -2  -4  -3  440.29   17.26
   2   4   3  414.80   19.34
   2   4   3  416.53   17.96
  -2  -4  -4  110.75    4.08
   2   4   4  106.76    4.49
   2   4   4  102.94    3.98
  -2  -4  -5    3.41    0.86
   2   4   5    2.88    0.90
   2   4   5    2.86    0.76
  -2  -4  -6   18.38    1.41
   2   4   6   20.13    1.52
   2   4   6   18.28    1.35
  -2  -4  -7   73.44    3.24
   2   4   7   72.64    3.31
   2   4   7   67.76    2.98
  -2  -4  -8   37.55    1.98
   2   4   8   44.09    2.26
   2   4   8   39.53    1.99
  -2  -4  -9   21.28    1.55
   2   4   9   23.01    1.67
  -2  -4 -10   32.71    1.84
   2   4  10   35.15    2.10
  -2  -4 -11    0.30    1.17
   2   4  11   -0.70    1.31
   2   4  12    5.80    1.39
   2   4  13    3.16    1.51
   2   4  14   -2.12    1.57
   2   4  15   41.92    2.17
  -2  -5  18   -0.60    1.66
   2   5 -18    2.92    1.63
  -2  -5  17   14.35    1.48
   2   5 -17   13.54    1.77
  -2  -5  16    7.22    1.29
   2   5 -16   12.80    1.75
  -2  -5  15   71.41    2.65
   2   5 -15   61.87    2.62
  -2  -5  14   25.61    1.49
   2   5 -14   24.48    1.68
  -2  -5  13    2.86    1.12
   2   5 -13    0.74    1.26
  -2  -5  12  107.30    4.10
   2   5 -12   99.02    4.21
  -2  -5  11   35.52    1.85
  -2  -5  11   39.09    2.09
   2   5 -11   36.76    2.20
  -2  -5  10    2.01    0.75
  -2  -5  10    2.00    0.86
   2   5 -10    1.69    0.95
  -2  -5   9   17.88    1.41
  -2  -5   9   16.38    1.27
   2   5  -9   19.94    1.61
  -2  -5   8   11.82    0.93
  -2  -5   8   12.15    0.96
   2   5  -8   13.21    1.15
  -2  -5   7  119.02    4.63
  -2  -5   7  123.09    5.10
  -2  -5   6   37.33    1.76
  -2  -5   6   35.16    1.68
   2   5  -6   33.98    2.08
  -2  -5   5    1.97    0.84
  -2  -5   5    1.72    0.70
   2   5  -5    1.92    0.88
  -2  -5   4  114.30    4.28
  -2  -5   4  115.09    4.17
   2   5  -4  106.35    4.51
  -2  -5   3   45.72    2.03
  -2  -5   3   46.39    1.99
   2   5  -3   48.81    2.36
  -2  -5   2  166.13    4.02
  -2  -5   2  164.22    4.16
   2   5  -2  155.43    3.94
  -2  -5   1   59.01    2.48
   2   5  -1   50.65    2.32
  -2  -5   0   25.87    1.20
   2   5   0   24.43    1.28
  -2  -5  -1  504.92   19.90
   2   5   1  472.40   21.72
   2   5   1  454.59   19.08
  -2  -5  -2    0.80    0.84
   2   5   2    0.95    0.92
   2   5   2    1.68    0.78
  -2  -5  -3    5.69    0.99
   2   5   3    3.19    1.05
   2   5   3    2.92    0.89
  -2  -5  -4   37.05    2.01
   2   5   4   35.36    2.10
   2   5   4   33.13    1.87
  -2  -5  -5    1.75    0.93
   2   5   5    3.06    1.05
   2   5   5    3.61    0.86
  -2  -5  -6   21.37    1.61
   2   5   6   21.43    1.66
   2   5   6   20.65    1.62
  -2  -5  -7   -1.15    0.94
   2   5   7   -0.42    1.14
   2   5   7   -1.02    0.91
  -2  -5  -8   30.06    1.69
   2   5   8   31.69    1.91
   2   5   8   34.53    1.85
  -2  -5  -9   39.34    2.00
   2   5   9   36.69    1.87
  -2  -5 -10   45.40    2.27
   2   5  10   47.57    2.38
  -2  -5 -11    1.54    1.32
   2   5  11    3.10    1.42
   2   5  12    1.72    1.52
   2   5  13   35.38    2.93
   2   5  14    4.10    1.64
   2   5  15    2.49    1.53
  -2  -6  18    1.80    1.59
   2   6 -18    2.33    1.67
  -2  -6  17   29.67    2.22
   2   6 -17   30.65    2.34
  -2  -6  16   27.06    1.76
   2   6 -16   25.78    1.88
  -2  -6  15    5.14    1.30
   2   6 -15    6.67    1.55
  -2  -6  14    1.26    1.06
   2   6 -14    0.95    1.45
  -2  -6  13    5.28    1.12
   2   6 -13    6.01    1.41
  -2  -6  12    6.59    1.14
   2   6 -12    5.02    1.15
  -2  -6  11  165.70    5.62
  -2  -6  10    3.58    0.87
  -2  -6  10    3.71    0.94
   2   6 -10    2.67    0.99
  -2  -6   9   12.96    1.18
  -2  -6   9   11.75    1.07
   2   6  -9   12.68    1.45
  -2  -6   8  156.61    6.24
  -2  -6   8  158.55    6.37
   2   6  -8  160.26    6.73
  -2  -6   7   92.61    4.26
  -2  -6   7   95.11    4.35
  -2  -6   6    0.45    0.75
  -2  -6   6    1.33    0.77
   2   6  -6    1.29    0.96
  -2  -6   5   83.73    3.44
  -2  -6   5   84.09    3.39
   2   6  -5   83.98    3.88
  -2  -6   4  113.47    2.18
  -2  -6   4  113.75    2.00
   2   6  -4  109.61    4.47
  -2  -6   3  135.63    5.65
  -2  -6   3  136.30    5.63
   2   6  -3  125.10    5.71
  -2  -6   2   13.69    1.10
  -2  -6   2   13.78    0.94
   2   6  -2   11.92    1.06
  -2  -6   1    5.23    0.83
   2   6  -1    5.46    0.89
  -2  -6   0   62.75    2.60
  -2  -6   0   64.66    2.71
   2   6   0   64.98    2.77
  -2  -6  -1  231.61    8.61
   2   6   1  229.81    9.96
   2   6   1  218.12    8.36
  -2  -6  -2   72.44    3.07
   2   6   2   70.91    3.33
   2   6   2   67.94    1.87
  -2  -6  -3    1.56    0.94
   2   6   3    0.83    1.13
   2   6   3    2.17    0.90
  -2  -6  -4  111.20    4.57
   2   6   4  113.33    4.99
   2   6   4  107.27    4.52
  -2  -6  -5   34.41    2.18
   2   6   5   35.73    2.35
   2   6   5   34.58    2.21
  -2  -6  -6    7.40    1.05
   2   6   6    8.67    1.28
   2   6   6    7.85    1.07
  -2  -6  -7  176.63    5.88
   2   6   7  170.89    5.75
   2   6   7  185.80    6.13
  -2  -6  -8    0.62    1.08
   2   6   8    2.70    1.30
   2   6   8    0.44    1.06
  -2  -6  -9    4.48    1.12
   2   6   9    5.91    1.42
  -2  -6 -10    3.21    1.25
   2   6  10    2.21    1.32
  -2  -6 -11    5.33    1.39
   2   6  11    8.71    1.49
   2   6  12    3.45    1.55
   2   6  13    0.19    1.64
   2   6  14    8.27    1.82
  -2  -7  18   -1.51    1.49
   2   7 -18   -0.06    1.65
  -2  -7  17   37.05    1.97
   2   7 -17   32.71    1.94
  -2  -7  16    8.26    1.58
   2   7 -16    7.20    1.49
  -2  -7  15   -0.78    1.32
   2   7 -15    0.53    1.57
  -2  -7  14   81.19    2.77
   2   7 -14   78.10    2.90
  -2  -7  13  111.19    5.40
   2   7 -13  119.80    5.95
  -2  -7  12    1.20    1.09
  -2  -7  12    0.04    0.97
   2   7 -12   -0.21    1.29
  -2  -7  11   99.63    4.88
  -2  -7  11  107.03    5.36
   2   7 -11  102.03    5.57
  -2  -7  10    3.52    1.02
  -2  -7  10    2.78    0.99
   2   7 -10    3.07    1.15
  -2  -7   9   14.06    1.15
  -2  -7   9   13.48    1.02
   2   7  -9   13.36    1.26
  -2  -7   8   21.92    1.63
  -2  -7   8   23.25    1.64
   2   7  -8   22.22    1.67
  -2  -7   7   57.02    3.16
  -2  -7   7   58.04    3.15
  -2  -7   6    0.74    0.85
  -2  -7   6    0.82    0.80
   2   7  -6    1.29    0.97
  -2  -7   5  137.07    6.07
  -2  -7   5  134.85    5.92
   2   7  -5  134.40    6.15
  -2  -7   4   11.39    1.05
  -2  -7   4   11.27    0.93
   2   7  -4   11.70    1.09
  -2  -7   3   38.95    2.09
  -2  -7   3   37.76    2.01
   2   7  -3   38.81    2.17
  -2  -7   2   77.49    3.17
  -2  -7   2   84.01    3.50
   2   7  -2   79.95    3.41
  -2  -7   1   22.01    1.38
   2   7  -1   21.88    1.47
  -2  -7   0  269.89   11.46
  -2  -7   0  280.49   12.25
   2   7   0  250.81   10.87
  -2  -7  -1   53.62    2.82
   2   7   1   55.96    3.12
   2   7   1   57.18    3.01
  -2  -7  -2  153.54    6.08
   2   7   2  150.45    6.34
   2   7   2  152.85    6.18
  -2  -7  -3  142.54    5.75
   2   7   3  145.38    6.41
   2   7   3  143.67    5.95
  -2  -7  -4   -0.22    1.07
   2   7   4    0.25    1.29
   2   7   4    0.80    1.09
  -2  -7  -5   39.02    2.07
   2   7   5   37.27    2.09
   2   7   5   38.98    2.02
  -2  -7  -6    4.27    0.98
   2   7   6    4.76    1.22
   2   7   6    3.97    1.10
  -2  -7  -7   48.80    2.80
   2   7   7   47.98    2.80
   2   7   7   49.69    2.81
  -2  -7  -8    4.48    1.24
   2   7   8    3.52    1.45
   2   7   8    7.98    1.28
  -2  -7  -9   19.96    1.40
   2   7   9   22.21    1.64
  -2  -7 -10    3.68    1.40
   2   7  10    3.44    1.49
   2   7  11   11.20    1.68
   2   7  12    9.82    1.62
   2   7  13   -0.38    1.67
  -2  -8  17   -1.76    1.32
   2   8 -17   -1.27    1.78
  -2  -8  16   23.15    1.82
   2   8 -16   23.27    2.21
  -2  -8  15   17.81    1.67
   2   8 -15   19.25    1.79
  -2  -8  14   19.13    1.45
   2   8 -14   15.83    1.71
  -2  -8  13   -0.06    1.06
   2   8 -13   -0.46    1.52
  -2  -8  12    3.96    1.08
  -2  -8  12    4.50    1.03
   2   8 -12    1.52    1.25
  -2  -8  11   22.33    1.59
  -2  -8  11   20.40    1.53
   2   8 -11   20.10    1.64
  -2  -8  10   31.33    1.73
  -2  -8  10   29.39    1.57
   2   8 -10   32.19    1.94
  -2  -8   9   80.54    3.11
  -2  -8   9   85.28    3.16
   2   8  -9   94.38    3.62
  -2  -8   8    7.35    1.09
  -2  -8   8    7.71    0.98
   2   8  -8    8.26    1.28
  -2  -8   7    9.60    1.12
  -2  -8   7   11.04    1.02
  -2  -8   6  202.89    8.93
  -2  -8   6  212.30    9.30
   2   8  -6  186.12    8.37
  -2  -8   5   39.33    2.35
  -2  -8   5   39.84    2.27
   2   8  -5   37.51    2.33
  -2  -8   4   37.07    2.20
  -2  -8   4   34.11    2.07
   2   8  -4   33.02    2.10
  -2  -8   3    5.16    1.07
  -2  -8   3    5.39    0.85
   2   8  -3    4.34    0.85
  -2  -8   2   67.08    3.01
  -2  -8   2   70.47    3.12
   2   8  -2   59.72    1.64
  -2  -8   1   29.88    1.88
   2   8  -1   30.41    1.98
  -2  -8   0   18.03    1.49
   2   8   0   18.08    1.61
   2   8   0   18.19    1.48
  -2  -8  -1    1.66    1.34
   2   8   1    2.32    1.24
   2   8   1    2.84    1.30
  -2  -8  -2    8.87    1.18
   2   8   2    7.04    1.27
   2   8   2    8.11    1.11
  -2  -8  -3   43.76    2.18
   2   8   3   45.23    2.36
   2   8   3   48.44    2.37
  -2  -8  -4   -1.01    1.12
   2   8   4    1.96    1.24
   2   8   4   -0.44    1.12
  -2  -8  -5   23.93    1.62
   2   8   5   21.07    1.59
   2   8   5   24.46    1.56
  -2  -8  -6   25.09    1.75
   2   8   6   24.28    1.80
   2   8   6   23.54    1.71
  -2  -8  -7    3.04    1.20
   2   8   7    3.23    1.34
   2   8   7    3.44    1.23
  -2  -8  -8   32.16    2.05
   2   8   8   34.10    2.29
   2   8   8   35.04    2.21
  -2  -8  -9   27.40    1.69
   2   8   9   30.83    1.80
  -2  -8 -10   22.13    1.83
   2   8  10   27.03    1.98
   2   8  11    8.11    1.63
   2   8  12    4.74    1.65
  -2  -9  17    2.03    1.52
   2   9 -17    3.70    1.78
  -2  -9  16    3.92    1.51
   2   9 -16    5.56    1.75
  -2  -9  15   62.95    4.56
   2   9 -15   61.39    4.63
  -2  -9  14   -0.50    1.26
   2   9 -14   -0.41    1.41
  -2  -9  13   22.62    1.46
   2   9 -13   22.14    1.76
  -2  -9  12   28.69    1.49
  -2  -9  12   28.93    1.50
   2   9 -12   26.52    1.84
  -2  -9  11   50.36    2.32
  -2  -9  11   54.51    2.44
   2   9 -11   46.39    2.40
  -2  -9  10   19.04    1.57
  -2  -9  10   20.97    1.53
   2   9 -10   22.02    1.77
  -2  -9   9    4.58    1.15
  -2  -9   9    3.95    1.11
   2   9  -9    4.70    1.33
  -2  -9   8   11.26    1.20
  -2  -9   8   10.92    1.11
   2   9  -8   13.82    1.44
  -2  -9   7   10.10    1.14
  -2  -9   7   11.08    1.10
  -2  -9   6    6.73    1.04
  -2  -9   6    6.39    1.03
  -2  -9   5    4.94    1.06
  -2  -9   5    4.43    0.95
   2   9  -5    4.72    0.98
  -2  -9   4    1.20    1.07
  -2  -9   4    1.33    0.88
   2   9  -4    0.17    1.11
  -2  -9   3    3.78    1.17
  -2  -9   3    2.74    0.88
   2   9  -3    3.51    1.04
  -2  -9   2  101.83    3.26
   2   9  -2  106.17    3.42
  -2  -9   1    2.40    0.97
   2   9  -1    2.21    1.09
  -2  -9   0   32.70    1.87
   2   9   0   33.47    2.03
   2   9   0   32.32    1.87
  -2  -9  -1   56.63    2.64
   2   9   1   56.96    2.81
   2   9   1   56.28    2.59
  -2  -9  -2   45.31    2.23
   2   9   2   49.85    2.50
   2   9   2   46.38    2.29
  -2  -9  -3    3.22    1.20
   2   9   3    1.64    1.35
   2   9   3    0.87    1.18
  -2  -9  -4  176.60    7.39
   2   9   4  163.30    6.94
   2   9   4  169.70    7.09
  -2  -9  -5    3.19    1.33
   2   9   5    0.86    1.14
   2   9   5    2.33    1.40
  -2  -9  -6   -1.72    1.28
   2   9   6    1.04    1.37
   2   9   6    0.60    1.11
  -2  -9  -7   16.45    1.52
   2   9   7   13.23    1.34
   2   9   7   16.70    1.44
  -2  -9  -8   17.32    1.62
   2   9   8   18.51    1.57
   2   9   8   20.61    1.46
  -2  -9  -9    1.73    1.50
   2   9   9    2.74    1.51
  -2  -9 -10    2.56    1.52
   2   9  10    1.23    1.40
   2   9  11    4.16    1.50
  -2 -10  16    2.26    1.49
   2  10 -16    1.47    1.83
  -2 -10  15    4.29    1.47
   2  10 -15    2.93    1.74
  -2 -10  14   31.94    2.65
   2  10 -14   32.52    2.86
  -2 -10  13    1.76    1.38
   2  10 -13    1.09    1.66
  -2 -10  12   31.64    1.60
  -2 -10  12   34.74    1.66
   2  10 -12   34.09    1.94
  -2 -10  11   18.54    1.51
  -2 -10  11   21.21    1.36
   2  10 -11   22.34    1.70
  -2 -10  10   32.13    2.07
  -2 -10  10   32.12    2.01
   2  10 -10   29.07    1.79
  -2 -10   9    1.41    1.28
  -2 -10   9    3.04    1.09
   2  10  -9    0.82    1.37
  -2 -10   8   34.64    2.09
  -2 -10   8   35.17    1.96
   2  10  -8   35.29    2.13
  -2 -10   7    4.74    1.07
  -2 -10   7    3.93    0.91
  -2 -10   6   16.30    1.23
  -2 -10   6   15.72    1.17
  -2 -10   5  173.75    8.22
  -2 -10   5  162.54    7.75
   2  10  -5  182.92    8.63
  -2 -10   4   21.08    1.54
  -2 -10   4   21.35    1.46
   2  10  -4   19.32    1.43
  -2 -10   3   89.17    3.33
  -2 -10   3   86.38    3.24
   2  10  -3   95.22    3.52
  -2 -10   2  110.33    4.04
   2  10  -2   99.90    3.69
  -2 -10   1   -0.62    1.03
   2  10  -1    0.37    1.19
  -2 -10   0    1.57    1.19
   2  10   0   -0.64    1.20
   2  10   0    0.93    1.21
  -2 -10  -1    4.36    1.20
   2  10   1    3.98    1.28
   2  10   1    3.57    1.10
  -2 -10  -2    1.35    1.13
   2  10   2    2.63    1.34
   2  10   2    1.25    1.23
  -2 -10  -3    9.27    1.39
   2  10   3    7.20    1.38
   2  10   3    8.17    1.43
  -2 -10  -4    7.47    1.46
   2  10   4    9.01    1.52
   2  10   4    8.57    1.54
  -2 -10  -5    4.47    1.32
   2  10   5    2.09    1.45
   2  10   5    2.09    1.33
  -2 -10  -6    1.96    1.46
   2  10   6    2.42    1.48
   2  10   6    3.50    1.58
  -2 -10  -7   43.07    2.37
   2  10   7   41.04    2.34
   2  10   7   44.39    2.35
  -2 -10  -8    8.37    1.61
   2  10   8   11.23    1.61
   2  10   8   11.72    1.74
  -2 -10  -9    2.26    1.63
   2  10   9   -0.14    1.56
   2  10  10    0.03    1.44
  -2 -11  15    2.44    1.51
   2  11 -15    2.31    1.81
  -2 -11  14   56.69    2.15
   2  11 -14   65.53    2.57
  -2 -11  13    5.00    1.36
   2  11 -13    3.71    1.53
  -2 -11  12   -0.19    1.29
  -2 -11  12   -3.93    1.31
   2  11 -12    1.61    1.64
  -2 -11  11   69.70    2.11
  -2 -11  11   66.18    1.99
   2  11 -11   72.93    2.33
  -2 -11  10    8.80    1.39
  -2 -11  10    7.32    1.33
   2  11 -10    9.12    1.66
  -2 -11   9   42.72    1.87
  -2 -11   9   41.91    1.78
   2  11  -9   44.62    2.13
  -2 -11   8    1.84    1.29
  -2 -11   8    2.23    1.17
   2  11  -8    1.73    1.54
  -2 -11   7    0.25    1.31
  -2 -11   7    0.07    1.10
  -2 -11   6    0.19    1.26
  -2 -11   6    0.05    0.98
  -2 -11   5   26.42    1.76
  -2 -11   5   27.05    1.64
   2  11  -5   24.20    1.48
  -2 -11   4    5.19    1.29
  -2 -11   4    3.73    1.07
   2  11  -4    4.69    1.47
  -2 -11   3    1.20    1.30
  -2 -11   3    1.46    0.99
   2  11  -3   -1.08    1.25
  -2 -11   2   61.46    2.67
   2  11  -2   60.22    2.69
  -2 -11   1    7.96    1.46
   2  11  -1    7.03    1.43
   2  11  -1    8.35    1.35
  -2 -11   0   18.28    1.41
   2  11   0   20.30    1.56
   2  11   0   19.03    1.50
  -2 -11  -1   17.35    1.57
   2  11   1   17.85    1.54
   2  11   1   17.86    1.58
  -2 -11  -2   19.06    1.64
   2  11   2   20.64    1.64
   2  11   2   21.04    1.62
  -2 -11  -3   18.47    1.63
   2  11   3   18.48    1.66
   2  11   3   20.05    1.67
  -2 -11  -4    2.01    1.57
   2  11   4   -1.28    1.31
   2  11   4   -0.48    1.47
  -2 -11  -5   12.81    1.70
   2  11   5   14.29    1.66
   2  11   5   17.31    1.88
  -2 -11  -6    9.21    1.55
   2  11   6    7.17    1.37
   2  11   6   10.46    1.79
  -2 -11  -7    0.86    1.52
   2  11   7    0.54    1.52
   2  11   7    2.50    1.59
  -2 -11  -8    2.78    1.72
   2  11   8    2.39    1.50
   2  11   8    4.49    1.82
  -2 -11  -9    0.44    1.71
   2  11   9    1.45    1.58
  -2 -12  14    2.67    1.33
   2  12 -14    0.55    1.90
  -2 -12  13   11.73    1.61
  -2 -12  13   11.04    1.57
   2  12 -13    9.84    2.02
  -2 -12  12    1.27    1.44
  -2 -12  12    0.44    1.42
   2  12 -12    0.43    1.57
  -2 -12  11   37.05    3.01
  -2 -12  11   35.03    2.86
   2  12 -11   35.73    3.09
  -2 -12  10    6.53    1.53
  -2 -12  10    5.38    1.30
   2  12 -10    6.85    1.68
  -2 -12   9   12.01    1.57
  -2 -12   9   11.24    1.39
   2  12  -9   12.54    1.91
  -2 -12   8   13.96    1.40
  -2 -12   8   14.79    1.33
   2  12  -8   13.64    1.56
  -2 -12   7   -0.79    1.22
  -2 -12   7    1.93    1.13
  -2 -12   6   19.14    1.73
  -2 -12   6   19.19    1.27
  -2 -12   5    1.16    1.40
   2  12  -5    4.09    1.54
  -2 -12   4   52.58    2.15
   2  12  -4   55.60    2.27
  -2 -12   3   25.44    1.65
   2  12  -3   31.89    1.79
   2  12  -2    0.86    1.49
  -2 -12   1   15.60    1.59
   2  12  -1   14.03    1.52
   2  12  -1   13.87    1.42
  -2 -12   0    2.21    1.60
   2  12   0    2.99    1.50
   2  12   0    3.76    1.35
  -2 -12  -1   10.67    1.59
   2  12   1   10.29    1.48
   2  12   1   13.04    1.67
  -2 -12  -2    2.14    1.54
   2  12   2    1.20    1.37
   2  12   2    3.17    1.52
  -2 -12  -3    2.91    1.35
   2  12   3    2.21    1.40
   2  12   3    0.43    1.62
  -2 -12  -4   13.61    1.54
   2  12   4   13.98    1.63
   2  12   4   12.44    1.57
  -2 -12  -5   -1.96    1.67
   2  12   5   -0.93    1.70
  -2 -12  -6   -0.57    1.48
   2  12   6    2.08    1.64
  -2 -12  -7   -0.20    1.75
   2  12   7    5.10    1.84
  -2 -13  13    5.45    1.62
  -2 -13  12   22.99    1.74
   2  13 -12   24.66    2.18
  -2 -13  11    2.99    1.40
   2  13 -11    3.28    1.90
  -2 -13  10    1.69    1.57
   2  13 -10    2.96    1.94
  -2 -13   9   10.75    1.40
   2  13  -9   13.79    1.91
  -2 -13   8   22.64    2.26
   2  13  -8   19.46    2.28
  -2 -13   7    6.77    1.58
  -2 -13   6   -0.99    1.29
  -2 -13   5   18.32    1.90
   2  13  -5   15.28    1.67
  -2 -13   4    6.49    1.62
   2  13  -4    4.22    1.61
   2  13  -3   17.59    1.84
   2  13  -2   -0.40    1.46
   2  13  -2    1.25    1.54
  -2 -13   1    3.43    1.65
   2  13  -1    0.41    1.47
  -2 -13   0   57.30    2.86
   2  13   0   59.95    2.91
  -2 -13  -1    0.06    1.67
   2  13   1   -0.45    1.55
  -2 -13  -2   -0.05    1.68
   2  13   2    1.76    1.69
  -2 -13  -3    1.37    1.56
   2  13   3    1.65    1.78
  -2 -13  -4   42.29    2.38
   2  13   4   44.11    2.28
  -2 -13  -5   -3.87    1.71
   2  13   5   -0.68    1.76
  -2 -14  10    1.75    1.51
   2  14 -10    2.28    1.74
  -2 -14   9    8.30    1.52
   2  14  -9   14.90    1.96
  -2 -14   8    0.68    1.64
   2  14  -8   -0.25    1.82
  -2 -14   7    2.66    1.71
  -2 -14   6    6.24    1.76
  -2 -14   5   12.80    1.73
   2  14  -5   16.97    1.95
  -2 -14   4    4.17    1.68
   2  14  -4    1.62    1.82
   2  14  -3    2.70    1.76
   2  14  -2   35.03    2.46
  -2 -14   1    4.06    1.60
   2  14  -1    6.42    1.61
  -2 -14   0    4.89    1.83
   2  14   0    3.52    1.79
  -2 -14  -1   17.85    2.04
   2  14   1   18.98    1.98
  -2 -14  -2    0.01    1.81
   2  14   2   -3.44    1.79
  -2 -14  -3   -1.30    1.86
   2  14   3   -0.20    1.61
  -2 -15   7   -0.15    1.64
  -2 -15   6    0.61    1.56
  -2 -15   5   16.00    1.99
  -2 -15   4    3.58    1.87
   2  15  -4    0.65    1.92
   2  15  -3    2.38    1.66
  -2 -15   2    1.46    1.91
   2  15  -2    4.57    1.95
  -2 -15   1    2.53    1.82
   3 -15   0    5.53    1.75
  -3  15   0    7.86    1.99
   3 -15   1    0.99    1.79
  -3  15  -1    2.81    1.62
   3 -15   2   -1.41    1.73
  -3  15  -2   -2.73    1.75
   3 -15   3    2.93    1.57
  -3  15  -3    3.10    1.85
   3 -15   4    0.16    1.62
  -3  15  -4    7.01    1.80
   3 -15   5    1.39    1.65
  -3  15  -5    2.17    1.79
   3 -15   6   13.32    1.93
  -3  14   4   -2.42    1.65
   3 -14  -3    2.25    1.64
  -3  14   3    2.88    1.69
   3 -14  -2   12.46    1.66
  -3  14   2   13.27    1.77
   3 -14  -1    0.46    1.62
  -3  14   1    3.43    1.61
   3 -14   0    0.24    1.55
  -3  14   0    2.38    1.74
   3 -14   1    1.59    1.38
  -3  14  -1    0.11    1.65
   3 -14   2   23.61    1.97
  -3  14  -2   24.71    2.22
   3 -14   3   21.78    2.09
  -3  14  -3   21.61    2.07
   3 -14   4    7.35    1.60
  -3  14  -4   10.81    1.54
   3 -14   5    4.84    1.72
  -3  14  -5    6.00    1.69
   3 -14   6    3.38    1.47
  -3  14  -6    2.95    1.70
   3 -14   7   11.10    1.76
  -3  14  -7   11.53    1.76
   3 -14   9    3.75    1.59
  -3  13   5   36.12    2.27
  -3  13   4   39.35    2.64
   3 -13  -3    1.89    1.31
  -3  13   3    1.53    1.68
   3 -13  -2    8.84    1.34
  -3  13   2    8.37    1.74
   3 -13  -1   20.30    1.79
  -3  13   1   17.88    1.99
   3 -13   0    4.64    1.50
  -3  13   0    5.58    1.68
   3 -13   1   11.15    1.66
  -3  13  -1   12.76    1.81
   3 -13   2    1.14    1.53
  -3  13  -2    2.23    1.54
   3 -13   3    0.34    1.55
  -3  13  -3    0.53    1.61
   3 -13   4    5.74    1.37
  -3  13  -4    3.46    1.48
   3 -13   5    4.05    1.39
  -3  13  -5    3.82    1.51
   3 -13   6    4.15    1.57
  -3  13  -6    1.60    1.56
   3 -13   7    3.08    1.69
  -3  13  -7    4.51    1.60
   3 -13   9    0.80    1.62
   3 -13  10    0.46    1.62
   3 -13  11    6.90    1.82
  -3  12   8    6.95    2.12
  -3  12   5   14.75    1.62
   3 -12  -4    1.41    1.28
  -3  12   4   -0.02    1.76
   3 -12  -3    0.02    1.30
  -3  12   3    0.70    1.42
   3 -12  -2    0.95    1.36
  -3  12   2    0.95    1.50
   3 -12  -1   -1.24    1.31
  -3  12   1   -1.18    1.47
   3 -12   0    2.56    1.29
  -3  12   0    1.49    1.44
   3 -12   1    0.25    1.24
  -3  12  -1   -0.29    1.45
   3 -12   2    3.83    1.24
  -3  12  -2    5.84    1.41
   3 -12   3    3.62    1.26
  -3  12  -3    5.53    1.22
   3 -12   4    1.97    1.52
  -3  12  -4    0.18    1.37
   3 -12   5   28.27    1.74
  -3  12  -5   22.71    1.64
   3 -12   6   29.80    1.75
  -3  12  -6   27.15    1.66
   3 -12   7    3.35    1.45
  -3  12  -7   -1.52    1.25
  -3  12  -8   23.43    1.90
   3 -12   9   25.19    2.40
   3 -12  10    2.05    1.38
   3 -12  11    2.82    1.55
   3 -12  12    7.80    1.70
  -3  11  10   -1.08    1.65
  -3  11   9    3.10    1.87
  -3  11   8    3.37    1.62
  -3  11   5    3.29    1.64
   3 -11  -4   22.31    1.47
  -3  11   4   22.63    1.76
   3 -11  -3   54.77    2.91
  -3  11   3   57.59    3.17
   3 -11  -2   11.06    1.49
  -3  11   2   13.69    1.62
   3 -11  -1    5.54    1.22
  -3  11   1    6.85    1.50
   3 -11   0    3.02    1.20
  -3  11   0    3.75    1.34
   3 -11   1   25.20    1.48
  -3  11  -1   25.41    1.42
   3 -11   2   -0.04    1.23
  -3  11  -2    0.54    1.21
   3 -11   3    8.40    1.37
  -3  11  -3    6.15    1.39
   3 -11   4    3.92    1.44
  -3  11  -4    3.20    1.14
   3 -11   5   29.88    1.83
  -3  11  -5   27.37    1.84
   3 -11   6    5.09    1.40
  -3  11  -6    5.40    1.39
  -3  11  -7   -1.42    1.28
  -3  11  -8    0.41    1.31
   3 -11   9    0.83    1.56
   3 -11  10   17.87    1.82
   3 -11  11    3.67    1.50
   3 -11  12   14.39    1.73
   3 -11  13    1.37    1.55
  -3  10  11   11.03    1.74
  -3  10  10   -1.43    1.76
  -3  10   9   10.24    1.63
  -3  10   8    5.78    1.68
  -3  10   5    2.13    1.45
   3 -10  -4    6.07    1.17
  -3  10   4    5.73    1.50
   3 -10  -3    1.12    1.16
  -3  10   3    3.28    1.37
   3 -10  -2    4.18    1.09
  -3  10   2    5.14    1.41
   3 -10  -1    5.52    1.15
  -3  10   1    3.26    1.33
   3 -10   0    2.52    1.10
  -3  10   0    1.07    1.21
   3 -10   1    8.06    1.20
  -3  10  -1    7.21    1.12
   3 -10   2    1.95    1.16
  -3  10  -2    0.38    1.16
   3 -10   3   60.37    3.21
  -3  10  -3   59.07    3.23
   3 -10   4    5.52    1.23
  -3  10  -4    7.22    1.31
   3 -10   5   34.97    2.05
  -3  10  -5   30.86    1.96
   3 -10   6   15.56    1.52
  -3  10  -6   14.80    1.33
  -3  10  -7   62.91    2.74
  -3  10  -8   23.99    1.45
   3 -10   9    1.77    1.19
   3 -10  10   22.90    1.63
   3 -10  11   42.88    2.29
   3 -10  12    4.13    1.54
   3 -10  13    0.94    1.56
   3 -10  14    0.14    1.53
  -3   9  12   25.00    2.15
  -3   9  11   10.16    1.82
  -3   9  10    2.05    1.65
  -3   9   9    1.79    1.67
  -3   9   8   -0.77    1.42
   3  -9  -5    1.40    0.97
  -3   9   5    1.25    1.13
   3  -9  -4    2.98    1.08
  -3   9   4    1.93    1.14
   3  -9  -3   83.29    3.05
  -3   9   3   81.81    3.35
   3  -9  -2    0.39    0.98
  -3   9   2    0.48    1.25
   3  -9  -1  138.73    4.07
  -3   9   1  129.86    4.03
   3  -9   0    5.40    0.95
  -3   9   0    7.65    1.21
   3  -9   1   92.29    3.03
  -3   9  -1   90.41    3.22
   3  -9   2    8.12    1.10
  -3   9  -2    7.63    1.04
   3  -9   3   24.88    1.47
  -3   9  -3   22.31    1.38
   3  -9   4    3.34    1.19
  -3   9  -4    2.37    1.08
   3  -9   5   31.46    1.72
  -3   9  -5   29.49    1.73
   3  -9   6   33.40    1.85
  -3   9  -6   33.14    1.83
  -3   9  -7   16.44    1.20
   3  -9   8   24.89    1.77
  -3   9  -8   24.51    1.68
   3  -9   9   68.31    2.91
   3  -9  10    6.43    1.47
   3  -9  11   46.22    1.90
   3  -9  12    1.12    1.20
   3  -9  13    1.43    1.24
   3  -9  14   25.26    2.01
   3  -9  15    4.95    1.42
  -3   8  13   -0.21    1.55
  -3   8  12    0.53    1.63
  -3   8  11    2.38    1.64
  -3   8  10   52.05    1.94
  -3   8   9   13.50    1.60
  -3   8   8    3.33    1.38
   3  -8  -5    9.65    1.06
  -3   8   5   11.50    1.31
   3  -8  -4    8.19    1.07
  -3   8   4    9.16    1.33
   3  -8  -3    1.45    0.96
  -3   8   3    0.20    1.11
   3  -8  -2   31.88    2.01
  -3   8   2   35.84    2.35
   3  -8  -1    0.70    0.96
  -3   8   1   -0.18    1.05
   3  -8   0   27.34    1.79
  -3   8   0   26.05    1.84
   3  -8   1   10.52    1.05
  -3   8  -1   11.47    1.28
   3  -8   2   90.80    3.82
  -3   8  -2   98.23    4.16
   3  -8   3   61.41    3.04
  -3   8  -3   57.90    2.94
   3  -8   4   -0.69    0.93
  -3   8  -4   -0.40    0.94
   3  -8   5  161.99    7.17
  -3   8  -5  148.96    6.68
   3  -8   6   61.69    2.70
  -3   8  -6   63.72    1.82
  -3   8  -7    0.80    0.96
   3  -8   8  108.01    5.25
  -3   8  -8   93.91    4.64
   3  -8   9  164.14    6.74
   3  -8  10    1.41    1.18
   3  -8  11    6.36    1.23
   3  -8  12   13.33    1.32
   3  -8  13    0.89    1.31
   3  -8  14    2.72    1.49
   3  -8  15    2.02    1.31
   3  -8  16    3.02    1.56
  -3   7  14    1.76    1.53
  -3   7  13   28.39    2.28
  -3   7  12    1.24    1.54
  -3   7  11   12.61    1.45
  -3   7  10   31.08    2.18
  -3   7   9    3.29    1.38
  -3   7   8   -0.35    1.32
  -3   7   7    2.99    1.16
   3  -7  -5   80.19    3.78
  -3   7   5   74.76    3.71
   3  -7  -4   48.88    2.81
  -3   7   4   50.20    2.76
   3  -7  -3    1.63    0.83
  -3   7   3    1.11    1.08
   3  -7  -2   74.44    3.47
  -3   7   2   72.35    3.69
   3  -7  -1  128.77    5.75
  -3   7   1  129.16    6.02
   3  -7   0   82.17    3.79
  -3   7   0   74.90    3.55
   3  -7   1   11.99    0.94
  -3   7  -1   12.86    1.11
   3  -7   2    0.18    0.87
  -3   7  -2   -0.49    0.89
   3  -7   3   94.95    4.33
  -3   7  -3   88.88    4.23
   3  -7   4    1.15    1.00
  -3   7  -4    2.51    0.94
   3  -7   5   29.13    1.91
  -3   7  -5   28.13    1.87
  -3   7  -6   32.89    2.06
  -3   7  -7    8.66    1.08
   3  -7   8   11.32    1.13
  -3   7  -8   10.67    1.10
   3  -7   9    1.71    1.21
   3  -7   9    2.99    0.90
   3  -7  10    2.59    1.16
   3  -7  10    3.90    0.92
   3  -7  11   27.26    1.73
   3  -7  11   25.07    1.15
   3  -7  12   61.15    2.18
   3  -7  12   57.71    1.83
   3  -7  13    4.41    1.19
   3  -7  13    2.75    1.16
   3  -7  14   -0.33    1.19
   3  -7  14   -0.85    1.09
   3  -7  15   26.75    2.05
   3  -7  15   30.28    2.03
   3  -7  16    6.81    1.56
   3  -7  16    9.89    1.44
  -3   6  15    4.51    1.72
  -3   6  14   -2.12    1.68
  -3   6  13   -0.61    1.35
  -3   6  12    6.21    1.36
  -3   6  11    8.09    1.39
  -3   6  10   66.23    3.05
  -3   6   9    3.63    0.85
  -3   6   9    1.78    1.19
  -3   6   8   19.39    1.13
  -3   6   8   21.46    1.62
  -3   6   7    6.23    0.83
  -3   6   7    4.93    1.06
  -3   6   6   36.58    2.16
   3  -6  -5   49.95    2.76
  -3   6   5   40.79    2.28
  -3   6   5   47.21    2.71
   3  -6  -4    6.59    0.85
  -3   6   4    5.29    0.68
  -3   6   4    4.07    1.06
   3  -6  -3  159.61    6.97
  -3   6   3  159.98    7.32
   3  -6  -2   48.62    2.46
  -3   6   2   46.83    2.56
   3  -6  -1  149.86    5.68
  -3   6   1  157.62    6.37
   3  -6   0   11.25    1.02
  -3   6   0   11.48    1.02
   3  -6   1   13.55    1.06
  -3   6  -1   13.60    1.10
   3  -6   2  154.24    5.94
  -3   6  -2  149.53    5.94
   3  -6   3  158.89    6.20
  -3   6  -3  157.54    6.16
   3  -6   4   -0.23    0.93
   3  -6   4    1.23    0.63
  -3   6  -4    1.01    0.81
   3  -6   5   26.90    1.78
   3  -6   5   24.31    1.44
  -3   6  -5   25.15    1.59
   3  -6   6  170.32    6.57
  -3   6  -6  157.33    6.37
   3  -6   7   71.35    3.31
  -3   6  -7   67.07    3.25
   3  -6   8  132.61    4.03
   3  -6   8  121.53    3.61
  -3   6  -8  126.41    3.86
   3  -6   9   77.72    2.98
   3  -6   9   71.74    2.61
   3  -6  10   74.06    3.74
   3  -6  10   75.60    3.73
   3  -6  11  160.86    6.65
   3  -6  11  151.82    6.16
   3  -6  12   20.71    1.41
   3  -6  12   19.03    1.25
   3  -6  13   -1.35    1.30
   3  -6  13   -0.71    1.14
   3  -6  14    2.63    1.23
   3  -6  14    4.54    1.19
   3  -6  15    8.93    1.46
   3  -6  15    6.89    1.35
   3  -6  16    2.03    1.31
   3  -6  16   -0.26    1.41
  -3   5  16    5.49    1.58
  -3   5  15    9.94    1.53
  -3   5  14   13.92    1.23
  -3   5  14   19.89    2.18
  -3   5  13    1.76    1.24
  -3   5  13    2.12    1.52
  -3   5  12   42.53    2.40
  -3   5  12   56.29    3.22
  -3   5  11   13.58    1.13
  -3   5  11   17.22    1.41
  -3   5  10   19.66    1.34
  -3   5  10   25.42    1.72
  -3   5   9   10.43    1.05
  -3   5   9   13.59    1.34
  -3   5   8   14.22    0.99
  -3   5   8   17.55    1.41
  -3   5   7   50.04    2.84
  -3   5   7   50.29    3.04
  -3   5   6    9.95    0.98
   3  -5  -5    1.33    0.74
  -3   5   5    0.14    0.59
  -3   5   5    0.64    0.88
   3  -5  -4   31.84    1.74
  -3   5   4   30.86    1.61
  -3   5   4   33.04    1.95
   3  -5  -3    0.81    0.75
  -3   5   3   -0.03    0.84
   3  -5  -2  120.68    5.43
  -3   5   2  124.96    5.54
   3  -5  -1  170.71    7.31
  -3   5   1  182.77    7.92
   3  -5   0   67.11    2.81
  -3   5   0   62.07    2.67
   3  -5   1  137.55    5.93
   3  -5   1  131.66    5.37
  -3   5  -1  127.59    5.61
   3  -5   2  385.35   15.85
   3  -5   2  363.92   14.18
  -3   5  -2  346.97   14.42
   3  -5   3   18.08    1.31
   3  -5   3   16.65    0.85
  -3   5  -3   17.06    1.06
   3  -5   4    2.47    0.90
   3  -5   4    2.16    0.63
  -3   5  -4    2.95    0.76
   3  -5   5  322.44   12.07
   3  -5   5  302.09   10.80
   3  -5   6    8.48    0.77
  -3   5  -6    7.65    0.90
   3  -5   7    1.38    0.98
   3  -5   7    0.95    0.72
  -3   5  -7    0.07    0.73
   3  -5   8    1.11    1.01
   3  -5   8   -0.26    0.78
   3  -5   9   46.11    2.26
   3  -5   9   42.91    2.01
   3  -5  10    3.03    1.11
   3  -5  10    5.45    1.01
   3  -5  11   65.53    3.12
   3  -5  11   66.35    3.03
   3  -5  12    4.00    1.34
   3  -5  12    2.04    1.11
   3  -5  13   -1.02    1.11
   3  -5  13    0.01    1.02
   3  -5  14   17.14    1.63
   3  -5  14   17.70    1.52
   3  -5  15    2.48    1.24
   3  -5  15    1.62    1.34
   3  -5  16    2.77    1.54
   3  -5  16    3.35    1.47
  -3   4  16   17.29    1.57
  -3   4  16   16.82    1.78
  -3   4  15    0.85    1.39
  -3   4  15   -1.67    1.47
  -3   4  14    6.53    1.30
  -3   4  14    5.34    1.34
  -3   4  13   13.00    1.32
  -3   4  13   13.05    1.51
  -3   4  12    0.10    1.04
  -3   4  12    0.81    1.14
  -3   4  11    0.95    0.96
  -3   4  11    0.80    1.26
  -3   4  10    6.30    1.02
  -3   4  10    7.18    1.15
  -3   4   9    0.23    0.80
  -3   4   9   -0.10    0.92
  -3   4   8   24.61    1.66
  -3   4   8   23.85    1.71
  -3   4   7   83.35    3.98
  -3   4   7   83.98    4.14
  -3   4   6   10.30    0.85
   3  -4  -5   38.64    2.00
  -3   4   5   37.15    1.94
  -3   4   5   39.90    2.12
   3  -4  -4  244.92   10.15
  -3   4   4  234.65    9.53
  -3   4   4  238.53   10.56
   3  -4  -3   51.35    2.24
  -3   4   3   51.20    2.05
  -3   4   3   50.26    2.23
   3  -4  -2   15.47    1.01
  -3   4   2   15.57    1.04
   3  -4  -1   89.68    3.99
   3  -4  -1   99.75    3.74
  -3   4   1   99.17    4.00
   3  -4   0  155.26    3.23
   3  -4   0  159.28    2.27
  -3   4   0  151.01    5.82
   3  -4   1   93.96    3.80
   3  -4   1   92.26    3.37
  -3   4  -1   92.58    3.70
   3  -4   2   45.98    2.14
   3  -4   2   45.78    1.92
  -3   4  -2   46.38    2.11
   3  -4   3  196.12    8.12
   3  -4   3  188.64    7.64
  -3   4  -3  187.32    7.87
   3  -4   4   23.33    1.39
   3  -4   4   23.37    1.24
  -3   4  -4   20.87    1.23
   3  -4   5   67.20    3.15
   3  -4   5   67.44    3.12
  -3   4  -5   64.30    3.05
   3  -4   6    0.32    0.67
  -3   4  -6    0.16    0.67
   3  -4   7    3.56    1.02
   3  -4   7    1.83    0.76
  -3   4  -7    2.84    0.76
   3  -4   8  120.11    4.88
   3  -4   8  123.22    4.97
   3  -4   9  143.54    4.29
   3  -4   9  130.31    3.82
   3  -4  10    1.79    1.10
   3  -4  10    1.07    1.08
   3  -4  11  121.12    5.85
   3  -4  11  125.76    6.00
   3  -4  12   27.70    1.62
   3  -4  12   24.77    1.24
   3  -4  13    5.57    1.15
   3  -4  13    3.95    1.23
   3  -4  14   -0.01    1.37
   3  -4  14    2.15    1.35
   3  -4  15   16.42    1.42
   3  -4  15   19.23    1.43
   3  -4  16   -0.10    1.29
   3  -4  16    0.31    1.30
  -3   3  17    3.60    1.47
  -3   3  17    5.39    1.65
  -3   3  16    2.28    1.39
  -3   3  16    2.81    1.58
  -3   3  15    1.60    1.27
  -3   3  15   -0.85    1.23
  -3   3  14    0.83    1.28
  -3   3  14    2.68    1.36
  -3   3  13   31.09    2.06
  -3   3  13   33.93    2.21
  -3   3  12    0.63    1.02
  -3   3  12    1.06    1.20
  -3   3  11   -0.10    0.88
  -3   3  11   -1.29    1.12
  -3   3  10   40.92    2.07
  -3   3  10   37.79    2.02
  -3   3   9  150.20    6.86
  -3   3   9  153.06    7.34
  -3   3   8    6.07    0.83
  -3   3   8    7.28    1.00
  -3   3   7   15.52    1.13
  -3   3   7   17.97    1.34
  -3   3   6   64.35    2.98
   3  -3  -5    6.79    0.75
  -3   3   5    6.11    0.68
  -3   3   5    6.85    0.89
   3  -3  -4    9.24    0.80
  -3   3   4    8.79    0.77
  -3   3   4    9.32    1.02
   3  -3  -3   38.69    1.38
  -3   3   3   38.81    1.23
  -3   3   3   44.99    2.02
   3  -3  -2    2.32    0.69
  -3   3   2    2.44    0.56
  -3   3   2    2.53    0.68
   3  -3  -1  244.16    7.41
  -3   3   1  241.84    5.99
   3  -3   0  223.54    6.90
   3  -3   0  226.65    5.59
  -3   3   0  219.17    5.55
   3  -3   1   -0.12    0.82
   3  -3   1    1.03    0.59
  -3   3  -1    0.86    0.61
   3  -3   2   60.56    2.67
   3  -3   2   60.97    2.55
  -3   3  -2   57.85    2.44
   3  -3   3  172.05    4.55
  -3   3  -3  174.43    3.98
  -3   3  -4  272.72   11.08
   3  -3   4  252.42   10.26
  -3   3  -4  245.71    9.83
  -3   3  -5    2.02    0.97
   3  -3   5    2.20    0.75
  -3   3  -6   38.29    2.04
   3  -3   6   36.50    1.94
  -3   3  -6   30.84    1.72
  -3   3  -7   26.78    1.71
   3  -3   7   26.49    1.62
  -3   3  -7   22.48    1.46
  -3   3  -8    2.58    1.03
   3  -3   8    2.59    0.85
  -3   3  -9    0.02    1.04
   3  -3   9    1.47    0.83
  -3   3 -10    8.89    1.24
   3  -3  10    5.80    0.92
  -3   3 -11   86.67    4.39
   3  -3  11   73.07    3.75
   3  -3  12   12.96    1.28
   3  -3  13   18.08    1.29
   3  -3  13   18.85    1.27
   3  -3  14   10.10    1.49
   3  -3  14    8.97    1.26
   3  -3  15    9.46    1.37
   3  -3  15   11.22    1.39
   3  -3  16    6.85    1.57
   3  -3  16    8.89    1.64
  -3   2  17   -1.19    1.52
  -3   2  17    1.28    1.35
  -3   2  16    1.72    1.25
  -3   2  16    4.51    1.33
  -3   2  15   26.30    1.78
  -3   2  15   22.18    1.66
  -3   2  14   10.28    2.54
  -3   2  14   11.87    1.46
  -3   2  13    0.89    1.11
  -3   2  13    2.64    1.32
  -3   2  12  127.72    6.25
  -3   2  12  136.36    6.71
  -3   2  11    7.85    1.05
  -3   2  11    9.86    1.20
  -3   2  10   82.52    3.96
  -3   2  10   77.29    3.87
  -3   2   9    1.19    0.80
  -3   2   9    0.68    0.89
  -3   2   8    2.96    0.79
  -3   2   8    1.34    0.87
  -3   2   7   82.12    3.29
  -3   2   7   89.25    3.66
  -3   2   6  215.57    8.67
   3  -2  -5   65.15    2.55
  -3   2   5   63.76    2.58
  -3   2   5   63.69    2.64
   3  -2  -4  478.42   10.33
  -3   2   4  478.02   10.05
  -3   2   4  509.98   10.62
   3  -2  -3  284.03    6.69
  -3   2   3  284.48    6.05
   3  -2  -2  280.90    7.07
  -3   2   2  275.25    5.88
  -3   2   2  276.45    5.94
  -3   2   1    1.33    0.51
  -3   2   1    2.14    0.70
  -3   2   0   28.89    1.47
   3  -2   0   33.83    1.70
  -3   2   0   29.15    1.41
  -3   2  -1  181.82    5.24
  -3   2  -1  163.08    2.88
   3  -2   2  268.77    7.90
  -3   2  -2  260.22    5.67
   3  -2   3    3.86    0.70
  -3   2  -3    3.54    0.55
   3  -2   3    3.51    0.63
  -3   2  -4   10.33    0.96
   3  -2   4   11.06    0.98
  -3   2  -5   16.90    1.09
   3  -2   5   16.30    1.04
  -3   2  -6   17.52    1.36
   3  -2   6   16.71    1.23
   3  -2   7  118.79    5.39
  -3   2  -8    4.30    1.08
   3  -2   8    4.90    0.96
  -3   2  -9  124.07    5.70
   3  -2   9  118.66    5.61
  -3   2 -10  237.33    7.67
   3  -2  10  233.31    7.69
  -3   2 -11    4.71    1.28
   3  -2  11    5.50    1.08
  -3   2 -12   53.86    2.61
   3  -2  12   47.50    2.32
  -3   2 -13   19.71    1.55
   3  -2  13   19.48    1.41
  -3   2 -14   13.06    1.44
   3  -2  14   12.80    1.31
   3  -2  15    0.86    1.47
   3  -2  16    1.95    1.36
   3  -2  16   -0.57    1.59
  -3   1  18    0.60    1.62
  -3   1  18   -0.48    1.54
  -3   1  17    0.60    1.45
  -3   1  17    1.85    1.52
  -3   1  16   21.69    2.05
  -3   1  16   23.50    2.25
  -3   1  15   25.21    1.44
  -3   1  15   23.53    1.56
  -3   1  14    9.22    1.41
  -3   1  14   10.66    1.59
  -3   1  13    0.02    1.07
  -3   1  13    1.39    1.15
  -3   1  12    2.91    1.07
  -3   1  12    3.10    1.09
  -3   1  11  105.25    3.62
  -3   1  11  107.00    3.50
  -3   1  10    0.92    0.88
  -3   1  10    0.95    0.95
  -3   1   9    3.61    0.83
  -3   1   9    3.94    0.87
  -3   1   8  280.03   10.33
  -3   1   8  293.43   10.84
  -3   1   7   94.49    3.73
  -3   1   7   90.69    3.62
  -3   1   6   47.11    1.94
   3  -1  -5    4.63    0.89
  -3   1   5    3.52    0.61
   3  -1  -4   11.76    0.84
  -3   1   4   11.59    0.82
  -3   1   4   11.52    0.84
  -3   1   3    1.12    0.65
  -3   1   3    1.89    0.61
  -3   1   3    0.90    0.67
  -3   1   2   55.25    2.30
  -3   1   2   56.44    2.15
  -3   1   2   59.70    2.37
  -3   1   1   12.35    1.32
  -3   1   1   12.54    1.21
  -3   1   1   11.97    1.22
  -3   1   0   53.18    2.52
  -3   1  -1   18.99    1.79
   3  -1   1   22.75    1.24
  -3   1  -1   16.55    1.49
   3  -1   2   89.19    4.02
   3  -1   2   85.78    3.26
  -3   1  -3    6.25    0.95
   3  -1   3    5.50    0.89
  -3   1  -4  218.69    5.10
   3  -1   4  221.61    8.05
  -3   1  -5   40.04    1.91
   3  -1   5   39.46    2.03
  -3   1  -6    3.78    0.94
   3  -1   6    3.89    0.89
  -3   1  -6    2.63    0.46
  -3   1  -7   53.97    2.84
   3  -1   7   54.02    2.94
  -3   1  -7   46.45    2.55
  -3   1  -8  121.02    4.98
   3  -1   8  118.96    4.91
  -3   1  -9   23.01    1.66
   3  -1   9   24.97    1.84
  -3   1 -10   -0.12    1.04
   3  -1  10   -0.81    1.08
  -3   1 -11    0.41    1.23
   3  -1  11   -1.53    1.07
  -3   1 -12   18.14    1.35
   3  -1  12   16.97    1.44
  -3   1 -13   24.94    1.66
   3  -1  13   24.52    1.38
  -3   1 -14    0.11    1.42
   3  -1  14   -0.23    1.41
   3  -1  15    8.53    1.64
   3  -1  16   36.60    1.99
  -3   0  18    1.42    1.57
  -3   0  18    0.85    1.49
  -3   0  17   36.05    2.51
  -3   0  17   40.19    2.66
  -3   0  16   33.52    2.12
  -3   0  16   33.87    2.07
  -3   0  15    3.65    1.33
  -3   0  15    4.47    1.30
  -3   0  14   15.55    1.45
  -3   0  14   17.74    1.47
  -3   0  13   45.04    2.45
  -3   0  13   48.06    2.54
  -3   0  12    3.31    1.07
  -3   0  12    3.44    1.10
  -3   0  11   70.59    2.64
  -3   0  11   77.91    2.71
  -3   0  10   99.32    4.32
  -3   0  10  109.32    4.54
  -3   0   9   35.03    1.93
  -3   0   9   34.03    1.99
  -3   0   8  112.54    4.35
  -3   0   8  104.83    4.13
  -3   0   7   60.65    2.40
  -3   0   7   57.49    2.32
  -3   0   6   67.35    2.59
  -3   0   5  189.46    4.40
  -3   0   5  210.27    4.60
  -3   0   3   21.50    1.96
  -3   0   3   26.89    1.38
  -3   0   3   23.07    1.12
  -3   0   2  461.78   12.52
  -3   0   2  512.86   13.04
  -3   0   2  461.69   12.88
  -3   0   1  120.96    4.28
  -3   0   1  126.29    4.27
  -3   0   0    3.62    0.83
  -3   0   0    4.25    0.78
   3   0   0    4.65    0.80
  -3   0  -1   66.85    2.66
   3   0   1   73.33    3.24
   3   0   1   66.65    2.53
   3   0   2  163.12    5.37
   3   0   2  185.56    4.36
  -3   0  -3   16.41    1.06
   3   0   3   16.42    1.12
   3   0   3   16.31    0.84
   3   0   3   16.70    0.86
  -3   0  -4    1.46    0.81
   3   0   4    0.04    0.88
   3   0   4    1.28    0.47
  -3   0  -4    3.34    0.49
  -3   0  -5   26.60    1.50
   3   0   5   26.32    1.61
  -3   0  -6    4.65    0.97
   3   0   6    4.47    0.85
  -3   0  -7   10.60    1.12
   3   0   7    9.91    1.15
  -3   0  -8  101.10    4.26
   3   0   8   94.70    4.09
  -3   0  -9    0.72    1.01
   3   0   9    1.59    1.00
  -3   0 -10   15.17    1.31
   3   0  10   12.12    1.33
  -3   0 -11  233.69    3.29
   3   0  11  221.60    9.06
  -3   0 -12    0.31    1.11
   3   0  12    1.07    1.05
  -3   0 -13    6.61    1.44
   3   0  13    6.91    1.23
   3   0  14   48.00    2.42
   3   0  15    9.85    1.49
   3   0  16    1.35    1.64
  -3  -1  18   28.60    1.84
   3   1 -18   25.54    2.13
  -3  -1  17    3.57    1.33
  -3  -1  17    1.88    1.38
  -3  -1  16    2.69    1.44
  -3  -1  16    2.41    1.30
  -3  -1  15   15.15    1.32
  -3  -1  15   15.37    1.36
  -3  -1  14   35.57    2.04
  -3  -1  14   30.05    1.74
  -3  -1  13  101.12    4.66
  -3  -1  13   88.32    4.10
  -3  -1  12   32.35    1.83
  -3  -1  12   35.61    1.88
  -3  -1  11   31.47    1.71
  -3  -1  11   30.60    1.63
  -3  -1  10  360.77   13.89
  -3  -1  10  371.24    4.06
  -3  -1   9   82.89    3.82
  -3  -1   9   82.35    3.86
  -3  -1   8    0.44    0.72
  -3  -1   8    0.79    0.77
  -3  -1   7  259.56   10.61
  -3  -1   7  269.29   10.78
  -3  -1   6  130.04    5.48
  -3  -1   6  137.36    5.64
  -3  -1   5   80.57    3.13
  -3  -1   5   87.94    3.31
  -3  -1   4    3.19    0.74
  -3  -1   4    2.86    0.74
  -3  -1   4    2.73    0.75
  -3  -1   3   19.10    1.79
  -3  -1   3   21.56    1.86
   3   1  -3   20.75    1.85
  -3  -1   2   98.89    3.69
  -3  -1   2  103.60    3.65
   3   1  -2  115.46    4.30
  -3  -1   1    3.00    0.74
  -3  -1   1    2.54    0.74
   3   1  -1    2.45    0.75
  -3  -1   0   56.58    2.33
  -3  -1   0   52.05    2.10
   3   1   0   57.94    2.38
   3   1   1  167.08    5.49
   3   1   1  170.52    4.29
   3   1   2  145.48    6.90
   3   1   2  143.01    5.39
  -3  -1  -3  198.20    4.76
   3   1   3  192.31    6.88
   3   1   3  183.09    4.21
  -3  -1  -4  804.63    7.71
   3   1   4  827.29   19.39
   3   1   4  760.96   29.40
  -3  -1  -5  186.22    7.63
   3   1   5  174.56    8.41
   3   1   5  176.81    7.14
  -3  -1  -6  125.81    4.88
   3   1   6  121.35    5.26
  -3  -1  -7    4.47    1.07
   3   1   7    4.03    0.97
  -3  -1  -8   72.22    3.47
   3   1   8   68.53    3.35
  -3  -1  -9    6.38    1.14
   3   1   9    5.04    1.18
  -3  -1 -10    4.22    1.05
   3   1  10    4.12    1.18
  -3  -1 -11   25.98    1.79
   3   1  11   24.64    1.82
  -3  -1 -12   -1.56    1.31
   3   1  12    1.70    1.34
  -3  -1 -13    2.46    1.36
   3   1  13    2.78    1.24
   3   1  14    4.42    1.51
   3   1  15    2.09    1.67
  -3  -2  18    2.65    1.55
   3   2 -18    0.28    1.74
  -3  -2  17    1.73    1.36
   3   2 -17   -0.42    1.46
  -3  -2  16   44.85    2.50
   3   2 -16   41.14    2.44
  -3  -2  15   62.91    2.41
   3   2 -15   51.17    2.27
  -3  -2  14   41.23    2.19
   3   2 -14   38.23    2.33
  -3  -2  13   92.76    4.44
  -3  -2  12  147.55    5.32
  -3  -2  12  169.38    5.61
  -3  -2  11   39.94    2.08
  -3  -2  11   37.40    1.87
  -3  -2  10   66.42    3.05
  -3  -2  10   67.03    2.98
  -3  -2   9   72.53    3.53
  -3  -2   9   79.14    3.69
  -3  -2   8   19.46    1.22
  -3  -2   8   20.43    1.29
  -3  -2   7   22.51    1.24
  -3  -2   7   21.52    1.24
   3   2  -7   24.03    1.52
  -3  -2   6  109.16    3.93
  -3  -2   6  124.62    5.18
   3   2  -6  123.51    5.24
  -3  -2   5   43.47    1.92
  -3  -2   5   40.97    1.83
  -3  -2   4  889.81   17.89
  -3  -2   3    7.26    0.85
   3   2  -3   10.06    0.95
  -3  -2   2   61.46    2.53
   3   2  -2   71.07    2.86
  -3  -2   1    5.62    0.83
   3   2  -1    5.59    0.84
  -3  -2   0   45.76    2.11
   3   2   0   43.84    2.06
   3   2   1  148.48    6.98
   3   2   1  124.64    4.83
   3   2   2   23.30    1.42
   3   2   2   22.68    1.15
  -3  -2  -3   57.53    2.43
   3   2   3   57.24    2.84
   3   2   3   54.35    2.29
  -3  -2  -4  300.21   11.92
   3   2   4  288.40   12.70
   3   2   4  277.17   11.10
  -3  -2  -5   12.56    1.12
   3   2   5   10.93    1.29
   3   2   5   10.27    0.91
  -3  -2  -6    1.96    0.94
   3   2   6   -1.88    0.95
  -3  -2  -7   23.06    1.68
   3   2   7   23.42    1.71
  -3  -2  -8   24.65    1.74
   3   2   8   24.07    1.95
  -3  -2  -9   59.52    2.41
   3   2   9   64.07    2.61
  -3  -2 -10   48.04    2.76
   3   2  10   52.63    2.92
  -3  -2 -11    5.61    1.33
   3   2  11    4.44    1.42
  -3  -2 -12   36.23    1.80
   3   2  12   38.51    1.97
  -3  -2 -13   25.56    1.59
  -3  -3  18   15.40    1.57
   3   3 -18   15.29    1.88
  -3  -3  17   20.17    1.94
   3   3 -17   19.97    2.03
  -3  -3  16   29.41    2.02
   3   3 -16   23.04    1.97
  -3  -3  15    3.73    1.27
   3   3 -15    2.53    1.48
  -3  -3  14    1.41    1.19
   3   3 -14    0.41    1.42
  -3  -3  13   48.22    2.51
   3   3 -13   46.21    2.72
  -3  -3  12    2.00    0.91
   3   3 -12    3.18    1.25
  -3  -3  11   95.48    3.24
   3   3 -11   87.96    4.07
  -3  -3   9   54.79    2.76
  -3  -3   8  158.14    5.94
   3   3  -8  137.80    6.50
  -3  -3   7    4.83    0.72
   3   3  -7    4.22    0.96
  -3  -3   6  146.72    6.07
   3   3  -6  143.16    6.18
  -3  -3   5  123.62    5.21
   3   3  -5  134.02    5.75
  -3  -3   4   94.20    3.60
   3   3  -4  106.25    4.12
  -3  -3   3    0.24    0.73
   3   3  -3    1.01    0.80
  -3  -3   2    2.72    0.77
  -3  -3   2    2.64    0.66
   3   3  -2    3.74    0.91
  -3  -3   1   67.85    2.81
  -3  -3   1   60.69    2.61
   3   3  -1   70.37    2.95
  -3  -3   0   10.32    1.00
  -3  -3   0    9.77    0.91
   3   3   0    9.86    0.95
   3   3   1    4.44    0.96
   3   3   1    4.72    0.88
  -3  -3  -2    6.20    0.94
   3   3   2    7.69    1.10
   3   3   2    5.87    0.88
  -3  -3  -3  130.89    5.59
   3   3   3  131.95    6.67
   3   3   3  120.60    5.33
  -3  -3  -4  298.17   10.78
   3   3   4  292.87   12.32
   3   3   4  249.17    9.18
  -3  -3  -5  113.96    5.13
   3   3   5  112.07    5.47
   3   3   5  109.32    4.89
  -3  -3  -6   35.44    2.19
   3   3   6   34.14    2.37
  -3  -3  -7   38.48    2.41
  -3  -3  -8  136.96    4.15
  -3  -3  -9   39.53    2.03
  -3  -3 -10    5.50    1.29
  -3  -3 -11   37.51    2.29
  -3  -3 -12   16.98    1.51
  -3  -3 -13    6.71    1.56
   3   3  14   15.65    1.59
   3   3  15    2.42    1.72
  -3  -4  18   -2.38    1.58
   3   4 -18    0.09    1.72
  -3  -4  17   37.43    2.60
   3   4 -17   36.67    2.65
   3   4 -16    0.80    1.58
   3   4 -15    1.23    1.59
   3   4 -14   97.06    5.09
   3   4 -13   54.84    3.09
   3   4 -12   29.94    1.90
   3   4 -11   29.39    1.94
  -3  -4   9    5.44    0.80
  -3  -4   9    4.96    0.89
  -3  -4   8   20.19    1.39
  -3  -4   8   18.21    1.37
   3   4  -8   16.48    1.45
  -3  -4   7   40.78    2.13
  -3  -4   7   38.18    2.07
   3   4  -7   34.90    2.01
  -3  -4   6    1.15    0.71
  -3  -4   6    0.57    0.73
   3   4  -6    1.09    0.89
  -3  -4   5  100.63    3.79
  -3  -4   5   94.65    3.81
   3   4  -5   95.80    4.00
  -3  -4   4    3.29    0.80
  -3  -4   4    3.79    0.83
   3   4  -4    4.47    0.99
  -3  -4   3    8.72    2.18
  -3  -4   3    9.14    1.25
   3   4  -3   12.34    2.55
  -3  -4   2   18.98    1.26
  -3  -4   2   19.28    1.14
   3   4  -2   17.72    1.26
  -3  -4   1  162.84    4.05
  -3  -4   1  148.77    5.63
   3   4  -1  142.35    5.60
  -3  -4   0    1.84    1.03
  -3  -4   0    2.03    1.00
   3   4   0    1.09    1.01
  -3  -4  -2  179.38    7.39
   3   4   2  179.93    7.77
  -3  -4  -3    1.37    0.90
   3   4   3    2.91    0.87
  -3  -4  -4    0.57    0.90
   3   4   4    0.48    0.77
  -3  -4  -5   43.40    2.58
   3   4   5   43.73    2.50
  -3  -4  -6    3.06    0.99
  -3  -4  -7   17.13    1.27
  -3  -4  -8   31.31    1.83
   3   4   8   32.86    1.97
  -3  -4  -9   21.49    1.68
   3   4   9   22.81    1.77
  -3  -4 -10   12.16    1.37
   3   4  10   12.93    1.54
  -3  -4 -11   10.20    2.60
   3   4  11   11.03    1.60
  -3  -4 -12    1.70    1.39
   3   4  12    1.32    1.39
   3   4  13    0.54    1.45
   3   4  14   13.21    1.67
   3   5 -18   11.68    1.80
   3   5 -17    2.86    1.66
   3   5 -16   53.67    2.94
  -3  -5  15    9.51    1.40
   3   5 -15   12.64    1.67
  -3  -5  14   52.02    2.95
   3   5 -14   45.70    2.86
  -3  -5  13    1.28    1.20
   3   5 -13    2.17    1.35
  -3  -5  12   24.18    1.56
   3   5 -12   19.11    1.69
  -3  -5  11  112.95    4.25
   3   5 -11  114.96    4.68
  -3  -5  10   75.68    2.64
  -3  -5  10   80.97    3.05
  -3  -5   9    0.38    0.80
  -3  -5   9    1.30    0.82
  -3  -5   8    2.32    0.81
  -3  -5   8    2.89    0.85
   3   5  -8    2.95    1.04
  -3  -5   7  141.85    6.34
  -3  -5   7  136.23    6.38
   3   5  -7  138.64    6.85
  -3  -5   6   16.34    1.27
  -3  -5   6   16.75    1.25
   3   5  -6   19.18    1.50
  -3  -5   5    5.64    0.83
  -3  -5   5    5.11    0.84
   3   5  -5    4.11    0.87
  -3  -5   4  149.47    5.78
  -3  -5   4  140.81    5.59
   3   5  -4  136.42    6.00
  -3  -5   3   24.75    1.41
  -3  -5   3   24.36    1.36
   3   5  -3   25.05    1.47
  -3  -5   2   67.27    2.71
  -3  -5   2   62.74    2.59
   3   5  -2   60.48    2.78
  -3  -5   1    7.87    0.96
  -3  -5   1    5.50    0.83
   3   5  -1    7.01    1.01
  -3  -5   0  150.41    5.90
   3   5   0  135.62    5.64
   3   5   1   13.90    1.40
   3   5   1   14.34    1.12
  -3  -5  -2    7.63    1.03
   3   5   2    8.53    1.54
   3   5   2    6.64    1.23
  -3  -5  -3    9.27    1.06
   3   5   3    9.81    1.07
   3   5   3    8.95    0.95
  -3  -5  -4    3.70    1.04
   3   5   4    4.99    0.93
  -3  -5  -5  218.36    9.51
   3   5   5  233.05   10.40
   3   5   5  205.97    9.05
  -3  -5  -6   71.85    2.59
   3   5   6   68.94    2.56
   3   5   6   64.19    1.68
  -3  -5  -7   17.94    1.42
   3   5   7   17.14    1.36
  -3  -5  -8   27.88    1.76
   3   5   8   27.50    1.88
  -3  -5  -9   15.87    1.30
   3   5   9   14.15    1.57
  -3  -5 -10   13.78    1.30
   3   5  10   15.25    1.56
  -3  -5 -11    6.83    1.48
   3   5  11    7.07    1.64
  -3  -5 -12    8.13    1.49
   3   5  12    9.45    1.47
   3   5  13    3.31    1.74
   3   5  14    5.97    1.90
   3   6 -18    3.26    1.85
  -3  -6  17   18.40    1.90
   3   6 -17   15.53    1.85
  -3  -6  16   36.05    2.95
   3   6 -16   32.52    2.89
  -3  -6  15    6.17    1.29
   3   6 -15    2.75    1.61
  -3  -6  14    3.53    1.31
   3   6 -14    5.92    1.47
  -3  -6  13  118.02    4.63
   3   6 -13  126.57    5.39
  -3  -6  12   14.93    1.11
   3   6 -12   13.37    1.39
  -3  -6  11    9.13    0.99
   3   6 -11    6.16    1.21
  -3  -6  10   57.85    2.54
  -3  -6  10   65.98    2.72
  -3  -6   9   76.03    2.66
  -3  -6   9   71.74    2.61
  -3  -6   8   16.79    1.41
  -3  -6   8   18.09    1.35
   3   6  -8   18.18    1.61
  -3  -6   7    4.29    0.89
  -3  -6   7    3.59    0.86
   3   6  -7    6.01    1.14
  -3  -6   6    0.80    0.80
  -3  -6   6    0.38    0.83
   3   6  -6    0.63    0.96
  -3  -6   5   24.79    1.63
  -3  -6   5   25.76    1.61
   3   6  -5   23.55    1.69
  -3  -6   4  224.45    8.34
  -3  -6   4  224.99    8.43
   3   6  -4  209.96    8.41
  -3  -6   3    1.61    0.87
  -3  -6   3    1.69    0.81
   3   6  -3    1.10    0.99
  -3  -6   2   35.64    1.96
  -3  -6   2   34.90    1.89
   3   6  -2   34.88    2.00
  -3  -6   1  147.31    5.65
  -3  -6   1  141.95    5.61
   3   6  -1  140.33    5.66
  -3  -6   0   53.31    2.80
   3   6   0   50.79    2.90
   3   6   1   66.60    3.51
   3   6   1   64.67    3.32
  -3  -6  -2   52.55    2.96
   3   6   2   51.94    3.17
   3   6   2   53.18    3.07
  -3  -6  -3  102.27    4.29
   3   6   3  102.44    4.49
   3   6   3   99.90    4.24
  -3  -6  -4   22.73    1.79
   3   6   4   28.32    2.08
   3   6   4   25.26    1.85
  -3  -6  -5    7.39    1.06
   3   6   5    7.38    1.34
   3   6   5    7.61    1.06
  -3  -6  -6    0.75    1.13
   3   6   6    3.02    1.15
   3   6   6    3.42    1.04
  -3  -6  -7    0.16    1.20
   3   6   7    0.85    1.32
  -3  -6  -8   38.15    1.98
   3   6   8   40.60    2.26
  -3  -6  -9    5.29    1.45
   3   6   9    6.55    1.41
  -3  -6 -10   14.08    1.62
   3   6  10   14.92    1.71
  -3  -6 -11    0.68    1.46
   3   6  11   -0.91    1.63
  -3  -6 -12    3.88    1.36
   3   6  12    4.75    1.50
   3   6  13   13.70    1.91
  -3  -7  17   25.43    1.75
   3   7 -17   24.66    2.07
  -3  -7  16   -0.34    1.48
   3   7 -16    0.42    1.76
  -3  -7  15   15.09    1.44
   3   7 -15   14.69    1.74
  -3  -7  14    3.22    1.16
   3   7 -14    7.43    1.58
  -3  -7  13   16.43    1.33
   3   7 -13   10.38    1.53
  -3  -7  12   34.97    1.87
   3   7 -12   36.54    2.31
  -3  -7  11    6.34    1.05
  -3  -7  11    5.01    0.99
   3   7 -11    4.07    1.34
  -3  -7  10   33.67    1.77
  -3  -7  10   34.34    1.73
  -3  -7   9   19.41    1.22
  -3  -7   9   18.15    1.03
  -3  -7   8  177.21    5.16
  -3  -7   8  185.49    5.40
   3   7  -8  180.93    6.05
  -3  -7   7  146.26    6.59
  -3  -7   7  150.50    6.77
   3   7  -7  127.67    6.06
  -3  -7   6    3.41    0.89
   3   7  -6    5.22    1.14
  -3  -7   5   54.67    3.04
  -3  -7   5   56.07    3.12
   3   7  -5   58.04    3.31
  -3  -7   4    4.44    0.95
  -3  -7   4    4.64    0.97
   3   7  -4    3.68    1.07
  -3  -7   3   21.99    1.68
  -3  -7   3   23.16    1.64
   3   7  -3   21.68    1.68
  -3  -7   2  145.67    5.84
  -3  -7   2  150.13    6.12
   3   7  -2  137.21    5.79
  -3  -7   1    3.91    0.97
  -3  -7   1    2.46    0.84
   3   7  -1    2.47    0.97
   3   7   0   10.14    1.26
  -3  -7  -1    7.54    1.14
   3   7   1    7.79    1.31
   3   7   1    7.95    1.07
  -3  -7  -2   32.42    2.15
   3   7   2   32.09    2.15
   3   7   2   29.52    1.95
  -3  -7  -3   36.53    1.99
   3   7   3   34.54    1.93
   3   7   3   37.81    2.01
  -3  -7  -4   45.98    2.23
   3   7   4   49.16    2.51
   3   7   4   48.86    2.36
  -3  -7  -5    7.19    1.26
   3   7   5    9.30    1.49
   3   7   5    7.29    1.11
  -3  -7  -6   15.44    1.55
   3   7   6   19.01    1.70
   3   7   6   14.88    1.30
  -3  -7  -7   27.82    1.85
   3   7   7   29.76    1.96
  -3  -7  -8    4.77    1.46
   3   7   8    8.65    1.62
  -3  -7  -9   11.69    1.62
   3   7   9    9.65    1.70
  -3  -7 -10    3.39    1.50
   3   7  10    2.42    1.64
  -3  -7 -11   10.79    1.66
   3   7  11   11.00    1.76
   3   7  12   -0.14    1.81
  -3  -8  17    2.20    1.45
   3   8 -17    2.31    1.82
  -3  -8  16    7.62    1.56
   3   8 -16   12.52    1.85
  -3  -8  15    4.59    1.49
   3   8 -15    1.88    1.70
  -3  -8  14   93.37    3.83
   3   8 -14   85.21    3.91
  -3  -8  13    2.09    1.40
   3   8 -13    2.95    1.43
  -3  -8  12    7.57    1.20
   3   8 -12    7.74    1.53
  -3  -8  11   96.00    3.76
  -3  -8  11  108.71    4.24
   3   8 -11  103.22    4.38
  -3  -8  10   15.27    1.39
  -3  -8  10   17.74    1.47
  -3  -8   9    7.12    1.12
  -3  -8   9    7.73    1.12
  -3  -8   8  118.63    4.19
  -3  -8   8  124.33    4.28
   3   8  -8  123.07    4.64
  -3  -8   7   17.57    1.27
  -3  -8   7   19.21    1.23
   3   8  -7   16.13    1.35
  -3  -8   6    3.32    1.05
  -3  -8   6    2.00    0.98
   3   8  -6    2.60    1.15
  -3  -8   5   13.40    1.19
  -3  -8   5   13.57    1.29
   3   8  -5   12.09    1.33
  -3  -8   4   22.53    1.72
  -3  -8   4   25.20    1.73
   3   8  -4   24.93    1.83
  -3  -8   3   19.63    1.53
  -3  -8   3   20.09    1.54
   3   8  -3   20.09    1.66
  -3  -8   2  102.26    4.76
  -3  -8   2   99.18    4.64
   3   8  -2   90.12    4.34
  -3  -8   1    9.50    1.04
  -3  -8   1   12.10    1.24
   3   8  -1   10.18    1.14
   3   8   0    1.66    1.25
   3   8   0    0.18    1.18
  -3  -8  -1   43.75    2.28
   3   8   1   40.58    2.19
   3   8   1   41.64    2.16
  -3  -8  -2   52.05    2.52
   3   8   2   51.98    2.61
   3   8   2   47.19    2.32
  -3  -8  -3   10.88    1.30
   3   8   3   11.80    1.45
   3   8   3    8.09    1.27
  -3  -8  -4    7.79    1.27
   3   8   4    8.71    1.37
   3   8   4    7.54    1.25
  -3  -8  -5   22.82    1.73
   3   8   5   26.47    2.01
   3   8   5   27.97    1.89
  -3  -8  -6    7.19    1.32
   3   8   6    8.58    1.58
   3   8   6    4.15    1.19
  -3  -8  -7    4.37    1.38
   3   8   7    4.11    1.48
  -3  -8  -8    6.01    1.58
   3   8   8    5.23    1.59
  -3  -8  -9    1.43    1.48
   3   8   9    0.70    1.64
  -3  -8 -10   10.08    1.49
   3   8  10    8.49    1.69
  -3  -8 -11    1.69    1.67
   3   8  11    6.45    1.79
  -3  -9  16   19.51    1.76
   3   9 -16   20.94    2.14
  -3  -9  15    2.22    1.41
   3   9 -15    1.84    1.80
  -3  -9  14    2.25    1.37
   3   9 -14    3.81    1.52
  -3  -9  13   12.91    1.58
   3   9 -13   12.73    1.82
  -3  -9  12   18.61    1.44
   3   9 -12   13.65    1.59
  -3  -9  11   23.41    1.53
  -3  -9  11   24.42    1.45
   3   9 -11   20.92    1.50
  -3  -9  10    0.03    1.12
  -3  -9  10   -0.72    0.98
  -3  -9   9    7.82    1.19
  -3  -9   9    6.86    0.98
  -3  -9   8   17.89    1.52
  -3  -9   8   22.40    1.57
   3   9  -8   20.13    1.64
  -3  -9   7   29.98    1.71
  -3  -9   7   25.54    1.45
   3   9  -7   27.54    1.75
  -3  -9   6    1.29    0.99
  -3  -9   6    0.69    1.00
   3   9  -6   -0.02    1.13
  -3  -9   5  130.49    4.56
  -3  -9   5  124.37    4.48
   3   9  -5  132.27    4.66
  -3  -9   4   62.30    2.59
  -3  -9   4   56.59    2.54
   3   9  -4   59.64    2.57
  -3  -9   3   83.83    3.20
  -3  -9   3   85.05    3.22
   3   9  -3   90.05    3.40
  -3  -9   2    8.72    1.33
  -3  -9   2    7.83    1.03
   3   9  -2   10.57    1.29
  -3  -9   1  105.06    3.82
   3   9  -1  105.53    3.83
   3   9   0   12.31    1.51
   3   9   0    9.82    1.24
  -3  -9  -1    9.04    1.26
   3   9   1    8.02    1.44
   3   9   1    8.48    1.29
  -3  -9  -2   42.44    2.39
   3   9   2   40.59    1.83
   3   9   2   40.42    1.60
  -3  -9  -3    3.30    1.27
   3   9   3    6.26    1.43
   3   9   3    2.73    1.24
  -3  -9  -4   21.21    1.56
   3   9   4   20.52    1.73
   3   9   4   21.27    1.51
  -3  -9  -5   12.27    1.72
   3   9   5   14.58    1.68
   3   9   5   15.35    1.55
  -3  -9  -6    6.47    1.52
   3   9   6    6.12    1.59
   3   9   6    1.34    1.33
  -3  -9  -7   14.48    1.78
   3   9   7   16.00    1.81
  -3  -9  -8   12.10    1.67
   3   9   8   12.45    1.86
  -3  -9  -9   10.29    1.49
   3   9   9   10.48    1.55
  -3  -9 -10   36.89    2.15
   3   9  10   43.19    2.31
  -3 -10  15   -1.80    1.53
   3  10 -15    0.52    1.91
  -3 -10  14    4.11    1.45
   3  10 -14    6.46    1.62
  -3 -10  13   30.36    2.58
   3  10 -13   27.00    2.51
  -3 -10  12   23.07    1.82
   3  10 -12   22.01    2.06
  -3 -10  11    0.51    1.26
  -3 -10  11    0.07    1.13
   3  10 -11    1.34    1.60
  -3 -10  10   54.20    2.10
  -3 -10  10   56.93    2.11
  -3 -10   9   67.22    3.48
  -3 -10   9   75.48    3.75
  -3 -10   8   22.55    1.54
  -3 -10   8   17.82    1.21
   3  10  -8   20.71    1.69
  -3 -10   7   14.69    1.44
  -3 -10   7   15.08    1.31
   3  10  -7   15.06    1.54
  -3 -10   6   26.52    1.84
  -3 -10   6   27.49    1.80
   3  10  -6   22.15    1.68
  -3 -10   5  116.57    5.07
  -3 -10   5  109.22    4.75
   3  10  -5  122.41    5.28
  -3 -10   4   15.71    1.64
  -3 -10   4   16.80    1.48
   3  10  -4   16.13    1.51
  -3 -10   3    0.09    0.97
  -3 -10   3    0.20    1.03
   3  10  -3    0.05    1.29
  -3 -10   2    5.22    1.31
  -3 -10   2    4.13    1.15
   3  10  -2    4.72    1.16
   3  10  -1   16.06    1.72
   3  10  -1   14.90    1.27
   3  10   0   17.54    1.75
   3  10   0   17.80    1.66
  -3 -10  -1   18.28    1.34
   3  10   1   19.00    1.47
   3  10   1   20.37    1.45
  -3 -10  -2    5.09    1.59
   3  10   2    6.27    1.60
   3  10   2    6.37    1.31
  -3 -10  -3   35.92    2.25
   3  10   3   40.76    2.59
   3  10   3   34.31    2.14
  -3 -10  -4   30.99    1.85
   3  10   4   33.15    1.93
   3  10   4   31.52    1.77
  -3 -10  -5   20.60    1.67
   3  10   5   22.87    1.85
   3  10   5   20.27    1.67
  -3 -10  -6   11.88    1.66
   3  10   6   13.28    1.62
  -3 -10  -7   53.81    4.07
   3  10   7   53.52    4.02
  -3 -10  -8    1.48    1.63
   3  10   8   -0.39    1.68
  -3 -10  -9    1.99    1.67
   3  10   9   -0.53    1.77
   3  11 -15    7.27    1.75
  -3 -11  14    9.89    1.61
   3  11 -14   12.27    2.09
  -3 -11  13    4.86    1.45
   3  11 -13    3.82    1.89
  -3 -11  12    0.93    1.37
   3  11 -12   -1.60    1.61
  -3 -11  11   16.74    1.66
  -3 -11  11   16.95    1.68
   3  11 -11   15.44    1.80
  -3 -11  10   -0.44    1.43
  -3 -11  10    1.75    1.21
  -3 -11   9    9.07    1.50
  -3 -11   9    9.74    1.30
  -3 -11   8    4.76    1.49
  -3 -11   8    5.22    1.27
   3  11  -8    6.09    1.40
  -3 -11   7   15.15    1.58
  -3 -11   7   14.95    1.29
   3  11  -7   16.78    1.54
  -3 -11   6    1.12    1.40
  -3 -11   6   -0.16    1.19
   3  11  -6    0.10    1.50
  -3 -11   5    8.03    1.60
  -3 -11   5    4.73    1.04
   3  11  -5    8.55    1.63
  -3 -11   4   14.89    1.62
  -3 -11   4   14.77    1.14
   3  11  -4   19.22    1.70
  -3 -11   3    9.77    1.55
  -3 -11   3    5.46    1.23
   3  11  -3    8.58    1.57
  -3 -11   2   36.57    2.36
  -3 -11   2   35.35    2.18
   3  11  -2   39.10    2.50
   3  11  -1    2.67    1.65
   3  11  -1    3.21    1.24
  -3 -11   0    1.99    1.35
   3  11   0    1.95    1.48
   3  11   0    2.20    1.37
  -3 -11  -1   44.63    1.94
   3  11   1   39.95    1.91
   3  11   1   47.64    2.03
  -3 -11  -2    1.01    1.40
   3  11   2    2.62    1.56
   3  11   2   -0.48    1.25
  -3 -11  -3    9.50    1.71
   3  11   3    7.06    1.71
   3  11   3    8.19    1.61
  -3 -11  -4    0.68    1.34
   3  11   4    3.06    1.67
   3  11   4    1.09    1.56
  -3 -11  -5    0.90    1.60
   3  11   5    2.68    1.48
   3  11   5    2.82    1.61
  -3 -11  -6    1.98    1.60
   3  11   6    0.14    1.65
  -3 -11  -7    7.33    1.83
   3  11   7    3.58    1.51
  -3 -11  -8    3.94    1.80
   3  11   8    2.39    1.75
  -3 -12  13   18.17    1.52
   3  12 -13   20.35    1.85
  -3 -12  12    0.32    1.44
   3  12 -12    1.69    1.84
  -3 -12  11   62.27    3.54
  -3 -12  11   66.17    3.71
   3  12 -11   71.78    2.36
  -3 -12  10   12.51    1.58
  -3 -12  10   11.38    1.46
  -3 -12   9   11.61    1.69
  -3 -12   9   10.91    1.46
  -3 -12   8   80.03    3.54
  -3 -12   8   73.00    3.16
   3  12  -8   84.80    3.74
  -3 -12   7   17.11    1.67
  -3 -12   7   16.34    1.30
   3  12  -7   20.04    1.70
  -3 -12   6    2.60    1.35
  -3 -12   6    1.59    1.23
   3  12  -6    1.96    1.45
  -3 -12   5   12.95    1.58
  -3 -12   5   12.20    1.30
   3  12  -5   13.63    1.71
  -3 -12   4    6.77    1.40
  -3 -12   4    6.53    1.30
   3  12  -4    8.31    1.59
  -3 -12   3   12.46    1.47
  -3 -12   3   12.21    1.36
   3  12  -3    9.80    1.50
  -3 -12   2   11.54    1.62
   3  12  -2   14.21    1.81
   3  12  -2   15.05    1.64
   3  12  -1    0.49    1.61
   3  12  -1   -1.10    1.61
  -3 -12   0    0.95    1.59
   3  12   0   -0.96    1.52
   3  12   0    0.67    1.54
  -3 -12  -1   20.96    1.96
   3  12   1   22.90    2.08
   3  12   1   26.78    2.05
  -3 -12  -2    9.74    1.64
   3  12   2   11.77    1.72
   3  12   2    9.65    1.49
  -3 -12  -3    1.09    1.67
   3  12   3    5.76    1.62
   3  12   3    3.70    1.62
  -3 -12  -4   10.73    1.67
   3  12   4   10.60    1.71
   3  12   4   10.43    1.85
  -3 -12  -5    7.87    1.86
   3  12   5    9.33    1.78
   3  12   5    7.40    1.85
  -3 -12  -6   -0.11    1.58
   3  12   6   -0.23    1.74
  -3 -13  12    5.74    1.66
   3  13 -12    7.04    2.04
  -3 -13  11   -0.86    1.59
  -3 -13  11    1.52    1.48
   3  13 -11    1.51    1.85
  -3 -13  10   13.78    1.53
  -3 -13  10   15.27    1.55
  -3 -13   9    0.70    1.41
  -3 -13   9    1.11    1.29
  -3 -13   8   40.52    2.72
  -3 -13   8   40.20    2.52
   3  13  -8   40.57    2.83
  -3 -13   7    1.60    1.56
  -3 -13   7   -1.50    1.29
   3  13  -7   -0.74    1.84
  -3 -13   6    6.21    1.55
   3  13  -6   10.78    1.85
  -3 -13   5   12.10    1.75
   3  13  -5   13.11    1.80
  -3 -13   4    1.81    1.42
   3  13  -4    3.07    1.75
  -3 -13   3    0.26    1.56
   3  13  -3    3.94    1.73
  -3 -13   2    1.40    1.49
   3  13  -2    0.30    1.71
   3  13  -2   -2.58    1.62
   3  13  -1   30.54    2.81
   3  13  -1   30.51    2.65
  -3 -13   0   -0.18    1.66
   3  13   0    0.01    1.60
   3  13   0    1.80    1.70
  -3 -13  -1   -0.46    1.77
   3  13   1    0.30    1.73
   3  13   1   -0.47    1.69
  -3 -13  -2    9.18    1.81
   3  13   2    9.38    1.73
   3  13   2    8.78    1.85
  -3 -13  -3    2.99    1.76
   3  13   3    4.10    1.46
   3  13   3    5.59    1.58
  -3 -13  -4    1.94    1.86
   3  13   4   -2.23    1.92
  -3 -14   9   20.98    1.77
  -3 -14   8    0.79    1.71
   3  14  -8   -0.35    1.77
  -3 -14   7   19.89    2.04
   3  14  -7   18.97    2.27
  -3 -14   6    7.83    1.81
   3  14  -6    5.85    1.71
  -3 -14   5   16.96    1.73
   3  14  -5   21.54    2.17
  -3 -14   4   20.93    2.06
   3  14  -4   25.25    2.13
  -3 -14   3    0.97    1.59
   3  14  -3   -0.78    1.51
   3  14  -3    0.40    1.63
   3  14  -2    1.38    1.68
   3  14  -1    1.72    1.81
  -3 -14   0   -0.46    1.64
   3  14   0    1.31    1.75
  -3 -14  -1    4.32    1.97
   3  14   1    3.20    1.68
  -4  14   3    6.25    1.94
   4 -14  -2   10.93    1.69
  -4  14   2   14.57    2.09
   4 -14  -1   -1.27    1.42
  -4  14   1    0.34    1.73
   4 -14   0   25.06    1.74
  -4  14   0   26.88    2.16
   4 -14   1   17.73    1.81
  -4  14  -1   19.15    1.97
   4 -14   2   -2.61    1.62
  -4  14  -2   -2.34    1.61
   4 -14   3    6.34    1.75
  -4  14  -3    5.68    1.63
   4 -14   4    2.33    1.61
  -4  14  -4   -0.67    1.60
   4 -14   5    6.60    1.95
  -4  14  -5   10.99    1.68
   4 -14   6    8.99    1.91
   4 -14   7    0.35    1.90
  -4  13   6   19.54    2.16
  -4  13   5    7.70    1.95
  -4  13   4   16.27    1.80
  -4  13   3    2.55    1.73
   4 -13  -2    2.10    1.29
  -4  13   2    4.61    1.86
   4 -13  -1    1.61    1.47
  -4  13   1    0.45    1.47
   4 -13   0   16.71    1.66
  -4  13   0   16.30    1.79
   4 -13   1    8.26    1.51
  -4  13  -1    7.11    1.46
   4 -13   2    3.87    1.71
  -4  13  -2    6.22    1.82
   4 -13   3   42.98    3.38
  -4  13  -3   40.53    3.32
   4 -13   4   -1.65    1.60
  -4  13  -4    2.05    1.44
   4 -13   5   10.56    1.62
  -4  13  -5    9.53    1.57
   4 -13   6   33.52    2.46
   4 -13   7   37.67    2.64
   4 -13   8    5.43    1.77
   4 -13  10   34.99    2.03
  -4  12   8   19.31    2.12
  -4  12   7   11.34    1.97
  -4  12   6   14.72    2.02
  -4  12   5   -0.12    1.73
  -4  12   4    1.63    1.51
  -4  12   3    1.07    1.44
   4 -12  -2   11.75    1.62
  -4  12   2   11.17    1.82
   4 -12  -1   22.01    1.65
  -4  12   1   23.20    1.80
   4 -12   0    7.48    1.25
  -4  12   0    5.02    1.48
   4 -12   1   29.21    1.74
  -4  12  -1   24.63    1.61
   4 -12   2    0.71    1.35
  -4  12  -2    0.43    1.42
   4 -12   3    2.26    1.38
  -4  12  -3    4.69    1.47
   4 -12   4   49.95    1.95
  -4  12  -4   48.92    1.99
   4 -12   5    0.82    1.38
  -4  12  -5   -1.43    1.24
   4 -12   6    9.43    1.69
   4 -12   7    5.92    1.58
   4 -12   8   30.00    2.67
   4 -12  10    2.39    1.61
   4 -12  11   10.67    1.72
  -4  11   7    8.41    1.83
  -4  11   6   -0.76    1.70
  -4  11   5   38.25    2.42
  -4  11   4    9.59    1.61
   4 -11  -3   12.10    1.41
  -4  11   3   12.21    1.63
   4 -11  -2   29.37    1.66
  -4  11   2   30.70    1.87
   4 -11  -1    1.70    1.20
  -4  11   1    2.60    1.45
   4 -11   0   38.75    2.33
  -4  11   0   41.48    2.55
   4 -11   1    1.52    1.29
  -4  11  -1    1.50    1.33
   4 -11   2   12.01    1.60
  -4  11  -2   10.06    1.56
   4 -11   3   12.69    1.48
  -4  11  -3   10.77    1.41
   4 -11   4    7.36    1.42
  -4  11  -4    6.63    1.43
   4 -11   5   19.90    1.66
  -4  11  -5   18.16    1.47
   4 -11   6   37.35    1.77
   4 -11   7    9.67    1.47
   4 -11   8    1.75    1.51
   4 -11  10    3.20    1.72
   4 -11  11    3.42    1.68
   4 -11  12   19.71    1.64
  -4  10  11    0.21    1.93
  -4  10  10    4.24    1.87
  -4  10   7    5.02    1.71
  -4  10   6    4.95    1.72
  -4  10   5    4.33    1.56
  -4  10   4    2.94    1.46
   4 -10  -3   10.70    1.25
  -4  10   3    9.62    1.33
   4 -10  -2    5.21    1.14
  -4  10   2    4.62    1.41
   4 -10  -1    0.46    1.14
  -4  10   1    2.83    1.35
   4 -10   0   44.09    2.26
  -4  10   0   47.70    2.59
   4 -10   1    2.30    1.22
  -4  10  -1    1.46    1.25
   4 -10   2   12.34    1.29
  -4  10  -2   13.43    1.37
   4 -10   3   26.71    1.89
  -4  10  -3   24.18    1.72
   4 -10   4    6.16    1.24
  -4  10  -4    7.40    1.23
   4 -10   5    0.10    1.44
  -4  10  -5    0.32    1.10
   4 -10   6    2.41    1.23
   4 -10   7   -1.34    1.23
   4 -10  10    0.31    1.24
   4 -10  11    1.99    1.32
   4 -10  12   17.62    1.87
   4 -10  13    2.55    1.61
  -4   9  12    1.21    1.84
  -4   9  11   12.75    1.93
  -4   9  10    1.12    1.72
  -4   9   7    7.15    1.39
  -4   9   6   61.45    3.40
  -4   9   5    2.69    1.37
  -4   9   4    1.81    1.46
   4  -9  -3  149.12    6.15
  -4   9   3  159.01    6.66
   4  -9  -2  101.58    4.96
  -4   9   2   94.90    4.73
   4  -9  -1    1.18    1.10
  -4   9   1    1.03    1.24
   4  -9   0   36.77    1.89
  -4   9   0   41.65    2.05
   4  -9   1   28.20    1.64
  -4   9  -1   27.74    1.79
   4  -9   2    1.27    1.05
  -4   9  -2    1.10    1.17
   4  -9   3   22.48    1.64
  -4   9  -3   19.64    1.48
   4  -9   4    5.83    1.23
  -4   9  -4    5.36    1.07
   4  -9   5   -0.51    1.25
  -4   9  -5   -0.43    1.06
   4  -9   6  115.18    4.98
   4  -9   7    2.00    1.28
   4  -9   9   11.93    1.32
   4  -9  10    5.51    1.33
   4  -9  11    7.65    1.49
   4  -9  12    0.55    1.48
   4  -9  13   -1.95    1.60
   4  -9  14   -0.72    1.33
  -4   8  13    1.03    1.89
  -4   8  12   14.93    1.80
  -4   8  11   12.55    1.59
  -4   8  10    5.06    1.43
  -4   8   7   -1.34    1.38
  -4   8   6   24.94    1.84
  -4   8   5    2.14    1.30
   4  -8  -4    1.78    0.99
  -4   8   4   -0.83    1.20
   4  -8  -3   26.95    1.57
  -4   8   3   28.08    1.85
   4  -8  -2   27.11    1.56
  -4   8   2   27.06    1.76
   4  -8  -1   36.54    1.91
  -4   8   1   39.52    2.26
   4  -8   0  103.96    3.35
  -4   8   0   93.88    3.12
   4  -8   1    6.72    1.16
  -4   8  -1    5.88    1.15
   4  -8   2   63.67    1.79
  -4   8  -2   65.23    2.44
   4  -8   3    7.80    1.22
  -4   8  -3   10.64    1.13
   4  -8   4   50.45    2.42
  -4   8  -4   50.18    2.33
   4  -8   5    1.10    1.02
  -4   8  -5    1.84    1.02
   4  -8   6    1.10    1.04
   4  -8   7    2.49    1.33
   4  -8   9   -1.89    1.41
   4  -8  10    9.72    1.42
   4  -8  11   27.27    1.68
   4  -8  12   12.11    1.65
   4  -8  13   10.56    1.40
   4  -8  14   36.70    1.96
   4  -8  15    8.59    1.50
  -4   7  14   -0.51    1.61
  -4   7  13   -1.02    1.69
  -4   7  12   -1.17    1.57
  -4   7  11   10.18    1.44
  -4   7  10   17.70    1.56
  -4   7   7   62.66    3.52
  -4   7   6   29.21    1.91
  -4   7   5  182.19    6.76
   4  -7  -4   54.29    2.45
  -4   7   4   53.65    2.70
   4  -7  -3   48.00    2.75
  -4   7   3   51.99    2.81
   4  -7  -2  275.38   12.10
  -4   7   2  264.58   11.69
   4  -7  -1   50.75    2.63
  -4   7   1   51.93    2.81
   4  -7   0   21.04    1.60
  -4   7   0   20.28    1.60
   4  -7   1    3.52    0.95
  -4   7  -1    3.61    1.01
   4  -7   2    0.33    1.04
  -4   7  -2    0.25    0.95
   4  -7   3   52.35    2.73
  -4   7  -3   50.13    2.63
   4  -7   4    5.01    1.12
  -4   7  -4    4.86    0.90
   4  -7   5   24.88    1.43
  -4   7  -5   22.15    1.25
   4  -7   6    7.30    1.09
   4  -7   7    6.04    1.03
   4  -7   9   16.19    1.46
   4  -7  10    4.37    1.25
   4  -7  11   68.23    2.21
   4  -7  12   58.09    2.03
   4  -7  13   11.46    1.56
   4  -7  14    8.51    1.61
   4  -7  15    0.50    1.42
  -4   6  15   -0.10    1.73
  -4   6  14   28.65    1.87
  -4   6  13    1.98    1.60
  -4   6  12    7.46    1.49
  -4   6  11    6.24    1.44
  -4   6  10   25.58    1.56
  -4   6   7   34.22    2.09
  -4   6   6   14.44    1.36
  -4   6   5    0.46    1.02
   4  -6  -4   -0.06    0.74
  -4   6   4    0.14    1.02
   4  -6  -3    6.50    1.00
  -4   6   3    4.67    1.30
   4  -6  -2   -0.06    0.89
  -4   6   2    0.55    1.20
   4  -6  -1   81.10    3.80
  -4   6   1   80.13    3.94
   4  -6   0   16.88    1.45
  -4   6   0   16.96    1.44
   4  -6   1    2.30    0.98
  -4   6  -1    3.11    0.94
   4  -6   2   40.11    2.56
  -4   6  -2   34.85    2.09
   4  -6   3   27.84    1.90
  -4   6  -3   27.14    1.78
   4  -6   4   26.58    1.83
  -4   6  -4   23.60    1.60
   4  -6   5    2.48    1.22
  -4   6  -5    3.58    0.89
   4  -6   6   39.73    2.10
   4  -6   9   59.40    2.86
   4  -6   9   52.68    2.46
   4  -6  10   12.09    1.27
   4  -6  10   11.95    1.09
   4  -6  11   39.96    2.40
   4  -6  11   36.77    2.09
   4  -6  12   12.18    1.37
   4  -6  12   12.64    1.19
   4  -6  13    0.85    1.49
   4  -6  13    1.00    1.12
   4  -6  14    3.69    1.49
   4  -6  14    2.47    1.26
   4  -6  15   61.18    2.46
   4  -6  15   63.81    2.27
  -4   5  15   40.12    2.33
  -4   5  14   -0.33    1.44
  -4   5  13    0.58    1.27
  -4   5  12    5.64    1.47
  -4   5  11   13.86    1.56
  -4   5  10    2.32    1.22
  -4   5   8    1.42    0.78
  -4   5   7   42.40    1.99
  -4   5   7   45.77    2.35
  -4   5   6  124.48    5.57
  -4   5   6  123.02    5.87
  -4   5   5    3.37    0.64
  -4   5   5    3.89    1.03
   4  -5  -4   68.81    3.39
  -4   5   4   73.21    3.32
  -4   5   4   64.08    3.28
   4  -5  -3  220.57    9.62
  -4   5   3  240.96   10.15
  -4   5   3  224.85   10.17
   4  -5  -2   -0.02    0.96
   4  -5  -1   36.29    2.08
  -4   5   1   36.19    2.05
   4  -5   0  107.34    4.62
  -4   5   0   98.25    4.10
   4  -5   2   24.12    1.62
  -4   5  -2   21.91    1.41
   4  -5   3   28.34    1.85
  -4   5  -3   28.04    1.74
   4  -5   4    9.11    1.55
   4  -5   4    9.13    0.89
  -4   5  -4   10.22    0.96
   4  -5   5    6.47    1.18
   4  -5   5    5.90    0.83
  -4   5  -5    6.79    0.87
   4  -5   6   21.29    1.69
   4  -5   6   21.37    1.48
   4  -5   7    2.07    0.84
   4  -5   8    6.55    0.97
   4  -5   9  136.16    6.53
   4  -5   9  136.35    6.43
   4  -5  10   11.57    1.40
   4  -5  10   10.73    1.12
   4  -5  11    3.98    1.37
   4  -5  11    0.60    1.05
   4  -5  12   39.66    1.89
   4  -5  12   41.44    1.75
   4  -5  13    8.50    1.60
   4  -5  13    6.40    1.25
   4  -5  14   15.23    1.63
   4  -5  14   12.29    1.28
   4  -5  15   45.33    2.20
   4  -5  15   43.62    1.94
  -4   4  16    0.47    1.55
  -4   4  15   -1.03    1.31
  -4   4  14    1.98    1.17
  -4   4  14    1.21    1.22
  -4   4  13    5.60    1.16
  -4   4  13    7.85    1.34
  -4   4  12   30.00    1.85
  -4   4  12   30.24    2.02
  -4   4  11   57.14    2.54
  -4   4  11   60.84    2.78
  -4   4  10   10.55    1.03
  -4   4  10   12.33    1.26
  -4   4   9  151.57    5.14
  -4   4   8   73.83    2.52
  -4   4   7   20.24    1.41
  -4   4   7   19.74    1.58
  -4   4   6   12.84    1.07
  -4   4   6   13.41    1.20
  -4   4   5   16.19    1.14
  -4   4   5   19.93    1.53
   4  -4  -4   13.02    0.93
  -4   4   4   13.09    0.85
  -4   4   4   12.52    1.17
   4  -4  -3   46.18    2.41
  -4   4   3   45.70    2.20
  -4   4   3   44.70    2.46
   4  -4  -2    6.52    1.10
  -4   4   2    5.89    1.23
  -4   4   1   13.19    2.95
   4  -4   0   64.88    3.15
   4  -4   0   63.25    2.95
  -4   4   0   54.91    2.68
   4  -4   1   16.21    1.41
   4  -4   1   17.86    1.24
  -4   4  -1   18.79    1.32
   4  -4   2   73.56    3.47
   4  -4   2   71.02    3.03
  -4   4  -2   72.56    3.05
   4  -4   3   56.72    3.28
   4  -4   3   55.04    2.89
  -4   4  -3   55.19    2.72
   4  -4   4   79.70    3.82
   4  -4   4   77.17    3.59
  -4   4  -4   75.90    3.50
   4  -4   5   67.30    3.40
   4  -4   5   68.32    3.30
   4  -4   6   48.44    2.83
   4  -4   6   50.99    2.80
   4  -4   7   30.10    1.97
   4  -4   8   66.95    2.52
   4  -4   8   68.41    2.37
   4  -4   9   15.43    1.25
   4  -4   9   14.28    1.13
   4  -4  10   10.88    1.26
   4  -4  10   10.95    1.20
   4  -4  11   14.78    1.48
   4  -4  11   14.87    1.31
   4  -4  12   35.60    1.74
   4  -4  12   38.25    1.67
   4  -4  13   13.35    1.41
   4  -4  13   12.72    1.45
   4  -4  14   23.85    2.33
   4  -4  14   17.86    1.38
   4  -4  15   28.44    1.75
   4  -4  15   30.46    1.82
   4  -4  16    8.17    1.61
  -4   3  16    3.93    1.36
  -4   3  16    3.46    1.60
  -4   3  15   15.00    1.42
  -4   3  15   13.98    1.52
  -4   3  14   16.13    1.45
  -4   3  14   14.71    1.66
  -4   3  13   39.72    1.80
  -4   3  13   40.28    1.95
  -4   3  12    0.48    0.99
  -4   3  12    0.71    1.19
  -4   3  11  146.97    6.21
  -4   3  11  149.50    6.55
  -4   3  10    1.54    0.89
  -4   3  10    2.49    1.14
  -4   3   9   14.27    1.06
  -4   3   8   -0.69    0.77
  -4   3   7   40.80    2.31
  -4   3   7   40.60    2.44
  -4   3   6   75.09    3.47
  -4   3   6   68.31    3.47
  -4   3   5   54.37    2.64
  -4   3   5   60.77    2.94
   4  -3  -4  110.27    4.48
  -4   3   4  118.44    4.50
  -4   3   4  125.57    4.98
   4  -3  -3  302.67   12.59
  -4   3   3  298.28   11.76
  -4   3   3  320.55   13.07
   4  -3  -2  151.98    6.95
  -4   3   2  143.75    5.88
  -4   3   2  154.28    6.63
   4  -3  -1   48.39    2.27
   4  -3  -1   46.95    2.16
  -4   3   1   39.75    1.83
   4  -3   0   56.97    2.56
   4  -3   0   60.74    2.59
  -4   3   0   55.86    2.29
   4  -3   1  143.52    6.16
  -4   3  -1  134.11    5.56
  -4   3  -2   25.45    1.54
   4  -3   2   20.93    1.55
  -4   3  -2   21.71    1.24
  -4   3  -3   65.31    3.14
   4  -3   3   70.55    3.11
  -4   3  -3   60.02    2.79
   4  -3   4    1.29    0.85
  -4   3  -5    3.69    1.57
   4  -3   5    1.30    1.24
  -4   3  -6   69.36    3.11
   4  -3   6   66.53    3.01
  -4   3  -7    2.21    1.07
   4  -3   7    1.79    0.93
  -4   3  -8   62.54    2.81
   4  -3   8   60.25    2.66
  -4   3  -9   11.97    1.32
   4  -3   9   10.75    1.18
  -4   3 -10   26.04    1.85
   4  -3  10   24.28    1.63
  -4   3 -11   48.93    2.45
   4  -3  11   42.35    2.13
  -4   3 -12    7.27    1.39
   4  -3  12    8.11    1.18
   4  -3  13    3.82    1.37
   4  -3  14    4.47    1.51
   4  -3  14    1.67    1.38
   4  -3  15    1.33    1.63
   4  -3  15    1.10    1.33
   4  -3  16    0.89    1.63
   4  -3  16   -0.66    1.41
  -4   2  17    1.03    1.49
  -4   2  17    1.85    1.57
  -4   2  16   -1.83    1.17
  -4   2  16   -0.93    1.39
  -4   2  15   20.10    1.69
  -4   2  15   22.65    1.88
  -4   2  14    4.46    1.26
  -4   2  14    3.43    1.37
  -4   2  13   30.22    1.97
  -4   2  13   30.63    2.11
  -4   2  12    6.14    1.03
  -4   2  12    7.20    1.23
  -4   2  11    0.20    0.96
  -4   2  11    1.45    1.12
  -4   2  10  312.11    9.97
  -4   2  10  331.78   10.81
  -4   2   9   37.15    2.23
  -4   2   8   78.37    3.30
  -4   2   7   27.56    1.63
  -4   2   7   33.47    1.94
  -4   2   6   31.49    1.68
  -4   2   6   37.45    1.99
   4  -2  -5    0.65    0.63
  -4   2   5   -0.61    0.72
  -4   2   5    0.03    0.80
   4  -2  -4  108.59    4.19
  -4   2   4  103.96    3.94
  -4   2   4  101.61    3.92
   4  -2  -3  143.08    6.26
  -4   2   3  132.32    5.50
  -4   2   3  124.04    5.53
  -4   2   2   18.13    1.49
  -4   2   2   16.22    1.12
  -4   2   2   19.88    1.89
  -4   2   1  304.78   12.36
  -4   2   1  290.95   11.61
  -4   2   1  272.46   11.50
  -4   2   0  230.58    9.49
   4  -2   0  224.63    9.69
  -4   2   0  204.33    8.37
  -4   2  -1   14.82    1.68
   4  -2   1   13.01    4.08
  -4   2  -1   18.55    1.74
  -4   2  -2   19.05    1.28
   4  -2   2   17.54    1.17
  -4   2  -2   15.02    0.86
   4  -2   3    1.28    0.83
   4  -2   4   41.83    2.34
  -4   2  -5   80.96    3.86
   4  -2   5   80.37    3.91
  -4   2  -6  181.22    7.15
   4  -2   6  171.93    7.00
  -4   2  -7   51.48    2.77
   4  -2   7   47.67    3.00
  -4   2  -8   46.92    2.36
   4  -2   8   45.50    2.23
  -4   2  -9   38.94    2.03
   4  -2   9   39.18    2.01
  -4   2 -10    2.07    1.25
   4  -2  10    1.98    0.99
  -4   2 -11    1.49    1.28
   4  -2  11    1.54    1.25
  -4   2 -12    0.84    1.49
   4  -2  12    1.95    1.40
  -4   2 -13    6.81    1.50
   4  -2  13    3.98    1.45
  -4   2 -14   33.78    3.00
   4  -2  14   28.63    2.39
  -4   2 -15    2.58    1.73
   4  -2  15    3.87    1.57
   4  -2  16    1.51    1.71
  -4   1  17    4.74    1.35
  -4   1  17    7.84    1.64
  -4   1  16   24.10    1.99
  -4   1  16   21.99    1.84
  -4   1  15    8.42    1.36
  -4   1  15    7.66    1.29
  -4   1  14    1.37    1.14
  -4   1  14    4.12    1.32
  -4   1  13   36.15    2.19
  -4   1  13   44.09    2.57
  -4   1  12   30.30    1.83
  -4   1  12   27.64    1.68
  -4   1  11   14.05    1.16
  -4   1  11   13.54    1.19
  -4   1  10   15.85    1.14
  -4   1  10   17.38    1.21
  -4   1   9  186.11    8.19
  -4   1   8   32.29    1.93
  -4   1   7  227.23    9.83
  -4   1   7  251.22   10.67
  -4   1   6    8.10    0.79
  -4   1   6    7.44    0.90
   4  -1  -5    4.80    1.03
  -4   1   5    3.93    1.26
  -4   1   4  233.40    9.56
  -4   1   4  266.26   10.53
  -4   1   4  265.37   10.75
  -4   1   3  261.60   10.67
  -4   1   3  307.50   12.13
  -4   1   3  298.47   12.16
  -4   1   2  246.56    5.72
  -4   1   2  272.66    5.88
  -4   1   2  257.08    6.74
  -4   1   1  135.27    5.11
  -4   1   1  133.32    4.94
  -4   1   1  129.92    5.03
  -4   1  -1   23.42    1.43
   4  -1   1   22.00    1.47
   4  -1   1   21.95    1.26
  -4   1  -2    1.59    0.79
   4  -1   2    0.73    0.87
   4  -1   2    1.69    1.04
   4  -1   3  125.29    5.94
  -4   1  -4   94.87    4.00
   4  -1   4   99.59    4.57
  -4   1  -5   82.94    3.91
   4  -1   5   80.07    4.00
  -4   1  -6    3.44    1.01
   4  -1   6    4.20    1.00
  -4   1  -7    0.51    1.13
   4  -1   7   -1.27    1.10
  -4   1  -8    3.85    1.13
   4  -1   8    2.36    1.14
  -4   1  -9   91.47    3.38
   4  -1   9   92.34    3.41
  -4   1 -10    4.13    1.12
   4  -1  10    1.84    1.29
  -4   1 -11    1.25    1.11
   4  -1  11    1.47    1.25
  -4   1 -12   54.09    2.19
   4  -1  12   51.19    2.01
  -4   1 -13   36.44    2.27
   4  -1  13   34.45    1.99
  -4   1 -14   -0.29    1.60
   4  -1  14   -0.76    1.38
   4  -1  15    1.97    1.47
  -4   0  17    6.13    1.36
  -4   0  17    5.61    1.57
  -4   0  16    5.57    1.38
  -4   0  16    3.00    1.38
  -4   0  15   10.33    1.27
  -4   0  15   10.63    1.27
  -4   0  14    0.38    1.13
  -4   0  14    0.03    1.21
  -4   0  13   23.44    1.42
  -4   0  13   26.24    1.49
  -4   0  12   41.33    2.21
  -4   0  12   43.51    2.23
  -4   0  11    1.66    0.83
  -4   0  11    2.92    0.94
  -4   0  10   32.58    1.73
  -4   0  10   31.81    1.73
  -4   0   9  298.58   12.81
  -4   0   8   58.90    2.97
  -4   0   7    0.56    0.79
  -4   0   7    1.60    0.85
  -4   0   6  167.41    6.31
  -4   0   6  187.70    6.87
  -4   0   6  203.61    7.47
  -4   0   5    3.15    0.72
  -4   0   5    3.59    0.74
  -4   0   5    3.82    0.75
  -4   0   4   25.55    1.43
  -4   0   4   27.21    1.36
  -4   0   4   25.48    1.33
  -4   0   3   11.19    1.01
  -4   0   3   10.94    1.07
  -4   0   3   12.58    1.00
  -4   0   2   74.44    3.55
  -4   0   2   82.65    3.83
  -4   0   2   79.40    3.26
  -4   0   1  265.37    6.02
  -4   0   1  249.79    5.76
   4   0  -1  252.12    5.92
  -4   0  -1   32.52    1.96
   4   0   1   31.34    3.42
   4   0   1   32.31    2.00
   4   0   3  717.87   17.78
  -4   0  -4   25.22    1.68
   4   0   4   25.31    1.75
  -4   0  -5   17.10    1.57
   4   0   5   15.95    1.46
  -4   0  -6  213.97    8.33
   4   0   6  208.34    8.91
  -4   0  -7   93.71    4.41
   4   0   7   92.44    4.51
  -4   0  -8   14.51    1.31
   4   0   8   13.68    1.30
  -4   0  -9   49.98    2.83
   4   0   9   48.03    2.72
  -4   0 -10   21.49    1.58
   4   0  10   24.18    1.72
  -4   0 -11   43.88    2.56
   4   0  11   40.77    2.34
  -4   0 -12   -0.68    1.47
   4   0  12    2.25    1.38
  -4   0 -13   -0.29    1.57
   4   0  13   -0.27    1.44
  -4   0 -14    9.48    1.71
   4   0  14   11.00    1.69
   4   0  15   14.41    1.74
  -4  -1  18    6.56    1.61
   4   1 -18    3.27    1.72
  -4  -1  17   10.91    1.60
  -4  -1  16    2.07    1.44
  -4  -1  16   -0.32    1.33
  -4  -1  15   24.13    1.58
  -4  -1  15   28.64    1.63
  -4  -1  14   40.63    2.40
  -4  -1  14   39.33    2.30
  -4  -1  13   22.85    1.44
  -4  -1  13   20.46    1.21
  -4  -1  12   31.09    1.70
  -4  -1  12   27.65    1.60
  -4  -1  11   16.80    1.08
  -4  -1  11   18.14    1.05
  -4  -1  10   23.39    1.24
  -4  -1  10   25.63    1.25
  -4  -1   9   29.22    1.87
  -4  -1   8    1.23    0.78
  -4  -1   7   19.72    1.34
  -4  -1   7   23.49    1.49
  -4  -1   7   25.68    1.58
  -4  -1   6  114.72    4.52
  -4  -1   6  126.14    4.89
  -4  -1   6  133.01    5.07
  -4  -1   5    3.50    0.78
  -4  -1   5    4.55    0.76
  -4  -1   5    3.99    0.75
  -4  -1   4   26.81    1.48
  -4  -1   4   28.41    1.43
   4   1  -4   29.11    1.53
  -4  -1   3  441.22   17.51
  -4  -1   3  497.22   19.69
   4   1  -3  513.90   20.75
  -4  -1   2   11.34    1.68
  -4  -1   2    9.97    1.04
   4   1  -2   16.00    1.52
  -4  -1   1  230.92    9.50
  -4  -1   1  217.36    8.95
   4   1  -1  229.53    9.40
  -4  -1   0  220.22    9.18
   4   1   0  223.71    9.38
  -4  -1  -1  255.85   10.34
   4   1   1  241.28   11.12
   4   1   1  261.40   10.76
  -4  -1  -2  472.22   19.06
   4   1   2  513.41   22.89
   4   1   2  449.05   18.19
   4   1   3  108.63    4.82
  -4  -1  -4   58.59    2.88
   4   1   4   56.46    2.98
  -4  -1  -5   26.99    1.77
   4   1   5   27.03    1.86
  -4  -1  -6   22.09    1.69
   4   1   6   22.71    1.71
  -4  -1  -7    3.79    1.08
   4   1   7    5.19    1.12
  -4  -1  -8   26.36    1.64
   4   1   8   27.67    1.79
  -4  -1  -9    8.92    1.25
   4   1   9    7.09    1.29
  -4  -1 -10   10.54    1.33
   4   1  10   10.38    1.25
  -4  -1 -11   34.34    2.16
   4   1  11   39.09    2.46
  -4  -1 -12    0.44    1.43
   4   1  12    0.27    1.42
  -4  -1 -13    1.33    1.49
   4   1  13    1.20    1.57
  -4  -1 -14   21.08    2.00
   4   1  14   25.48    2.06
   4   1  15    5.73    1.89
  -4  -2  18    0.03    1.39
   4   2 -18    0.67    2.02
  -4  -2  17   12.25    1.47
   4   2 -17   14.19    1.98
  -4  -2  16   31.52    2.70
   4   2 -16   28.56    2.74
  -4  -2  15   15.36    1.29
   4   2 -15   13.84    1.75
  -4  -2  14   10.15    1.47
   4   2 -14    8.04    1.65
  -4  -2  13    6.39    1.19
  -4  -2  12    3.90    0.97
  -4  -2  11   37.51    1.96
   4   2 -11   35.33    2.12
  -4  -2  10  110.37    3.63
   4   2 -10  100.27    4.15
  -4  -2   9    9.44    0.99
   4   2  -9   11.02    1.20
  -4  -2   8  151.42    5.97
   4   2  -8  165.93    6.76
  -4  -2   7  289.03    3.10
   4   2  -7  282.45   12.25
  -4  -2   6   15.17    1.20
  -4  -2   6   17.28    1.23
  -4  -2   5   12.48    0.97
  -4  -2   5   12.42    0.95
   4   2  -5   15.37    1.28
  -4  -2   4  104.98    3.94
  -4  -2   4  106.66    4.06
  -4  -2   3   54.16    2.33
  -4  -2   3   57.20    2.40
   4   2  -3   63.35    2.72
  -4  -2   2    6.32    0.93
  -4  -2   2    6.81    0.83
   4   2  -2    6.40    0.90
  -4  -2   1   56.24    2.47
  -4  -2   1   49.81    2.15
   4   2  -1   52.60    2.30
  -4  -2   0  135.80    5.78
  -4  -2   0  136.14    5.76
   4   2   0  139.77    6.11
  -4  -2  -1    2.34    1.42
   4   2   1    3.46    1.62
   4   2   1    3.18    0.89
   4   2   2   69.40    3.53
   4   2   2   67.21    3.20
   4   2   3   78.99    3.65
  -4  -2  -4    0.03    0.95
   4   2   4    0.21    1.07
  -4  -2  -5  147.55    5.92
   4   2   5  151.35    6.27
  -4  -2  -6    2.32    0.91
   4   2   6    1.03    1.13
  -4  -2  -7    2.74    1.00
   4   2   7    4.40    1.22
  -4  -2  -8  126.74    4.43
   4   2   8  141.54    4.90
  -4  -2  -9    5.13    1.25
   4   2   9    7.18    1.33
  -4  -2 -10    3.79    1.33
   4   2  10    3.11    1.33
  -4  -2 -11   32.36    1.79
   4   2  11   31.18    1.81
  -4  -2 -12   29.76    2.05
   4   2  12   27.73    1.93
  -4  -2 -13    1.10    1.56
   4   2  13    0.69    1.48
  -4  -2 -14    3.10    1.54
   4   2  14    6.35    1.58
  -4  -3  18    3.20    1.61
   4   3 -18    1.97    1.93
  -4  -3  17   14.50    1.48
   4   3 -17   11.90    1.96
  -4  -3  16   24.28    2.37
   4   3 -16   19.05    1.70
  -4  -3  15    4.90    1.35
   4   3 -15    4.55    1.41
  -4  -3  14   25.02    1.44
   4   3 -14   20.33    1.60
  -4  -3  13   46.47    2.32
  -4  -3  12   90.32    4.14
  -4  -3  11   -0.06    0.87
   4   3 -11    0.40    1.01
  -4  -3  10   40.87    2.12
   4   3 -10   32.33    1.95
  -4  -3   9  118.43    5.46
   4   3  -9  104.31    5.54
  -4  -3   8   13.83    1.14
  -4  -3   8   14.07    1.14
   4   3  -8   17.75    1.55
  -4  -3   7    0.56    0.70
  -4  -3   7    0.91    0.70
   4   3  -7    1.62    0.96
  -4  -3   6   21.37    1.39
  -4  -3   6   24.81    1.55
   4   3  -6   26.39    1.71
  -4  -3   5  175.57    6.62
  -4  -3   5  187.67    7.14
   4   3  -5  198.86    7.61
  -4  -3   4  122.63    4.82
  -4  -3   4  113.17    4.65
   4   3  -4  135.53    5.30
  -4  -3   3   49.09    2.17
   4   3  -3   46.57    2.13
  -4  -3   2    3.76    0.89
   4   3  -2    5.74    0.88
  -4  -3   1  422.71   16.68
   4   3  -1  393.56   16.62
  -4  -3   0  111.38    4.39
   4   3   0  101.51    4.36
  -4  -3  -1   91.72    3.74
   4   3   1   85.79    4.06
   4   3   1   79.32    3.47
   4   3   2   63.97    3.28
   4   3   2   60.73    2.96
  -4  -3  -3  129.06    5.77
   4   3   3  140.18    6.83
   4   3   3  127.18    5.64
  -4  -3  -4   63.37    2.89
   4   3   4   59.68    2.00
  -4  -3  -5   41.26    2.49
   4   3   5   44.54    2.69
  -4  -3  -6    8.41    1.22
   4   3   6    9.13    1.31
  -4  -3  -7    9.28    1.25
   4   3   7    7.24    1.25
  -4  -3  -8   19.78    1.45
   4   3   8   24.34    1.73
  -4  -3  -9    4.72    1.21
   4   3   9    3.51    1.28
  -4  -3 -10   21.79    1.64
   4   3  10   19.93    1.58
  -4  -3 -11    2.24    1.52
   4   3  11    0.07    1.39
  -4  -3 -12   18.23    1.87
   4   3  12   16.40    1.89
  -4  -3 -13   25.78    2.16
  -4  -4  18   37.20    1.82
   4   4 -18   39.98    2.42
  -4  -4  17    0.99    1.55
   4   4 -17   -2.04    1.51
  -4  -4  16   14.46    1.37
   4   4 -16   14.96    1.84
  -4  -4  15   37.53    1.85
   4   4 -15   31.62    1.81
  -4  -4  14   11.98    1.42
   4   4 -14    8.40    1.55
  -4  -4  13    5.70    1.21
  -4  -4  12   -1.23    1.05
  -4  -4  11    2.99    1.02
   4   4 -11    3.83    1.30
  -4  -4  10   55.61    2.68
   4   4 -10   60.11    2.96
   4   4  -9   50.57    2.88
  -4  -4   8    0.37    0.73
   4   4  -8   -0.34    0.90
  -4  -4   7   55.29    3.01
   4   4  -7   62.46    2.91
  -4  -4   6  101.73    4.61
  -4  -4   5   31.18    1.82
   4   4  -5   32.51    2.01
  -4  -4   4    4.55    0.84
   4   4  -4    4.76    1.09
  -4  -4   3  155.68    5.92
   4   4  -3  156.56    6.41
  -4  -4   2  155.59    5.95
  -4  -4   2  146.03    5.92
   4   4  -2  159.50    6.67
  -4  -4   1   56.31    2.80
  -4  -4   1   57.00    2.82
   4   4  -1   54.86    2.81
  -4  -4   0  112.51    4.46
  -4  -4   0  115.76    4.67
   4   4   0  103.19    4.54
  -4  -4  -1   -0.26    0.99
   4   4   1    0.04    1.15
   4   4   1    0.83    0.87
   4   4   2   36.88    2.30
   4   4   2   36.30    2.10
  -4  -4  -3    4.77    1.05
   4   4   3    4.35    0.97
   4   4   3    3.47    0.92
  -4  -4  -4    5.78    1.20
   4   4   4    3.54    1.26
  -4  -4  -5   54.28    2.58
   4   4   5   53.34    2.58
  -4  -4  -6   10.91    1.34
   4   4   6    8.75    1.17
  -4  -4  -7   53.30    2.98
  -4  -4  -8    4.19    1.34
  -4  -4  -9   51.61    2.89
  -4  -4 -10    2.87    1.38
  -4  -4 -11   17.80    1.62
  -4  -4 -12   33.94    2.89
  -4  -4 -13    0.93    1.51
  -4  -5  17    2.44    1.33
   4   5 -17    1.34    1.83
  -4  -5  16    3.85    1.27
   4   5 -16    4.76    1.67
   4   5 -15   19.37    2.05
   4   5 -14   26.14    5.89
   4   5 -11   30.38    1.92
   4   5 -10    6.39    1.18
  -4  -5   9   43.48    2.11
   4   5  -9   40.86    2.30
  -4  -5   8   54.45    2.76
  -4  -5   8   54.14    2.84
   4   5  -8   50.09    2.83
  -4  -5   7  115.69    4.74
  -4  -5   7  121.15    5.11
   4   5  -7  112.91    5.11
  -4  -5   6   11.70    1.17
  -4  -5   6   12.27    1.19
   4   5  -6   12.96    1.36
  -4  -5   5   37.06    2.09
  -4  -5   5   36.69    2.11
   4   5  -5   36.60    2.24
  -4  -5   4  188.36    8.20
  -4  -5   4  179.60    7.98
   4   5  -4  190.49    8.87
  -4  -5   3   85.01    4.00
  -4  -5   3   80.82    3.92
   4   5  -3   77.71    3.89
  -4  -5   2   93.18    4.33
  -4  -5   2   92.66    4.36
   4   5  -2   87.39    4.35
  -4  -5   1   47.12    2.56
  -4  -5   1   49.82    2.65
   4   5  -1   40.78    2.40
  -4  -5   0   91.30    4.21
  -4  -5   0   89.69    4.07
   4   5   0   82.34    4.04
  -4  -5  -1  115.25    4.74
   4   5   1  113.80    4.82
   4   5   2   69.90    3.15
  -4  -5  -3    6.26    1.06
   4   5   3    4.96    0.93
  -4  -5  -4   44.37    2.26
  -4  -5  -5  175.03    5.83
  -4  -5  -6    2.02    1.28
  -4  -5  -7   30.98    1.98
  -4  -5  -8   10.93    1.43
   4   5   8   12.70    1.57
  -4  -5  -9    2.90    1.40
   4   5   9    2.62    1.37
  -4  -5 -10    5.65    1.48
   4   5  10    8.89    1.49
  -4  -5 -11    7.86    1.55
   4   5  11    4.58    1.55
  -4  -5 -12    1.64    1.56
   4   5  12    1.07    1.68
  -4  -5 -13    2.42    1.59
   4   5  13    1.84    1.64
   4   6 -17    6.55    1.68
   4   6 -16   37.03    2.67
   4   6 -15   -2.27    1.55
  -4  -6  14   30.22    1.62
   4   6 -14   29.38    1.93
  -4  -6  13    9.37    1.17
  -4  -6  12   18.80    1.36
  -4  -6  11    0.98    0.87
   4   6 -11    0.21    1.08
  -4  -6  10    2.17    0.82
   4   6 -10    0.44    1.30
  -4  -6   9   44.99    2.20
  -4  -6   9   46.66    2.28
   4   6  -9   41.18    2.25
  -4  -6   8   43.35    2.09
  -4  -6   8   45.71    2.22
   4   6  -8   44.22    2.35
  -4  -6   7   56.76    2.85
  -4  -6   7   55.50    2.82
   4   6  -7   59.58    3.21
  -4  -6   6    9.01    1.04
  -4  -6   6    7.69    1.01
   4   6  -6    8.16    1.21
  -4  -6   5   32.96    2.06
  -4  -6   5   31.44    2.04
   4   6  -5   28.77    1.99
  -4  -6   4  106.35    4.38
  -4  -6   4  102.78    4.49
   4   6  -4  103.28    4.55
  -4  -6   3   10.50    1.25
  -4  -6   3   10.73    1.17
   4   6  -3   11.56    1.35
  -4  -6   2    2.45    0.87
  -4  -6   2    2.99    0.91
   4   6  -2    2.02    1.01
  -4  -6   1   83.56    3.63
  -4  -6   1   81.76    3.62
   4   6  -1   79.28    3.56
  -4  -6   0    6.52    1.37
   4   6   0    4.28    1.06
   4   6   1    1.18    1.10
   4   6   2    0.26    1.24
   4   6   2   -0.06    1.01
  -4  -6  -3    7.15    1.14
   4   6   3    8.72    1.36
   4   6   3    7.73    1.14
  -4  -6  -4    1.92    1.30
   4   6   4   -0.99    1.33
  -4  -6  -5   29.36    1.87
   4   6   5   31.66    1.84
  -4  -6  -6   13.21    1.38
   4   6   6   16.81    1.53
  -4  -6  -7   -0.55    1.33
   4   6   7   -1.66    1.44
  -4  -6  -8   42.87    1.95
   4   6   8   45.20    2.18
  -4  -6  -9    7.20    1.37
   4   6   9    6.96    1.47
  -4  -6 -10    6.51    1.57
   4   6  10    6.87    1.54
  -4  -6 -11   38.08    2.58
   4   6  11   35.86    2.49
  -4  -6 -12    0.56    1.74
   4   6  12   -0.16    1.79
   4   7 -17    2.41    1.83
  -4  -7  16    0.67    1.54
   4   7 -16    0.78    1.78
  -4  -7  15    6.60    1.62
   4   7 -15    4.71    1.51
  -4  -7  14   38.47    2.07
   4   7 -14   40.68    2.37
  -4  -7  13   57.73    2.13
  -4  -7  12   -0.46    1.15
  -4  -7  11   -0.21    1.03
   4   7 -11    2.49    1.54
  -4  -7  10  152.36    6.57
   4   7 -10  159.09    7.11
  -4  -7   9    5.69    1.02
  -4  -7   9    6.38    0.99
   4   7  -9    7.35    1.29
  -4  -7   8   -0.05    0.96
  -4  -7   8    0.85    1.07
   4   7  -8    1.73    1.24
  -4  -7   7   26.48    1.61
  -4  -7   7   23.02    1.49
   4   7  -7   25.23    1.71
  -4  -7   6  115.76    3.65
  -4  -7   6  110.75    3.71
   4   7  -6  112.51    3.89
  -4  -7   5    0.52    0.94
  -4  -7   5    0.91    0.86
   4   7  -5    0.30    1.17
  -4  -7   4   18.33    1.27
  -4  -7   4   20.93    1.26
   4   7  -4   20.07    1.42
  -4  -7   3   46.48    2.75
  -4  -7   3   50.39    2.62
   4   7  -3   46.68    2.81
  -4  -7   2    0.05    1.23
  -4  -7   2    1.50    0.87
   4   7  -2    3.28    1.10
  -4  -7   1  181.32    5.30
  -4  -7   1  182.59    5.44
  -4  -7   0   15.37    1.20
   4   7   0   13.61    1.33
   4   7   0   14.13    1.20
   4   7   1   34.92    2.13
   4   7   1   31.31    1.86
  -4  -7  -2  159.38    5.36
   4   7   2  179.31    6.26
   4   7   2  176.78    5.92
  -4  -7  -3   44.04    2.21
   4   7   3   44.52    2.31
   4   7   3   45.07    1.66
  -4  -7  -4    9.27    1.41
   4   7   4    7.04    1.45
  -4  -7  -5   29.54    1.74
   4   7   5   34.32    2.14
  -4  -7  -6   78.89    4.00
   4   7   6   81.10    4.06
  -4  -7  -7   -0.80    1.43
   4   7   7    0.76    1.55
  -4  -7  -8    5.85    1.59
   4   7   8    5.39    1.56
  -4  -7  -9    3.55    1.56
   4   7   9    5.54    1.81
  -4  -7 -10    3.01    1.71
   4   7  10    1.85    1.82
  -4  -7 -11    5.14    1.51
   4   7  11    5.81    1.85
  -4  -8  16   42.38    2.06
   4   8 -16   43.07    2.49
  -4  -8  15   23.14    2.01
   4   8 -15   17.07    1.71
  -4  -8  14    3.95    1.29
   4   8 -14    3.68    1.67
  -4  -8  13   -0.69    1.17
   4   8 -13   -0.76    1.41
  -4  -8  12   81.73    2.53
  -4  -8  11    3.45    1.22
   4   8 -11    2.54    1.47
  -4  -8  10    0.55    1.02
  -4  -8  10    0.70    1.22
   4   8 -10    0.00    1.19
  -4  -8   9    1.01    1.05
  -4  -8   9   -0.60    1.05
   4   8  -9   -0.07    1.30
  -4  -8   8    1.18    0.98
  -4  -8   8    1.18    0.90
   4   8  -8    0.37    1.30
  -4  -8   7   67.99    3.55
  -4  -8   7   62.39    3.31
   4   8  -7   68.04    3.71
  -4  -8   6    1.88    1.01
  -4  -8   6    0.12    0.90
   4   8  -6    1.76    1.32
  -4  -8   5   60.76    2.55
  -4  -8   5   62.51    2.60
   4   8  -5   56.42    2.60
  -4  -8   4   48.46    2.38
  -4  -8   4   48.09    2.26
   4   8  -4   51.67    2.53
  -4  -8   3   99.05    3.64
  -4  -8   3  102.30    3.77
   4   8  -3   99.36    3.82
  -4  -8   2    1.56    1.14
  -4  -8   2    2.04    1.03
   4   8  -2    1.96    1.24
  -4  -8   1    1.62    1.08
  -4  -8   1    0.70    1.04
   4   8  -1    1.70    1.21
  -4  -8   0   24.08    1.73
   4   8   0   19.91    1.65
   4   8   0   22.18    1.60
   4   8   1    7.49    1.49
   4   8   1   11.04    1.34
  -4  -8  -2    7.12    1.42
   4   8   2    8.23    1.58
   4   8   2    7.63    1.43
  -4  -8  -3   39.18    2.12
   4   8   3   38.66    2.23
   4   8   3   38.79    2.07
  -4  -8  -4    6.06    1.26
   4   8   4    5.85    1.64
  -4  -8  -5    6.50    1.50
   4   8   5    8.15    1.53
  -4  -8  -6    3.18    1.50
   4   8   6    0.45    1.70
  -4  -8  -7    8.57    1.49
   4   8   7   11.89    1.78
  -4  -8  -8    2.25    1.49
   4   8   8    1.38    1.75
  -4  -8  -9   27.05    2.16
   4   8   9   34.41    2.63
  -4  -8 -10   23.06    1.96
   4   8  10   24.15    2.09
  -4  -9  16   16.24    1.59
   4   9 -16   18.39    1.89
  -4  -9  15    0.34    1.56
   4   9 -15   -0.43    1.63
  -4  -9  14    2.99    1.31
   4   9 -14    2.92    1.80
  -4  -9  13   32.38    2.71
   4   9 -13   31.23    2.83
  -4  -9  12   35.73    2.09
  -4  -9  11   22.68    1.54
   4   9 -11   22.18    1.80
  -4  -9  10   10.10    1.24
  -4  -9  10   10.78    2.60
   4   9 -10   12.17    1.62
  -4  -9   9   45.66    2.58
  -4  -9   9   46.95    2.61
   4   9  -9   55.79    3.18
  -4  -9   8   48.80    2.37
  -4  -9   8   47.36    2.25
   4   9  -8   44.36    2.30
  -4  -9   7   25.07    1.53
  -4  -9   7   25.50    1.40
   4   9  -7   23.87    1.66
  -4  -9   6   15.51    1.44
  -4  -9   6   15.31    1.25
   4   9  -6   14.95    1.31
  -4  -9   5   14.28    1.32
  -4  -9   5   13.87    1.27
   4   9  -5   13.63    1.51
  -4  -9   4   13.34    1.19
  -4  -9   4   15.01    1.27
   4   9  -4   14.21    1.51
  -4  -9   3   -0.26    1.06
  -4  -9   3   -0.75    0.91
   4   9  -3   -0.88    1.24
  -4  -9   2   28.10    1.88
  -4  -9   2   31.53    1.93
   4   9  -2   30.63    1.98
  -4  -9   1    1.36    1.17
   4   9  -1   -0.74    1.10
  -4  -9   0   21.14    1.70
   4   9   0   24.96    2.00
   4   9   0   24.57    1.82
   4   9   1   21.21    1.65
   4   9   1   22.75    1.51
  -4  -9  -2   15.66    1.40
   4   9   2   16.00    1.50
   4   9   2   18.56    1.46
  -4  -9  -3   20.49    1.53
   4   9   3   25.20    1.83
   4   9   3   20.59    1.54
  -4  -9  -4    5.71    1.55
   4   9   4    7.50    1.46
  -4  -9  -5   48.05    2.11
   4   9   5   56.96    2.32
  -4  -9  -6   28.36    1.83
   4   9   6   33.76    2.25
  -4  -9  -7    6.73    1.74
   4   9   7    9.43    1.78
  -4  -9  -8    7.01    1.75
   4   9   8    1.61    1.81
  -4  -9  -9   10.29    1.87
   4   9   9    7.84    1.92
  -4 -10  15   21.72    1.85
   4  10 -15   22.69    2.08
  -4 -10  14   20.74    1.79
   4  10 -14   22.08    1.89
  -4 -10  13   28.61    2.16
   4  10 -13   24.82    2.14
  -4 -10  12    1.90    1.42
  -4 -10  11    6.76    1.43
   4  10 -11    3.74    1.71
  -4 -10  10   12.44    1.37
  -4 -10  10   16.14    1.49
   4  10 -10   13.10    1.58
  -4 -10   9    0.68    1.22
  -4 -10   9    1.04    1.05
   4  10  -9    1.95    1.66
  -4 -10   8    6.50    1.42
  -4 -10   8    6.84    1.34
   4  10  -8    7.55    1.64
  -4 -10   7   28.51    1.56
  -4 -10   7   28.65    1.54
   4  10  -7   31.41    2.25
  -4 -10   6   -0.33    1.26
  -4 -10   6    1.68    1.14
   4  10  -6    1.12    1.31
  -4 -10   5    3.62    1.39
  -4 -10   5    1.74    1.13
   4  10  -5    1.86    1.28
  -4 -10   4  100.63    4.85
  -4 -10   4  103.04    4.96
   4  10  -4  105.52    5.07
  -4 -10   3    8.88    1.40
  -4 -10   3    9.69    1.28
   4  10  -3   13.36    1.52
  -4 -10   2    0.33    1.25
  -4 -10   2   -0.03    1.03
   4  10  -2    0.92    1.46
  -4 -10   1   80.72    4.09
   4  10  -1   87.87    4.58
   4  10  -1   88.37    4.36
   4  10   0    1.46    1.41
   4  10   0    1.13    1.22
   4  10   1    3.50    1.46
   4  10   1    1.94    1.45
  -4 -10  -2   15.57    1.56
   4  10   2   14.46    1.62
   4  10   2   13.89    1.38
  -4 -10  -3    0.88    1.50
   4  10   3    2.24    1.63
   4  10   3    2.04    1.49
  -4 -10  -4   -0.55    1.52
   4  10   4    1.05    1.68
  -4 -10  -5   13.58    1.75
   4  10   5    7.52    1.81
  -4 -10  -6   -2.09    1.39
   4  10   6   -0.03    1.74
  -4 -10  -7    0.09    1.74
   4  10   7   -1.04    1.63
  -4 -10  -8    7.53    1.82
   4  10   8    3.59    1.93
  -4 -11  14    1.12    1.68
   4  11 -14   -0.71    1.97
  -4 -11  13    2.38    1.36
   4  11 -13    2.93    1.93
  -4 -11  12    6.15    1.50
  -4 -11  11    9.48    1.49
   4  11 -11    8.71    1.77
  -4 -11  10  110.95    7.65
  -4 -11  10  108.90    7.50
   4  11 -10  124.84    2.73
  -4 -11   9    2.52    1.45
  -4 -11   9    2.72    1.36
   4  11  -9    2.38    1.89
  -4 -11   8   -0.39    1.42
  -4 -11   8    2.07    1.32
   4  11  -8    1.67    1.43
  -4 -11   7   47.32    2.01
  -4 -11   7   47.00    1.85
   4  11  -7   45.47    1.81
  -4 -11   6   20.22    1.70
  -4 -11   6   19.60    1.38
   4  11  -6   19.95    1.83
  -4 -11   5    0.98    1.39
  -4 -11   5    0.30    1.21
   4  11  -5   -1.54    1.33
  -4 -11   4   10.74    2.68
  -4 -11   4   10.23    2.57
   4  11  -4   12.10    1.63
  -4 -11   3   28.56    1.85
  -4 -11   3   24.96    1.36
   4  11  -3   25.98    5.81
  -4 -11   2   44.83    1.93
   4  11  -2   51.94    2.13
  -4 -11   1    1.42    1.38
   4  11  -1    2.40    1.68
   4  11  -1    3.57    1.51
   4  11   0    4.16    1.47
   4  11   0    3.40    1.63
   4  11   1    0.51    1.71
   4  11   1    2.19    1.51
  -4 -11  -2   38.83    2.40
   4  11   2   41.51    2.49
   4  11   2   38.16    2.25
  -4 -11  -3    4.20    1.68
   4  11   3    3.80    1.77
   4  11   3    3.31    1.59
  -4 -11  -4   -0.84    1.67
   4  11   4   -1.28    1.73
  -4 -11  -5   21.81    2.09
   4  11   5   19.41    2.06
  -4 -11  -6   23.58    1.98
   4  11   6   24.14    2.06
  -4 -12  12   25.37    1.78
  -4 -12  11    1.32    1.53
  -4 -12  10    2.06    1.40
  -4 -12  10    1.73    1.59
   4  12 -10    3.73    1.65
  -4 -12   9    4.97    1.57
  -4 -12   9    7.39    1.48
   4  12  -9    2.68    1.80
  -4 -12   8   -0.38    1.33
  -4 -12   8   -1.34    1.33
   4  12  -8   -1.67    1.52
  -4 -12   7   10.41    1.75
  -4 -12   7   10.59    1.31
   4  12  -7   10.71    1.81
  -4 -12   6    4.89    1.56
  -4 -12   6    6.69    1.23
   4  12  -6    9.05    1.54
  -4 -12   5   17.22    1.83
  -4 -12   5   17.58    1.62
   4  12  -5   15.07    1.90
  -4 -12   4   39.20    2.31
  -4 -12   4   37.13    2.12
   4  12  -4   40.73    2.50
  -4 -12   3    2.63    1.58
  -4 -12   3    6.23    1.36
   4  12  -3    2.52    1.71
  -4 -12   2    2.20    1.34
   4  12  -2   -1.73    1.83
   4  12  -2    0.56    1.73
  -4 -12   1   16.50    1.61
   4  12  -1   18.82    2.08
   4  12  -1   20.58    2.35
   4  12   0    5.96    1.81
   4  12   0    7.68    1.46
  -4 -12  -1    7.66    1.74
   4  12   1   10.20    1.91
   4  12   1    6.93    1.79
  -4 -12  -2   -1.79    1.63
   4  12   2    0.53    1.79
   4  12   2   -0.26    1.71
  -4 -12  -3   17.86    1.76
   4  12   3   17.11    1.83
   4  12   3   17.31    1.87
  -4 -12  -4    3.31    1.89
   4  12   4    0.60    1.89
  -4 -13  10   26.33    1.94
  -4 -13  10   26.53    1.83
  -4 -13   9    0.03    1.74
  -4 -13   9    0.03    1.57
   4  13  -9    2.15    2.01
  -4 -13   8   14.95    1.82
  -4 -13   8   15.00    1.42
   4  13  -8   20.34    2.04
  -4 -13   7    1.44    1.74
  -4 -13   7    1.73    1.46
   4  13  -7   -0.17    2.01
  -4 -13   6   17.37    1.79
  -4 -13   6   17.55    1.76
   4  13  -6   19.90    2.22
  -4 -13   5   -0.53    1.77
  -4 -13   5    1.66    1.35
   4  13  -5    1.99    1.86
  -4 -13   4   -0.50    1.71
  -4 -13   4   -1.13    1.12
   4  13  -4   -0.89    1.62
  -4 -13   3   15.51    1.66
   4  13  -3   19.70    2.25
   4  13  -3   18.30    2.14
  -4 -13   2    3.19    1.70
   4  13  -2    0.21    1.83
   4  13  -2   -0.63    1.77
  -4 -13   1   14.13    1.89
   4  13  -1   19.64    2.05
   4  13  -1   18.66    1.90
   4  13   0    0.18    1.82
   4  13   0    0.77    1.59
  -4 -13  -1    3.67    1.65
   4  13   1    4.10    1.97
   4  13   1    5.51    1.81
  -4 -13  -2   -0.15    1.91
   4  13   2   -0.38    1.86
   4  13   2    1.78    1.95
  -4 -14   6    0.77    1.78
   4  14  -6   -1.02    1.80
  -4 -14   5   23.39    1.89
   4  14  -5   26.27    2.30
  -4 -14   4   -1.45    1.63
   4  14  -4    0.47    1.70
   4  14  -4   -2.52    1.88
  -4 -14   3    0.51    1.90
   4  14  -3    1.21    1.89
   4  14  -3   -1.09    1.97
   5 -14   0    3.16    1.75
   5 -14   1    0.22    1.68
  -5  14  -1    1.90    1.81
   5 -14   2    4.54    1.75
  -5  14  -2    4.25    1.74
   5 -14   3    3.17    1.79
  -5  13   4    6.18    1.87
  -5  13   3    0.50    1.76
  -5  13   2    4.72    1.94
   5 -13  -1   35.99    1.94
  -5  13   1   36.24    2.22
   5 -13   0   14.68    1.64
  -5  13   0   15.45    1.80
   5 -13   1    2.83    1.39
  -5  13  -1    2.15    1.69
   5 -13   2    4.09    1.46
  -5  13  -2    3.86    1.53
   5 -13   3    7.34    1.65
   5 -13   4    9.39    1.75
   5 -13   5    5.79    1.87
   5 -13   6    1.48    1.60
   5 -13   7   -0.66    1.82
  -5  12   7   14.27    1.92
  -5  12   6   20.25    1.93
  -5  12   5   13.95    1.94
  -5  12   4   23.84    2.31
  -5  12   3   16.62    1.81
  -5  12   2   -0.65    1.45
   5 -12  -1   11.43    1.45
  -5  12   1   13.27    1.50
   5 -12   0    6.80    1.54
  -5  12   0    6.75    1.44
   5 -12   1    4.64    1.47
  -5  12  -1    4.11    1.37
   5 -12   2    3.61    1.37
  -5  12  -2    2.36    1.43
   5 -12   3   27.80    2.50
   5 -12   4   -0.97    1.54
   5 -12   5   11.98    1.56
   5 -12   6   27.93    2.37
   5 -12   7    0.48    1.71
   5 -12   8    2.89    1.67
   5 -12   9   16.09    1.89
  -5  11   8   -0.52    1.67
  -5  11   7    1.50    1.85
  -5  11   6    2.68    1.79
  -5  11   5    5.66    1.52
  -5  11   4   10.55    1.81
  -5  11   3    7.18    1.71
   5 -11  -2   10.84    1.42
  -5  11   2    9.62    1.64
   5 -11  -1    5.11    1.31
  -5  11   1   11.00    1.54
   5 -11   0   36.58    1.71
  -5  11   0   36.72    1.69
   5 -11   1   18.58    1.56
  -5  11  -1   18.02    1.60
   5 -11   2    0.33    1.35
  -5  11  -2   -1.62    1.32
   5 -11   3    4.14    1.57
  -5  11  -3    1.52    1.31
   5 -11   4   11.30    1.63
   5 -11   5    3.33    1.60
   5 -11   6    3.44    1.58
   5 -11   7    7.23    1.64
   5 -11   8   -1.25    1.60
   5 -11   9   -0.77    1.45
   5 -11  11    4.63    1.54
  -5  10  10   -1.64    1.56
  -5  10   9    8.32    1.89
  -5  10   8    0.51    1.57
  -5  10   7   -0.27    1.68
  -5  10   6    1.27    1.77
  -5  10   5   54.17    2.23
  -5  10   4   13.14    1.75
  -5  10   3    5.61    1.64
   5 -10  -2   88.38    2.49
  -5  10   2   94.05    2.88
   5 -10  -1   13.37    1.41
  -5  10   1   13.96    1.51
   5 -10   0   11.94    1.56
  -5  10   0    8.71    1.52
   5 -10   1   -0.89    1.35
  -5  10  -1    1.53    1.25
   5 -10   2    3.42    1.55
  -5  10  -2    1.12    1.39
   5 -10   3   16.10    1.47
  -5  10  -3   15.25    1.35
   5 -10   4    9.43    1.45
   5 -10   5    0.13    1.25
   5 -10   6   28.86    1.79
   5 -10   7   51.60    1.79
   5 -10   8    1.85    1.36
   5 -10  11   24.85    1.78
   5 -10  12    5.65    1.69
  -5   9  10   -0.25    1.69
  -5   9   9   13.63    1.86
  -5   9   8   11.48    1.60
  -5   9   7   -1.68    1.54
  -5   9   6    1.80    1.56
  -5   9   5    5.92    1.53
  -5   9   4   -0.03    1.22
  -5   9   3    4.03    1.35
   5  -9  -2   10.50    1.12
  -5   9   2   12.47    1.56
   5  -9  -1    9.44    1.21
  -5   9   1    9.74    1.39
   5  -9   0   47.42    2.44
  -5   9   0   47.91    2.52
   5  -9   1   45.00    2.34
  -5   9  -1   42.19    2.33
   5  -9   2   12.64    1.45
  -5   9  -2   10.45    1.22
   5  -9   3   -0.39    1.25
  -5   9  -3    1.57    1.13
   5  -9   4   23.01    1.58
   5  -9   5   14.18    1.80
   5  -9   6   13.50    1.50
   5  -9   7    2.27    1.52
   5  -9   8   24.90    1.71
   5  -9  11   13.89    1.72
   5  -9  12   -0.53    1.71
   5  -9  13   20.47    1.94
  -5   8  10    0.23    1.44
  -5   8   9   16.76    1.68
  -5   8   8   11.93    1.59
  -5   8   7   -0.69    1.53
  -5   8   6   20.30    1.64
  -5   8   5    4.25    1.35
  -5   8   4    1.48    1.15
  -5   8   3   35.20    2.17
   5  -8  -2   60.79    3.19
  -5   8   2   62.66    3.48
   5  -8  -1   10.80    1.22
  -5   8   1   11.18    1.38
   5  -8   0   24.04    1.70
  -5   8   0   23.17    1.65
   5  -8   1   21.11    1.65
  -5   8  -1   21.64    1.72
   5  -8   2   55.63    2.99
  -5   8  -2   53.99    3.02
   5  -8   3   44.63    1.73
  -5   8  -3   41.75    2.02
   5  -8   4   91.49    4.15
   5  -8   5    4.78    1.33
   5  -8   6    6.10    1.35
   5  -8   7   14.53    1.50
   5  -8   8   21.04    1.68
   5  -8  10   -0.37    1.52
   5  -8  11   40.57    3.22
   5  -8  12    8.82    1.55
   5  -8  13    0.13    1.64
  -5   7  13    3.65    1.77
  -5   7  10    1.75    1.58
  -5   7   9   97.70    3.42
  -5   7   8   -0.51    1.40
  -5   7   7    1.42    1.26
  -5   7   6   -0.77    1.29
  -5   7   5    2.01    1.34
  -5   7   4   49.03    2.87
   5  -7  -3   88.85    3.26
  -5   7   3   93.88    3.73
   5  -7  -2    7.41    1.14
  -5   7   2    4.57    1.20
   5  -7  -1   26.61    1.64
  -5   7   1   22.43    1.59
   5  -7   0  196.17    5.69
  -5   7   0  199.11    5.89
   5  -7   1   15.42    1.21
  -5   7  -1   14.35    1.22
   5  -7   2    5.29    1.18
  -5   7  -2    4.16    1.09
   5  -7   3   35.30    1.88
  -5   7  -3   34.41    1.83
   5  -7   4    3.26    1.24
   5  -7   5    0.21    1.32
   5  -7   6   10.74    1.39
   5  -7   7  116.57    4.45
   5  -7   8    1.13    1.40
   5  -7  10   16.77    1.60
   5  -7  11    4.35    1.57
   5  -7  12   -0.90    1.62
   5  -7  13   18.89    1.88
   5  -7  14    0.53    1.69
  -5   6  14   13.48    1.89
  -5   6  13    1.82    1.45
  -5   6  10   -0.66    1.38
  -5   6   9    3.37    1.35
  -5   6   8    1.85    1.07
  -5   6   7    3.09    1.27
  -5   6   6   30.72    1.91
  -5   6   5   32.73    1.85
  -5   6   4   45.93    2.40
   5  -6  -3   62.28    2.78
  -5   6   3   63.66    1.92
   5  -6  -2  126.60    3.87
  -5   6   2  119.91    4.18
   5  -6  -1    2.02    1.00
  -5   6   1    3.85    1.00
   5  -6   0   10.50    1.18
  -5   6   0   13.08    1.30
   5  -6   1   68.72    3.45
  -5   6  -1   75.81    3.75
   5  -6   2    3.29    0.98
  -5   6  -2    3.75    0.96
   5  -6   3   46.08    2.29
   5  -6   4    1.43    1.22
   5  -6   5    5.32    1.11
   5  -6   6   17.51    1.51
   5  -6   7   54.28    2.72
   5  -6  10   61.09    2.16
   5  -6  11   16.37    1.75
   5  -6  12   10.31    1.61
   5  -6  13   35.88    2.43
   5  -6  14   -0.21    1.73
  -5   5  15    1.12    1.62
  -5   5  14   -1.48    1.62
  -5   5  13    3.32    1.41
  -5   5  10    8.19    1.51
  -5   5   9   21.12    1.38
  -5   5   8   78.74    3.75
  -5   5   7    8.06    1.35
  -5   5   6    1.92    1.10
  -5   5   5   83.51    3.01
  -5   5   4    0.85    0.97
   5  -5  -3    7.19    0.93
  -5   5   3    7.39    1.06
   5  -5  -2    3.14    0.98
  -5   5   2    2.79    0.94
   5  -5  -1    3.13    0.96
  -5   5   1    3.89    0.92
   5  -5   0   68.83    3.23
  -5   5   0   58.27    3.20
   5  -5   1  136.70    5.60
  -5   5  -1  119.04    4.99
   5  -5   2   55.27    2.87
  -5   5  -2   52.27    2.63
   5  -5   3    0.55    1.14
   5  -5   4  170.82    5.20
   5  -5   5   15.47    1.23
   5  -5   6   91.57    3.42
   5  -5   7   47.13    1.74
   5  -5  10    3.09    1.55
   5  -5  10   -0.13    0.94
   5  -5  11   10.31    1.69
   5  -5  11    8.43    1.29
   5  -5  12    8.08    1.47
   5  -5  12   12.01    1.46
   5  -5  13    5.85    1.70
   5  -5  13    2.67    1.36
   5  -5  14    5.41    1.76
   5  -5  14    2.91    1.32
  -5   4  15   -0.45    1.64
  -5   4  14   41.14    2.75
  -5   4  13   13.74    1.53
  -5   4  10    5.17    1.30
  -5   4   9    1.84    1.20
  -5   4   8    3.10    1.19
  -5   4   7    5.68    0.83
  -5   4   7    6.23    1.11
  -5   4   6   -0.28    0.74
  -5   4   6   -0.10    0.97
  -5   4   5   15.21    1.18
  -5   4   5   14.13    1.38
  -5   4   4   66.72    2.85
  -5   4   4   63.57    2.90
   5  -4  -3   25.48    1.74
  -5   4   3   26.41    1.62
  -5   4   3   25.37    1.68
   5  -4  -2    9.25    1.03
  -5   4   2    9.31    0.92
   5  -4  -1  140.82    5.96
  -5   4   1  126.29    5.22
   5  -4   0  112.14    4.94
  -5   4   0  103.99    4.40
   5  -4   1    7.16    1.26
  -5   4  -1    5.16    1.07
   5  -4   2   11.76    1.42
  -5   4  -2   10.37    1.10
   5  -4   3  107.85    4.64
   5  -4   4   45.88    2.83
   5  -4   4   48.14    2.78
   5  -4   5    2.89    0.89
   5  -4   6    8.45    1.01
   5  -4   7    5.36    1.03
   5  -4   8    9.97    1.06
   5  -4   9   67.74    2.77
   5  -4  10    7.27    1.40
   5  -4  10    5.26    1.27
   5  -4  11   -2.12    1.49
   5  -4  11    0.36    1.24
   5  -4  12   70.12    3.11
   5  -4  12   70.89    3.03
   5  -4  13    4.96    1.50
   5  -4  13    6.96    1.27
   5  -4  14    3.80    1.74
   5  -4  14    2.30    1.44
  -5   3  16    1.57    1.49
  -5   3  15   -0.20    1.46
  -5   3  14    4.61    1.50
  -5   3  13    0.05    1.15
  -5   3  13   -2.51    1.30
  -5   3  12   23.09    1.25
  -5   3  11   -0.02    0.93
  -5   3  10   48.00    2.41
  -5   3  10   45.97    2.49
  -5   3   9    9.31    0.97
  -5   3   9   10.38    1.18
  -5   3   8    9.48    0.98
  -5   3   8    9.51    1.20
  -5   3   7   41.21    1.95
  -5   3   7   43.22    2.30
  -5   3   6  144.67    6.38
  -5   3   6  153.59    6.98
  -5   3   5    0.96    0.76
  -5   3   5    1.10    0.96
   5  -3  -4    8.92    0.94
  -5   3   4    9.10    0.87
  -5   3   4    8.07    1.08
   5  -3  -3   19.22    1.43
  -5   3   3   19.86    1.30
  -5   3   3   19.89    1.51
   5  -3  -2   59.94    3.26
  -5   3   2   60.60    3.04
  -5   3   2   57.94    3.10
   5  -3  -1   17.03    1.38
   5  -3  -1   19.12    1.36
  -5   3   1   16.45    1.19
   5  -3   0    5.93    0.89
  -5   3   0    5.82    0.81
  -5   3  -1   17.50    1.77
   5  -3   1   19.37    1.64
  -5   3  -1   15.44    1.26
  -5   3  -2   62.86    3.20
   5  -3   2   67.58    3.45
  -5   3  -2   53.87    2.69
  -5   3  -3   42.98    2.57
   5  -3   3   42.66    2.50
  -5   3  -4    3.20    1.10
   5  -3   4    2.90    0.93
   5  -3   5    0.00    0.89
  -5   3  -6  101.83    3.40
   5  -3   6   98.63    3.31
  -5   3  -7   31.72    1.93
   5  -3   7   27.72    1.68
  -5   3  -8   -0.91    1.15
   5  -3   8   -0.16    1.17
  -5   3  -9   38.72    2.16
   5  -3   9   38.41    2.05
  -5   3 -10   47.20    2.69
   5  -3  10   46.51    2.57
  -5   3 -11   -1.26    1.42
   5  -3  11    0.70    1.33
  -5   3 -12   -0.04    1.37
   5  -3  12    0.68    1.39
  -5   3 -13   11.55    1.84
   5  -3  13   12.35    1.64
   5  -3  14    3.87    1.73
   5  -3  14    3.43    1.37
  -5   2  16    6.18    1.41
  -5   2  16    7.88    1.45
  -5   2  15   12.22    1.46
  -5   2  15   11.75    1.65
  -5   2  14    9.89    1.32
  -5   2  14   11.85    1.57
  -5   2  13    3.52    1.13
  -5   2  13    5.80    1.39
  -5   2  12   55.47    2.93
  -5   2  11   11.21    1.06
  -5   2  10   -0.21    0.88
  -5   2  10    0.02    0.93
  -5   2   9   -0.38    0.96
  -5   2   9    1.17    1.05
  -5   2   8  102.88    3.24
  -5   2   8  103.87    3.47
  -5   2   7   12.41    1.10
  -5   2   7   14.59    1.35
  -5   2   6   50.36    2.75
  -5   2   6   45.17    2.57
  -5   2   5    1.87    0.80
  -5   2   5    3.19    0.91
   5  -2  -4   23.20    1.53
  -5   2   4   25.38    1.55
  -5   2   4   22.63    1.52
  -5   2   3  119.59    5.27
  -5   2   3  109.63    5.05
  -5   2   2    1.14    0.80
  -5   2   2    1.63    0.67
  -5   2   2    1.23    0.72
  -5   2   1   60.44    3.03
   5  -2  -1   63.83    3.22
  -5   2   1   54.83    2.70
  -5   2   0  129.67    5.90
   5  -2   0  128.98    6.11
  -5   2   0  106.02    4.73
  -5   2  -1  124.85    5.96
   5  -2   1  128.82    6.25
  -5   2  -2   58.34    3.10
   5  -2   2   60.53    3.18
  -5   2  -3    1.01    1.07
   5  -2   3    1.35    0.91
   5  -2   4   68.17    3.33
   5  -2   5   69.97    3.56
  -5   2  -6   24.58    1.40
   5  -2   6   22.79    1.29
  -5   2  -7    2.43    1.06
   5  -2   7    3.57    1.18
  -5   2  -8   16.62    1.50
   5  -2   8   16.70    1.41
  -5   2  -9   28.87    1.87
   5  -2   9   27.04    1.72
  -5   2 -10   27.71    1.78
   5  -2  10   24.65    1.53
  -5   2 -11   21.96    1.72
   5  -2  11   20.75    1.55
  -5   2 -12   35.61    2.33
   5  -2  12   32.90    2.06
  -5   2 -13   37.76    2.68
   5  -2  13   36.14    2.42
  -5   2 -14   13.23    1.92
   5  -2  14   13.76    1.66
  -5   1  17   18.33    1.63
  -5   1  17   19.76    1.78
  -5   1  16    1.33    1.18
  -5   1  16    0.62    1.49
  -5   1  15   13.46    1.48
  -5   1  15   14.04    1.61
  -5   1  14    0.74    1.24
  -5   1  14    3.43    1.24
  -5   1  13    2.73    1.17
  -5   1  13    3.50    1.24
  -5   1  12   16.13    1.28
  -5   1  11    0.31    1.00
  -5   1  10    8.44    1.07
  -5   1  10    8.53    1.12
  -5   1   9  197.09    6.36
  -5   1   9  196.83    6.41
  -5   1   8   41.80    2.02
  -5   1   8   44.42    2.12
  -5   1   7   46.63    2.68
  -5   1   7   48.87    2.80
  -5   1   6   13.82    1.17
  -5   1   6   12.44    1.12
  -5   1   5  147.88    6.54
  -5   1   5  143.50    6.55
  -5   1   4   50.38    2.67
  -5   1   4   53.99    2.71
  -5   1   4   52.94    2.78
  -5   1   3   31.86    1.83
  -5   1   3   34.72    1.85
  -5   1   3   34.43    1.92
  -5   1   2   30.04    2.00
  -5   1   2   32.27    1.87
  -5   1   2   27.35    1.80
  -5   1   1   32.80    2.35
  -5   1   1   24.19    1.80
  -5   1   0   63.23    3.07
   5  -1   0   58.60    2.96
   5  -1   0   56.47    2.73
  -5   1  -1   30.54    1.93
   5  -1   1   30.05    1.88
  -5   1  -2   14.88    2.16
   5  -1   2   19.47    1.88
  -5   1  -3   44.60    2.66
   5  -1   3   43.87    2.64
   5  -1   4    3.80    1.02
   5  -1   5   47.91    2.94
  -5   1  -6   -1.04    1.23
   5  -1   6    0.32    1.10
  -5   1  -7   32.86    1.95
   5  -1   7   28.91    1.76
  -5   1  -8   37.05    2.05
   5  -1   8   37.78    2.03
  -5   1  -9   14.79    1.47
   5  -1   9   16.26    1.43
  -5   1 -10   80.87    4.09
   5  -1  10   81.71    4.03
  -5   1 -11   20.78    1.71
   5  -1  11   20.51    1.58
  -5   1 -12    9.38    1.77
   5  -1  12   10.06    1.60
  -5   1 -13    2.73    1.64
   5  -1  13    3.78    1.55
  -5   1 -14    1.85    1.58
   5  -1  14    2.77    1.44
  -5   0  17   11.16    1.41
  -5   0  17   16.59    1.73
  -5   0  16   32.16    2.27
  -5   0  16   27.07    1.98
  -5   0  15    4.96    1.31
  -5   0  15    3.87    1.14
  -5   0  14   76.66    2.27
  -5   0  14   76.69    2.02
  -5   0  13   65.33    2.21
  -5   0  13   63.58    2.11
  -5   0  12    2.69    1.14
  -5   0  12    5.48    1.15
  -5   0  11    7.64    1.12
  -5   0  10   32.55    1.69
  -5   0  10   31.45    1.61
  -5   0   9   52.41    2.37
  -5   0   9   52.61    2.40
  -5   0   8   23.69    1.59
  -5   0   8   23.96    1.67
  -5   0   7   20.41    1.52
  -5   0   6   79.33    3.34
  -5   0   6   73.98    3.22
  -5   0   5    2.85    0.89
  -5   0   5    3.72    0.82
  -5   0   5    3.89    0.98
  -5   0   4  161.18    7.20
  -5   0   4  178.36    7.72
  -5   0   4  183.29    7.99
  -5   0   3    5.33    0.99
  -5   0   3    6.40    0.82
  -5   0   3    4.76    0.79
  -5   0   2    4.34    0.94
  -5   0   2    3.66    0.81
   5   0  -2    2.39    1.08
  -5   0   1  172.94    6.67
  -5   0   1  169.87    6.42
   5   0  -1  165.46    6.54
  -5   0   0  174.70    6.64
   5   0   0  168.20    6.96
   5   0   0  151.87    5.74
  -5   0  -1   26.86    1.79
   5   0   1   25.84    1.80
  -5   0  -2    1.88    1.20
   5   0   2   -0.11    1.04
  -5   0  -3  114.30    4.81
   5   0   3  116.73    5.23
   5   0   4    2.41    1.07
  -5   0  -5   20.15    1.69
   5   0   5   20.39    1.66
  -5   0  -6    0.68    1.17
   5   0   6    0.00    1.01
  -5   0  -7    7.06    1.15
   5   0   7    6.94    1.25
  -5   0  -8    9.96    1.36
   5   0   8   11.40    1.34
  -5   0  -9    3.12    1.35
   5   0   9    0.65    1.36
  -5   0 -10    6.29    1.39
   5   0  10    5.15    1.57
  -5   0 -11   -0.63    1.25
   5   0  11    0.69    1.47
  -5   0 -12   45.60    3.56
   5   0  12   45.95    3.54
  -5   0 -13   11.70    1.58
   5   0  13   10.02    1.78
  -5   0 -14    3.38    1.60
   5   0  14    1.18    1.77
  -5  -1  17    4.74    1.39
   5   1 -17    8.58    1.85
  -5  -1  16   30.01    2.19
   5   1 -16   24.32    2.31
  -5  -1  15   30.21    1.81
  -5  -1  15   30.77    1.89
  -5  -1  14    1.06    1.28
  -5  -1  14   -0.19    1.29
  -5  -1  13   11.91    1.53
  -5  -1  13    8.08    1.28
  -5  -1  12    5.90    1.20
  -5  -1  12    4.85    1.18
  -5  -1  11   23.14    1.61
  -5  -1  10   12.66    1.13
  -5  -1  10   13.40    1.12
  -5  -1   9    4.04    0.99
  -5  -1   9    2.46    0.96
  -5  -1   8   69.70    3.35
  -5  -1   8   74.59    3.53
  -5  -1   7  147.40    5.80
  -5  -1   7  150.94    6.00
  -5  -1   6  361.10   13.59
   5   1  -6  349.35   13.50
  -5  -1   5   20.57    1.52
  -5  -1   5   21.81    1.47
   5   1  -5   23.43    1.64
  -5  -1   4   10.61    1.09
  -5  -1   4    9.25    1.08
   5   1  -4   13.17    1.41
  -5  -1   3  215.96    9.51
  -5  -1   3  217.38    9.50
   5   1  -3  218.49    9.59
  -5  -1   2   31.14    2.01
  -5  -1   2   24.87    1.64
   5   1  -2   31.44    2.23
  -5  -1   1   79.09    3.48
  -5  -1   1   66.93    3.21
   5   1  -1   70.14    3.14
  -5  -1   0    7.45    1.06
   5   1   0    6.97    0.98
   5   1   0    6.92    0.87
  -5  -1  -1    9.20    1.58
   5   1   1    7.79    1.77
  -5  -1  -2   37.49    2.23
   5   1   2   39.89    2.34
  -5  -1  -3   42.88    2.58
   5   1   3   43.29    2.61
   5   1   4    0.22    1.11
  -5  -1  -5    2.60    1.15
   5   1   5    2.41    1.16
  -5  -1  -6  340.77   10.71
   5   1   6  341.22    5.35
  -5  -1  -7   -0.22    1.22
   5   1   7    0.05    1.35
  -5  -1  -8    0.80    1.30
   5   1   8    0.65    1.12
  -5  -1  -9   51.38    2.76
   5   1   9   55.93    3.04
  -5  -1 -10   21.78    1.68
   5   1  10   23.39    1.64
  -5  -1 -11    1.26    1.35
   5   1  11    1.14    1.60
  -5  -1 -12   35.26    2.87
   5   1  12   33.86    2.92
  -5  -1 -13    1.09    1.47
   5   1  13    6.87    1.72
  -5  -1 -14   -0.09    1.69
   5   1  14    3.19    1.89
  -5  -2  17   12.16    1.57
   5   2 -17   16.06    2.00
  -5  -2  16   17.53    1.79
   5   2 -16   15.58    1.80
  -5  -2  15   54.37    2.64
  -5  -2  14   -0.13    1.26
  -5  -2  13   33.12    2.15
   5   2 -13   26.23    1.81
  -5  -2  12  262.87    9.39
   5   2 -12  284.55    5.41
  -5  -2  11   31.38    1.86
   5   2 -11   26.59    1.93
  -5  -2  10    0.59    1.05
   5   2 -10    0.71    1.30
  -5  -2   9  164.84    4.93
   5   2  -9  177.97    5.63
  -5  -2   8  135.07    6.15
   5   2  -8  152.65    6.98
  -5  -2   7   10.44    0.99
  -5  -2   7   10.79    0.87
   5   2  -7   14.73    1.43
  -5  -2   6    2.02    0.84
  -5  -2   6    1.73    0.90
   5   2  -6    3.38    1.11
  -5  -2   5   14.99    1.27
  -5  -2   5   16.36    1.40
   5   2  -5   16.57    1.53
  -5  -2   4   10.50    1.13
  -5  -2   4    9.42    1.03
   5   2  -4    9.71    1.42
  -5  -2   3  135.20    6.10
  -5  -2   3  137.46    6.16
   5   2  -3  140.68    6.40
  -5  -2   2   19.18    1.49
  -5  -2   2   18.65    1.34
   5   2  -2   19.71    1.40
  -5  -2   1   15.90    1.34
  -5  -2   1   14.48    1.20
   5   2  -1   15.55    1.30
  -5  -2   0  150.54    6.73
   5   2   0  146.36    7.05
   5   2   0  137.82    6.29
  -5  -2  -1   88.33    4.17
   5   2   1   87.20    4.34
  -5  -2  -2   70.11    3.10
   5   2   2   73.48    3.40
   5   2   3   48.95    2.91
   5   2   4  116.99    5.50
  -5  -2  -5  139.68    4.30
   5   2   5  151.51    4.79
  -5  -2  -6    5.45    1.08
   5   2   6    6.93    1.41
  -5  -2  -7   47.69    2.53
   5   2   7   48.39    2.54
  -5  -2  -8   -0.49    1.20
   5   2   8   -1.43    1.43
  -5  -2  -9    3.44    1.28
   5   2   9    2.25    1.46
  -5  -2 -10    3.75    1.44
   5   2  10   -0.11    1.54
  -5  -2 -11    3.84    1.34
   5   2  11    5.43    1.69
  -5  -2 -12   25.84    2.03
   5   2  12   27.63    2.28
  -5  -2 -13   13.61    1.80
   5   2  13    8.86    1.85
  -5  -3  17    3.92    1.64
   5   3 -17   -0.01    1.88
  -5  -3  16    3.08    1.31
   5   3 -16   -0.11    1.56
  -5  -3  15    7.39    1.42
  -5  -3  14   38.26    1.75
  -5  -3  13   10.48    2.58
   5   3 -13    9.62    1.58
  -5  -3  12   21.66    1.27
   5   3 -12   21.34    1.61
  -5  -3  11   49.40    2.52
   5   3 -11   53.29    2.87
  -5  -3  10   -0.08    1.06
   5   3 -10    2.26    1.19
  -5  -3   9    1.30    0.98
   5   3  -9    0.89    1.10
  -5  -3   8   12.36    1.10
   5   3  -8   13.10    1.31
  -5  -3   7   21.01    1.55
  -5  -3   7   21.16    1.52
   5   3  -7   19.59    1.52
  -5  -3   6   34.70    2.15
  -5  -3   6   30.44    1.91
   5   3  -6   39.77    2.47
  -5  -3   5  126.61    5.21
  -5  -3   5  129.56    5.46
   5   3  -5  139.81    6.02
  -5  -3   4   86.12    3.75
  -5  -3   4   87.34    3.78
   5   3  -4   81.23    3.61
  -5  -3   3  103.10    4.80
  -5  -3   3   99.35    4.72
   5   3  -3  101.53    4.89
  -5  -3   2  113.22    5.24
  -5  -3   2  102.64    4.70
   5   3  -2  121.31    5.67
  -5  -3   1   14.30    1.54
  -5  -3   1   19.13    1.61
   5   3  -1   19.87    1.89
  -5  -3   0    3.40    1.06
   5   3   0    2.33    1.10
   5   3   0    3.22    0.99
  -5  -3  -1   15.46    1.48
   5   3   1   14.79    1.38
  -5  -3  -2    2.23    1.34
   5   3   2    1.60    1.17
   5   3   3   25.65    1.99
   5   3   4   -0.02    1.20
  -5  -3  -5    4.85    1.03
   5   3   5    4.21    1.31
  -5  -3  -6    3.44    1.27
   5   3   6    3.18    1.44
  -5  -3  -7   61.62    3.02
   5   3   7   58.13    2.90
  -5  -3  -8    4.27    1.46
   5   3   8    3.21    1.54
  -5  -3  -9    2.14    1.48
   5   3   9    3.20    1.36
  -5  -3 -10   50.84    2.50
   5   3  10   54.31    2.60
  -5  -3 -11   33.37    2.87
   5   3  11   34.32    3.03
  -5  -3 -12    2.51    1.70
   5   3  12    2.19    1.58
  -5  -3 -13   18.65    1.93
   5   3  13   16.88    1.90
  -5  -4  17    1.23    1.56
   5   4 -17    1.00    1.87
  -5  -4  16    5.55    1.35
   5   4 -16    4.03    1.93
  -5  -4  15   69.93    4.94
  -5  -4  14   27.11    1.62
  -5  -4  13   56.42    2.14
   5   4 -13   46.71    2.27
  -5  -4  12   10.01    1.38
   5   4 -12    8.38    1.40
  -5  -4  11   45.76    2.35
   5   4 -11   43.23    2.47
  -5  -4  10   58.49    3.19
   5   4 -10   48.67    2.80
  -5  -4   9   84.14    3.24
   5   4  -9   96.58    3.92
  -5  -4   8   62.18    2.88
   5   4  -8   59.31    2.81
  -5  -4   7   40.95    2.04
  -5  -4   7   43.19    2.22
   5   4  -7   42.79    2.24
  -5  -4   6   83.02    4.04
  -5  -4   6   83.31    4.12
   5   4  -6   88.82    4.78
  -5  -4   5   24.67    1.73
  -5  -4   5   27.03    1.91
   5   4  -5   24.23    1.95
  -5  -4   4    3.04    0.99
  -5  -4   4    5.84    1.06
   5   4  -4    5.60    1.29
  -5  -4   3    8.13    1.21
  -5  -4   3   10.49    1.40
   5   4  -3   11.05    1.84
  -5  -4   2   51.84    3.03
   5   4  -2   54.81    3.23
  -5  -4   1   35.74    2.25
   5   4  -1   32.34    2.11
  -5  -4   0   25.15    1.86
   5   4   0   20.96    1.68
   5   4   0   20.56    1.57
  -5  -4  -1   29.66    1.99
   5   4   1   29.99    2.14
  -5  -4  -2   17.74    1.41
   5   4   2   16.80    1.46
   5   4   3   41.67    2.36
  -5  -4  -4   42.28    2.24
   5   4   4   42.56    2.27
  -5  -4  -5   88.21    4.46
   5   4   5   78.52    4.05
  -5  -4  -6   43.41    2.46
   5   4   6   46.63    2.64
  -5  -4  -7    8.19    1.48
   5   4   7    7.47    1.47
  -5  -4  -8    1.65    1.24
   5   4   8    2.31    1.57
  -5  -4  -9   23.46    1.71
   5   4   9   21.04    1.58
  -5  -4 -10    0.72    1.44
   5   4  10    2.99    1.49
  -5  -4 -11   -0.16    1.60
   5   4  11   -0.78    1.81
  -5  -4 -12    3.67    1.64
   5   4  12    3.13    1.69
  -5  -5  17   11.50    1.56
   5   5 -17   13.14    1.85
  -5  -5  16   11.77    1.67
   5   5 -16    8.80    1.67
  -5  -5  15   53.30    4.02
  -5  -5  14    2.71    1.20
  -5  -5  13    0.54    1.11
   5   5 -13   -0.36    1.32
  -5  -5  12   94.72    4.73
   5   5 -12   84.50    4.37
  -5  -5  11    0.76    0.95
   5   5 -11    0.54    1.26
  -5  -5  10    0.78    1.01
   5   5 -10    1.49    1.16
   5   5  -9   12.59    1.35
  -5  -5   8    0.82    0.86
   5   5  -8    2.32    1.10
  -5  -5   7   32.16    1.75
   5   5  -7   32.35    1.98
  -5  -5   6   67.63    2.40
   5   5  -6   68.84    2.74
  -5  -5   5   11.71    1.12
   5   5  -5   10.45    1.38
  -5  -5   4   24.74    1.73
   5   5  -4   27.37    1.95
  -5  -5   3  127.83    5.89
   5   5  -3  133.57    6.40
  -5  -5   2    5.98    1.14
   5   5  -2    7.08    1.19
  -5  -5   1   18.07    1.49
  -5  -5   1   17.43    1.40
   5   5  -1   17.56    1.53
  -5  -5   0   27.88    1.99
   5   5   0   18.17    1.61
   5   5   0   22.35    1.76
  -5  -5  -1   13.93    1.47
   5   5   1   13.20    1.61
  -5  -5  -2   -1.75    1.19
   5   5   2   -0.80    1.21
   5   5   3    2.03    1.34
  -5  -5  -4    6.37    1.41
   5   5   4    6.31    1.27
  -5  -5  -5    4.73    1.34
   5   5   5    4.55    1.33
  -5  -5  -6   14.22    1.35
   5   5   6   14.78    1.61
  -5  -5  -7    0.42    1.47
  -5  -5  -8    1.86    1.36
  -5  -5  -9   35.81    2.23
  -5  -5 -10   -1.27    1.64
  -5  -5 -11    2.97    1.70
  -5  -6  16   16.28    1.52
   5   6 -16   18.52    2.00
   5   6 -13   38.04    2.06
   5   6 -12   36.37    1.88
   5   6 -11   21.80    1.65
   5   6 -10    6.58    1.30
   5   6  -9  174.27    7.83
  -5  -6   8   16.72    1.22
   5   6  -8   15.86    1.53
  -5  -6   7   -0.54    0.91
  -5  -6   7   -1.11    1.04
   5   6  -7    0.06    1.28
  -5  -6   6   39.54    2.02
  -5  -6   6   40.36    2.12
   5   6  -6   37.30    2.13
  -5  -6   5    4.97    1.07
  -5  -6   5    4.50    1.00
   5   6  -5    4.47    1.30
  -5  -6   4    1.00    1.00
  -5  -6   4   -1.71    0.84
   5   6  -4    0.52    1.19
  -5  -6   3    2.10    1.08
   5   6  -3    1.00    1.15
  -5  -6   2   14.42    1.67
  -5  -6   2   15.64    1.72
   5   6  -2   14.12    2.20
  -5  -6   1   48.74    2.45
  -5  -6   1   39.26    2.00
   5   6  -1   41.76    2.24
  -5  -6   0   92.50    3.47
   5   6   0   87.43    3.76
   5   6   0   88.83    3.41
  -5  -6  -1   16.83    1.49
  -5  -6  -4   12.24    1.52
  -5  -6  -5    9.25    1.65
  -5  -6  -6   33.29    1.90
  -5  -6  -7   44.45    2.04
  -5  -6  -8    0.32    1.45
  -5  -6  -9   -0.11    1.61
   5   6   9    1.74    1.75
  -5  -6 -10    0.09    1.69
   5   6  10    2.57    1.87
  -5  -6 -11    1.22    1.69
   5   6  11   -1.32    2.01
   5   7 -16   -1.16    1.59
  -5  -7  13   20.74    1.75
   5   7 -13   20.23    1.82
  -5  -7  12    5.02    1.23
   5   7 -12    5.01    1.64
  -5  -7  11   11.75    1.42
   5   7 -11   11.92    1.66
  -5  -7  10    5.43    1.40
   5   7 -10    3.96    1.55
  -5  -7   9    1.51    1.21
   5   7  -9    0.32    1.39
  -5  -7   8    8.66    1.04
  -5  -7   8    8.63    1.19
   5   7  -8   10.32    1.45
  -5  -7   7   17.12    1.47
  -5  -7   7   16.98    1.42
   5   7  -7   15.57    1.60
  -5  -7   6  107.81    5.30
  -5  -7   6  109.72    5.51
   5   7  -6   94.23    4.85
  -5  -7   5   31.77    1.77
  -5  -7   5   31.27    1.82
   5   7  -5   31.03    1.89
  -5  -7   4    4.53    1.17
  -5  -7   4    6.53    1.09
   5   7  -4    6.59    1.41
  -5  -7   3  136.27    6.53
  -5  -7   3  136.36    6.58
   5   7  -3  145.05    7.09
  -5  -7   2   36.19    2.02
  -5  -7   2   37.62    1.99
   5   7  -2   33.83    1.93
  -5  -7   1   25.56    1.72
  -5  -7   1   25.29    1.64
   5   7  -1   23.50    1.62
  -5  -7   0   18.10    1.40
   5   7   0   14.98    1.39
  -5  -7  -1   18.84    1.66
   5   7   2   12.85    1.40
   5   7   3    0.68    1.24
  -5  -7  -4    4.07    1.34
   5   7   4    5.93    1.74
  -5  -7  -5    3.01    1.53
   5   7   5    2.20    1.40
  -5  -7  -6    9.65    1.63
   5   7   6   10.22    1.59
  -5  -7  -7    8.98    1.54
   5   7   7    7.26    1.70
  -5  -7  -8   33.81    2.40
   5   7   8   40.54    2.86
  -5  -7  -9    2.86    1.75
   5   7   9    0.51    1.92
  -5  -7 -10   14.99    1.88
   5   7  10   14.08    2.09
  -5  -8  15   35.83    2.10
  -5  -8  14    0.80    1.27
  -5  -8  13    2.81    1.55
   5   8 -13    4.45    1.64
  -5  -8  12   15.22    1.64
   5   8 -12   12.46    1.83
  -5  -8  11   49.71    1.80
   5   8 -11   51.02    2.12
  -5  -8  10  114.12    3.16
   5   8 -10  115.71    3.62
  -5  -8   9    4.86    1.35
   5   8  -9    8.25    1.48
  -5  -8   8   58.18    3.10
  -5  -8   8   57.19    3.06
   5   8  -8   62.94    3.43
  -5  -8   7  179.12    6.54
  -5  -8   7  188.40    6.92
   5   8  -7  189.96    6.98
  -5  -8   6   31.72    1.75
  -5  -8   6   29.40    1.70
   5   8  -6   32.66    2.03
  -5  -8   5   -0.10    1.07
  -5  -8   5   -1.17    0.89
   5   8  -5   -0.12    1.27
  -5  -8   4    2.60    1.17
  -5  -8   4    1.91    0.97
   5   8  -4    0.06    1.12
  -5  -8   3   16.07    1.44
  -5  -8   3   17.04    1.46
   5   8  -3   14.00    1.31
  -5  -8   2    2.40    1.31
  -5  -8   2    5.01    1.24
   5   8  -2    2.19    1.40
  -5  -8   1    5.17    1.32
   5   8  -1    2.38    1.27
   5   8  -1    5.20    1.28
  -5  -8   0   21.42    1.58
   5   8   0   19.32    1.56
   5   8   0   19.45    1.40
  -5  -8  -1    0.74    1.36
   5   8   1    1.93    1.35
   5   8   2   25.09    1.85
  -5  -8  -3   -2.15    1.24
   5   8   3   -1.24    1.61
  -5  -8  -4    3.90    1.51
   5   8   4    2.20    1.69
  -5  -8  -5   34.46    2.14
   5   8   5   38.42    2.41
  -5  -8  -6   12.92    1.74
   5   8   6   14.86    1.85
  -5  -8  -7    0.14    1.78
   5   8   7    5.83    1.92
  -5  -8  -8    2.68    1.79
   5   8   8    7.07    1.98
  -5  -8  -9    6.04    1.91
   5   8   9   11.17    1.98
  -5  -9  15   -0.72    1.53
  -5  -9  14   -0.11    1.68
  -5  -9  13   65.33    3.62
   5   9 -13   63.26    3.69
  -5  -9  12   16.82    1.46
   5   9 -12   18.27    1.95
  -5  -9  11    0.73    1.46
   5   9 -11    2.37    1.73
  -5  -9  10   15.90    1.57
   5   9 -10   20.54    1.94
  -5  -9   9    8.24    1.31
  -5  -9   9    5.33    1.24
   5   9  -9    5.43    1.67
  -5  -9   8   -0.96    1.15
  -5  -9   8    0.63    1.33
   5   9  -8   -2.49    1.55
  -5  -9   7    0.08    1.15
  -5  -9   7    0.00    1.03
   5   9  -7    0.78    1.29
  -5  -9   6    2.02    1.27
  -5  -9   6    0.61    1.10
   5   9  -6    2.81    1.52
  -5  -9   5    0.91    1.12
  -5  -9   5    2.05    1.36
   5   9  -5    3.49    1.29
  -5  -9   4  121.99    5.70
  -5  -9   4  128.99    2.95
   5   9  -4  120.05    5.63
  -5  -9   3    2.33    1.35
  -5  -9   3    0.11    1.18
   5   9  -3    0.35    1.47
  -5  -9   2   12.82    1.51
  -5  -9   2   11.63    1.40
   5   9  -2   13.52    1.56
  -5  -9   1   63.24    3.42
   5   9  -1   70.49    3.86
   5   9  -1   66.75    3.53
  -5  -9   0   45.21    2.17
   5   9   0   43.29    2.14
   5   9   0   47.07    2.31
  -5  -9  -1   -0.14    1.52
   5   9   1    0.21    1.70
   5   9   2    0.13    1.55
  -5  -9  -3   29.80    2.01
   5   9   3   33.20    2.19
  -5  -9  -4    0.38    1.54
   5   9   4   -1.61    1.77
  -5  -9  -5    7.38    1.69
   5   9   5    5.06    1.67
  -5  -9  -6    5.45    1.59
   5   9   6    4.41    1.90
  -5  -9  -7    2.03    1.75
   5   9   7   -0.34    1.93
  -5 -10  14    2.07    1.48
  -5 -10  13    4.48    1.59
   5  10 -13    5.10    1.99
  -5 -10  12    0.28    1.55
   5  10 -12    0.08    1.95
  -5 -10  11    2.06    1.29
   5  10 -11    0.85    1.60
  -5 -10  10   47.37    3.61
   5  10 -10   49.98    3.90
  -5 -10   9   45.45    2.35
  -5 -10   9   51.01    2.53
   5  10  -9   53.36    2.78
  -5 -10   8   -1.28    1.32
  -5 -10   8    1.02    1.33
   5  10  -8   -2.86    1.70
  -5 -10   7   17.20    1.38
  -5 -10   7   17.36    1.35
   5  10  -7   22.14    1.81
  -5 -10   6   51.23    2.03
  -5 -10   6   53.38    1.90
   5  10  -6   53.58    2.16
  -5 -10   5   -1.32    1.34
  -5 -10   5   -1.17    1.29
   5  10  -5   -1.38    1.56
  -5 -10   4    5.47    1.42
  -5 -10   4    4.42    1.19
   5  10  -4    8.19    1.42
  -5 -10   3   34.18    1.92
  -5 -10   3   29.80    1.51
   5  10  -3   29.26    1.64
  -5 -10   2    9.27    1.40
   5  10  -2   10.61    1.66
  -5 -10   1    6.07    1.51
   5  10  -1    7.01    1.62
   5  10  -1    6.86    1.55
  -5 -10   0    6.54    1.66
   5  10   0    8.86    1.64
   5  10   0    8.99    1.63
  -5 -10  -1   -0.09    1.55
   5  10   1   -0.98    1.76
   5  10   2   -2.95    1.76
  -5 -10  -3    1.04    1.47
   5  10   3    1.38    1.87
  -5 -10  -4    3.67    1.87
   5  10   4    6.50    2.02
  -5 -10  -5    1.16    1.57
   5  10   5    2.37    1.75
  -5 -10  -6   36.41    2.23
   5  10   6   38.89    2.33
  -5 -11  12   47.58    2.19
   5  11 -12   48.36    2.38
  -5 -11  11   15.39    1.55
   5  11 -11   17.64    2.10
  -5 -11  10   -0.93    1.30
   5  11 -10    1.02    1.68
  -5 -11   9    4.58    1.45
  -5 -11   9    3.55    1.47
   5  11  -9    6.38    1.66
  -5 -11   8   -0.65    1.40
  -5 -11   8   -1.16    1.38
   5  11  -8    1.27    1.79
  -5 -11   7    8.45    1.54
  -5 -11   7    8.93    1.37
   5  11  -7   10.20    1.80
  -5 -11   6    2.84    1.54
  -5 -11   6    3.57    1.34
   5  11  -6    5.12    1.73
  -5 -11   5    1.94    1.54
  -5 -11   5    2.96    1.39
   5  11  -5   -0.59    1.64
  -5 -11   4   14.84    1.75
  -5 -11   4   18.94    1.72
   5  11  -4   21.11    2.08
  -5 -11   3    6.29    1.56
  -5 -11   3    5.04    1.46
  -5 -11   2    0.24    1.57
   5  11  -2    1.62    1.63
   5  11  -2    0.81    1.65
  -5 -11   1   16.29    1.77
   5  11  -1   20.37    2.40
   5  11  -1   19.58    2.08
  -5 -11   0    8.24    1.76
   5  11   0   14.15    1.98
   5  11   0    9.11    1.54
   5  11   1    3.91    1.88
   5  11   2   36.23    2.82
  -5 -11  -3    4.58    1.85
   5  11   3    5.65    1.99
  -5 -11  -4    1.89    1.64
   5  11   4    2.83    1.98
  -5 -12  10   11.29    1.61
   5  12 -10   13.48    2.08
  -5 -12   9   13.77    1.68
  -5 -12   9   12.35    1.61
   5  12  -9   16.11    1.86
  -5 -12   8   21.09    1.68
  -5 -12   8   21.84    1.64
   5  12  -8   25.41    2.17
  -5 -12   7   31.35    1.86
  -5 -12   7   31.26    1.76
   5  12  -7   35.16    2.14
  -5 -12   6   21.43    2.08
  -5 -12   6   16.77    1.61
   5  12  -6   16.53    1.78
  -5 -12   5    0.23    1.42
  -5 -12   5    1.10    1.42
   5  12  -5   -0.77    1.78
  -5 -12   4    1.72    1.51
  -5 -12   4    2.23    1.41
   5  12  -4   -0.10    1.74
  -5 -12   3    0.62    1.53
   5  12  -3    0.56    1.97
   5  12  -3    0.91    1.54
  -5 -12   2    2.26    1.80
   5  12  -2    4.87    2.03
   5  12  -2    4.03    1.82
  -5 -12   1    1.11    1.58
   5  12  -1    5.92    1.83
   5  12  -1    4.86    1.63
  -5 -12   0    2.03    1.78
   5  12   0    1.61    1.93
   5  12   0   -1.16    1.75
   5  12   1    2.02    1.91
   5  12   2    1.44    2.01
  -5 -13   7    0.94    1.70
  -5 -13   7    2.81    1.62
   5  13  -7   -0.34    2.05
  -5 -13   6   29.11    2.10
  -5 -13   6   28.49    1.82
   5  13  -6   32.63    2.20
  -5 -13   5    4.07    1.88
  -5 -13   5    1.42    1.37
   5  13  -5    4.10    1.94
  -5 -13   4    4.05    1.89
  -5 -13   4    4.42    1.53
   5  13  -4    3.90    2.00
  -5 -13   3   -1.90    1.82
   5  13  -3    2.27    2.03
   5  13  -3    0.90    1.80
  -5 -13   2    5.95    1.79
   5  13  -2    7.13    1.90
   5  13  -2    6.48    1.68
   6 -13   1    8.39    1.54
   6 -13   2    2.78    1.76
   6 -13   3    2.06    1.59
  -6  12   5    0.73    1.92
  -6  12   4    0.54    1.87
  -6  12   3   30.45    2.14
  -6  12   2    9.44    1.80
  -6  12   1    0.59    1.63
   6 -12   0    2.70    1.55
  -6  12   0    3.63    1.69
   6 -12   1   39.06    2.61
   6 -12   2    2.24    1.47
   6 -12   3    3.82    1.61
   6 -12   4   11.46    1.55
   6 -12   5   16.30    1.86
   6 -12   6    4.98    1.89
   6 -12   7    0.98    1.95
  -6  11   7    1.79    1.91
  -6  11   6    3.19    1.87
  -6  11   5   19.39    1.82
  -6  11   4   37.05    2.66
  -6  11   3   -0.01    1.63
  -6  11   2    0.97    1.72
  -6  11   1   59.49    4.42
   6 -11   0    1.03    1.37
  -6  11   0   -0.37    1.55
   6 -11   1    5.93    1.40
   6 -11   2    5.94    1.57
   6 -11   3    5.26    1.37
   6 -11   4    6.84    1.59
   6 -11   5   -1.28    1.44
   6 -11   6    2.33    1.77
   6 -11   7    0.01    1.57
   6 -11   8    7.34    1.87
   6 -11   9   14.92    1.71
  -6  10   9   -0.11    1.89
  -6  10   8   10.35    1.89
  -6  10   7   13.99    1.71
  -6  10   6    4.50    1.69
  -6  10   5    1.92    1.67
  -6  10   4   10.13    1.79
  -6  10   3    0.58    1.30
  -6  10   2    5.86    1.51
   6 -10  -1   10.05    1.26
  -6  10   1    7.94    1.47
   6 -10   0    7.70    1.45
  -6  10   0    7.67    1.43
   6 -10   1    5.44    1.27
   6 -10   2    7.72    1.30
   6 -10   3   17.52    1.76
   6 -10   4    0.96    1.29
   6 -10   5   17.73    1.68
   6 -10   6    0.08    1.54
   6 -10   7   26.03    2.22
   6 -10   8   -1.13    1.69
   6 -10   9    1.88    1.65
  -6   9  10    3.74    1.64
  -6   9   9    0.42    1.78
  -6   9   8   -0.19    1.64
  -6   9   7    5.52    1.68
  -6   9   6    7.00    1.59
  -6   9   5    2.21    1.59
  -6   9   4    5.90    1.52
  -6   9   3   42.66    2.04
  -6   9   2   33.66    1.89
   6  -9  -1    5.58    1.26
  -6   9   1    3.35    1.34
   6  -9   0    1.41    1.28
  -6   9   0    1.69    1.30
   6  -9   1   11.26    1.34
   6  -9   2   17.71    1.55
   6  -9   3    3.04    1.26
   6  -9   4    6.39    1.57
   6  -9   5    0.21    1.44
   6  -9   6    1.48    1.51
   6  -9   7   14.71    1.84
   6  -9   8   -0.81    1.46
   6  -9   9    0.76    1.53
  -6   8  11    9.60    1.90
  -6   8  10   -0.93    1.65
  -6   8   9   15.17    1.77
  -6   8   8   27.01    2.09
  -6   8   7    6.15    1.57
  -6   8   6   16.09    1.61
  -6   8   5   14.46    1.40
  -6   8   4   16.47    1.58
  -6   8   3    0.63    1.13
  -6   8   2    1.98    1.25
   6  -8  -1   57.33    2.58
  -6   8   1   52.62    2.58
   6  -8   0   11.43    1.35
  -6   8   0    9.52    1.24
   6  -8   1   83.43    3.35
   6  -8   2    5.81    1.40
   6  -8   3    5.11    1.41
   6  -8   4   60.62    3.26
   6  -8   5   19.18    1.61
   6  -8   6    0.60    1.52
   6  -8   7   42.23    1.82
   6  -8   8    8.29    1.61
   6  -8   9   12.75    1.64
   6  -8  11    0.54    1.55
   6  -8  12   -1.63    1.88
  -6   7  12    2.37    1.63
  -6   7  11    6.41    1.76
  -6   7  10    4.26    1.46
  -6   7   9    4.78    1.63
  -6   7   8    4.87    1.50
  -6   7   7    2.60    1.49
  -6   7   6    1.90    1.42
  -6   7   5   77.81    4.01
  -6   7   4   18.26    1.31
  -6   7   3    8.74    1.41
   6  -7  -2   38.88    2.13
  -6   7   2   42.54    2.31
   6  -7  -1   23.12    1.73
  -6   7   1   22.41    1.82
   6  -7   0   23.95    1.73
  -6   7   0   23.70    1.62
   6  -7   1    6.14    1.31
   6  -7   2    3.04    1.25
   6  -7   3    2.50    1.09
   6  -7   4    3.17    1.19
   6  -7   5   23.81    1.72
   6  -7   6   15.61    1.57
   6  -7   7   10.41    2.77
   6  -7   8   -1.16    1.70
   6  -7   9   64.68    2.93
   6  -7  11   20.45    2.07
   6  -7  12   11.61    1.93
  -6   6  13   15.28    1.65
  -6   6  12    1.27    1.64
  -6   6  11    3.08    1.62
  -6   6  10   12.78    1.76
  -6   6   9    2.41    1.47
  -6   6   8    2.02    1.41
  -6   6   7   39.19    2.44
  -6   6   6   31.14    1.82
  -6   6   5    4.95    1.26
  -6   6   4   44.91    2.50
  -6   6   3    3.26    1.19
   6  -6  -2    0.59    1.02
  -6   6   2    1.18    1.03
   6  -6  -1   81.95    4.16
  -6   6   1   68.73    3.55
   6  -6   0    2.46    1.20
  -6   6   0    2.72    1.01
   6  -6   1   31.54    1.84
   6  -6   2    5.53    1.16
   6  -6   3   32.09    2.02
   6  -6   4   -2.56    1.12
   6  -6   5   38.69    2.03
   6  -6   6   16.53    1.63
   6  -6   7    5.09    1.57
   6  -6   8   49.11    2.10
   6  -6   9   18.73    1.84
   6  -6  11    2.56    1.61
   6  -6  12    3.45    1.70
  -6   5  13   30.98    1.85
  -6   5  12   15.08    1.51
  -6   5  11   11.63    1.49
  -6   5  10    2.15    1.45
  -6   5   9    1.79    1.40
  -6   5   8   42.37    2.47
  -6   5   7   19.50    1.47
  -6   5   6   19.08    1.54
  -6   5   5    3.97    1.14
  -6   5   4   18.38    1.38
  -6   5   3   47.22    2.32
   6  -5  -2   48.74    2.39
  -6   5   2   41.29    2.09
   6  -5  -1    1.42    1.18
  -6   5   1    3.07    1.07
   6  -5   0   14.26    1.51
  -6   5   0   13.47    1.26
   6  -5   1  180.63    6.12
   6  -5   2    2.34    1.15
   6  -5   3    0.48    1.22
   6  -5   4    6.88    1.43
   6  -5   5   28.13    1.85
   6  -5   6    6.78    1.34
   6  -5   7    1.77    1.51
   6  -5   8    0.27    1.64
   6  -5  11    2.43    1.73
   6  -5  12   -0.72    1.64
   6  -5  13   50.01    2.24
  -6   4  12   18.18    1.64
  -6   4  11   22.93    1.63
  -6   4  10    9.86    1.33
  -6   4   9    7.10    1.28
  -6   4   8   54.23    2.47
  -6   4   7   -0.48    1.12
  -6   4   6   31.01    1.77
  -6   4   5   92.99    3.60
  -6   4   4    3.84    1.00
  -6   4   3    2.39    1.06
   6  -4  -2   45.82    2.33
  -6   4   2   41.85    2.08
   6  -4  -1   14.54    1.20
  -6   4   1   13.05    1.10
   6  -4   0   35.21    1.96
  -6   4   0   29.37    1.61
   6  -4   1    3.55    1.16
   6  -4   2    0.45    0.94
   6  -4   3   -0.56    1.35
   6  -4   4   57.92    3.19
  -6   4  -7  142.13    5.29
   6  -4  10   41.35    2.41
   6  -4  11   21.47    2.24
   6  -4  12    1.17    1.76
   6  -4  13    1.16    1.81
   6  -4  13    2.12    1.57
  -6   3  15    1.53    1.64
  -6   3  12    2.50    1.40
  -6   3  11   49.73    1.99
  -6   3  10   61.98    3.24
  -6   3   9    2.84    1.00
  -6   3   8    8.64    1.16
  -6   3   7   41.37    1.86
  -6   3   7   42.35    2.09
  -6   3   6   13.16    0.96
  -6   3   6   11.51    1.04
  -6   3   5   65.49    2.46
  -6   3   5   59.39    2.47
  -6   3   4    3.97    0.75
  -6   3   4    3.32    0.96
   6  -3  -3   39.17    2.05
  -6   3   3   41.35    1.91
  -6   3   3   42.91    2.12
   6  -3  -2  112.24    3.66
  -6   3   2  101.88    3.42
   6  -3  -1   35.55    2.45
  -6   3   1   30.64    1.97
  -6   3   0    9.02    1.29
  -6   3   0    7.19    0.90
  -6   3  -1   36.66    1.98
  -6   3  -2   95.27    3.26
  -6   3  -3   16.18    1.40
  -6   3  -4    1.00    1.23
   6  -3   4    2.20    1.07
  -6   3  -5   51.18    2.95
   6  -3   5   52.28    2.87
   6  -3   6    0.83    1.21
  -6   3  -7   22.98    1.62
   6  -3   7   17.52    1.37
  -6   3  -8    0.91    1.48
   6  -3   8    0.41    1.35
  -6   3  -9    0.98    1.33
   6  -3   9    0.93    1.28
  -6   3 -10    3.92    1.67
   6  -3  10    4.03    1.44
  -6   3 -11    4.23    1.72
   6  -3  11    3.06    1.49
  -6   3 -12    5.20    1.88
   6  -3  12    1.63    1.50
  -6   3 -13   13.93    1.95
   6  -3  13   12.19    1.69
  -6   2  15   10.88    1.57
  -6   2  13    4.47    1.15
  -6   2  12   -0.15    1.07
  -6   2  12    1.70    1.33
  -6   2  11   86.39    2.55
  -6   2  11   93.62    2.70
  -6   2  10   18.70    1.18
  -6   2  10   21.31    1.26
  -6   2   9   23.77    1.52
  -6   2   9   23.73    1.57
  -6   2   8   21.18    1.33
  -6   2   8   20.20    1.50
  -6   2   7   47.05    2.25
  -6   2   7   52.35    2.57
  -6   2   6   15.11    1.01
  -6   2   6   13.68    1.13
  -6   2   5    3.80    0.84
  -6   2   5    2.49    0.95
  -6   2   4  108.24    3.32
  -6   2   4  111.02    3.81
  -6   2   3   20.16    1.59
  -6   2   3   19.29    1.36
  -6   2   3   17.91    1.41
  -6   2   2    9.25    1.07
  -6   2   2    9.67    0.97
  -6   2   1  194.46    8.67
   6  -2  -1  181.54    8.46
  -6   2   1  163.69    7.28
  -6   2   0    2.96    1.09
   6  -2   0    2.81    0.96
  -6   2   0    2.50    0.75
  -6   2  -1   55.23    2.84
   6  -2   1   59.15    3.02
  -6   2  -2   19.58    1.48
   6  -2   2   16.83    1.26
  -6   2  -3   21.92    1.57
   6  -2   3   21.35    1.35
  -6   2  -4   16.09    1.29
   6  -2   4   15.55    1.28
  -6   2  -5   72.58    3.85
   6  -2   5   71.74    3.77
   6  -2   6   26.84    1.82
  -6   2  -7    3.35    1.26
   6  -2   7    3.79    1.28
  -6   2  -8   21.16    1.76
   6  -2   8   17.99    1.37
  -6   2  -9   15.28    1.53
   6  -2   9   15.20    1.54
  -6   2 -10    0.76    1.38
   6  -2  10    0.80    1.46
  -6   2 -11    2.00    1.75
   6  -2  11    2.14    1.34
  -6   2 -12    7.90    1.79
   6  -2  12   10.76    1.73
  -6   2 -13    2.92    1.93
   6  -2  13    3.67    1.74
  -6   1  16    6.66    1.32
  -6   1  16    9.64    1.70
  -6   1  15   25.41    1.63
  -6   1  15   27.65    1.83
  -6   1  14    4.69    1.29
  -6   1  13   37.30    2.00
  -6   1  12   23.07    1.31
  -6   1  12   23.30    1.47
  -6   1  11   12.02    1.41
  -6   1  11   13.19    1.23
  -6   1  10    7.78    1.09
  -6   1  10    6.66    1.22
  -6   1   9   80.80    3.62
  -6   1   9   81.80    3.66
  -6   1   8  117.66    5.71
  -6   1   8  121.85    5.93
  -6   1   7   33.42    1.74
  -6   1   7   36.26    1.94
  -6   1   6   29.71    1.60
  -6   1   6   26.55    1.25
  -6   1   5   65.85    2.44
  -6   1   5   72.52    2.44
  -6   1   5   69.50    2.41
  -6   1   4   13.68    1.32
  -6   1   4   13.13    1.20
  -6   1   4   12.36    1.26
  -6   1   3   68.17    3.44
  -6   1   3   69.56    3.31
  -6   1   3   71.79    3.48
  -6   1   2    8.76    1.16
  -6   1   2    9.64    0.90
  -6   1   1   52.10    2.82
   6  -1  -1   54.13    2.98
  -6   1   0  176.00    7.92
   6  -1   0  177.48    8.07
  -6   1  -1   29.11    2.01
   6  -1   1   28.15    1.98
  -6   1  -2   64.71    2.53
   6  -1   2   59.97    2.81
  -6   1  -3   25.19    1.55
   6  -1   3   25.34    1.40
  -6   1  -4   23.74    1.68
   6  -1   4   26.29    1.70
   6  -1   5   12.45    1.24
   6  -1   6    1.16    1.27
  -6   1  -7   28.38    1.95
   6  -1   7   30.34    1.87
  -6   1  -8    2.16    1.45
   6  -1   8    2.38    1.36
  -6   1  -9   -1.12    1.51
   6  -1   9   -1.69    1.50
  -6   1 -10    1.33    1.59
   6  -1  10    0.07    1.53
  -6   1 -11    1.20    1.66
   6  -1  11   -0.82    1.53
  -6   1 -12    4.71    1.83
   6  -1  12    1.88    1.74
  -6   1 -13   24.88    2.03
   6  -1  13   25.72    1.78
  -6   0  16    4.80    1.31
  -6   0  16    4.36    1.65
  -6   0  15    2.71    1.44
  -6   0  15    3.73    1.48
  -6   0  14   11.96    1.34
  -6   0  13    1.98    1.20
  -6   0  12    1.38    0.97
  -6   0  12    2.47    1.21
  -6   0  11    0.53    1.13
  -6   0  11    1.71    1.07
  -6   0  10    5.64    0.94
  -6   0  10    3.61    0.95
  -6   0   9    1.46    0.99
  -6   0   9    0.44    1.04
  -6   0   8    3.51    1.02
  -6   0   8    3.96    0.92
  -6   0   7    0.12    0.90
  -6   0   7   -0.20    0.96
  -6   0   6   65.49    2.37
  -6   0   6   63.80    1.70
  -6   0   5  102.58    3.36
  -6   0   5  120.17    3.68
  -6   0   4    2.02    0.97
  -6   0   4    1.67    0.83
   6   0  -4    3.25    1.04
  -6   0   3   55.06    2.95
  -6   0   3   55.31    2.81
   6   0  -3   55.06    3.00
  -6   0   2  283.75   12.44
  -6   0   2  247.64   10.77
  -6   0   1   44.73    2.84
   6   0  -1   39.68    2.66
  -6   0   0   75.44    3.74
   6   0   0   70.50    3.64
  -6   0  -1   75.45    3.67
   6   0   1   77.86    3.87
  -6   0  -2   17.34    1.39
   6   0   2   14.43    1.25
  -6   0  -3    9.41    1.26
   6   0   3    8.53    1.16
  -6   0  -4   57.71    2.66
   6   0   4   58.22    1.95
   6   0   5   90.71    4.64
  -6   0  -6   46.68    2.50
   6   0   6   52.06    2.72
  -6   0  -7   63.01    2.91
   6   0   7   64.18    2.85
  -6   0  -8    4.90    1.43
   6   0   8    3.29    1.42
  -6   0  -9   -3.38    1.48
   6   0   9   -1.55    1.56
  -6   0 -10   45.38    2.36
   6   0  10   48.32    2.44
  -6   0 -11    7.78    1.59
   6   0  11    8.10    1.63
  -6   0 -12    1.67    1.66
   6   0  12    1.41    1.52
  -6  -1  16    2.67    1.57
   6   1 -16    4.24    1.75
  -6  -1  15   19.06    1.78
   6   1 -15   20.80    2.25
  -6  -1  14   30.28    2.47
   6   1 -14   28.05    2.68
  -6  -1  13    8.61    1.17
   6   1 -13    9.76    1.70
  -6  -1  12   24.53    1.45
   6   1 -12   19.24    1.60
  -6  -1  11   63.43    3.23
   6   1 -11   52.92    3.02
  -6  -1  10   23.00    1.29
   6   1 -10   24.02    1.66
  -6  -1   9    0.80    0.98
   6   1  -9   -0.33    1.30
  -6  -1   8  122.97    5.96
   6   1  -8  107.26    5.33
  -6  -1   7   49.16    2.32
   6   1  -7   56.52    2.65
  -6  -1   6   16.01    1.18
   6   1  -6   21.79    1.42
  -6  -1   5    4.24    1.05
  -6  -1   5    3.40    0.95
   6   1  -5    3.99    1.10
  -6  -1   4   17.87    1.52
  -6  -1   4   19.65    1.49
   6   1  -4   15.79    1.46
  -6  -1   3    8.34    1.13
  -6  -1   3    5.91    0.95
   6   1  -3    7.73    1.05
  -6  -1   2  103.58    4.89
  -6  -1   2   98.84    4.60
   6   1  -2   90.75    4.32
  -6  -1   1    9.15    1.17
   6   1  -1    8.07    1.22
  -6  -1   0   18.32    1.57
   6   1   0   17.83    1.56
  -6  -1  -1  175.39    5.27
   6   1   1  173.09    5.54
  -6  -1  -2   13.62    1.33
   6   1   2   14.27    1.32
  -6  -1  -3    8.77    1.27
   6   1   3    6.17    1.15
  -6  -1  -4  235.44   11.01
   6   1   4  243.05    3.93
   6   1   5    3.25    1.13
  -6  -1  -6    1.13    1.32
   6   1   6    0.31    1.28
  -6  -1  -7    7.90    1.53
   6   1   7    9.47    1.46
  -6  -1  -8   18.78    1.68
   6   1   8   18.02    1.70
  -6  -1  -9    2.02    1.63
   6   1   9   -2.92    1.63
  -6  -1 -10    3.20    1.55
   6   1  10    0.25    1.44
  -6  -1 -11   -0.57    1.49
   6   1  11    0.29    1.79
  -6  -1 -12    1.19    1.64
   6   1  12    1.91    1.74
  -6  -2  16   21.45    1.70
   6   2 -16   21.03    2.15
  -6  -2  15   -1.60    1.38
   6   2 -15    2.02    1.90
  -6  -2  14    2.05    1.21
   6   2 -14    1.57    1.66
  -6  -2  13   16.28    1.24
   6   2 -13   17.30    1.82
  -6  -2  12   14.38    1.21
   6   2 -12   14.81    1.69
  -6  -2  11    7.98    1.31
   6   2 -11    5.31    1.35
  -6  -2  10    5.29    1.12
   6   2 -10    2.95    1.11
  -6  -2   9   51.13    2.54
   6   2  -9   55.79    2.83
  -6  -2   8    4.87    1.12
   6   2  -8    7.10    1.31
  -6  -2   7   53.38    2.48
   6   2  -7   45.41    2.22
  -6  -2   6    5.82    1.00
  -6  -2   6    8.33    1.14
   6   2  -6    6.01    1.11
  -6  -2   5   49.82    2.42
  -6  -2   5   56.25    2.59
   6   2  -5   59.49    2.79
  -6  -2   4   91.63    3.17
  -6  -2   4   94.79    3.15
   6   2  -4  102.15    3.35
  -6  -2   3  114.84    3.73
  -6  -2   3  119.45    3.72
   6   2  -3  110.89    3.70
  -6  -2   2  171.63    5.18
  -6  -2   2  161.47    4.90
   6   2  -2  172.09    5.33
  -6  -2   1   16.40    1.35
  -6  -2   0   42.12    2.21
   6   2   0   40.81    2.14
  -6  -2  -1    5.89    1.20
   6   2   1    4.70    1.24
  -6  -2  -2   47.38    2.42
   6   2   2   44.68    2.35
  -6  -2  -3    6.98    1.24
   6   2   3    6.52    1.15
  -6  -2  -4    4.28    1.18
   6   2   4    5.22    1.19
   6   2   5   -0.09    1.26
  -6  -2  -6    7.57    1.33
   6   2   6   10.50    1.34
  -6  -2  -7   22.19    1.51
   6   2   7   26.22    1.69
  -6  -2  -8    6.61    1.38
   6   2   8    7.34    1.50
  -6  -2  -9  104.10    4.28
   6   2   9  106.46    4.25
  -6  -2 -10    0.59    1.45
   6   2  10    0.71    1.54
  -6  -2 -11    7.11    1.72
   6   2  11    8.34    1.93
  -6  -2 -12   15.88    1.95
   6   2  12   17.21    2.05
  -6  -3  16   -0.87    1.45
   6   3 -16    1.89    1.91
  -6  -3  15    6.60    1.49
   6   3 -15    6.68    1.81
  -6  -3  14   21.54    2.13
   6   3 -14   18.92    1.81
  -6  -3  13   36.90    2.05
   6   3 -13   36.66    2.25
  -6  -3  12   18.71    1.44
   6   3 -12   16.71    1.51
  -6  -3  11   10.73    1.34
   6   3 -11   12.97    1.41
  -6  -3  10   61.65    2.70
   6   3 -10   68.78    3.07
  -6  -3   9  189.51    7.98
   6   3  -9  202.90    8.56
  -6  -3   8    1.19    0.92
   6   3  -8    1.86    1.25
  -6  -3   7   91.66    4.62
   6   3  -7  102.89    5.17
  -6  -3   6  190.44    6.40
  -6  -3   6  199.85    6.86
   6   3  -6  204.30    6.98
  -6  -3   5   22.26    1.51
  -6  -3   5   23.93    1.57
   6   3  -5   25.71    1.64
  -6  -3   4    1.20    1.02
  -6  -3   4    0.65    1.04
   6   3  -4    2.37    1.12
  -6  -3   3    5.21    1.12
  -6  -3   3    5.42    1.03
   6   3  -3    5.23    1.07
  -6  -3   2   21.10    1.33
  -6  -3   2   20.45    1.22
   6   3  -2   18.57    1.35
  -6  -3   1   19.72    1.39
  -6  -3   0  140.53    4.94
   6   3   0  131.45    4.81
  -6  -3  -1   30.29    1.85
   6   3   1   29.49    1.81
  -6  -3  -2   28.48    1.73
   6   3   2   33.84    2.04
  -6  -3  -3   37.54    2.11
   6   3   3   33.88    1.87
   6   3   4   -0.53    1.27
   6   3   5    3.57    1.47
  -6  -3  -6   19.28    1.78
   6   3   6   17.15    1.73
  -6  -3  -7   44.37    2.00
   6   3   7   46.99    2.06
  -6  -3  -8   -2.07    1.54
   6   3   8   -0.23    1.64
  -6  -3  -9    3.40    1.39
   6   3   9    3.39    1.66
  -6  -3 -10    4.71    1.68
   6   3  10    4.25    1.99
  -6  -3 -11   10.78    1.82
   6   3  11    8.33    1.68
  -6  -4  16   15.24    1.50
   6   4 -16   18.99    2.00
  -6  -4  15   27.84    2.15
   6   4 -15   27.15    2.30
  -6  -4  14    9.23    1.31
   6   4 -14    8.15    1.53
  -6  -4  13    1.49    1.37
   6   4 -13    0.07    1.54
  -6  -4  12   14.35    1.45
   6   4 -12   14.04    1.73
  -6  -4  11   74.84    2.56
   6   4 -11   68.50    2.67
  -6  -4  10    1.33    1.04
   6   4 -10    1.63    1.24
  -6  -4   9    7.98    1.19
   6   4  -9    8.12    1.31
  -6  -4   8    4.41    1.14
   6   4  -8    5.48    1.29
  -6  -4   7   15.93    1.37
   6   4  -7   18.12    1.49
  -6  -4   6   32.68    1.77
  -6  -4   6   35.25    1.95
   6   4  -6   34.87    1.98
  -6  -4   5   18.92    1.31
  -6  -4   5   19.54    1.27
   6   4  -5   20.56    1.54
  -6  -4   4    8.77    1.21
  -6  -4   4    9.24    1.15
   6   4  -4   10.24    1.32
  -6  -4   3  186.18    6.25
  -6  -4   3  171.67    5.88
   6   4  -3  186.89    6.65
  -6  -4   2  124.32    4.43
  -6  -4   2  123.49    4.41
   6   4  -2  123.16    4.54
  -6  -4   1    4.90    1.31
  -6  -4   0   41.89    2.24
   6   4   0   40.25    2.18
  -6  -4  -1   73.66    3.86
   6   4   1   71.06    3.87
  -6  -4  -2    6.48    1.16
   6   4   2    8.08    1.44
  -6  -4  -3   12.61    1.28
   6   4   3   11.75    1.42
   6   4   4   26.20    1.72
   6   4   5    1.57    1.54
  -6  -4  -6   68.71    2.36
   6   4   6   69.85    2.55
  -6  -4  -7    1.00    1.60
   6   4   7    2.02    1.63
  -6  -4  -8   18.18    1.97
   6   4   8   17.65    1.96
  -6  -4  -9    0.81    1.49
   6   4   9    2.73    1.83
  -6  -4 -10   24.31    1.82
   6   4  10   27.05    2.15
  -6  -4 -11    2.08    1.79
   6   4  11    1.06    1.67
  -6  -5  16    2.04    1.41
   6   5 -16    2.38    1.94
  -6  -5  15    1.90    1.51
   6   5 -15    1.58    1.90
  -6  -5  14    0.47    1.26
   6   5 -14    1.73    1.47
  -6  -5  13    1.84    1.40
   6   5 -13    0.80    1.57
  -6  -5  12   28.97    1.67
   6   5 -12   23.54    1.64
  -6  -5  11   25.64    1.56
   6   5 -11   25.05    1.61
  -6  -5  10   13.36    1.24
   6   5 -10   16.79    1.65
  -6  -5   9   24.00    1.48
   6   5  -9   24.18    1.66
  -6  -5   8   94.85    3.82
   6   5  -8  103.02    4.28
  -6  -5   7    5.22    1.10
  -6  -5   7    6.61    1.07
   6   5  -7    5.84    1.09
  -6  -5   6    4.27    1.09
  -6  -5   6    4.61    1.22
   6   5  -6    3.69    1.31
  -6  -5   5   87.81    4.44
  -6  -5   5   95.12    4.83
   6   5  -5   95.00    4.89
  -6  -5   4    4.17    1.17
  -6  -5   4    4.30    1.03
   6   5  -4    4.48    1.20
  -6  -5   3   20.51    1.58
  -6  -5   3   16.75    1.18
   6   5  -3   17.74    1.46
  -6  -5   2    2.29    1.17
   6   5  -2    2.96    1.13
  -6  -5   1    4.11    1.29
   6   5  -1    4.52    1.46
  -6  -5   0   27.91    1.82
   6   5   0   29.19    1.89
  -6  -5  -1    8.96    1.26
   6   5   1    7.37    1.48
  -6  -5  -2    4.95    1.28
   6   5   2    4.78    1.47
  -6  -5  -3   -0.91    1.35
   6   5   3    0.52    1.52
   6   5   4   26.16    1.78
  -6  -5  -5    9.88    1.61
   6   5   5    9.16    1.39
  -6  -5  -6   11.29    1.49
   6   5   6   10.53    1.75
  -6  -5  -7   30.47    2.03
   6   5   7   37.27    2.40
  -6  -5  -8   10.60    1.61
   6   5   8    9.40    1.86
  -6  -5  -9    2.70    1.54
   6   5   9    2.20    1.89
  -6  -5 -10   13.35    1.78
  -6  -6  15   -0.31    1.56
   6   6 -15    2.03    1.59
  -6  -6  14   23.46    2.02
   6   6 -14   26.99    2.38
  -6  -6  13   28.06    2.49
   6   6 -13   27.32    2.54
  -6  -6  12   12.66    1.61
   6   6 -12   11.34    1.79
  -6  -6  11   14.94    1.35
   6   6 -11   18.08    1.68
  -6  -6  10   12.29    1.27
   6   6 -10   15.48    1.66
  -6  -6   9    3.81    1.32
   6   6  -9    2.89    1.24
   6   6  -8    6.16    1.29
  -6  -6   7   -0.38    0.99
   6   6  -7   -0.27    1.09
  -6  -6   6    7.97    1.12
   6   6  -6    9.63    1.36
  -6  -6   5   79.12    3.63
   6   6  -5   78.83    3.78
  -6  -6   4    9.05    1.26
   6   6  -4   11.03    1.34
  -6  -6   3    0.51    0.98
   6   6  -3   -0.99    1.22
  -6  -6   2  126.95    5.52
   6   6  -2  124.19    5.43
  -6  -6   1   25.31    1.76
   6   6  -1   23.66    1.87
  -6  -6   0   68.15    2.92
   6   6   0   66.60    3.10
  -6  -6  -1    8.22    1.28
   6   6   1    6.32    1.63
  -6  -6  -2   13.72    1.64
   6   6   2   11.40    1.72
  -6  -6  -3   15.55    1.61
   6   6   3   15.99    1.81
   6   6   4   24.03    1.85
  -6  -6  -5    8.04    1.68
   6   6   5    9.92    1.74
  -6  -6  -6    8.80    1.57
   6   6   6    9.79    1.87
  -6  -6  -7    4.72    1.55
   6   6   7    3.46    1.87
  -6  -6  -8   21.73    2.08
  -6  -6  -9   21.97    2.10
  -6  -7  15   22.22    1.79
   6   7 -15   19.03    2.17
   6   7 -14   13.20    2.02
   6   7 -13    2.16    1.59
   6   7 -12    5.35    1.72
   6   7 -11   24.81    2.16
   6   7 -10   41.16    2.04
   6   7  -9   28.77    1.74
   6   7  -8   28.72    1.89
  -6  -7   7   20.09    1.32
  -6  -7   7   19.54    1.54
   6   7  -7   21.10    1.67
  -6  -7   6   62.20    3.22
  -6  -7   6   65.81    3.49
   6   7  -6   56.75    3.06
  -6  -7   5    5.78    1.29
  -6  -7   5    6.59    1.25
   6   7  -5    5.50    1.53
  -6  -7   4   25.01    1.57
  -6  -7   4   25.18    1.38
   6   7  -4   21.96    1.47
  -6  -7   3    5.78    1.32
  -6  -7   3    6.04    1.13
   6   7  -3    4.82    1.41
  -6  -7   2   20.56    1.57
  -6  -7   2   23.44    1.44
   6   7  -2   21.04    1.58
  -6  -7   1    2.26    1.36
   6   7  -1    3.05    1.45
  -6  -7   0    7.79    1.54
   6   7   0    7.46    1.80
  -6  -7  -1    7.86    1.36
   6   7   1    7.87    1.45
  -6  -7  -2   -0.08    1.53
  -6  -7  -5    1.70    1.44
  -6  -7  -6   25.49    2.22
  -6  -7  -7    1.55    1.59
  -6  -7  -8   12.83    2.03
   6   8 -14    1.77    1.70
  -6  -8  13   23.48    1.84
   6   8 -13   32.17    2.20
  -6  -8  12   33.42    2.37
   6   8 -12   31.19    2.61
  -6  -8  11   16.63    1.50
   6   8 -11   22.05    2.39
  -6  -8  10    5.08    1.26
   6   8 -10    6.52    1.66
  -6  -8   9    1.63    1.45
   6   8  -9    0.28    1.66
  -6  -8   8    4.79    1.42
   6   8  -8    4.69    1.36
  -6  -8   7    1.29    1.16
  -6  -8   7    1.58    1.27
   6   8  -7   -0.45    1.29
  -6  -8   6   27.13    1.61
  -6  -8   6   31.21    1.73
   6   8  -6   29.86    1.83
  -6  -8   5   12.73    1.37
  -6  -8   5   12.20    1.42
   6   8  -5   12.15    1.48
  -6  -8   4    1.05    1.26
  -6  -8   4   -0.28    1.30
   6   8  -4    0.25    1.37
  -6  -8   3   73.95    2.47
  -6  -8   3   74.19    2.45
   6   8  -3   76.67    2.55
  -6  -8   2    2.88    1.51
  -6  -8   2    1.55    1.17
   6   8  -2    2.68    1.41
  -6  -8   1    5.34    1.55
  -6  -8   0   35.80    1.85
  -6  -8  -1   49.47    1.98
  -6  -8  -2    2.93    1.53
   6   8   3    8.18    1.96
   6   8   4   47.73    3.88
  -6  -8  -5    2.00    1.88
   6   8   5    1.05    1.81
  -6  -8  -6    7.19    1.96
   6   8   6    3.65    1.84
  -6  -8  -7   12.59    2.00
   6   8   7   15.09    2.16
  -6  -9  13    2.77    1.53
   6   9 -13    2.72    2.07
  -6  -9  12   16.99    1.79
   6   9 -12   14.95    1.98
  -6  -9  11   -0.29    1.40
   6   9 -11    2.64    1.88
  -6  -9  10    3.23    1.34
   6   9 -10    5.09    1.77
  -6  -9   9   10.77    1.46
   6   9  -9   13.65    1.71
  -6  -9   8   34.51    1.99
   6   9  -8   32.87    2.13
  -6  -9   7    0.84    1.32
  -6  -9   7   -1.10    1.26
   6   9  -7   -0.79    1.37
  -6  -9   6    2.52    1.38
  -6  -9   6    2.38    1.42
   6   9  -6    7.31    1.62
  -6  -9   5   36.65    1.87
  -6  -9   5   39.25    1.82
   6   9  -5   37.28    1.78
  -6  -9   4   14.79    1.62
  -6  -9   4   11.94    1.32
   6   9  -4   11.92    1.62
  -6  -9   3   -0.94    1.45
  -6  -9   3    1.59    1.41
   6   9  -3   -2.13    1.52
  -6  -9   2    7.15    1.54
   6   9  -2    7.84    1.84
   6   9  -2    9.25    1.58
  -6  -9   1    0.58    1.51
   6   9  -1    2.53    1.81
  -6  -9   0    6.71    1.62
   6   9   0    3.81    1.67
  -6  -9  -1    4.00    1.46
   6   9   1    3.61    1.67
  -6  -9  -2    3.87    1.66
   6   9   2    0.00    1.88
   6   9   3    0.42    1.98
  -6  -9  -4    0.20    1.89
   6   9   4    0.97    1.94
  -6  -9  -5   -0.60    1.87
   6   9   5    0.73    1.79
  -6 -10  12   -0.03    1.55
   6  10 -12    3.27    1.77
  -6 -10  11   36.93    1.81
   6  10 -11   38.93    2.06
  -6 -10  10    8.97    1.65
   6  10 -10    7.19    1.93
  -6 -10   9   18.62    1.77
   6  10  -9   18.92    2.12
  -6 -10   8    0.64    1.33
  -6 -10   8   -2.07    1.47
   6  10  -8    0.25    1.75
  -6 -10   7    9.47    1.49
  -6 -10   7    9.79    1.53
   6  10  -7   12.52    1.75
  -6 -10   6   -0.70    1.46
  -6 -10   6    4.40    1.35
   6  10  -6   -1.72    1.68
  -6 -10   5   16.54    1.46
  -6 -10   5   15.64    1.44
   6  10  -5   16.36    1.87
  -6 -10   4   -0.40    1.52
  -6 -10   4   -1.20    1.38
   6  10  -4    1.43    1.61
  -6 -10   3    2.30    1.34
  -6 -10   3    1.61    1.28
   6  10  -3    2.74    1.69
  -6 -10   2   11.78    1.52
   6  10  -2   11.52    1.84
   6  10  -2   10.87    1.79
  -6 -10   1   27.50    2.48
   6  10  -1   28.98    2.91
  -6 -10   0   22.56    2.18
   6  10   0   23.66    2.23
  -6 -10  -1   27.63    2.32
   6  10   1   31.27    2.70
  -6 -10  -2   13.66    1.98
   6  10   2   14.66    1.99
   6  10   3   17.29    2.22
   6  10   4    3.40    2.04
  -6 -11  10    4.51    1.61
   6  11 -10    6.53    1.98
  -6 -11   9    1.49    1.41
   6  11  -9    4.89    1.90
  -6 -11   8    0.76    1.54
  -6 -11   8    5.17    1.61
   6  11  -8    5.26    1.70
  -6 -11   7    2.58    1.56
  -6 -11   7    4.62    1.61
   6  11  -7    3.41    1.60
  -6 -11   6   34.90    1.99
  -6 -11   6   39.36    2.09
   6  11  -6   42.02    2.35
  -6 -11   5    0.71    1.59
  -6 -11   5    0.40    1.51
   6  11  -5    0.35    1.61
  -6 -11   4   -0.99    1.58
  -6 -11   4    2.08    1.36
   6  11  -4    1.33    1.79
  -6 -11   3   38.81    2.20
   6  11  -3   38.58    2.54
   6  11  -3   39.72    2.06
  -6 -11   2    0.44    1.71
   6  11  -2    1.97    2.07
  -6 -11   1   -0.59    1.74
   6  11  -1    1.16    1.79
  -6 -11   0   11.54    1.87
   6  11   0   17.16    2.17
  -6 -11  -1    3.48    1.66
   6  11   1    5.14    2.20
  -6 -12   6    1.61    1.74
  -6 -12   6   -0.43    1.63
   6  12  -6    0.40    1.92
  -6 -12   5    4.98    1.79
  -6 -12   5    6.60    1.60
   6  12  -5    8.46    2.05
  -6 -12   4    0.75    1.73
   6  12  -4   -2.45    1.93
  -6 -12   3    4.55    1.86
   6  12  -3    5.17    2.15
   6  12  -3    3.88    1.86
  -7  11   4    6.66    1.86
  -7  11   3    3.18    1.62
   7 -11   1    2.64    1.56
   7 -11   2    2.67    1.60
   7 -11   3    0.12    1.70
   7 -11   4   22.42    1.89
   7 -11   5    0.08    1.73
  -7  10   6   -1.05    1.56
  -7  10   5    3.31    1.71
  -7  10   4    0.65    1.61
  -7  10   3    0.92    1.55
   7 -10   1   12.03    1.45
   7 -10   2   20.35    1.90
   7 -10   3   -0.39    1.49
   7 -10   4    0.42    1.62
   7 -10   5    5.53    1.60
   7 -10   6    1.69    1.81
   7 -10   7   -1.30    1.81
  -7   9   8    5.33    1.83
  -7   9   7    7.65    1.82
  -7   9   6    1.34    1.57
  -7   9   5    2.29    1.59
  -7   9   4   29.48    2.55
  -7   9   3   -0.82    1.47
   7  -9   0    4.91    1.38
   7  -9   1   31.43    2.04
   7  -9   2   38.46    2.13
   7  -9   3    1.33    1.56
   7  -9   4   10.79    1.44
   7  -9   5   18.84    2.06
   7  -9   6   12.07    1.85
   7  -9   7   11.62    1.90
   7  -9   8   41.54    2.14
  -7   8  10    4.08    1.68
  -7   8   9    5.25    1.57
  -7   8   8   -1.29    1.64
  -7   8   7   14.05    1.74
  -7   8   6   -0.26    1.60
  -7   8   5   14.57    1.78
  -7   8   4   14.92    1.66
  -7   8   3   -1.31    1.21
   7  -8   0   24.74    1.55
   7  -8   1   22.97    1.59
   7  -8   2    3.82    1.27
   7  -8   3   20.76    1.89
   7  -8   4   10.61    1.74
   7  -8   5    1.32    1.36
   7  -8   6   14.03    1.83
   7  -8   7    9.84    1.69
   7  -8   8    7.59    1.75
   7  -8   9    7.43    2.07
  -7   7  11    2.85    1.59
  -7   7  10   18.45    1.96
  -7   7   9    4.50    1.73
  -7   7   8   17.90    1.71
  -7   7   7   10.42    1.67
  -7   7   6    1.19    1.39
  -7   7   5    5.28    1.42
  -7   7   4   -0.13    1.27
  -7   7   3    9.28    1.29
   7  -7   0    6.56    1.36
   7  -7   1    5.64    1.44
   7  -7   2    8.80    1.50
   7  -7   3    1.06    1.51
   7  -7   4   62.78    2.09
   7  -7   5    5.73    1.76
   7  -7   6   37.38    2.19
   7  -7   7   13.95    1.71
   7  -7   8   -0.20    1.86
   7  -7   9   36.58    2.18
   7  -7  10   10.84    1.82
  -7   6  12   17.13    1.86
  -7   6  11   15.17    1.60
  -7   6  10   -3.36    1.55
  -7   6   9    2.62    1.56
  -7   6   8    2.42    1.47
  -7   6   7    9.65    1.60
  -7   6   6    0.80    1.37
  -7   6   5   24.60    1.61
  -7   6   4   -1.06    1.17
  -7   6   3    3.98    1.18
  -7   6   2   78.39    3.91
   7  -6  -1   42.28    2.45
   7  -6   0   26.37    1.65
   7  -6   1  157.82    2.91
   7  -6   2   78.60    3.92
   7  -6   3    5.42    1.48
   7  -6   4    2.87    1.50
   7  -6   5    4.74    1.64
   7  -6   6    1.64    1.66
   7  -6   7    1.95    1.72
   7  -6   8   -0.08    1.90
   7  -6   9    8.12    2.03
   7  -6  10    7.68    1.79
  -7   5  12    5.56    1.54
  -7   5  11    4.42    1.57
  -7   5  10    3.19    1.45
  -7   5   9    3.62    1.45
  -7   5   8   12.93    1.35
  -7   5   7    2.68    1.27
  -7   5   6    0.27    1.17
  -7   5   5   -0.52    1.00
  -7   5   4   52.21    2.83
  -7   5   3   11.18    1.23
  -7   5   2   16.64    1.24
   7  -5  -1   61.19    2.70
   7  -5   0    1.86    1.21
   7  -5   1    1.97    1.36
   7  -5   2    0.21    1.34
   7  -5   3    1.15    1.40
   7  -5   4   23.72    1.64
   7  -5   5   38.69    2.03
   7  -5   6   -0.51    1.63
   7  -5   7   20.78    2.14
   7  -5   8   79.96    5.76
   7  -5   9   -0.16    1.64
  -7   4  13   46.48    1.92
  -7   4  12    1.94    1.37
  -7   4  11    0.28    1.28
  -7   4  10   13.47    1.63
  -7   4   9   -0.29    1.36
  -7   4   8    0.08    1.21
  -7   4   7   20.15    1.50
  -7   4   6    3.47    1.28
  -7   4   5    6.93    1.25
  -7   4   4   -0.24    1.08
  -7   4   3   14.63    1.21
  -7   4   2   -1.04    0.91
   7  -4  -1   12.49    1.36
   7  -4   0   56.47    2.90
   7  -4   1   10.07    1.45
   7  -4   2  168.99    6.44
   7  -4   3   57.88    2.79
   7  -4   4   10.46    1.69
   7  -4   9    6.80    1.96
  -7   3  14    0.58    1.62
  -7   3  13   14.03    1.68
  -7   3  12   -1.02    1.54
  -7   3  11   10.61    1.37
  -7   3  10    2.06    1.33
  -7   3   9   10.30    2.58
  -7   3   8    2.35    1.22
  -7   3   7    9.00    1.24
  -7   3   6   38.69    2.03
  -7   3   5   28.86    1.82
  -7   3   4    2.19    0.95
  -7   3   3   50.56    2.53
  -7   3   2   78.53    3.62
   7  -3  -1    7.17    1.15
  -7   3   0   27.71    1.89
  -7   3  -1    1.20    1.34
  -7   3  -2   17.48    1.79
  -7   3  -3   19.17    1.57
  -7   3  -4    2.86    1.59
  -7   3  -5   15.46    1.49
  -7   3  -6   17.29    1.76
  -7   3  -8    0.64    1.59
  -7   3  -9    0.74    1.72
  -7   3 -10   49.53    3.24
  -7   3 -11   -0.95    1.71
  -7   2  14   27.10    1.75
  -7   2  13    3.71    1.33
  -7   2  12   15.17    1.40
  -7   2  11   51.14    2.45
  -7   2  10    0.64    1.25
  -7   2   9   10.37    2.59
  -7   2   8    6.21    1.25
  -7   2   7   41.44    1.97
  -7   2   7   40.28    1.93
  -7   2   6    7.67    0.98
  -7   2   6    5.86    1.11
  -7   2   5   43.86    2.19
  -7   2   5   42.93    2.24
  -7   2   4    1.80    0.87
  -7   2   4    1.26    0.94
  -7   2   3    0.37    1.10
  -7   2   3    1.03    0.92
  -7   2   1    1.50    1.22
  -7   2   0    9.06    1.39
  -7   2  -1  120.30    5.28
  -7   2  -2   -0.48    1.30
  -7   2  -3   25.62    1.72
  -7   2  -4   34.89    2.10
  -7   2  -5    3.59    1.52
   7  -2   5    4.02    1.30
  -7   2  -6   -0.56    1.37
   7  -2   6    0.56    1.29
   7  -2   7    1.37    1.48
  -7   2  -8   22.28    1.89
   7  -2   8   25.35    1.91
  -7   2  -9    4.44    1.69
   7  -2   9    1.64    1.61
  -7   2 -10    3.35    1.73
   7  -2  10    4.17    1.63
  -7   2 -11    6.40    1.91
   7  -2  11   10.26    1.80
  -7   1  14    1.65    1.45
  -7   1  13    3.37    1.47
  -7   1  12    1.16    1.03
  -7   1  12    2.11    1.32
  -7   1  11    0.24    1.07
  -7   1  11    0.35    1.22
  -7   1  10   14.29    1.23
  -7   1  10   14.26    1.38
  -7   1   9    3.50    1.08
  -7   1   9    2.76    1.15
  -7   1   8   57.10    2.93
  -7   1   8   56.23    2.94
  -7   1   7   18.09    1.17
  -7   1   7   20.38    1.27
  -7   1   6    4.56    1.01
  -7   1   6    3.89    1.05
  -7   1   5   93.28    4.07
  -7   1   5   90.66    4.10
  -7   1   4   63.43    3.38
  -7   1   4   62.47    3.22
  -7   1   3    2.55    1.13
  -7   1   3    0.87    0.82
  -7   1   2   69.46    3.68
   7  -1  -2   67.09    3.62
  -7   1   1   22.27    1.63
   7  -1  -1   23.99    1.60
  -7   1   0    2.83    1.18
   7  -1   0   -0.12    1.05
  -7   1  -1    3.15    1.30
   7  -1   1    2.04    1.15
  -7   1  -2   10.86    1.30
   7  -1   2   12.87    1.36
  -7   1  -3    2.94    1.22
   7  -1   3    2.52    1.29
  -7   1  -4   66.35    2.97
   7  -1   4   64.06    2.90
  -7   1  -5   -0.47    1.44
   7  -1   5   -2.23    1.46
   7  -1   6    0.00    1.18
   7  -1   7   24.18    1.72
  -7   1  -8   26.35    1.93
   7  -1   8   28.91    1.88
  -7   1  -9    7.97    1.57
   7  -1   9    8.17    1.67
  -7   1 -10    0.33    1.57
   7  -1  10   -0.41    1.78
  -7   1 -11   41.65    2.11
   7  -1  11   44.72    2.12
  -7   0  15    0.23    1.45
   7   0 -15    1.72    2.09
  -7   0  14   95.43    2.29
  -7   0  13   14.85    1.48
  -7   0  13   17.05    1.37
  -7   0  12   -0.41    1.26
  -7   0  12    0.67    1.28
  -7   0  11   25.98    1.46
  -7   0  11   29.59    1.60
  -7   0  10   33.76    1.58
  -7   0  10   32.14    1.57
  -7   0   9   22.98    1.40
  -7   0   8    8.67    1.11
   7   0  -8    6.65    1.37
  -7   0   7   55.33    2.42
   7   0  -7   52.46    2.55
  -7   0   6   35.94    1.97
   7   0  -6   35.32    2.13
  -7   0   5   19.89    1.43
   7   0  -5   19.41    1.55
  -7   0   4   48.33    2.75
  -7   0   4   46.16    1.49
  -7   0   3   17.48    1.34
  -7   0   3   15.88    1.07
  -7   0   2    0.82    1.15
   7   0  -2    2.85    1.18
  -7   0   1   42.48    2.19
   7   0  -1   38.91    2.14
  -7   0   0   29.52    1.71
   7   0   0   28.48    1.77
  -7   0  -1   10.58    1.44
   7   0   1   11.52    1.37
  -7   0  -2   90.02    4.13
   7   0   2   86.63    3.99
  -7   0  -3   14.29    1.51
   7   0   3   16.67    1.42
  -7   0  -4    4.55    1.47
   7   0   4    3.07    1.43
  -7   0  -5    8.76    1.60
   7   0   5    8.92    1.53
   7   0   6    4.85    1.32
   7   0   7    1.23    1.58
  -7   0  -8    2.21    1.71
   7   0   8    0.41    1.63
  -7   0  -9   10.12    1.72
   7   0   9    8.03    1.80
  -7   0 -10    0.28    1.55
   7   0  10    0.30    1.51
  -7   0 -11    4.46    1.91
   7   0  11    7.40    1.71
  -7  -1  15   29.68    1.75
   7   1 -15   33.16    2.23
  -7  -1  14    0.06    1.32
   7   1 -14    2.77    1.72
  -7  -1  13   33.22    2.13
   7   1 -13   32.25    2.56
  -7  -1  12    4.42    1.30
   7   1 -12    1.56    1.67
  -7  -1  11   34.19    1.59
   7   1 -11   36.53    1.86
  -7  -1  10    0.96    1.20
   7   1 -10   -1.05    1.51
  -7  -1   9   -1.69    1.06
   7   1  -9    0.58    1.20
  -7  -1   8   18.82    1.31
   7   1  -8   19.16    1.40
  -7  -1   7   65.68    2.83
   7   1  -7   68.05    3.02
  -7  -1   6   12.05    1.13
   7   1  -6   14.34    1.39
  -7  -1   5    6.29    1.18
  -7  -1   5    8.59    1.14
   7   1  -5    7.78    1.24
  -7  -1   4   63.34    3.43
  -7  -1   4   64.21    3.37
  -7  -1   3  112.24    5.56
  -7  -1   3  117.68    5.72
  -7  -1   2   44.61    1.71
  -7  -1   1    7.09    1.26
   7   1  -1    9.22    1.33
  -7  -1   0   33.96    2.17
   7   1   0   31.21    2.10
  -7  -1  -1   35.82    2.16
   7   1   1   36.52    2.17
  -7  -1  -2    1.65    1.26
   7   1   2    1.49    1.34
  -7  -1  -3   12.21    1.49
   7   1   3   12.48    1.41
  -7  -1  -4    3.56    1.38
   7   1   4    3.80    1.52
  -7  -1  -5   31.84    1.94
   7   1   5   32.00    1.96
   7   1   6    0.96    1.38
  -7  -1  -7   48.23    2.61
   7   1   7   50.48    2.66
  -7  -1  -8   16.59    1.66
   7   1   8   21.25    2.30
  -7  -1  -9   19.96    2.09
   7   1   9   24.13    2.04
  -7  -1 -10   34.80    2.07
   7   1  10   32.76    2.12
  -7  -2  15   -0.16    1.26
   7   2 -15   -0.10    1.76
  -7  -2  14   -1.08    1.46
   7   2 -14    2.73    1.82
  -7  -2  13   47.22    2.87
   7   2 -13   47.73    3.07
  -7  -2  12   14.99    1.65
   7   2 -12   13.47    1.61
  -7  -2  11   28.55    1.52
   7   2 -11   30.10    1.73
  -7  -2  10   17.32    1.44
   7   2 -10   15.97    1.60
  -7  -2   9   32.00    2.05
   7   2  -9   31.04    2.16
  -7  -2   8   19.20    1.35
   7   2  -8   17.11    1.57
  -7  -2   7   15.21    1.34
   7   2  -7   17.45    1.55
  -7  -2   6   69.69    3.28
   7   2  -6   69.47    3.36
  -7  -2   5  110.42    4.86
  -7  -2   5  108.52    4.66
   7   2  -5  122.46    5.39
  -7  -2   4    7.93    1.27
  -7  -2   4    3.17    1.07
  -7  -2   3    3.21    1.28
  -7  -2   3    2.34    1.05
  -7  -2   2   11.35    1.23
  -7  -2   1   25.19    1.86
   7   2  -1   25.72    2.02
  -7  -2   0    1.58    1.27
   7   2   0   -1.24    1.26
  -7  -2  -1   26.82    1.69
   7   2   1   27.02    1.82
  -7  -2  -2    3.23    1.38
   7   2   2    5.58    1.34
  -7  -2  -3   15.03    1.52
   7   2   3   13.94    1.54
  -7  -2  -4   60.27    3.32
   7   2   4   61.50    3.37
  -7  -2  -5   19.07    1.67
   7   2   5   20.73    1.71
   7   2   6   -0.31    1.37
  -7  -2  -7  104.40    4.31
   7   2   7  110.67    2.50
  -7  -2  -8    9.36    1.83
   7   2   8   10.39    1.82
  -7  -2  -9    3.43    1.62
   7   2   9    4.48    1.59
  -7  -2 -10    3.37    1.96
   7   2  10    1.66    1.83
  -7  -3  15   16.12    1.68
   7   3 -15   13.79    1.85
  -7  -3  14   48.73    2.16
   7   3 -14   45.11    2.25
  -7  -3  13   13.91    1.36
   7   3 -13   11.62    1.84
  -7  -3  12    3.03    1.21
   7   3 -12    4.58    1.47
  -7  -3  11   40.68    2.21
   7   3 -11   40.90    2.32
  -7  -3  10   44.82    1.69
   7   3 -10   52.56    2.08
  -7  -3   9    1.30    1.20
   7   3  -9    1.39    1.36
  -7  -3   8   -0.53    1.15
   7   3  -8    2.32    1.37
  -7  -3   7   25.28    1.48
   7   3  -7   27.44    1.86
  -7  -3   6    3.61    1.20
   7   3  -6    5.44    1.30
  -7  -3   5  101.73    4.03
  -7  -3   5   96.75    3.82
   7   3  -5  100.10    4.19
  -7  -3   4   40.09    1.61
  -7  -3   4   42.10    2.25
  -7  -3   3   13.81    1.38
  -7  -3   3   13.58    1.14
  -7  -3   2   64.57    3.21
  -7  -3   2   64.25    3.03
  -7  -3   1   27.02    1.94
   7   3  -1   26.18    1.94
  -7  -3   0    6.42    1.32
   7   3   0    3.89    1.37
  -7  -3  -1   12.95    1.46
   7   3   1   10.08    1.62
  -7  -3  -2   36.25    2.33
   7   3   2   31.18    2.07
  -7  -3  -3   18.41    1.64
   7   3   3   20.90    1.73
  -7  -3  -4   -0.27    1.30
   7   3   4    0.69    1.53
   7   3   5   20.52    1.81
   7   3   6   20.52    1.96
  -7  -3  -7    2.02    1.48
   7   3   7   -0.20    1.51
  -7  -3  -8    0.29    1.58
   7   3   8    0.71    1.64
  -7  -3  -9    5.48    1.90
   7   3   9    2.30    1.81
  -7  -4  14   35.50    2.04
   7   4 -14   35.69    2.24
  -7  -4  13    3.18    1.31
   7   4 -13    2.65    1.59
  -7  -4  12    1.34    1.20
   7   4 -12    0.51    1.49
  -7  -4  11   38.97    2.19
   7   4 -11   41.71    2.43
  -7  -4  10   16.23    1.48
   7   4 -10   14.86    1.45
  -7  -4   9   11.02    1.49
   7   4  -9    8.09    1.33
  -7  -4   8   10.55    2.64
   7   4  -8   12.82    1.58
  -7  -4   7   31.47    2.09
   7   4  -7   27.86    1.64
  -7  -4   6    2.84    1.19
   7   4  -6    1.09    1.29
  -7  -4   5    2.17    1.19
  -7  -4   5    2.88    1.22
   7   4  -5    1.73    1.36
  -7  -4   4   36.70    2.02
  -7  -4   4   35.32    1.95
  -7  -4   3    6.97    1.34
  -7  -4   3    9.06    1.23
  -7  -4   2    0.84    1.08
  -7  -4   2    2.61    1.05
  -7  -4   1   -1.83    1.21
   7   4  -1   -0.88    1.50
  -7  -4   0    7.26    1.49
   7   4   0    6.93    1.58
  -7  -4  -1   -0.32    1.43
   7   4   1   -0.18    1.43
  -7  -4  -2    5.23    1.53
   7   4   2    2.00    1.37
  -7  -4  -3    1.08    1.44
   7   4   3    0.74    1.55
  -7  -4  -4    1.86    1.60
   7   4   4    0.25    1.48
   7   4   5   10.79    1.77
   7   4   6   11.04    1.83
  -7  -4  -7    0.20    1.73
   7   4   7    0.95    1.85
  -7  -4  -8   22.11    1.95
   7   4   8   29.10    2.26
  -7  -4  -9    3.31    1.69
   7   4   9    0.18    1.77
  -7  -5  14    1.97    1.62
   7   5 -14    3.98    1.84
  -7  -5  13   66.65    2.28
   7   5 -13   65.23    2.66
  -7  -5  12   52.76    3.17
   7   5 -12   50.23    3.10
  -7  -5  11    6.37    1.40
   7   5 -11    8.08    1.60
  -7  -5  10   27.58    1.75
   7   5 -10   27.84    2.02
  -7  -5   9    4.17    1.39
   7   5  -9    3.56    1.32
  -7  -5   8   80.13    2.72
   7   5  -8   75.49    2.52
  -7  -5   7    1.14    1.13
   7   5  -7    0.99    1.32
  -7  -5   6    0.18    1.05
  -7  -5   6    0.70    1.11
   7   5  -6    1.19    1.35
  -7  -5   5    7.73    1.36
  -7  -5   5    6.63    1.39
   7   5  -5   10.90    1.60
  -7  -5   4   36.96    2.34
  -7  -5   4   36.12    2.21
  -7  -5   3   37.47    2.35
  -7  -5   3   35.99    2.12
  -7  -5   2    1.65    1.16
  -7  -5   1   18.03    1.54
   7   5  -1   17.66    1.91
  -7  -5   0   27.49    1.85
   7   5   0   29.96    1.93
  -7  -5  -1   48.00    2.11
   7   5   1   43.94    2.13
  -7  -5  -2    2.37    1.35
   7   5   2    1.93    1.42
  -7  -5  -3   22.03    1.79
   7   5   3   21.17    1.88
  -7  -5  -4   17.05    1.84
   7   5   4   16.85    2.02
   7   5   5    2.49    1.68
  -7  -5  -6    6.98    1.77
   7   5   6   11.32    1.97
  -7  -5  -7    1.00    1.63
   7   5   7   -2.10    1.88
  -7  -5  -8    6.91    1.97
   7   5   8    6.78    2.14
  -7  -6  14   28.36    1.89
   7   6 -14   21.21    1.86
  -7  -6  13    0.65    1.37
   7   6 -13    2.05    1.85
  -7  -6  12    6.16    1.43
   7   6 -12    7.27    1.64
  -7  -6  11    1.26    1.52
   7   6 -11    1.44    1.69
  -7  -6  10    8.59    1.45
   7   6 -10    8.72    1.67
  -7  -6   9   16.64    1.70
   7   6  -9   18.90    1.93
  -7  -6   8   29.17    1.69
   7   6  -8   23.75    1.59
  -7  -6   7    1.30    1.19
   7   6  -7    0.65    1.35
  -7  -6   6   19.13    1.43
  -7  -6   6   20.56    1.55
   7   6  -6   20.98    1.60
  -7  -6   5   31.33    1.68
  -7  -6   5   29.37    1.73
   7   6  -5   30.18    1.82
  -7  -6   4    0.57    1.35
  -7  -6   4    1.29    1.14
  -7  -6   3    1.55    1.28
  -7  -6   3   -0.99    1.20
  -7  -6   2   26.76    1.75
   7   6  -2   22.51    1.95
  -7  -6   1    6.17    1.53
   7   6  -1    5.52    1.68
  -7  -6   0    1.40    1.59
   7   6   0    1.32    1.70
  -7  -6  -1    2.37    1.35
   7   6   1    2.65    1.76
  -7  -6  -2    3.12    1.59
   7   6   2   -0.57    1.68
  -7  -6  -3    0.44    1.62
   7   6   3    1.69    1.56
  -7  -6  -4   10.28    1.88
   7   6   4   13.42    2.01
   7   6   5    3.45    1.93
  -7  -6  -6   10.07    1.81
   7   6   6    9.16    1.85
  -7  -6  -7   24.34    2.14
   7   6   7   26.96    2.03
  -7  -7  13   -0.52    1.56
   7   7 -13   -2.64    1.88
  -7  -7  12   10.20    1.61
   7   7 -12   11.98    1.70
  -7  -7  11   46.19    2.82
   7   7 -11   54.76    3.41
  -7  -7  10   16.91    1.47
   7   7 -10   14.86    1.70
  -7  -7   9   -0.19    1.40
   7   7  -9    1.82    1.65
  -7  -7   8   27.16    1.77
   7   7  -8   29.85    2.08
   7   7  -7    8.57    1.57
  -7  -7   6    3.04    1.26
   7   7  -6    1.46    1.54
  -7  -7   5   12.16    1.39
   7   7  -5   14.93    1.65
  -7  -7   4    5.50    1.41
  -7  -7   3    1.02    1.27
  -7  -7   2   22.75    1.74
   7   7  -2   27.76    1.99
  -7  -7   1    4.13    1.39
   7   7  -1    4.91    1.83
  -7  -7   0    0.30    1.60
   7   7   0   -0.06    1.52
  -7  -7  -1   73.17    3.26
   7   7   1   74.41    3.53
  -7  -7  -2   -1.33    1.45
   7   7   2    0.93    1.67
  -7  -7  -3    5.07    1.55
   7   7   3    6.42    1.95
  -7  -7  -4   15.58    1.94
   7   7   4   20.86    1.98
   7   7   5    4.43    1.82
   7   7   6   15.60    1.95
   7   8 -12    6.13    1.83
   7   8 -11   20.36    2.06
   7   8 -10   -1.36    1.69
   7   8  -9    1.64    1.70
   7   8  -8   22.40    2.35
   7   8  -7    1.62    1.65
  -7  -8   6   29.01    2.55
  -7  -8   6   26.13    2.28
   7   8  -6   33.02    2.92
  -7  -8   5   78.70    5.52
  -7  -8   5   84.08    5.93
   7   8  -5   90.27    6.36
  -7  -8   4    4.37    1.56
  -7  -8   4    4.57    1.50
  -7  -8   3   14.40    1.65
  -7  -8   3   12.55    1.57
  -7  -8   2    3.45    1.55
   7   8  -2    3.96    1.73
  -7  -8   1   35.33    2.98
   7   8  -1   42.38    3.56
  -7  -8   0   -0.23    1.64
   7   8   0   -0.46    1.86
  -7  -8  -1    0.92    1.54
   7   8   1    8.00    1.81
  -7  -8  -2   -0.15    1.61
  -7  -8  -3    9.32    2.01
  -7  -9  11    4.13    1.50
   7   9 -11    5.08    1.71
  -7  -9  10   28.85    1.80
   7   9 -10   27.04    2.12
  -7  -9   9   42.63    2.07
   7   9  -9   44.01    2.25
  -7  -9   8    4.99    1.63
   7   9  -8    2.67    1.79
  -7  -9   7   22.01    2.05
   7   9  -7   26.01    2.22
  -7  -9   6   15.46    1.65
  -7  -9   6   15.16    1.72
   7   9  -6   16.92    1.81
  -7  -9   5   -2.73    1.47
  -7  -9   5    2.56    1.53
   7   9  -5    2.28    1.79
  -7  -9   4    1.34    1.48
  -7  -9   4    0.07    1.57
  -7  -9   3   16.35    1.74
  -7  -9   2    8.43    1.47
  -7  -9   1    0.68    1.70
  -7  -9   0   35.67    2.07
  -7  -9  -1    0.27    1.62
  -7  -9  -2   10.43    1.75
  -7 -10   8    2.39    1.57
   7  10  -8   -0.45    1.67
  -7 -10   7    1.66    1.49
   7  10  -7   -1.92    1.58
  -7 -10   6    9.58    1.65
  -7 -10   6    9.94    1.55
   7  10  -6   12.79    1.96
  -7 -10   5    1.99    1.38
  -7 -10   5    4.38    1.65
   7  10  -5    1.30    1.82
  -7 -10   4    4.00    1.64
  -7 -10   4    3.03    1.64
  -7 -10   3   19.45    1.91
   7  10  -3   22.83    2.09
  -7 -10   2   17.70    1.89
   7  10  -2   19.51    2.28
  -7 -10   1   15.64    1.92
   7  10  -1   18.93    2.26
  -7 -10   0   15.17    1.87
   7  10   0   17.53    2.50
   8 -10   2    7.18    1.71
   8  -9   2   -1.22    1.54
   8  -9   3    1.34    1.71
   8  -9   4   22.89    1.94
   8  -9   5    1.45    1.62
  -8   8   7    0.70    1.72
  -8   8   6   15.24    1.73
   8  -8   1    0.80    1.49
   8  -8   2    1.66    1.32
   8  -8   3   23.85    2.13
   8  -8   4    0.15    1.75
   8  -8   5   76.58    2.23
   8  -8   6   -2.42    1.77
  -8   7   9    3.97    1.78
  -8   7   8    2.32    1.65
  -8   7   7    3.18    1.58
  -8   7   6    2.58    1.48
  -8   7   5   -1.47    1.50
   8  -7   1    4.84    1.44
   8  -7   2   34.89    2.91
   8  -7   3    1.50    1.61
   8  -7   4    0.58    1.51
   8  -7   5    9.55    1.68
   8  -7   6    7.86    1.87
   8  -7   7   15.87    2.14
  -8   6  10    3.99    1.73
  -8   6   9   -1.18    1.39
  -8   6   8   -0.08    1.48
  -8   6   7   18.57    1.86
  -8   6   6   12.05    1.42
  -8   6   5   -1.68    1.30
   8  -6   1    6.57    1.47
   8  -6   2    4.07    1.35
   8  -6   3    7.41    1.66
   8  -6   4   26.32    2.61
   8  -6   5   12.74    1.69
   8  -6   6    9.05    1.82
   8  -6   7    4.91    2.06
   8  -6   8   -2.53    1.84
  -8   5  11    0.73    1.41
  -8   5  10    1.35    1.56
  -8   5   9   25.67    2.12
  -8   5   8    4.14    1.47
  -8   5   7    1.06    1.40
  -8   5   6    2.00    1.30
  -8   5   5    0.09    1.17
   8  -5   0    2.98    1.41
   8  -5   1   12.11    1.62
   8  -5   2   -2.00    1.55
   8  -5   3   40.71    2.52
   8  -5   4    9.00    1.80
   8  -5   5    6.20    1.74
   8  -5   6   36.23    2.61
   8  -5   7    2.90    2.02
   8  -5   8    4.57    1.88
  -8   4  11    1.83    1.37
  -8   4  10    2.16    1.33
  -8   4   9   14.68    1.59
  -8   4   8    6.40    1.47
  -8   4   7   -0.35    1.11
  -8   4   6   57.67    2.73
  -8   4   5   30.97    1.58
   8  -4   0    1.68    1.43
   8  -4   1    2.19    1.47
   8  -4   2   29.90    1.81
   8  -4   3    5.39    1.76
   8  -4   4    8.69    1.81
   8  -4   5   56.34    4.35
   8  -4   6    2.58    2.01
   8  -4   7    8.12    2.03
   8  -4   8   24.43    2.24
   8  -4   9   -2.10    1.86
  -8   3  12    9.75    1.69
  -8   3  11   13.63    1.63
  -8   3  10   46.12    2.84
  -8   3   9   -2.04    1.16
  -8   3   8   11.81    1.31
  -8   3   7   17.90    1.55
  -8   3   6    3.92    1.13
  -8   3   5    7.98    1.15
  -8   3  -1    5.10    1.52
  -8   3  -2    8.93    1.62
  -8   3  -3    9.11    1.49
  -8   3  -4   13.58    1.94
  -8   3  -5   17.17    1.77
  -8   3  -6    1.73    1.57
  -8   3  -7   -1.74    1.76
  -8   2  12   20.88    1.67
  -8   2  11   -1.75    1.18
  -8   2  10    0.05    1.16
  -8   2   9   23.10    2.16
  -8   2   8   -0.34    1.24
  -8   2   7   17.44    1.37
  -8   2   6    0.05    1.08
  -8   2   5   11.49    1.17
  -8   2   2    2.76    1.32
  -8   2   1   13.60    1.57
  -8   2   0   64.98    2.39
  -8   2  -1    1.63    1.52
  -8   2  -2   -0.47    1.48
  -8   2  -3   53.08    2.20
  -8   2  -4    0.20    1.42
  -8   2  -5   30.55    2.21
  -8   2  -6    1.33    1.70
  -8   2  -7   -1.20    1.73
  -8   2  -9    5.16    1.72
  -8   1  13    8.34    1.46
  -8   1  12    9.08    1.38
  -8   1  11   -0.29    1.17
  -8   1  10   31.11    2.61
  -8   1   9   17.33    1.46
  -8   1   6   50.26    1.78
  -8   1   5    2.35    1.10
  -8   1   4   38.91    1.54
  -8   1   3   21.11    1.63
  -8   1   2    1.83    1.28
  -8   1   1   10.34    1.64
  -8   1   0    2.05    1.47
  -8   1  -1    6.59    1.30
  -8   1  -2    6.67    1.58
  -8   1  -3   18.06    1.59
  -8   1  -4    7.80    1.50
  -8   1  -5    1.07    1.56
  -8   1  -6   23.44    2.43
  -8   1  -7   13.03    1.87
   8  -1   7   10.03    1.57
   8  -1   8    5.02    1.72
  -8   1  -9    6.83    1.69
   8   0 -13    7.71    2.00
   8   0 -12    9.53    1.93
  -8   0  11    4.91    1.32
   8   0 -11    4.71    1.67
  -8   0  10   16.73    1.34
   8   0 -10   14.52    1.80
  -8   0   9    0.06    1.12
   8   0  -9   -1.73    1.41
  -8   0   8    1.53    1.17
   8   0  -8   -0.79    1.51
  -8   0   7   14.55    1.25
  -8   0   6    4.98    1.11
  -8   0   5   31.41    1.51
  -8   0   4    2.43    1.08
  -8   0   3   48.06    2.84
  -8   0   2   49.17    2.78
  -8   0   1   25.21    1.50
   8   0  -1   26.78    1.59
  -8   0   0   33.36    1.86
   8   0   0   30.77    1.76
  -8   0  -1   41.65    1.87
   8   0   1   42.86    1.93
  -8   0  -2   24.80    1.72
   8   0   2   29.28    1.67
  -8   0  -3   14.96    1.56
   8   0   3   13.12    1.55
  -8   0  -4    1.80    1.53
   8   0   4    3.72    1.53
  -8   0  -5    1.05    1.58
   8   0   5   -0.17    1.51
  -8   0  -6    5.35    1.60
   8   0   6    1.83    1.70
   8   0   7   -0.41    1.64
   8   0   8    0.07    1.73
  -8  -1  13    0.50    1.34
   8   1 -13    0.24    1.59
  -8  -1  12    1.49    1.36
   8   1 -12   -0.47    1.80
  -8  -1  11   21.61    1.81
   8   1 -11   21.53    1.93
  -8  -1  10   16.80    1.39
   8   1 -10   15.54    1.74
  -8  -1   9    1.70    1.21
   8   1  -9    1.45    1.32
  -8  -1   8   12.11    1.31
   8   1  -8   15.26    1.63
  -8  -1   7    7.73    1.22
  -8  -1   6    1.79    1.18
  -8  -1   5   12.70    1.28
  -8  -1   4   18.53    1.28
  -8  -1   3    2.13    1.37
   8   1  -3   -0.72    1.33
  -8  -1   2    2.57    1.37
   8   1  -2    0.17    1.34
  -8  -1   1   19.47    1.61
   8   1  -1   18.06    1.55
  -8  -1   0    0.03    1.38
   8   1   0   -0.30    1.32
  -8  -1  -1   11.63    1.59
   8   1   1   11.54    1.39
  -8  -1  -2    6.77    1.55
   8   1   2    3.41    1.48
  -8  -1  -3    2.48    1.64
   8   1   3    1.96    1.36
  -8  -1  -4    6.93    1.62
   8   1   4    6.18    1.58
  -8  -1  -5   76.30    5.44
   8   1   5   76.92    5.44
  -8  -1  -6   23.69    2.21
   8   1   6   21.19    2.05
   8   1   7    1.13    1.55
   8   1   8   45.32    2.19
  -8  -2  13   36.98    1.69
   8   2 -13   39.97    2.18
  -8  -2  12   43.23    2.03
   8   2 -12   45.03    2.23
  -8  -2  11    2.10    1.20
   8   2 -11    2.33    1.59
  -8  -2  10   20.35    2.03
   8   2 -10   21.05    2.22
  -8  -2   9    3.43    1.13
   8   2  -9    4.22    1.50
  -8  -2   8    5.41    1.33
   8   2  -8    3.70    1.43
  -8  -2   7    1.75    1.32
  -8  -2   6    0.94    1.25
  -8  -2   5   28.06    1.45
  -8  -2   4   79.79    2.56
  -8  -2   4   83.53    2.37
  -8  -2   3    1.47    1.28
  -8  -2   2   10.60    2.62
   8   2  -2   14.42    1.65
  -8  -2   1  121.41   26.22
   8   2  -1  119.31    3.50
  -8  -2   0   23.96    1.65
   8   2   0   21.54    1.67
  -8  -2  -1   -0.42    1.41
   8   2   1   -1.85    1.45
  -8  -2  -2   52.28    2.08
   8   2   2   50.62    2.03
  -8  -2  -3   21.89    1.95
   8   2   3   21.99    2.03
  -8  -2  -4    1.10    1.69
   8   2   4    2.58    1.43
  -8  -2  -5   12.40    1.61
   8   2   5   13.62    1.83
  -8  -2  -6   -1.52    1.52
   8   2   6   -0.72    1.76
   8   2   7   19.23    1.79
  -8  -3  13   -0.11    1.36
   8   3 -13    0.35    1.62
  -8  -3  12    2.43    1.30
   8   3 -12    4.56    1.51
  -8  -3  11    0.54    1.36
   8   3 -11    2.07    1.66
  -8  -3  10   34.09    2.81
   8   3 -10   32.41    2.79
  -8  -3   9   52.26    3.94
   8   3  -9   57.14    4.27
  -8  -3   8   36.89    2.07
   8   3  -8   35.57    2.19
  -8  -3   7   11.48    1.33
  -8  -3   6   45.54    1.69
  -8  -3   5   14.93    1.39
  -8  -3   4    6.12    1.28
  -8  -3   4    8.32    1.38
  -8  -3   3   30.52    1.72
  -8  -3   2   21.36    1.67
   8   3  -2   26.00    1.92
  -8  -3   1    0.77    1.50
   8   3  -1    0.12    1.64
  -8  -3   0    5.19    1.31
   8   3   0    5.42    1.64
  -8  -3  -1    5.22    1.57
   8   3   1    5.77    1.67
  -8  -3  -2    7.66    1.47
   8   3   2    7.66    1.51
  -8  -3  -3    1.56    1.56
   8   3   3    3.38    1.62
  -8  -3  -4   28.19    2.34
   8   3   4   27.32    2.10
  -8  -3  -5    7.33    1.83
   8   3   5    6.98    1.83
  -8  -3  -6    4.46    1.81
   8   3   6    5.80    1.91
   8   3   7   21.37    1.84
  -8  -4  12   51.52    2.14
   8   4 -12   60.07    2.27
  -8  -4  11   15.17    1.61
   8   4 -11   17.70    1.92
  -8  -4  10    9.67    1.49
   8   4 -10    8.96    1.53
  -8  -4   9   21.51    2.14
   8   4  -9   17.29    1.57
  -8  -4   8   29.80    2.57
   8   4  -8   26.84    2.52
  -8  -4   7    6.80    1.49
  -8  -4   6    8.83    1.41
  -8  -4   5   11.18    1.42
  -8  -4   4   45.17    1.89
  -8  -4   4   41.86    1.79
  -8  -4   3    8.80    1.45
  -8  -4   2   36.61    1.71
   8   4  -2   41.83    2.08
  -8  -4   1    2.52    1.53
   8   4  -1    2.61    1.69
  -8  -4   0   26.81    1.99
   8   4   0   24.49    1.96
  -8  -4  -1   92.03    3.90
   8   4   1   90.67    4.02
  -8  -4  -2    1.71    1.63
   8   4   2    2.25    1.44
  -8  -4  -3   41.82    2.83
   8   4   3   45.66    3.00
  -8  -4  -4    2.30    1.80
   8   4   4    2.11    1.73
  -8  -4  -5   12.98    1.85
   8   4   5   12.24    1.97
   8   4   6    0.63    1.96
  -8  -5  12    0.75    1.37
   8   5 -12    1.38    1.61
  -8  -5  11   14.56    1.68
   8   5 -11   15.24    1.85
  -8  -5  10    1.84    1.52
   8   5 -10   -0.43    1.68
  -8  -5   9    5.00    1.51
   8   5  -9    7.02    1.59
  -8  -5   8   41.19    3.28
   8   5  -8   46.54    3.63
  -8  -5   7   13.85    1.52
  -8  -5   6    7.81    1.44
  -8  -5   5    0.09    1.46
  -8  -5   4   60.39    2.86
  -8  -5   4   67.69    3.07
  -8  -5   3    0.97    1.42
   8   5  -3   -1.30    1.50
  -8  -5   2   14.06    1.77
   8   5  -2   17.70    2.09
  -8  -5   1   52.50    2.77
   8   5  -1   54.90    2.91
  -8  -5   0    1.41    1.65
   8   5   0    0.41    1.60
  -8  -5  -1    2.48    1.77
   8   5   1   -0.70    1.91
  -8  -5  -2    0.41    1.69
   8   5   2   -2.99    1.78
  -8  -5  -3    0.79    1.76
   8   5   3    3.81    1.70
  -8  -5  -4    6.32    1.68
   8   5   4    3.76    1.78
  -8  -5  -5   10.68    2.04
   8   5   5   12.56    1.86
  -8  -6  11   13.34    1.53
   8   6 -11   13.17    1.68
  -8  -6  10   25.67    1.72
   8   6 -10   24.31    1.92
  -8  -6   9    8.83    1.44
   8   6  -9    9.76    1.75
  -8  -6   8   -1.67    1.47
   8   6  -8   -0.34    1.37
  -8  -6   7    7.56    1.51
  -8  -6   6    2.13    1.48
  -8  -6   5   -1.52    1.46
  -8  -6   4    1.17    1.48
  -8  -6   4    0.41    1.24
  -8  -6   3    4.39    1.41
   8   6  -3    5.65    1.91
  -8  -6   2    0.54    1.47
   8   6  -2   -1.64    1.94
  -8  -6   1   35.90    2.61
   8   6  -1   39.47    2.97
  -8  -6   0    3.67    1.41
   8   6   0    4.72    1.90
  -8  -6  -1   -0.35    1.47
   8   6   1    1.29    1.95
  -8  -6  -2   34.34    2.28
   8   6   2   34.18    2.11
  -8  -6  -3    0.44    1.79
   8   6   3    4.29    1.79
  -8  -6  -4    1.60    1.68
   8   6   4    2.83    1.87
  -8  -7  10   10.54    1.57
   8   7 -10   12.48    1.71
  -8  -7   9    0.98    1.37
   8   7  -9    2.86    1.70
  -8  -7   8   -0.25    1.58
   8   7  -8   -1.42    1.66
  -8  -7   7   38.36    1.94
  -8  -7   6    5.72    1.42
  -8  -7   5    2.85    1.46
  -8  -7   5    2.31    1.53
  -8  -7   4    9.87    1.72
  -8  -7   4    9.43    1.47
  -8  -7   3   44.83    2.88
   8   7  -3   41.75    2.98
  -8  -7   2    2.10    1.60
   8   7  -2    2.29    1.87
  -8  -7   1    9.35    1.82
   8   7  -1   13.55    2.15
  -8  -7   0    8.65    1.81
   8   7   0    7.26    2.12
  -8  -7  -1    0.96    1.82
   8   7   1    5.29    2.00
  -8  -7  -2    5.79    1.87
   8   7   2    6.67    2.11
  -8  -8   8    4.29    1.78
   8   8  -8    4.08    1.81
  -8  -8   7    0.90    1.42
  -8  -8   5    0.76    1.49
  -8  -8   4   10.29    1.74
  -8  -8   3    5.60    1.66
   8   8  -3    8.40    2.04
  -8  -8   2   52.97    2.27
   8   8  -2   49.11    2.59
  -8  -8   1    4.44    1.74
   8   8  -1    1.59    2.23
  -8  -8   0   10.29    1.95
   8   8   0   13.38    2.36
   9  -7   2   -2.66    1.63
   9  -6   2   14.42    1.56
   9  -6   3    7.11    1.82
   9  -6   4   17.83    2.05
   9  -5   2   20.13    1.95
   9  -5   3   23.25    2.04
   9  -5   4    0.68    1.68
   9  -5   5   10.30    1.87
  -9   4   8    6.27    1.42
   9  -4   1    3.83    1.43
   9  -4   2    3.33    1.79
   9  -4   3   18.26    2.06
   9  -4   4    1.81    1.75
   9  -4   5    4.55    2.02
  -9   3   9    0.59    1.36
  -9   3   8   -0.63    1.34
   9  -3   1   26.47    2.24
  -9   3  -2    1.07    1.47
  -9   3  -3   28.52    2.11
  -9   3  -4   10.67    1.81
  -9   3  -5   17.14    2.06
  -9   2   1    5.72    1.71
  -9   2   0    6.92    1.47
  -9   2  -1    2.95    1.49
  -9   2  -2   21.36    2.08
  -9   2  -3   15.21    1.72
  -9   2  -4   12.70    1.93
  -9   2  -5   21.69    2.09
  -9   1   2   16.32    1.63
  -9   1   1   20.55    2.05
  -9   1   0   11.16    1.54
  -9   1  -1    6.40    1.66
  -9   1  -2   17.01    1.91
  -9   1  -3    3.68    1.86
  -9   1  -4    8.74    1.87
  -9   1  -5    0.27    1.66
  -9   0   5    0.68    1.12
  -9   0   2    1.24    1.25
  -9   0   1    0.49    1.50
  -9   0   0    1.60    1.62
  -9   0  -1    4.54    1.68
  -9   0  -2   18.06    2.00
  -9   0  -3   11.63    1.85
  -9   0  -4   -0.96    1.60
  -9   0  -5    8.69    1.93
  -9  -1   9   15.36    1.48
  -9  -1   8    7.02    1.31
  -9  -1   7    8.09    1.32
  -9  -1   6    2.78    1.22
  -9  -1   5    3.15    1.28
  -9  -1   2   10.26    1.59
  -9  -1   1    1.40    1.54
  -9  -1   0   42.76    2.76
  -9  -1  -1   31.59    2.40
   9   1   1   31.68    2.41
  -9  -1  -2   -1.31    1.62
   9   1   2    0.83    1.57
  -9  -1  -3   22.42    1.97
   9   1   3   23.76    1.93
  -9  -1  -4   10.52    1.90
   9   1   4    7.28    1.84
  -9  -1  -5   -0.33    1.81
   9   1   5    0.79    1.73
  -9  -2  10   -0.09    1.35
  -9  -2   9   27.23    1.72
  -9  -2   8    5.10    1.33
  -9  -2   7   -1.74    1.35
  -9  -2   6   60.20    3.40
  -9  -2   5   15.32    1.48
   9   2  -4    0.92    1.70
   9   2  -3    7.03    1.71
  -9  -2   2   22.36    2.01
   9   2  -2   22.79    2.26
  -9  -2   1    8.25    1.61
   9   2  -1    9.00    1.82
  -9  -2   0    1.03    1.60
   9   2   0    0.36    1.62
  -9  -2  -1    3.56    1.73
   9   2   1    2.66    1.47
  -9  -2  -2    2.99    1.74
   9   2   2   -0.96    1.70
  -9  -2  -3    5.01    1.76
   9   2   3    5.89    1.77
  -9  -2  -4   13.54    1.80
   9   2   4   13.81    1.88
  -9  -3  10    8.91    1.35
  -9  -3   9   -2.12    1.44
  -9  -3   8   12.99    1.36
  -9  -3   7   -1.07    1.18
  -9  -3   6    2.61    1.42
  -9  -3   5    2.76    1.25
   9   3  -4   -0.43    1.51
  -9  -3   3    0.96    1.47
   9   3  -3    7.47    1.64
  -9  -3   2    4.97    1.55
   9   3  -2    4.16    1.53
  -9  -3   1   35.93    2.56
   9   3  -1   39.47    2.72
  -9  -3   0    0.15    1.52
   9   3   0    0.37    1.84
  -9  -3  -1    2.10    1.49
   9   3   1   -0.36    1.76
  -9  -3  -2   21.32    1.76
   9   3   2   20.08    2.02
  -9  -3  -3   -2.76    1.72
   9   3   3   -0.29    1.74
  -9  -4   9   -1.93    1.39
  -9  -4   8    4.47    1.37
  -9  -4   7    8.73    1.37
  -9  -4   6    8.97    1.36
  -9  -4   5    1.00    1.49
   9   4  -4   34.27    2.24
  -9  -4   3   37.97    2.09
   9   4  -3   39.86    2.18
  -9  -4   2    1.73    1.40
   9   4  -2    3.34    1.83
  -9  -4   1    5.81    1.55
   9   4  -1    4.55    1.89
  -9  -4   0    7.01    1.68
   9   4   0    5.08    1.90
  -9  -4  -1    0.30    1.65
   9   4   1    1.58    1.89
  -9  -4  -2   -0.37    1.69
   9   4   2    0.34    1.77
  -9  -5   8    4.92    1.57
  -9  -5   7   23.32    1.58
  -9  -5   6    3.10    1.37
  -9  -5   5   -0.91    1.56
   9   5  -4    5.01    1.74
  -9  -5   3   -0.19    1.32
   9   5  -3    0.02    2.00
  -9  -5   2    1.23    1.53
   9   5  -2    1.31    1.66
  -9  -5   1    0.89    1.63
   9   5  -1    2.90    1.94
  -9  -5   0   15.44    1.85
   9   5   0   15.39    2.13
  -9  -6   6    2.45    1.62
  -9  -6   5    4.83    1.63
   9   6  -4   -0.81    1.83
  -9  -6   3   34.53    1.97
   9   6  -3   33.28    2.45
  -9  -6   2   18.00    1.85
   0   0   0    0.00    0.00
;
_shelx_hkl_checksum              1977
_shelx_shelxl_version_number     2014/8
_olex2_submission_special_instructions 'No special instructions were received'
loop_
_space_group_symop_operation_xyz
'x, y, z'
'-x, -y, -z'
loop_
_atom_site_label
_atom_site_type_symbol
_atom_site_fract_x
_atom_site_fract_y
_atom_site_fract_z
_atom_site_U_iso_or_equiv
_atom_site_adp_type
_atom_site_occupancy
_atom_site_site_symmetry_order
_atom_site_calc_flag
_atom_site_refinement_flags_posn
Br1 Br 0.03665(5) 0.15267(3) 1.12393(2) 0.03537(13) Uani 1 1 d .
S1 S 0.57785(9) 0.38792(6) 0.80353(5) 0.01745(16) Uani 1 1 d .
Cl1 Cl 0.17851(11) 0.82942(6) 0.54252(6) 0.0310(2) Uani 1 1 d .
O1 O 0.3151(3) 0.24672(18) 0.43885(15) 0.0276(5) Uani 1 1 d .
O2 O 0.2519(3) 0.06486(18) 0.44175(15) 0.0237(5) Uani 1 1 d .
O3 O 0.6004(3) 0.36486(18) 0.89695(15) 0.0230(5) Uani 1 1 d .
O4 O 0.7103(3) 0.36614(19) 0.74475(15) 0.0246(5) Uani 1 1 d .
O5 O 0.4077(4) 0.9211(2) 0.91110(19) 0.0389(6) Uani 1 1 d .
O6 O 0.4314(4) 0.9111(2) 0.7636(2) 0.0465(7) Uani 1 1 d .
N1 N 0.3995(3) 0.3123(2) 0.74333(17) 0.0166(5) Uani 1 1 d .
N2 N 0.4325(4) 0.8696(2) 0.8340(2) 0.0294(6) Uani 1 1 d .
C1 C 0.2736(4) 0.1931(3) 0.8947(2) 0.0203(6) Uani 1 1 d .
H1 H 0.3546 0.1546 0.8601 0.024 Uiso 1 1 calc R
C2 C 0.2237(4) 0.1531(3) 0.9706(2) 0.0218(6) Uani 1 1 d .
H2 H 0.2684 0.0870 0.9874 0.026 Uiso 1 1 calc R
C3 C 0.1078(4) 0.2108(3) 1.0216(2) 0.0238(7) Uani 1 1 d .
C4 C 0.0432(5) 0.3073(3) 0.9994(2) 0.0295(7) Uani 1 1 d .
H4 H -0.0341 0.3469 1.0360 0.035 Uiso 1 1 calc R
C5 C 0.0929(4) 0.3462(3) 0.9224(2) 0.0259(7) Uani 1 1 d .
H5 H 0.0487 0.4127 0.9064 0.031 Uiso 1 1 calc R
C6 C 0.2070(4) 0.2887(2) 0.8682(2) 0.0191(6) Uani 1 1 d .
C7 C 0.2341(4) 0.3215(2) 0.7785(2) 0.0183(6) Uani 1 1 d .
C8 C 0.1104(4) 0.3446(2) 0.7133(2) 0.0194(6) Uani 1 1 d .
H8 H -0.0081 0.3510 0.7216 0.023 Uiso 1 1 calc R
C9 C 0.1799(4) 0.3594(2) 0.6248(2) 0.0181(6) Uani 1 1 d .
H9 H 0.1044 0.3093 0.5695 0.022 Uiso 1 1 calc R
C10 C 0.3614(4) 0.3100(2) 0.6393(2) 0.0164(6) Uani 1 1 d .
H10 H 0.4526 0.3585 0.6202 0.020 Uiso 1 1 calc R
C11 C 0.3582(4) 0.1886(2) 0.5872(2) 0.0189(6) Uani 1 1 d .
C12 C 0.4053(4) 0.1036(3) 0.6276(2) 0.0259(7) Uani 1 1 d .
H12A H 0.4067 0.0307 0.5899 0.031 Uiso 1 1 calc R
H12B H 0.4377 0.1155 0.6944 0.031 Uiso 1 1 calc R
C13 C 0.3069(4) 0.1711(2) 0.4822(2) 0.0204(6) Uani 1 1 d .
C14 C 0.1972(5) 0.0424(3) 0.3393(2) 0.0279(7) Uani 1 1 d .
H14A H 0.2997 0.0503 0.3070 0.033 Uiso 1 1 calc R
H14B H 0.1135 0.0965 0.3217 0.033 Uiso 1 1 calc R
C15 C 0.1122(5) -0.0760(3) 0.3104(3) 0.0364(8) Uani 1 1 d .
H15A H 0.1956 -0.1286 0.3290 0.055 Uiso 1 1 calc GR
H15B H 0.0758 -0.0943 0.2416 0.055 Uiso 1 1 calc GR
H15C H 0.0097 -0.0824 0.3418 0.055 Uiso 1 1 calc GR
C16 C 0.1845(4) 0.4793(2) 0.6075(2) 0.0184(6) Uani 1 1 d .
C17 C 0.2542(4) 0.5047(3) 0.5299(2) 0.0214(6) Uani 1 1 d .
H17 H 0.3027 0.4474 0.4900 0.026 Uiso 1 1 calc R
C18 C 0.2537(4) 0.6125(3) 0.5105(2) 0.0240(7) Uani 1 1 d .
H18 H 0.3016 0.6291 0.4578 0.029 Uiso 1 1 calc R
C19 C 0.1829(4) 0.6949(2) 0.5686(2) 0.0216(6) Uani 1 1 d .
C20 C 0.1133(4) 0.6727(3) 0.6461(2) 0.0243(7) Uani 1 1 d .
H20 H 0.0652 0.7306 0.6857 0.029 Uiso 1 1 calc R
C21 C 0.1148(4) 0.5643(3) 0.6654(2) 0.0228(6) Uani 1 1 d .
H21 H 0.0677 0.5484 0.7185 0.027 Uiso 1 1 calc R
C22 C 0.5370(4) 0.5313(2) 0.8129(2) 0.0183(6) Uani 1 1 d .
C23 C 0.5836(4) 0.5895(3) 0.7450(2) 0.0222(6) Uani 1 1 d .
H23 H 0.6402 0.5532 0.6954 0.027 Uiso 1 1 calc R
C24 C 0.5462(4) 0.7008(3) 0.7509(2) 0.0246(7) Uani 1 1 d .
H24 H 0.5736 0.7419 0.7048 0.030 Uiso 1 1 calc R
C25 C 0.4676(4) 0.7506(3) 0.8260(2) 0.0228(6) Uani 1 1 d .
C26 C 0.4216(4) 0.6944(3) 0.8944(2) 0.0230(6) Uani 1 1 d .
H26 H 0.3691 0.7319 0.9452 0.028 Uiso 1 1 calc R
C27 C 0.4543(4) 0.5821(3) 0.8869(2) 0.0215(6) Uani 1 1 d .
H27 H 0.4210 0.5404 0.9314 0.026 Uiso 1 1 calc R
loop_
_atom_site_aniso_label
_atom_site_aniso_U_11
_atom_site_aniso_U_22
_atom_site_aniso_U_33
_atom_site_aniso_U_23
_atom_site_aniso_U_13
_atom_site_aniso_U_12
Br1 0.0322(2) 0.0498(2) 0.0286(2) 0.01686(16) 0.00980(14) -0.00175(16)
S1 0.0117(3) 0.0213(4) 0.0192(4) 0.0036(3) 0.0019(3) 0.0031(3)
Cl1 0.0336(5) 0.0195(4) 0.0393(5) 0.0109(3) -0.0025(4) 0.0013(3)
O1 0.0408(14) 0.0213(11) 0.0220(11) 0.0056(9) 0.0068(10) 0.0039(10)
O2 0.0299(13) 0.0201(10) 0.0197(11) 0.0034(8) 0.0002(9) 0.0026(9)
O3 0.0189(11) 0.0270(11) 0.0227(11) 0.0060(9) -0.0003(9) 0.0044(9)
O4 0.0149(11) 0.0316(12) 0.0268(12) 0.0033(9) 0.0044(9) 0.0036(9)
O5 0.0425(16) 0.0268(13) 0.0441(16) -0.0009(11) 0.0031(12) 0.0118(11)
O6 0.065(2) 0.0305(14) 0.0495(17) 0.0203(12) 0.0078(15) 0.0100(13)
N1 0.0131(12) 0.0187(12) 0.0178(12) 0.0033(9) 0.0027(9) 0.0017(9)
N2 0.0248(15) 0.0232(14) 0.0382(17) 0.0062(12) -0.0021(12) 0.0021(11)
C1 0.0152(15) 0.0237(15) 0.0220(15) 0.0030(12) 0.0046(11) 0.0038(11)
C2 0.0205(16) 0.0223(15) 0.0228(15) 0.0068(12) 0.0005(12) 0.0031(12)
C3 0.0219(16) 0.0315(16) 0.0190(14) 0.0065(12) 0.0063(12) -0.0011(13)
C4 0.0251(18) 0.0365(18) 0.0316(18) 0.0085(14) 0.0161(14) 0.0066(14)
C5 0.0263(18) 0.0239(16) 0.0320(17) 0.0098(13) 0.0116(14) 0.0082(13)
C6 0.0151(14) 0.0220(14) 0.0199(14) 0.0034(11) 0.0041(11) -0.0013(11)
C7 0.0158(14) 0.0168(13) 0.0231(15) 0.0034(11) 0.0058(11) 0.0023(11)
C8 0.0148(14) 0.0198(14) 0.0253(15) 0.0063(12) 0.0060(12) 0.0022(11)
C9 0.0127(14) 0.0194(14) 0.0221(14) 0.0053(11) 0.0006(11) 0.0020(11)
C10 0.0153(14) 0.0173(13) 0.0169(13) 0.0035(11) 0.0030(11) 0.0010(11)
C11 0.0160(15) 0.0213(14) 0.0192(14) 0.0028(11) 0.0034(11) 0.0034(11)
C12 0.0299(18) 0.0222(15) 0.0254(16) 0.0036(12) 0.0035(13) 0.0065(13)
C13 0.0178(15) 0.0216(14) 0.0229(15) 0.0037(12) 0.0065(12) 0.0055(12)
C14 0.037(2) 0.0247(16) 0.0201(15) 0.0034(12) -0.0008(13) 0.0043(14)
C15 0.042(2) 0.0317(18) 0.0296(18) 0.0008(14) -0.0041(16) -0.0036(16)
C16 0.0136(14) 0.0202(14) 0.0206(14) 0.0046(11) -0.0009(11) 0.0020(11)
C17 0.0191(16) 0.0209(14) 0.0245(15) 0.0038(12) 0.0039(12) 0.0054(12)
C18 0.0208(16) 0.0266(16) 0.0260(16) 0.0093(13) 0.0027(13) 0.0024(13)
C19 0.0207(16) 0.0162(13) 0.0266(16) 0.0061(12) -0.0036(12) 0.0030(11)
C20 0.0265(17) 0.0218(15) 0.0247(16) 0.0038(12) 0.0023(13) 0.0088(13)
C21 0.0244(17) 0.0245(15) 0.0211(15) 0.0067(12) 0.0049(12) 0.0057(12)
C22 0.0133(14) 0.0186(14) 0.0216(14) 0.0029(11) -0.0002(11) 0.0002(11)
C23 0.0233(16) 0.0233(15) 0.0191(15) 0.0030(12) 0.0033(12) -0.0014(12)
C24 0.0230(16) 0.0258(16) 0.0248(16) 0.0086(13) 0.0003(13) -0.0027(13)
C25 0.0187(16) 0.0205(15) 0.0267(16) 0.0032(12) -0.0024(12) -0.0001(12)
C26 0.0182(15) 0.0267(16) 0.0231(15) 0.0023(12) 0.0034(12) 0.0016(12)
C27 0.0203(16) 0.0252(15) 0.0199(15) 0.0071(12) 0.0029(12) 0.0013(12)
loop_
_atom_type_symbol
_atom_type_description
_atom_type_scat_dispersion_real
_atom_type_scat_dispersion_imag
_atom_type_scat_source
C C 0.0033 0.0016 'International Tables Vol C Tables 4.2.6.8 and 6.1.1.4'
H H 0.0000 0.0000 'International Tables Vol C Tables 4.2.6.8 and 6.1.1.4'
N N 0.0061 0.0033 'International Tables Vol C Tables 4.2.6.8 and 6.1.1.4'
O O 0.0106 0.0060 'International Tables Vol C Tables 4.2.6.8 and 6.1.1.4'
S S 0.1246 0.1234 'International Tables Vol C Tables 4.2.6.8 and 6.1.1.4'
Cl Cl 0.1484 0.1585 'International Tables Vol C Tables 4.2.6.8 and 6.1.1.4'
Br Br -0.2901 2.4595 'International Tables Vol C Tables 4.2.6.8 and 6.1.1.4'
loop_
_geom_angle_atom_site_label_1
_geom_angle_atom_site_label_2
_geom_angle_atom_site_label_3
_geom_angle
O3 S1 O4 120.87(14)
O3 S1 N1 107.44(13)
O3 S1 C22 107.52(14)
O4 S1 N1 105.44(14)
O4 S1 C22 107.81(14)
N1 S1 C22 107.03(13)
C13 O2 C14 116.0(2)
C7 N1 S1 120.5(2)
C7 N1 C10 106.8(2)
C10 N1 S1 117.42(18)
O5 N2 O6 124.3(3)
O5 N2 C25 117.7(3)
O6 N2 C25 118.0(3)
C2 C1 H1 119.4
C2 C1 C6 121.1(3)
C6 C1 H1 119.4
C1 C2 H2 120.5
C3 C2 C1 119.0(3)
C3 C2 H2 120.5
C2 C3 Br1 118.4(2)
C4 C3 Br1 120.0(2)
C4 C3 C2 121.6(3)
C3 C4 H4 120.6
C3 C4 C5 118.9(3)
C5 C4 H4 120.6
C4 C5 H5 119.5
C4 C5 C6 121.0(3)
C6 C5 H5 119.5
C1 C6 C5 118.3(3)
C1 C6 C7 121.9(3)
C5 C6 C7 119.3(3)
N1 C7 C6 122.1(3)
C8 C7 N1 110.9(3)
C8 C7 C6 126.1(3)
C7 C8 H8 123.9
C7 C8 C9 112.2(3)
C9 C8 H8 123.9
C8 C9 H9 108.2
C8 C9 C10 101.7(2)
C8 C9 C16 114.6(2)
C10 C9 H9 108.2
C16 C9 H9 108.2
C16 C9 C10 115.5(2)
N1 C10 C9 104.4(2)
N1 C10 H10 110.3
N1 C10 C11 108.2(2)
C9 C10 H10 110.3
C11 C10 C9 113.1(2)
C11 C10 H10 110.3
C12 C11 C10 124.7(3)
C12 C11 C13 120.6(3)
C13 C11 C10 114.5(2)
C11 C12 H12A 120.0
C11 C12 H12B 120.0
H12A C12 H12B 120.0
O1 C13 O2 123.8(3)
O1 C13 C11 123.0(3)
O2 C13 C11 113.2(2)
O2 C14 H14A 110.2
O2 C14 H14B 110.2
O2 C14 C15 107.4(3)
H14A C14 H14B 108.5
C15 C14 H14A 110.2
C15 C14 H14B 110.2
C14 C15 H15A 109.5
C14 C15 H15B 109.5
C14 C15 H15C 109.5
H15A C15 H15B 109.5
H15A C15 H15C 109.5
H15B C15 H15C 109.5
C17 C16 C9 119.9(3)
C21 C16 C9 121.4(3)
C21 C16 C17 118.7(3)
C16 C17 H17 119.5
C18 C17 C16 120.9(3)
C18 C17 H17 119.5
C17 C18 H18 120.4
C19 C18 C17 119.2(3)
C19 C18 H18 120.4
C18 C19 Cl1 119.0(3)
C18 C19 C20 121.4(3)
C20 C19 Cl1 119.6(2)
C19 C20 H20 120.4
C19 C20 C21 119.1(3)
C21 C20 H20 120.4
C16 C21 C20 120.7(3)
C16 C21 H21 119.7
C20 C21 H21 119.7
C23 C22 S1 119.3(2)
C23 C22 C27 122.0(3)
C27 C22 S1 118.7(2)
C22 C23 H23 120.4
C24 C23 C22 119.1(3)
C24 C23 H23 120.4
C23 C24 H24 120.9
C25 C24 C23 118.1(3)
C25 C24 H24 120.9
C24 C25 N2 118.3(3)
C24 C25 C26 123.5(3)
C26 C25 N2 118.2(3)
C25 C26 H26 120.8
C27 C26 C25 118.4(3)
C27 C26 H26 120.8
C22 C27 H27 120.6
C26 C27 C22 118.9(3)
C26 C27 H27 120.6
loop_
_geom_bond_atom_site_label_1
_geom_bond_atom_site_label_2
_geom_bond_distance
Br1 C3 1.903(3)
S1 O3 1.430(2)
S1 O4 1.436(2)
S1 N1 1.652(3)
S1 C22 1.769(3)
Cl1 C19 1.744(3)
O1 C13 1.212(4)
O2 C13 1.329(4)
O2 C14 1.462(4)
O5 N2 1.224(4)
O6 N2 1.225(4)
N1 C7 1.452(4)
N1 C10 1.497(4)
N2 C25 1.470(4)
C1 H1 0.9500
C1 C2 1.384(4)
C1 C6 1.394(4)
C2 H2 0.9500
C2 C3 1.386(5)
C3 C4 1.374(5)
C4 H4 0.9500
C4 C5 1.393(4)
C5 H5 0.9500
C5 C6 1.398(4)
C6 C7 1.476(4)
C7 C8 1.330(4)
C8 H8 0.9500
C8 C9 1.505(4)
C9 H9 1.0000
C9 C10 1.563(4)
C9 C16 1.522(4)
C10 H10 1.0000
C10 C11 1.520(4)
C11 C12 1.324(4)
C11 C13 1.496(4)
C12 H12A 0.9500
C12 H12B 0.9500
C14 H14A 0.9900
C14 H14B 0.9900
C14 C15 1.503(5)
C15 H15A 0.9800
C15 H15B 0.9800
C15 H15C 0.9800
C16 C17 1.399(4)
C16 C21 1.390(4)
C17 H17 0.9500
C17 C18 1.389(4)
C18 H18 0.9500
C18 C19 1.375(5)
C19 C20 1.386(5)
C20 H20 0.9500
C20 C21 1.396(4)
C21 H21 0.9500
C22 C23 1.395(4)
C22 C27 1.396(4)
C23 H23 0.9500
C23 C24 1.387(5)
C24 H24 0.9500
C24 C25 1.384(5)
C25 C26 1.386(4)
C26 H26 0.9500
C26 C27 1.386(5)
C27 H27 0.9500
loop_
_geom_torsion_atom_site_label_1
_geom_torsion_atom_site_label_2
_geom_torsion_atom_site_label_3
_geom_torsion_atom_site_label_4
_geom_torsion
Br1 C3 C4 C5 -178.0(3)
S1 N1 C7 C6 -63.5(3)
S1 N1 C7 C8 126.4(2)
S1 N1 C10 C9 -119.9(2)
S1 N1 C10 C11 119.4(2)
S1 C22 C23 C24 177.9(2)
S1 C22 C27 C26 -179.9(2)
Cl1 C19 C20 C21 178.9(2)
O3 S1 N1 C7 55.2(2)
O3 S1 N1 C10 -171.86(19)
O3 S1 C22 C23 152.4(2)
O3 S1 C22 C27 -29.4(3)
O4 S1 N1 C7 -174.7(2)
O4 S1 N1 C10 -41.7(2)
O4 S1 C22 C23 20.6(3)
O4 S1 C22 C27 -161.2(2)
O5 N2 C25 C24 -160.9(3)
O5 N2 C25 C26 18.6(4)
O6 N2 C25 C24 18.4(4)
O6 N2 C25 C26 -162.1(3)
N1 S1 C22 C23 -92.5(3)
N1 S1 C22 C27 85.8(3)
N1 C7 C8 C9 -2.6(3)
N1 C10 C11 C12 -8.5(4)
N1 C10 C11 C13 175.2(2)
N2 C25 C26 C27 179.9(3)
C1 C2 C3 Br1 178.6(2)
C1 C2 C3 C4 -0.9(5)
C1 C6 C7 N1 -40.3(4)
C1 C6 C7 C8 128.2(3)
C2 C1 C6 C5 2.3(4)
C2 C1 C6 C7 -169.3(3)
C2 C3 C4 C5 1.5(5)
C3 C4 C5 C6 -0.2(5)
C4 C5 C6 C1 -1.7(5)
C4 C5 C6 C7 170.1(3)
C5 C6 C7 N1 148.2(3)
C5 C6 C7 C8 -43.3(4)
C6 C1 C2 C3 -1.1(5)
C6 C7 C8 C9 -172.1(3)
C7 N1 C10 C9 18.9(3)
C7 N1 C10 C11 -101.8(2)
C7 C8 C9 C10 14.1(3)
C7 C8 C9 C16 -111.2(3)
C8 C9 C10 N1 -19.4(3)
C8 C9 C10 C11 98.0(3)
C8 C9 C16 C17 177.0(3)
C8 C9 C16 C21 -5.4(4)
C9 C10 C11 C12 -123.6(3)
C9 C10 C11 C13 60.1(3)
C9 C16 C17 C18 177.5(3)
C9 C16 C21 C20 -177.2(3)
C10 N1 C7 C6 159.1(3)
C10 N1 C7 C8 -10.9(3)
C10 C9 C16 C17 59.3(4)
C10 C9 C16 C21 -123.1(3)
C10 C11 C13 O1 20.1(4)
C10 C11 C13 O2 -160.0(2)
C12 C11 C13 O1 -156.5(3)
C12 C11 C13 O2 23.5(4)
C13 O2 C14 C15 -170.5(3)
C14 O2 C13 O1 -0.9(4)
C14 O2 C13 C11 179.1(3)
C16 C9 C10 N1 105.3(3)
C16 C9 C10 C11 -137.3(3)
C16 C17 C18 C19 -0.2(5)
C17 C16 C21 C20 0.4(5)
C17 C18 C19 Cl1 -178.7(2)
C17 C18 C19 C20 0.4(5)
C18 C19 C20 C21 -0.2(5)
C19 C20 C21 C16 -0.2(5)
C21 C16 C17 C18 -0.2(5)
C22 S1 N1 C7 -60.1(2)
C22 S1 N1 C10 72.9(2)
C22 C23 C24 C25 1.7(4)
C23 C22 C27 C26 -1.6(4)
C23 C24 C25 N2 178.2(3)
C23 C24 C25 C26 -1.2(5)
C24 C25 C26 C27 -0.7(5)
C25 C26 C27 C22 2.1(4)
C27 C22 C23 C24 -0.3(5)
