#------------------------------------------------------------------------------
#$Date: 2017-09-28 16:09:58 +0300 (Thu, 28 Sep 2017) $
#$Revision: 201436 $
#$URL: file:///home/coder/svn-repositories/cod/cif/1/54/74/1547434.cif $
#------------------------------------------------------------------------------
#
# This file is available in the Crystallography Open Database (COD),
# http://www.crystallography.net/
#
# All data on this site have been placed in the public domain by the
# contributors.
#
data_1547434
loop_
_publ_author_name
'Anuradha R. Pallipurath'
'Jonathan M. Skelton'
'Mark R. Warren'
'Naghmeh Kamali'
'Patrick McArdle'
'Andrea Erxleben'
_publ_section_title
;
 Sulfamerazine: Understanding the Influence of Slip Planes in the
 Polymorphic Phase Transformation through X-Ray Crystallographic Studies
 and ab Initio Lattice Dynamics
;
_journal_name_full               'Molecular Pharmaceutics'
_journal_page_first              3735
_journal_page_last               3748
_journal_paper_doi               10.1021/acs.molpharmaceut.5b00504
_journal_volume                  12
_journal_year                    2015
_chemical_formula_moiety         'C11 H12 N4 O2 S'
_chemical_formula_sum            'C11 H12 N4 O2 S'
_chemical_formula_weight         264.31
_chemical_name_common            Sulfamerazine
_chemical_name_systematic        4-amino-N-(4-methylpyrimidin-2-yl)
_space_group_crystal_system      orthorhombic
_space_group_IT_number           61
_space_group_name_Hall           '-P 2ac 2ab'
_space_group_name_H-M_alt        'P b c a'
_symmetry_space_group_name_Hall  '-P 2ac 2ab'
_symmetry_space_group_name_H-M   'P b c a'
_atom_sites_solution_hydrogens   mixed
_cell_angle_alpha                90
_cell_angle_beta                 90
_cell_angle_gamma                90
_cell_formula_units_Z            8
_cell_length_a                   9.1228(4)
_cell_length_b                   11.6522(6)
_cell_length_c                   22.8488(10)
_cell_measurement_reflns_used    2090
_cell_measurement_temperature    260.0(1)
_cell_measurement_theta_max      28.7410
_cell_measurement_theta_min      4.2270
_cell_volume                     2428.8(2)
_computing_cell_refinement
;
'Tue Feb 03 18:18:40 2015'
;
_computing_data_collection
;
'Tue Feb 03 18:18:40 2015'
;
_computing_data_reduction
;
'Tue Feb 03 18:18:40 2015'
;
_computing_molecular_graphics    OSCAIL
_computing_structure_refinement  'SHELXL-2014/7 (Sheldrick, 2014)'
_computing_structure_solution    SHELXT
_diffrn_ambient_temperature      260.0(1)
_diffrn_detector_area_resol_mean 16.1048
_diffrn_measured_fraction_theta_full 0.997
_diffrn_measured_fraction_theta_max 0.856
_diffrn_measurement_device_type  'Xcalibur, Sapphire3'
_diffrn_measurement_method       '\w scans'
_diffrn_radiation_type           MoK\a
_diffrn_radiation_wavelength     0.71073
_diffrn_reflns_av_R_equivalents  0.0231
_diffrn_reflns_av_unetI/netI     0.0368
_diffrn_reflns_Laue_measured_fraction_full 0.997
_diffrn_reflns_Laue_measured_fraction_max 0.856
_diffrn_reflns_limit_h_max       12
_diffrn_reflns_limit_h_min       -8
_diffrn_reflns_limit_k_max       15
_diffrn_reflns_limit_k_min       -14
_diffrn_reflns_limit_l_max       30
_diffrn_reflns_limit_l_min       -30
_diffrn_reflns_number            7159
_diffrn_reflns_point_group_measured_fraction_full 0.997
_diffrn_reflns_point_group_measured_fraction_max 0.856
_diffrn_reflns_theta_full        25.242
_diffrn_reflns_theta_max         29.316
_diffrn_reflns_theta_min         3.609
_diffrn_source                   'Enhance (Mo) X-ray Source'
_exptl_absorpt_coefficient_mu    0.267
_exptl_absorpt_correction_T_max  1.00000
_exptl_absorpt_correction_T_min  0.98515
_exptl_absorpt_correction_type   multi-scan
_exptl_absorpt_process_details
;
crysalispro, agilent technologies,
version 1.171.37.33 (release 27-03-2014 crysalis171 .net)
(compiled mar 27 2014,17:12:48)
empirical absorption correction using spherical harmonics,
 implemented in scale3 abspack scaling algorithm.
;
_exptl_crystal_colour            Colourless
_exptl_crystal_density_diffrn    1.446
_exptl_crystal_description       Parallelepiped
_exptl_crystal_F_000             1104
_exptl_crystal_size_max          0.50
_exptl_crystal_size_mid          0.40
_exptl_crystal_size_min          0.20
_refine_diff_density_max         0.256
_refine_diff_density_min         -0.447
_refine_diff_density_rms         0.053
_refine_ls_extinction_coef       .
_refine_ls_extinction_method     none
_refine_ls_goodness_of_fit_ref   1.088
_refine_ls_hydrogen_treatment    mixed
_refine_ls_matrix_type           full
_refine_ls_number_parameters     176
_refine_ls_number_reflns         2852
_refine_ls_number_restraints     3
_refine_ls_restrained_S_all      1.088
_refine_ls_R_factor_all          0.0661
_refine_ls_R_factor_gt           0.0449
_refine_ls_shift/su_max          0.001
_refine_ls_shift/su_mean         0.000
_refine_ls_structure_factor_coef Fsqd
_refine_ls_weighting_details
'w=1/[\s^2^(Fo^2^)+(0.0449P)^2^+0.6939P] where P=(Fo^2^+2Fc^2^)/3'
_refine_ls_weighting_scheme      calc
_refine_ls_wR_factor_gt          0.1015
_refine_ls_wR_factor_ref         0.1148
_reflns_Friedel_coverage         0.000
_reflns_Friedel_fraction_full    .
_reflns_Friedel_fraction_max     .
_reflns_number_gt                2123
_reflns_number_total             2852
_reflns_threshold_expression     'I > 2\s(I)'
_cod_data_source_file            Exp_Form-II2FInHouse_Form-II_260K.cif
_cod_data_source_block           smz_f2_260
_cod_database_code               1547434
_shelx_space_group_comment
;
The symmetry employed for this shelxl refinement is uniquely defined
by the following loop, which should always be used as a source of
symmetry information in preference to the above space-group names.
They are only intended as comments.
;
_shelx_estimated_absorpt_t_min   0.878
_shelx_estimated_absorpt_t_max   0.949
_shelx_res_file
;
  
    smz_f2_260.res created by SHELXL-2014/7
  
  
TITL smz_f2_260_a.res in Pbca
REM Old TITL smz_f2_260 in Pbca
REM SHELXT solution in Pbca
REM R1 0.131,  Rweak 0.562,  Alpha 0.028,  Orientation as input
REM Formula found by SHELXT:  C12 N3 O2 S
CELL  0.71073   9.1228  11.6522  22.8488   90.000   90.000   90.000
ZERR    8.000   0.0004   0.0006   0.0010    0.000    0.000    0.000
REM SG 61 8 8 Pbca P21/b21/c21/a PGmmm Orthorhombic
LATT 1
REM SG  ASUN  1  .5 .5 .5
REM SG  ORGN  at Inv.cen.
SYMM 0.5-X,-Y,0.5+Z
SYMM -X,0.5+Y,0.5-Z
SYMM 0.5+X,0.5-Y,-Z
SFAC C H N O S
UNIT 88 96 32 16 8
DFIX  0.89 .02  N1 H1N1 N1 H2N1 N2 H1N2
FMAP 2
PLAN -32
BOND $H
L.S. 12
SIZE    0.50  0.40  0.20
ACTA
CONF
HTAB
LIST 4
WGHT    0.044900    0.693900
FVAR       0.57785
S1    5    0.667279    0.346632    0.389767    11.00000    0.03196    0.03434 =
         0.02925   -0.00300    0.00044    0.00392
O1    4    0.801994    0.397209    0.409535    11.00000    0.02868    0.05614 =
         0.03430   -0.00155   -0.00053    0.00296
O2    4    0.657456    0.224455    0.386218    11.00000    0.05639    0.03328 =
         0.03998   -0.00312   -0.00035    0.00926
N1    3    0.543736    0.532862    0.155196    11.00000    0.06826    0.04639 =
         0.04113    0.00667   -0.01749   -0.00302
N2    3    0.548779    0.394874    0.437468    11.00000    0.03102    0.03806 =
         0.03441   -0.01088    0.00417   -0.00542
N3    3    0.333987    0.426351    0.485407    11.00000    0.03033    0.04214 =
         0.03184   -0.00352    0.00291   -0.00270
N4    3    0.344504    0.286006    0.409206    11.00000    0.03704    0.03707 =
         0.03640   -0.00085   -0.00308   -0.00568
C1    1    0.623828    0.404378    0.321869    11.00000    0.03238    0.03364 =
         0.02934   -0.00313   -0.00098    0.00225
C2    1    0.666469    0.515273    0.307989    11.00000    0.04063    0.03118 =
         0.03625   -0.00630   -0.00726    0.00134
AFIX  43
H2    2    0.713408    0.560295    0.335887    11.00000   -1.30000
AFIX   0
C3    1    0.639604    0.558957    0.253104    11.00000    0.04793    0.02977 =
         0.04297    0.00188   -0.00658   -0.00105
AFIX  43
H3    2    0.670193    0.632967    0.243994    11.00000   -1.30000
AFIX   0
C4    1    0.566702    0.493319    0.210734    11.00000    0.03928    0.03974 =
         0.03647    0.00049   -0.00619    0.00538
C5    1    0.521949    0.382446    0.225897    11.00000    0.05788    0.04207 =
         0.03890   -0.00304   -0.01604   -0.00984
AFIX  43
H5    2    0.471899    0.337810    0.198709    11.00000   -1.30000
AFIX   0
C6    1    0.551143    0.338680    0.280585    11.00000    0.05424    0.03742 =
         0.04066    0.00132   -0.00783   -0.01134
AFIX  43
H6    2    0.521839    0.264440    0.289879    11.00000   -1.30000
AFIX   0
C7    1    0.402090    0.366491    0.443354    11.00000    0.03203    0.03270 =
         0.02875    0.00279   -0.00064   -0.00125
C8    1    0.192375    0.401249    0.492737    11.00000    0.03429    0.05409 =
         0.03709    0.00253    0.00440   -0.00090
AFIX  43
H8    2    0.139805    0.440793    0.521188    11.00000   -1.30000
AFIX   0
C9    1    0.121506    0.320234    0.460357    11.00000    0.03219    0.05602 =
         0.04023    0.00785   -0.00150   -0.00798
AFIX  43
H9    2    0.022788    0.304293    0.466444    11.00000   -1.30000
AFIX   0
C10   1    0.201229    0.262531    0.418162    11.00000    0.03861    0.03880 =
         0.04055    0.00917   -0.00950   -0.00862
C11   1    0.134284    0.169795    0.381828    11.00000    0.05396    0.05397 =
         0.06632   -0.00479   -0.01428   -0.01636
AFIX 137
H11A  2    0.146981    0.187560    0.341115    11.00000   -1.30000
H11B  2    0.031589    0.164166    0.390536    11.00000   -1.30000
H11C  2    0.181242    0.098040    0.390473    11.00000   -1.30000
AFIX   0
H1N1  2    0.550061    0.605110    0.145676    11.00000    0.08239
H2N1  2    0.480029    0.492573    0.134608    11.00000    0.05695
H1N2  2    0.579424    0.449157    0.459687    11.00000    0.04674
HKLF 4
  
REM  smz_f2_260_a.res in Pbca
REM R1 =  0.0449 for    2123 Fo > 4sig(Fo)  and  0.0661 for all    2852 data
REM    176 parameters refined using      3 restraints
  
END
  
WGHT      0.0454      0.6782
  
REM Instructions for potential hydrogen bonds
EQIV $1 -x+3/2, y+1/2, z
HTAB C2 O2_$1
EQIV $2 -x+1, -y+1, -z+1
HTAB C8 O1_$2
EQIV $3 x-1, y, z
HTAB C9 O1_$3
EQIV $4 -x+1, y+1/2, -z+1/2
HTAB N1 O2_$4
HTAB N1 N4_$4
EQIV $5 x-1/2, y, -z+1/2
HTAB N1 O1_$5
HTAB N2 N3_$2
  
REM Highest difference peak  0.256,  deepest hole -0.447,  1-sigma level  0.053
Q1    1   0.6317  0.3774  0.3505  11.00000  0.05    0.26
Q2    1   0.5918  0.5185  0.2354  11.00000  0.05    0.18
Q3    1   0.5570  0.4368  0.2152  11.00000  0.05    0.18
Q4    1   0.6337  0.5401  0.2812  11.00000  0.05    0.17
Q5    1   0.3654  0.3343  0.4170  11.00000  0.05    0.17
Q6    1   0.3019  0.3586  0.3588  11.00000  0.05    0.17
Q7    1   0.4388  0.2831  0.3163  11.00000  0.05    0.16
Q8    1   0.8694  0.3995  0.4087  11.00000  0.05    0.16
Q9    1   0.0163  0.2047  0.3694  11.00000  0.05    0.16
Q10   1   0.6098  0.4601  0.3258  11.00000  0.05    0.16
Q11   1   0.1486  0.0785  0.4272  11.00000  0.05    0.16
Q12   1   0.2732  0.1827  0.4930  11.00000  0.05    0.15
Q13   1   0.3835  0.1359  0.4977  11.00000  0.05    0.15
Q14   1   0.6842  0.5183  0.2734  11.00000  0.05    0.15
Q15   1   0.3848  0.5215  0.1513  11.00000  0.05    0.15
Q16   1   0.5859  0.3808  0.4113  11.00000  0.05    0.15
Q17   1   0.1832  0.2643  0.4532  11.00000  0.05    0.15
Q18   1   0.3519  0.4926  0.1578  11.00000  0.05    0.15
Q19   1   0.3685  0.2983  0.3784  11.00000  0.05    0.15
Q20   1   0.6040  0.6544  0.2499  11.00000  0.05    0.15
Q21   1   0.0771  0.0971  0.4096  11.00000  0.05    0.15
Q22   1   0.2900  0.3038  0.4010  11.00000  0.05    0.15
Q23   1   0.6582  0.1608  0.3277  11.00000  0.05    0.14
Q24   1   0.7458  0.1411  0.3666  11.00000  0.05    0.14
Q25   1   0.2926  0.2664  0.4289  11.00000  0.05    0.14
Q26   1   0.3628  0.2669  0.3664  11.00000  0.05    0.14
Q27   1   0.7730  0.5482  0.3280  11.00000  0.05    0.14
Q28   1   0.2468  0.1967  0.3275  11.00000  0.05    0.14
Q29   1   0.6924  0.7132  0.2304  11.00000  0.05    0.14
Q30   1   0.8156  0.5801  0.3075  11.00000  0.05    0.14
Q31   1   0.7751  0.4565  0.4002  11.00000  0.05    0.14
Q32   1   0.0938  0.2173  0.3468  11.00000  0.05    0.14
;
_shelx_res_checksum              5116
_shelx_hkl_file
;
   0   0  -5    4.17    3.05
   0   0  -6 7642.28   45.44
   0   0  -7   70.07    6.50
   0   0  -8 1096.63   20.01
   0   0  -9   34.47    5.71
   0   0 -10 5491.89   49.79
   0   0 -11   95.48    9.75
   0   0 -12    3.92    1.79
   0   0 -13    3.90    3.30
   0   0 -14  850.52   23.46
   0   0  14  871.64   21.61
   0   0  15   41.16    5.46
   0   0 -15   25.46    4.97
   0   0 -16   10.29    2.42
   0   0  16   21.30    4.05
   0   0  17    9.77    3.58
   0   0 -17    9.25    4.47
   0   0  18 1367.01   31.08
   0   0 -18 1406.92   35.01
   0   0  19   55.25    7.26
   0   0 -19   61.15    8.34
   0   0 -20  138.10   11.89
   0   0  20  148.63   10.98
   0   0  21    7.31    3.48
   0   0 -21    3.04    3.46
   0   0  22  183.73   12.58
   0   0 -22  179.75   14.24
   0   0  23    5.49    2.42
   0   0 -23    8.59    4.37
   0   0 -24   72.47    9.76
   0   0  24   80.95    8.74
   0   0 -25   -4.33    3.77
   0   0 -26   30.19    6.44
   0   0 -27   -3.92    3.81
   0   0 -28   40.47    8.06
   0   1   4    0.71    0.71
   0  -1  -4    0.74    0.63
   0  -1  -4    0.24    0.96
   0   1   4    1.05    1.13
   0  -1  -5    2.38    1.10
   0   1   5    0.17    0.91
   0  -1  -5    5.39    2.18
   0   1   5   -2.70    1.89
   0  -1  -6   -0.17    1.94
   0   1   6   -0.08    1.09
   0   1   7    0.54    0.96
   0   1  -7   -0.12    1.25
   0  -1  -7    0.64    1.66
   0  -1  -8   -3.29    2.46
   0   1   8   -1.10    1.30
   0   1  -8   -0.60    1.52
   0   1   9    0.84    0.97
   0  -1  -9   -2.07    2.19
   0   1  -9   -1.58    1.89
   0   1 -10   -1.05    1.59
   0  -1 -10   -0.12    2.22
   0   1  10   -0.63    1.14
   0   1 -11   -0.79    1.86
   0   1  11   -0.78    1.43
   0  -1 -11   -1.34    2.41
   0   1 -12   -1.23    1.96
   0  -1 -12   -2.03    3.07
   0   1  12   -1.13    1.59
   0   1  13    0.69    1.34
   0   1 -13    1.12    1.78
   0   1 -14    1.18    2.03
   0   1  14   -2.13    1.70
   0  -1 -14   -5.37    4.04
   0  -1 -15   -4.41    4.06
   0   1  15   -0.55    1.51
   0   1 -15   -3.95    2.93
   0  -1 -16   -2.48    3.75
   0   1 -16    0.99    2.60
   0   1  16    0.03    1.60
   0   1  17   -2.61    2.55
   0  -1 -17   -4.36    3.23
   0   1 -17    1.69    2.69
   0   1  18   -3.12    2.91
   0  -1 -18   -2.58    3.61
   0   1 -18    0.14    2.72
   0   1 -19   -6.45    3.47
   0  -1 -19   -5.17    4.28
   0   1  19   -0.34    1.67
   0  -1 -20   -6.98    4.51
   0   1  20    0.03    2.02
   0  -1  20    0.42    2.37
   0   1 -20   -3.83    3.47
   0  -1 -21   -2.27    3.67
   0   1  21   -2.86    2.37
   0   1 -21   -5.81    3.83
   0  -1  21    6.84    3.22
   0  -1 -22    3.71    2.97
   0   1  22   -4.71    3.07
   0   1 -22    1.97    2.38
   0  -1  22   -0.79    1.90
   0  -1  23    0.68    1.88
   0   1 -23   -1.08    2.26
   0  -1 -23   -1.89    3.46
   0   1  23   -1.07    2.29
   0  -1 -24   -3.10    3.72
   0  -1  24    1.72    2.89
   0   1 -24   -0.57    2.44
   0  -1  25   -0.08    2.52
   0  -1 -25   -3.75    4.67
   0   1 -25    0.48    2.58
   0   1 -26    0.23    2.59
   0  -1 -26    0.88    2.74
   0  -1 -27    1.44    3.87
   0  -1 -28   -3.04    3.81
   0  -1 -29    2.20    3.14
   0  -2  -1 7932.43   42.18
   0   2   1 7757.96   39.11
   0   2   1 7479.69   40.58
   0   2   2 4493.50   32.56
   0   2   2 4351.73   32.11
   0  -2  -2 4466.43   32.95
   0  -2  -2 4502.27   32.58
   0  -2  -3 9999.00   51.60
   0  -2  -3 9960.71   52.52
   0   2   4 8057.96   51.27
   0  -2  -4 8022.27   39.95
   0  -2  -5 8314.55   41.59
   0  -2  -5 8520.01   55.74
   0   2   5 8400.50   55.87
   0   2   6 8026.91   57.91
   0   2   6 8170.05   42.75
   0  -2  -6 8211.23   58.29
   0  -2  -6 8028.44   42.88
   0   2   7   72.50    4.32
   0   2   7   72.65    5.84
   0   2   8  573.28   12.54
   0  -2  -8  571.92   12.62
   0  -2  -8  608.97   17.88
   0  -2  -9 1920.92   32.68
   0   2  -9 1828.54   22.60
   0   2   9 1843.98   23.45
   0  -2  -9 1825.21   23.56
   0   2  10  943.21   17.69
   0   2 -10  948.34   17.68
   0  -2 -11 1389.79   30.37
   0   2 -11 1346.06   22.44
   0   2  11 1369.99   22.28
   0   2 -12  618.94   16.22
   0   2  12  589.18   15.31
   0  -2 -12  651.84   21.58
   0   2  13  150.87    8.28
   0   2 -13  155.70    8.76
   0  -2 -14  690.76   23.80
   0   2  14  692.17   17.83
   0   2 -14  702.48   19.02
   0  -2 -15   29.53    5.90
   0   2 -15   33.97    5.29
   0   2  15   22.95    4.16
   0   2 -16   72.48    6.70
   0   2  16   82.95    6.82
   0  -2 -16   89.32    9.26
   0   2 -17  507.28   18.33
   0   2  17  509.23   17.01
   0  -2 -17  511.49   22.59
   0   2 -18  235.49   13.28
   0   2  18  247.56   12.58
   0  -2 -18  273.40   17.27
   0  -2 -19  721.87   28.30
   0   2  19  677.97   20.79
   0   2 -19  655.43   22.71
   0   2 -20   82.10    8.77
   0  -2 -20   97.42   11.21
   0   2  20   85.06    8.21
   0   2 -21   79.02    8.72
   0   2  21   79.21    7.61
   0  -2 -21   82.33   10.30
   0  -2 -22   11.71    5.62
   0   2  22    9.50    3.40
   0   2 -22   14.59    4.51
   0   2  23  424.50   18.24
   0   2 -23  431.73   20.74
   0  -2  23  430.63   21.57
   0  -2 -23  424.90   24.04
   0  -2 -24   27.75    7.59
   0   2 -24   29.15    6.29
   0  -2  24   24.45    5.99
   0   2 -25   20.98    5.18
   0  -2  25   11.15    3.95
   0  -2 -25   15.58    5.33
   0  -2  26   80.86    9.90
   0  -2 -26   93.93   12.25
   0  -2 -27    3.36    3.60
   0  -2 -28   11.49    5.62
   0  -2 -29   69.90   11.43
   0  -2 -30    6.44    4.57
   0   3   0   -1.48    1.37
   0  -3   0    5.34    2.29
   0  -3   0    2.71    1.69
   0   3   0    0.21    1.62
   0  -3  -1   -0.49    1.52
   0   3  -1    0.92    1.50
   0   3   1   -0.52    1.21
   0   3   1   -0.61    1.66
   0   3  -1    1.64    0.94
   0   3   2   -1.06    1.31
   0   3   2    1.57    1.46
   0   3  -2    3.67    1.42
   0  -3  -2    0.99    1.10
   0  -3  -2   -1.32    1.90
   0   3  -2    0.63    1.41
   0  -3  -3   -0.11    1.54
   0  -3  -3   -0.59    1.80
   0   3   3   -0.21    1.67
   0   3   3   -1.63    1.62
   0  -3  -4   -2.76    2.56
   0  -3  -4   -0.17    1.09
   0   3   4   -0.17    1.12
   0  -3  -5   -2.21    2.44
   0  -3  -5    0.62    1.34
   0  -3  -5   -0.81    1.14
   0   3   5   -1.66    1.74
   0   3   6    2.23    1.40
   0  -3  -6    3.42    1.34
   0  -3  -6   -0.11    1.99
   0  -3  -7   -3.19    3.08
   0   3   7   -2.20    2.20
   0  -3  -7    0.78    0.99
   0  -3  -8    1.32    1.20
   0   3   8   -2.38    2.43
   0  -3  -8   -5.57    3.53
   0  -3  -9   -4.12    3.64
   0  -3  -9   -1.71    1.43
   0  -3 -10   -0.43    2.97
   0  -3 -10   -0.20    1.10
   0   3  10   -0.70    1.51
   0   3  11    3.36    1.55
   0  -3 -11    1.65    1.49
   0   3 -11    0.27    1.14
   0   3 -12   -0.14    1.05
   0   3  12   -1.67    1.26
   0  -3 -12    1.22    1.23
   0   3  13   -1.12    1.51
   0  -3 -13   -1.01    3.67
   0   3 -13   -0.23    1.18
   0   3  14   -0.57    1.27
   0   3 -14   -0.15    1.38
   0  -3 -14   -1.38    3.32
   0   3  15   -1.96    1.68
   0  -3 -15    1.65    2.70
   0   3 -15    0.30    1.41
   0  -3 -16   -2.38    3.30
   0   3  16   -1.37    1.74
   0   3 -16   -4.26    2.42
   0   3 -17   -0.26    1.78
   0   3  17    0.59    1.37
   0  -3 -17   -3.14    3.56
   0   3 -18   -2.70    2.78
   0  -3 -18   -3.73    4.11
   0   3  18   -0.52    1.74
   0  -3 -19   -4.80    3.98
   0   3  19   -2.21    1.95
   0   3 -19    1.31    1.87
   0   3  20    4.06    2.45
   0   3 -20   -3.73    2.60
   0   3  21    3.79    1.95
   0   3 -21   -2.50    2.32
   0  -3 -21    0.11    3.91
   0   3  22    1.71    1.78
   0  -3 -22   -0.31    3.45
   0   3 -22    3.39    2.85
   0  -3 -23    4.30    4.23
   0   3 -23    0.78    1.74
   0  -3 -24    4.58    4.80
   0  -3 -25   11.54    6.07
   0  -3  26   -0.52    2.85
   0  -3 -26   -2.17    4.05
   0  -3 -27    1.47    3.43
   0  -3 -28    7.30    5.48
   0  -3 -29    6.24    4.84
   0  -3 -30    6.02    5.14
   0   4   0 4262.39   36.23
   0   4   0 4275.63   43.28
   0  -4   0 4298.86   43.71
   0   4   1 1593.55   23.53
   0  -4  -1 1597.84   23.53
   0  -4  -1 1587.58   26.58
   0   4  -1 1588.97   20.60
   0   4   1 1566.88   26.51
   0   4  -1 1563.44   26.57
   0   4  -2 1819.14   20.59
   0   4  -2 1863.17   29.43
   0   4   2 1823.63   28.80
   0   4   2 1850.05   26.85
   0  -4  -2 1909.67   29.18
   0  -4  -2 1845.13   26.67
   0  -4  -3  117.45    7.36
   0   4   3  115.33    7.10
   0  -4  -3  114.90    7.43
   0   4   3  114.10    7.11
   0   4  -3  103.22    7.29
   0   4  -3  112.77    4.69
   0   4  -4  234.61    6.20
   0  -4  -4  244.06   11.00
   0   4   4  228.66   10.44
   0  -4  -4  241.30   10.82
   0   4   4  237.76   10.69
   0  -4  -5  290.26   12.16
   0   4   5  280.66   12.11
   0  -4  -5  271.70   12.30
   0  -4  -6  850.34   22.12
   0   4   6  852.03   21.96
   0  -4  -6  828.23   17.94
   0  -4  -6  854.28   21.66
   0   4   7  348.25   14.66
   0  -4  -7  362.71   11.82
   0  -4  -7  360.68   14.34
   0  -4  -7  354.10   15.05
   0  -4  -8  267.98   10.25
   0  -4  -8  278.30   13.65
   0  -4  -9    6.94    4.10
   0  -4  -9   12.05    2.37
   0  -4 -10    5.16    4.15
   0  -4 -10    4.06    1.64
   0  -4 -11  107.06    6.71
   0  -4 -11  101.39    9.14
   0   4 -11  102.49    4.93
   0  -4 -12    0.05    1.39
   0   4 -12    4.54    1.20
   0  -4 -12    3.71    3.26
   0   4 -13    2.74    1.27
   0  -4 -13    4.83    1.92
   0  -4 -13    3.15    2.90
   0  -4 -14  188.09    9.76
   0   4 -14  193.55    8.24
   0  -4 -14  209.80   14.31
   0  -4 -15   89.94   10.17
   0   4 -15   96.85    6.37
   0   4 -16  149.64    8.28
   0  -4 -16  171.85   14.26
   0   4 -17  587.61   17.17
   0  -4 -17  589.90   26.77
   0   4 -18 1379.90   27.34
   0  -4 -18 1490.46   42.92
   0  -4 -19  403.86   23.40
   0   4 -19  394.22   15.46
   0   4 -20    4.22    2.89
   0  -4 -20   10.42    5.38
   0   4 -21   43.93    5.45
   0  -4 -21   38.79    7.90
   0  -4 -22    0.86    3.41
   0  -4 -23  108.45   13.53
   0  -4 -24  270.49   21.07
   0  -4 -25  130.58   15.30
   0  -4 -26   15.35    6.41
   0  -4 -27    6.27    4.83
   0  -4 -28   41.47    9.71
   0  -4 -29   39.22    9.44
   0  -5   0    0.91    1.90
   0   5   0    0.23    1.84
   0   5   0   -0.10    1.36
   0   5   1   -0.69    1.20
   0   5  -1    2.49    1.95
   0  -5  -1    1.61    1.85
   0   5  -1   -0.20    1.06
   0   5   1    0.71    2.58
   0  -5  -1    3.10    2.60
   0   5  -2   -1.71    1.93
   0  -5  -2    0.03    1.37
   0   5  -2   -0.28    0.94
   0  -5  -2    0.91    2.38
   0   5   2   -0.66    1.89
   0   5   2    0.81    1.20
   0  -5  -3    0.37    1.03
   0   5   3    0.02    1.66
   0   5  -3    0.13    2.35
   0   5   3    0.59    1.33
   0   5  -3   -0.09    1.09
   0  -5  -4    1.92    2.21
   0   5   4   -2.35    2.53
   0   5   4   -0.44    1.39
   0   5  -4   -1.84    2.27
   0   5  -4    0.52    0.80
   0  -5  -4   -0.66    1.93
   0   5  -5    0.14    0.84
   0   5   5    1.68    1.43
   0  -5  -5   -2.24    2.61
   0  -5  -5   -0.83    1.37
   0  -5  -6    0.51    1.57
   0  -5  -6   -1.12    2.06
   0   5  -6    1.79    1.07
   0  -5  -7    1.98    1.24
   0  -5  -7   -4.82    3.51
   0  -5  -8    0.03    1.01
   0  -5  -8   -2.65    3.17
   0  -5  -9    4.58    2.22
   0  -5  -9    1.36    2.88
   0  -5 -10    2.58    3.09
   0  -5 -10    1.59    1.25
   0  -5 -11   -0.67    3.21
   0   5 -11   -0.37    0.65
   0  -5 -11    0.68    1.34
   0  -5 -12   -1.44    3.29
   0  -5 -12    0.17    1.23
   0   5 -12   -0.14    0.76
   0   5 -13    0.16    0.85
   0  -5 -13    1.26    1.26
   0  -5 -13    1.98    3.94
   0   5 -14   -1.15    1.13
   0  -5 -14    0.63    3.23
   0  -5 -14    0.16    1.34
   0  -5 -15    0.70    1.70
   0  -5 -15    1.27    2.66
   0   5 -15   -1.49    1.36
   0   5 -16    1.00    1.10
   0  -5 -16    2.66    2.39
   0  -5 -17    3.47    3.73
   0   5 -17    0.30    1.24
   0   5 -18    0.12    1.59
   0  -5 -18   -3.03    3.87
   0   5 -19    0.98    1.26
   0  -5 -19    0.05    2.96
   0  -5 -20    8.00    4.67
   0  -5 -21    1.12    3.90
   0  -5 -22   -2.17    4.38
   0  -5 -23   -0.18    3.16
   0  -5 -24    9.59    5.14
   0  -5 -25    7.77    5.46
   0  -5 -26    5.58    5.25
   0  -5 -27   10.46    6.39
   0   6   0   24.58    4.90
   0   6   0   24.43    3.80
   0   6  -1 4105.62   52.95
   0   6  -1 4069.73   41.55
   0   6   1 4071.38   45.20
   0   6   1 4020.30   52.35
   0   6  -2 1271.19   22.05
   0   6   2 1301.25   27.00
   0   6   2 1330.05   30.03
   0   6  -2 1315.83   30.16
   0  -6  -2 1315.92   27.04
   0   6   3  235.72   11.84
   0  -6  -3  235.32   12.24
   0   6   3  239.15   12.94
   0   6  -3  239.95    9.06
   0   6  -3  235.70   13.10
   0   6   4  636.39   20.08
   0   6  -4  592.11   13.35
   0   6   4  618.64   20.92
   0  -6  -4  602.87   19.80
   0   6  -4  597.85   21.21
   0  -6  -5   33.81    5.35
   0   6   5   24.41    3.88
   0   6  -5   26.38    2.60
   0   6  -5   31.36    4.99
   0   6  -6    7.36    1.47
   0  -6  -6    6.14    3.08
   0   6  -7  301.51    7.50
   0  -6  -7  301.48   15.56
   0   6  -8   44.63    2.63
   0  -6  -8   57.08    5.85
   0  -6  -8   50.56    6.88
   0   6  -9   46.00    2.41
   0  -6  -9   56.63    5.85
   0  -6  -9   57.65    7.48
   0  -6 -10   72.80    8.62
   0  -6 -10   68.26    6.41
   0  -6 -11   28.46    8.36
   0  -6 -11    2.46    1.82
   0  -6 -12 3086.78   56.85
   0  -6 -12 3006.40   42.41
   0  -6 -13   41.48    9.73
   0  -6 -13    3.91    2.33
   0  -6 -14  280.14   13.14
   0   6 -14  250.11    6.06
   0  -6 -14  297.46   18.88
   0  -6 -15  606.73   27.62
   0  -6 -15  573.88   19.01
   0   6 -16   66.77    3.76
   0  -6 -16   79.93   11.11
   0  -6 -17  108.93   12.88
   0  -6 -18  469.75   25.90
   0  -6 -19  285.76   21.22
   0  -6 -20   98.21   13.46
   0  -6 -21  384.55   25.32
   0  -6 -22  224.63   19.86
   0  -6 -23   19.49    7.67
   0  -6 -24   53.52   11.04
   0  -6 -25  110.31   15.59
   0  -6 -26  152.90   17.95
   0   7   0   -1.11    1.93
   0   7   0    0.71    1.81
   0   7   1    6.69    3.30
   0   7  -1    0.33    1.42
   0   7   1    2.46    1.95
   0   7  -1    2.18    2.31
   0   7  -2   -0.76    2.27
   0   7  -2    2.52    1.50
   0   7   2    1.58    2.14
   0   7   2    1.82    1.35
   0   7  -3    0.55    0.98
   0   7  -3    3.09    3.10
   0   7   3    0.58    2.26
   0  -7  -3    5.70    3.63
   0   7  -4    0.24    1.10
   0   7   4    0.53    1.84
   0  -7  -4    5.22    3.38
   0   7  -4    0.16    2.04
   0   7  -5    0.38    0.89
   0   7   5   -0.72    2.43
   0   7  -5    1.22    2.45
   0  -7  -5    1.43    2.88
   0   7  -6   -0.44    1.08
   0   7  -6    2.54    2.88
   0  -7  -6    1.35    2.79
   0  -7  -7    2.76    3.18
   0   7  -7    2.25    3.41
   0   7  -7   -0.52    0.85
   0  -7  -8   -1.42    2.51
   0   7  -8    0.67    0.58
   0  -7  -9    9.43    4.58
   0   7  -9   -0.40    0.54
   0  -7 -10    0.59    3.51
   0  -7 -11   11.30    6.06
   0  -7 -12    0.58    3.81
   0  -7 -13   -2.03    4.31
   0  -7 -14    0.09    3.86
   0  -7 -15   -1.10    3.75
   0  -7 -16    3.67    4.55
   0  -7 -17    0.89    3.80
   0  -7 -18    0.74    4.45
   0  -7 -19    8.35    6.11
   0  -7 -20    5.27    6.44
   0  -7 -21    1.60    4.69
   0  -7 -22    1.37    5.58
   0  -7 -23    9.33    5.30
   0  -7 -24   11.64    6.64
   0  -7 -25    6.30    6.32
   0   8   0  497.40   21.71
   0   8   0  458.78   16.96
   0   8   1   19.66    4.32
   0   8  -1   16.46    3.74
   0   8  -1   21.28    3.71
   0   8  -2   39.86    4.57
   0   8   2   55.93    7.30
   0   8  -2   40.40    6.13
   0   8  -3   15.08    2.96
   0   8   3   13.43    3.83
   0   8  -3   13.73    3.54
   0   8   4  192.53   13.75
   0   8  -4  200.71   14.18
   0   8  -4  185.05    9.12
   0   8   5   74.83    8.79
   0   8  -5   80.98    9.23
   0   8  -5   83.87    5.83
   0  -8  -5   74.73    8.45
   0   8  -6  232.73    8.92
   0   8  -6  238.78   15.94
   0  -8  -6  239.62   15.43
   0   8  -7 1097.23   17.80
   0   8  -7 1196.27   35.90
   0  -8  -7 1210.75   34.32
   0  -8  -8  453.31   21.89
   0   8  -8  408.08    9.74
   0   8  -8  432.28   22.18
   0  -8  -9  222.98   15.91
   0   8  -9  236.17   16.71
   0  -8 -10  153.91   14.33
   0  -8 -11 1401.20   40.97
   0  -8 -12   69.18    9.97
   0  -8 -13  167.43   15.26
   0  -8 -14  162.35   15.66
   0  -8 -15  685.67   31.63
   0  -8 -16   19.80    7.96
   0  -8 -17  611.61   31.66
   0  -8 -18   97.26   13.48
   0  -8 -19  153.37   16.65
   0  -8 -20   10.01    6.79
   0  -8 -21  208.08   19.95
   0  -8 -22   10.25    6.98
   0  -8 -23  131.12   17.02
   0  -8 -24   35.43   10.59
   0   9   0    3.00    3.58
   0   9  -1   -2.54    3.81
   0   9   1    6.54    3.20
   0   9  -2   -3.27    4.15
   0   9  -2   -1.76    2.01
   0   9   2    0.02    2.07
   0   9  -3   -4.60    4.12
   0   9  -3    0.45    1.26
   0   9   4    1.35    2.68
   0   9  -4   -1.89    1.70
   0   9  -4   -2.77    4.00
   0   9  -5   -1.39    3.77
   0   9  -5    0.55    1.09
   0   9   5    4.58    3.61
   0   9  -6   -2.12    3.34
   0   9  -6   -2.01    1.58
   0   9  -7    1.83    3.66
   0  -9  -7    6.22    4.41
   0  -9  -8    4.21    4.49
   0   9  -8    9.41    5.26
   0   9  -9   -0.30    3.23
   0  -9  -9    2.15    4.52
   0   9 -10    0.90    2.99
   0  -9 -10    6.86    4.99
   0  -9 -11    6.25    4.37
   0   9 -11    0.07    3.57
   0  -9 -12    6.97    5.97
   0   9 -12    1.89    3.11
   0  -9 -13   -0.65    3.55
   0  -9 -14   -6.43    4.28
   0  -9 -15   13.37    6.69
   0  -9 -16    2.74    4.98
   0  -9 -17   15.28    6.77
   0  -9 -18   -0.20    4.87
   0  -9 -19    6.04    5.08
   0  -9 -20    0.13    5.68
   0  -9 -21    4.17    5.74
   0  -9 -22    2.73    5.97
   0  10   0   29.55    6.36
   0  10   1    8.42    3.30
   0  10  -1    6.32    2.90
   0  10   2    8.29    3.70
   0  10  -2    5.43    2.53
   0  10   3    1.15    2.39
   0  10  -3   -2.56    3.78
   0  10   4  257.36   17.81
   0  10  -4  244.67   17.78
   0  10   5  248.67   17.82
   0  10  -5  240.49   17.68
   0  10  -6  213.41   16.75
   0  10  -7   83.27   10.90
   0  10  -8  637.72   29.93
   0  10  -9   53.31    9.03
   0  10 -10    0.69    2.31
   0 -10 -11  309.83   21.33
   0  10 -11  338.04   22.96
   0  10 -12  101.00   13.01
   0 -10 -12  106.28   13.34
   0  10 -13   57.92    9.95
   0 -10 -13   68.21   11.20
   0  10 -14  264.34   21.15
   0 -10 -14  257.06   20.90
   0  10 -15   11.51    5.23
   0 -10 -15   18.88    6.81
   0 -10 -16   -4.42    4.75
   0 -10 -17   13.08    7.06
   0 -10 -18  127.08   15.64
   0 -10 -19   17.56    8.08
   0 -10 -20   13.52    6.66
   0  11   0   -3.61    2.35
   0  11  -1    0.44    2.42
   0  11   1   -2.85    3.46
   0  11  -2   -5.80    4.28
   0  11   2   -2.58    3.27
   0  11   3   -0.66    2.94
   0  11  -3   -6.05    4.76
   0  11  -4   -1.42    3.42
   0  11   4    2.54    3.31
   0  11  -5   -3.31    3.36
   0  11   5   -0.16    2.88
   0  11  -6   -5.29    4.84
   0  11  -7   -4.40    4.31
   0  11  -8    4.28    4.32
   0  11  -9    2.31    3.77
   0  11 -10    1.17    2.51
   0  11 -11   -0.41    2.83
   0  11 -12    1.72    3.58
   0  11 -13    2.94    3.63
   0  11 -14   -2.49    2.91
   0  11 -15   11.80    6.32
   0  11 -16   -0.29    3.76
   0  11 -17    3.65    4.08
   0  11 -18   -0.71    2.81
   0  12   0  146.35   15.05
   0  12   1    5.74    3.25
   0  12  -1    3.28    3.35
   0  12   2    2.05    2.84
   0  12  -2   -3.51    3.79
   0  12  -3  131.15   14.45
   0  12   3  131.88   14.37
   0  12  -4   -1.16    3.15
   0  12   4    1.98    2.61
   0  12  -5   80.12   11.37
   0  12   5   93.51   12.22
   0  12  -6    3.34    2.69
   0  12  -7   26.65    7.31
   0  12  -8   22.46    6.27
   0  12  -9   23.95    6.49
   0  12 -10  292.09   22.91
   0  12 -11  147.11   16.80
   0  12 -12   33.47    8.92
   0  12 -13   -1.24    2.23
   0  12 -14   17.59    5.67
   0  12 -15   -7.65    4.97
   0  12 -16    2.68    3.84
   0  13   0    3.57    2.68
   0  13  -1    0.77    2.49
   0  13   1    1.06    2.62
   0  13  -2    1.89    2.61
   0  13   2   -1.86    3.14
   0  13   3    3.69    3.56
   0  13  -3    0.59    3.22
   0  13   4    0.50    2.90
   0  13  -4    0.76    2.06
   0  13  -5   -0.40    3.26
   0  13   5   -2.73    3.65
   0  13  -6    2.19    3.15
   0  13  -7   -5.71    4.12
   0  13  -8    0.44    3.46
   0  13  -9    3.82    4.56
   0  13 -10    1.09    3.27
   0  13 -11    1.43    3.87
   0  13 -12    1.90    3.19
   0  13 -13   -2.61    4.31
   0  14   0   39.96    9.05
   0  14  -1   59.34   10.71
   0  14   1   63.48   10.91
   0  14   2   -0.74    3.07
   0  14  -2   -0.64    3.26
   0  14   3    9.44    4.76
   0  14  -3    9.36    4.93
   0  14  -4   11.74    4.44
   0  14   4   18.43    6.35
   0  14  -5    7.33    4.06
   0  14  -6   36.60    9.03
   0  14  -7   80.54   13.02
   0  14  -8   82.39   13.41
   0  14  -9    3.90    5.07
   0  15   0   -0.93    3.05
   0  15   1   -6.08    5.37
   0  15  -1    2.96    3.64
   0  15   2   -3.64    4.14
   0  15   3   -0.78    3.07
   0  15   4    1.90    2.97
  -1   0   4 1924.85   19.86
   1   0   4 1920.63   21.82
   1   0   5   11.89    3.26
  -1   0   5    7.95    1.79
   1   0  -6 3485.63   30.97
   1   0   6 3482.34   33.52
  -1   0   6 3477.12   31.38
   1   0  -7    4.62    2.34
  -1   0   7    9.76    1.54
  -1   0   8 3300.25   34.68
   1   0   8 3308.90   36.49
   1   0  -8 3348.28   34.60
   1   0  -9    4.68    2.46
  -1   0   9   -0.46    1.31
  -1   0  10    5.79    1.48
   1   0 -10    2.70    1.93
   1   0  10    8.26    2.62
   1   0 -11   17.63    4.65
   1   0  11   16.15    4.73
   1   0 -12 1694.30   30.35
   1   0  12 1740.51   30.96
   1   0  13   54.00    7.34
   1   0 -13   35.34    7.16
   1   0 -14  714.13   21.46
   1   0  14  716.81   21.52
  -1   0 -14  744.65   22.79
   1   0 -15   67.77    9.01
   1   0  15   40.51    6.88
  -1   0 -16 2135.05   41.90
   1   0  16 2142.06   39.68
   1   0 -16 2149.48   39.85
   1   0 -17   91.62   10.26
  -1   0 -17   46.65    9.17
  -1   0  17   63.31    7.26
   1   0  17   80.76    9.20
   1   0  18    3.06    3.09
  -1   0  18    7.45    3.64
   1   0 -18    8.68    3.45
   1   0  19    2.84    2.89
  -1   0 -19   -2.67    3.09
  -1   0  19    3.89    2.73
   1   0 -19    5.98    3.97
   1   0 -20   93.59    9.83
  -1   0  20   92.82    7.95
  -1   0 -20   91.67    9.76
   1   0  20   90.35    9.09
  -1   0 -21   -2.11    3.27
   1   0 -21    4.34    4.39
   1   0  21    2.67    2.98
  -1   0  21    2.57    2.30
  -1   0  22   54.46    6.51
  -1   0 -22   51.91    7.89
   1   0 -22   60.66    8.53
   1   0  22   58.84    7.46
   1   0 -23    8.79    4.97
   1   0  23    3.11    2.89
  -1   0 -23    8.58    4.25
  -1   0  23    2.80    2.54
  -1   0 -24  303.58   20.14
   1   0 -24  298.89   19.46
   1   0  24  293.88   18.10
   1   0 -25   22.53    7.12
  -1   0 -25   23.70    6.32
   1   0  25   17.75    5.45
   1   0 -26  384.33   22.81
   1   0  26  373.80   21.06
  -1   0 -26  357.32   22.73
  -1   0 -27   10.32    5.28
  -1   0 -28   16.85    5.85
  -1  -1  -3  532.38   11.32
   1   1   3  551.27   11.27
   1   1   4  180.21    6.82
  -1   1   4  188.48    7.42
  -1  -1  -4  184.12    6.90
  -1  -1   5  672.35   10.61
  -1   1   5  683.28   14.86
  -1  -1  -5  692.33   14.12
   1   1   5  681.68   14.04
   1  -1  -5  690.90   14.83
   1  -1  -6  157.60    7.69
  -1  -1  -6  134.20    6.79
   1   1   6  139.14    6.72
  -1   1   6  139.75    7.22
  -1  -1   6  143.32    5.32
   1   1   7  391.29   11.69
  -1  -1  -7  394.59   11.94
  -1   1   7  385.27    6.48
   1  -1  -7  398.18   12.70
   1   1  -7  399.21    9.79
  -1  -1   7  406.42    9.85
  -1   1   7  403.32   12.58
   1   1   8  411.35   12.57
  -1   1   8  418.57   13.71
  -1   1   8  413.48    7.79
  -1  -1   8  411.08   10.77
   1  -1  -8  430.26   13.76
   1   1  -8  410.15   10.82
   1   1   9   95.98    6.41
   1   1  -9  103.02    5.97
  -1  -1   9  101.12    5.77
   1  -1  -9   99.48    7.27
  -1   1   9  106.08    4.41
  -1   1   9  103.67    7.06
   1   1  10   36.69    4.31
  -1   1  10   37.14    4.48
   1   1 -10   37.76    4.05
  -1   1  10   35.77    2.95
   1  -1 -10   35.56    4.98
   1   1  11  292.29   12.01
   1  -1 -11  306.34   13.34
  -1  -1 -11  297.01   13.51
  -1   1  11  296.59   13.11
  -1   1  11  291.54    8.60
   1   1 -11  286.05   10.95
   1   1 -12   59.88    5.90
   1  -1 -12   69.14    7.75
  -1   1  12   42.45    5.04
  -1  -1 -12   45.65    5.66
   1   1  12   58.58    6.10
  -1   1  12   51.12    4.33
   1   1  13  655.60   19.27
  -1  -1 -13  674.97   21.93
  -1   1  13  652.81   14.76
   1   1 -13  675.13   18.46
   1  -1 -13  673.40   21.36
   1   1  14   99.94    8.22
   1  -1 -14  112.85    9.96
  -1  -1 -14   93.22    8.71
   1   1 -14  100.72    7.91
  -1   1  14   87.99    6.17
   1  -1 -15  105.52    9.35
  -1  -1 -15   89.40    8.66
  -1   1 -15   87.54    7.76
   1   1  15   92.33    7.91
   1   1 -15   93.74    7.98
  -1   1  15   89.72    6.11
   1   1 -16  197.78   11.70
   1  -1 -16  188.41   12.86
  -1  -1 -16  167.76   12.55
   1   1  16  183.99   11.37
  -1   1  16  170.77    8.72
  -1   1 -16  186.83   11.83
  -1   1 -17  822.16   25.71
   1  -1 -17  813.30   26.74
   1   1  17  783.92   23.86
  -1  -1 -17  855.49   28.09
   1  -1  17  824.21   25.80
   1   1 -17  818.07   24.18
  -1   1  17  803.66   19.38
   1  -1  18   30.47    6.37
   1   1 -18   34.41    6.36
  -1  -1 -18   23.09    5.71
   1  -1 -18   29.44    7.49
  -1   1 -18   13.60    6.30
   1   1  18   23.23    6.00
  -1   1  18   14.79    3.90
   1   1 -19   23.09    5.33
   1   1  19   20.90    5.25
  -1   1 -19   16.83    4.14
  -1  -1 -19    8.91    4.75
   1  -1  19    8.67    3.75
   1  -1 -19   27.98    6.54
  -1   1  19   15.26    3.38
   1   1  20  485.72   20.64
   1   1 -20  500.34   21.09
  -1   1 -20  490.39   21.88
  -1  -1 -20  505.54   23.98
   1  -1 -20  506.79   23.26
  -1   1  20  491.62   16.75
   1  -1  20  500.57   22.17
   1  -1 -21   16.97    6.43
   1   1 -21   17.04    5.78
   1   1  21   15.36    5.00
  -1  -1 -21    5.93    3.54
  -1   1 -21   14.03    4.52
  -1   1  21   12.64    3.66
   1  -1  21   15.93    5.27
   1  -1 -22   92.15   11.14
   1   1  22   92.94    9.55
  -1  -1  22   84.30    8.51
  -1   1  22   87.20    7.66
  -1   1 -22   81.82    9.59
   1  -1  22   77.19    9.38
   1   1 -22   97.58   10.39
  -1  -1 -22   83.29   10.66
   1  -1 -23  106.83   12.12
   1   1 -23  110.56   11.10
   1   1  23  103.28   10.21
  -1  -1 -23  112.88   12.39
   1  -1  23  107.15   11.08
  -1  -1  23  116.82   10.15
  -1   1 -23   95.62   10.77
   1   1 -24    8.15    4.50
   1  -1  24    3.65    3.24
   1   1  24    9.42    3.72
  -1  -1  24    3.12    3.47
   1  -1 -24    6.40    4.33
  -1  -1 -24   -1.78    3.47
  -1   1 -24   -0.31    2.94
  -1  -1 -25   66.37    9.97
   1  -1  25   73.77    9.47
   1   1  25   82.56    9.71
   1  -1 -25   86.44   11.40
   1   1 -25   91.85   10.92
  -1   1 -25   77.62   10.02
   1  -1 -26   71.35   10.53
   1  -1  26   76.20    9.94
  -1  -1 -26   71.03   10.78
  -1   1 -26   68.27    9.82
  -1   1 -27    2.22    3.29
  -1  -1 -27    5.73    3.39
   1  -1 -27    6.76    5.30
  -1  -1 -28    7.30    4.36
  -1  -1 -29    1.37    4.26
  -1  -1 -30   11.68    5.30
  -1  -2   0   -0.57    0.89
  -1   2   0    0.49    0.83
   1   2   0   -1.33    1.61
   1  -2  -1  130.61    4.73
   1   2   1  135.47    6.20
  -1  -2  -1  127.55    6.10
  -1   2   1  140.83    4.78
  -1  -2   1  135.70    6.14
   1   2  -1  131.39    6.04
   1   2   2  543.22   12.59
   1   2  -2  525.03   12.24
   1  -2  -2  537.00    9.84
  -1  -2  -2  513.38   12.17
  -1   2   2  542.93    9.78
  -1  -2  -2  527.97   12.60
  -1  -2  -3 8222.53   48.99
  -1  -2  -3 8315.02   52.48
   1  -2  -3 8244.30   41.45
   1   2   4  367.64   10.67
  -1   2   4  368.52   11.46
  -1  -2  -4  348.78   10.43
   1  -2  -5 7205.14   53.29
  -1  -2  -5 7195.57   48.99
   1   2   5 7371.68   48.87
   1  -2  -5 7217.24   27.16
  -1   2   5 7243.06   53.93
   1  -2  -6 1082.95   21.63
   1   2   6 1065.25   19.20
  -1  -2   6 1065.71   11.18
  -1  -2  -6 1072.82   19.37
   1  -2  -6 1040.02   10.44
  -1   2   6 1099.44   22.09
   1  -2  -7  359.89    6.54
   1  -2  -7  398.94   13.70
  -1  -2  -7  366.26   11.77
   1   2   7  390.03   11.98
  -1   2   7  393.36   13.79
  -1   2   8   90.78    6.97
   1  -2  -8  114.98    7.93
   1   2   8   91.26    6.18
  -1  -2  -8   94.20    6.15
  -1  -2  -9  570.37   15.82
  -1   2   9  582.47   18.20
  -1  -2  -9  580.03   18.50
  -1   2   9  572.20    9.66
   1   2  -9  581.72   11.84
   1   2   9  580.82   15.89
   1  -2  -9  657.00   19.43
  -1  -2 -10 2751.98   41.44
   1   2 -10 2632.10   27.37
  -1   2  10 2741.58   40.95
   1   2  10 2683.41   35.10
   1  -2 -10 2705.24   40.27
  -1   2  10 2659.51   22.58
  -1  -2 -10 2696.25   35.34
  -1  -2 -11  197.72   11.92
   1  -2 -11  237.18   14.14
  -1   2  11  199.54    6.66
   1   2  11  200.15   10.18
   1   2 -11  202.36    8.52
   1   2  12   58.15    5.89
   1   2 -12   56.16    4.95
   1  -2 -12   60.74    7.64
  -1   2  12   44.48    3.41
  -1  -2 -12   61.16    7.60
  -1   2  13  686.63   14.01
   1   2 -13  713.96   17.38
   1  -2 -13  714.61   23.29
   1   2  13  712.89   19.88
  -1  -2 -13  718.35   23.56
  -1  -2 -14   67.67    8.03
  -1   2  14   71.12    4.94
   1   2  14   76.72    7.28
   1  -2 -14   90.46    9.59
   1   2 -14   81.45    6.73
  -1   2  15  538.96   13.78
   1   2 -15  542.97   16.72
   1   2  15  562.74   18.76
  -1  -2 -15  545.96   22.09
   1  -2 -15  579.98   22.29
   1  -2 -16  185.27   13.56
  -1   2 -16  151.98   10.28
  -1   2  16  150.68    7.81
  -1  -2 -16  179.81   13.56
   1   2  16  172.00   10.97
   1   2 -16  166.07   10.09
  -1   2  17   80.98    5.93
   1   2  17   92.41    8.22
   1   2 -17   96.15    8.01
  -1   2 -17   84.66    7.87
   1  -2 -17  100.23   10.51
  -1  -2 -17   80.65    9.58
  -1   2  18   11.93    2.67
   1   2  18   11.24    4.41
  -1   2 -18    6.14    2.65
   1  -2 -18   17.81    5.70
  -1  -2 -18   11.96    4.01
  -1   2  19   98.64    7.17
  -1  -2 -19  105.65   11.47
   1  -2 -19  112.45   12.07
   1   2 -19   99.80    9.28
  -1   2 -19   99.42    9.37
   1   2  19  118.10   10.13
   1   2  20  995.96   28.74
  -1   2  20  980.16   22.37
   1  -2 -20 1019.40   34.26
   1   2 -20 1000.51   27.90
  -1  -2 -20  986.64   34.30
  -1   2 -20 1008.49   29.99
  -1  -2 -21   86.14   11.20
  -1   2 -21  105.66   10.89
   1  -2  21  118.65   11.96
   1  -2 -21  113.45   12.92
   1   2 -21  105.49    9.97
  -1   2  21   80.64    7.13
   1   2  21  105.28   10.36
   1   2 -22   50.95    7.11
   1  -2 -22   43.43    8.49
  -1   2 -22   35.28    6.20
   1  -2  22   38.31    7.37
   1   2  22   43.17    6.51
  -1  -2 -22   37.38    7.13
   1  -2 -23   86.33   11.28
   1   2  23   85.60    9.01
  -1   2 -23   84.23    9.49
  -1  -2 -23   91.44   11.58
   1  -2  23   82.15   10.09
   1   2 -23  100.53    9.85
   1   2  24   27.76    5.40
   1  -2 -24   28.11    7.00
   1  -2  24   23.95    6.05
  -1   2 -24   32.41    6.30
  -1  -2 -24   27.95    7.17
   1  -2 -25   15.81    5.67
   1  -2  25    7.01    4.35
  -1   2 -25    6.99    3.65
  -1  -2 -25    9.89    5.23
  -1  -2 -26   42.83    8.84
   1  -2 -26   61.85   10.49
   1  -2  26   47.44    8.05
   1  -2  27  114.18   12.60
   1  -2 -27  147.38   15.74
  -1  -2 -27  126.11   14.72
  -1  -2 -28    4.10    3.80
  -1  -2 -29   12.69    5.18
  -1  -2 -30   43.88    9.67
   1   3   0   -2.50    2.53
  -1  -3   0    1.08    1.26
  -1   3   0   -0.84    1.51
  -1  -3   1 2039.83   19.11
   1  -3  -1 2009.08   23.68
  -1  -3  -1 1993.48   23.36
  -1  -3  -1 2045.10   28.24
   1   3   1 2067.69   28.12
  -1   3  -1 2024.47   24.72
  -1   3   1 2042.53   23.75
  -1  -3   1 1984.32   27.81
   1   3  -1 2034.53   27.91
   1   3   2  484.88   13.92
  -1   3   2  482.83   13.30
  -1   3   2  471.16   11.45
  -1  -3   2  469.30    7.99
   1  -3  -2  462.10   11.56
  -1  -3  -2  469.27   13.81
   1   3  -2  462.58   13.56
  -1  -3  -2  504.66   13.16
   1   3   3 2745.71   33.54
   1  -3  -3 2716.92   28.69
  -1   3   3 2715.31   28.14
  -1  -3  -3 2796.89   34.60
  -1   3   3 2619.67   32.39
  -1  -3  -3 2757.81   31.77
   1   3  -3 2781.70   33.79
  -1  -3  -4  302.66   11.62
  -1  -3  -4  295.83   11.52
  -1   3   4  300.01   11.45
  -1  -3  -4  304.02   10.78
   1  -3  -4  292.49    9.86
  -1  -3  -5  891.23   20.34
  -1  -3  -5  882.50   18.64
   1  -3  -5  885.57   17.86
   1  -3  -5  895.57   20.59
  -1   3   5  903.22   20.99
  -1  -3  -5  876.92   20.48
  -1   3   6  530.46   16.64
   1  -3  -6  546.30   16.76
  -1  -3  -6  549.88   16.85
  -1  -3  -6  538.08   14.73
  -1  -3  -7   90.34    6.27
   1   3   7   91.85    6.25
  -1   3   7   94.16    7.31
   1  -3  -7  103.34    8.21
   1  -3  -7   91.99    4.26
  -1  -3  -7   86.26    7.85
  -1   3   8 2775.61   41.05
  -1  -3  -8 2782.40   35.31
   1  -3  -8 2784.42   23.26
   1  -3  -8 2822.03   41.22
  -1  -3  -8 2863.04   41.59
   1   3   8 2838.69   35.50
   1  -3  -9  282.45    7.62
  -1  -3  -9  283.74   11.45
   1  -3  -9  334.86   15.64
   1   3   9  299.06   11.76
  -1   3   9  301.24   14.05
  -1  -3  -9  310.88   14.87
   1   3  10  670.16   18.07
  -1  -3 -10  657.53   18.01
   1  -3 -10  661.62   21.57
   1  -3 -10  648.98   11.93
  -1  -3 -10  671.58   21.81
   1   3  11   69.97    6.17
  -1  -3 -11   71.55    6.06
  -1  -3 -11   65.37    7.81
   1   3 -11   69.01    4.26
   1  -3 -12  127.58   10.45
   1   3  12  124.78    8.31
  -1  -3 -12  131.67    8.64
  -1  -3 -12  121.66   10.07
   1   3 -12  126.66    6.14
   1   3  13    3.91    2.16
  -1  -3 -13    5.19    2.35
   1  -3 -13    9.35    4.34
  -1  -3 -13    3.28    3.24
   1   3 -13   10.53    2.45
   1  -3 -14  117.81   10.62
   1   3  14  105.98    8.00
   1   3 -14  115.92    6.76
  -1  -3 -14  109.12   10.17
   1   3  15    0.00    1.53
   1  -3 -15    4.10    4.47
   1   3 -15    3.56    2.27
  -1   3  15   -1.36    1.25
  -1  -3 -15    1.87    3.10
  -1  -3 -16    0.86    2.59
  -1   3  16   -0.79    1.22
   1   3 -16    1.92    2.11
   1  -3 -16    5.72    4.21
   1   3  16   -1.23    1.83
  -1   3  17   49.08    4.40
  -1  -3 -17   43.83    6.79
   1   3 -17   53.52    5.57
   1  -3 -17   50.57    7.92
   1   3  17   47.08    6.23
  -1   3 -17   39.51    5.00
  -1   3 -18   46.47    5.78
   1   3  18   55.04    6.92
  -1  -3 -18   53.65    8.32
   1  -3 -18   75.40   10.31
  -1   3  18   54.97    4.88
   1   3 -18   61.03    6.42
   1   3 -19  652.14   20.22
   1   3  19  646.83   22.47
  -1  -3 -19  673.20   28.63
  -1   3 -19  643.33   22.24
   1  -3 -19  628.95   27.57
  -1   3  19  644.97   16.83
  -1   3  20  120.35    7.53
  -1  -3 -20  137.79   13.79
   1   3  20  138.23   10.77
  -1   3 -20  129.97   10.42
   1   3 -20  137.20   10.08
   1  -3 -20  158.72   15.12
  -1  -3 -21  174.30   15.62
   1   3  21  158.77   11.95
   1   3 -21  164.23   11.10
   1  -3 -21  156.29   14.87
  -1   3 -21  172.48   12.22
   1   3  22   26.92    5.39
  -1   3 -22   16.23    3.74
   1  -3 -22   31.20    7.88
  -1  -3 -22   21.75    6.58
   1   3  23   45.96    6.70
  -1   3 -23   45.37    6.55
   1  -3 -23   56.30    9.63
  -1  -3 -23   43.33    8.61
  -1  -3 -24    0.47    3.65
   1  -3 -24    5.22    4.94
   1  -3 -25   47.70    9.88
  -1  -3 -25   53.49    9.65
   1  -3  25   42.30    8.33
  -1  -3 -26    7.55    4.56
   1  -3  26    3.87    2.53
   1  -3 -27    3.50    4.44
   1  -3  27    1.85    2.76
  -1  -3 -27   -5.70    5.87
   1  -3  28    3.81    3.05
  -1  -3 -28   -1.12    3.62
  -1  -3 -29    5.02    3.56
  -1  -4   0    0.32    1.12
   1   4   0   -0.84    1.49
  -1   4   0    1.10    1.37
  -1  -4   0   -0.23    1.22
  -1  -4  -1   19.68    3.59
  -1  -4   1   14.00    2.93
  -1   4  -1   15.15    2.70
  -1   4   1   15.93    2.87
   1   4  -1   13.12    2.71
  -1  -4   1   22.02    2.21
   1   4   1   14.81    2.99
   1  -4  -1   14.38    2.57
  -1  -4  -1   14.64    2.85
  -1  -4  -2 2177.65   33.23
   1   4   2 2077.71   32.59
  -1   4  -2 2081.25   30.01
   1  -4  -2 2119.30   28.78
  -1   4   2 2129.88   28.71
  -1   4   2 2071.09   30.17
  -1  -4  -2 2118.25   28.58
   1   4  -2 2149.16   33.24
  -1  -4   2 2139.64   20.63
  -1   4   3   36.48    4.33
  -1   4   3   38.98    4.09
   1   4  -3   34.91    4.59
   1  -4  -3   30.71    3.56
  -1  -4   3   37.18    2.39
  -1  -4  -3   40.19    5.11
   1   4   3   35.34    4.51
  -1  -4  -3   38.56    4.54
   1   4  -4  778.46   20.72
  -1  -4  -4  771.59   20.49
  -1  -4  -4  752.83   19.16
  -1   4   4  772.69   20.23
   1  -4  -4  753.16   17.84
  -1  -4  -5  999.95   21.87
  -1   4   5  991.08   23.73
  -1  -4  -5  979.17   22.89
   1  -4  -5  997.49   21.20
  -1  -4  -5 1000.73   24.02
  -1  -4  -6  526.02   17.98
   1  -4  -6  512.49   15.72
  -1  -4  -6  556.79   18.30
   1  -4  -6  515.80   17.79
  -1  -4  -6  530.02   16.08
  -1   4   6  525.33   17.63
  -1  -4  -7 1173.93   24.09
  -1   4   7 1164.74   27.32
  -1  -4  -7 1215.64   27.93
   1  -4  -7 1184.28   24.83
   1  -4  -7 1199.17   27.75
  -1  -4  -7 1212.93   27.81
   1  -4  -8 1941.35   23.74
  -1  -4  -8 1995.38   31.72
   1  -4  -8 1964.68   36.78
  -1  -4  -8 1976.60   36.57
   1  -4  -8 2015.29   33.33
  -1  -4  -9 1729.66   35.70
   1  -4  -9 1728.68   35.80
   1  -4  -9 1660.66   21.80
  -1  -4  -9 1746.68   30.10
  -1  -4 -10  491.16   16.27
  -1  -4 -10  520.86   20.52
   1  -4 -10  510.24   12.24
   1  -4 -11   19.50    5.42
   1  -4 -11    5.05    1.33
  -1  -4 -11   17.56    5.79
  -1  -4 -12   86.03    9.17
   1  -4 -12  101.33   10.03
  -1  -4 -12   83.98    7.12
   1  -4 -12   83.23    5.12
  -1  -4 -13   87.23    9.47
  -1  -4 -13   83.54    7.36
   1  -4 -13  106.91   10.74
   1   4  13   86.65    7.36
   1   4  14  419.81   16.39
  -1  -4 -14  413.43   20.50
   1  -4 -14  457.46   21.28
  -1  -4 -14  416.61   16.34
  -1  -4 -15   32.52    6.05
   1  -4 -15   43.96    8.39
   1   4  15   32.36    5.11
   1   4  16   44.20    5.76
  -1  -4 -16   28.22    5.99
   1  -4 -16   49.40    8.83
  -1   4 -17  290.08   13.16
  -1  -4 -17  278.03   17.89
   1  -4 -17  296.87   19.06
   1   4  17  300.13   14.85
   1  -4 -18  200.24   16.05
   1   4  18  195.06   12.23
  -1   4 -18  184.09   10.91
  -1  -4 -18  209.07   15.90
  -1   4 -19  127.89    9.40
  -1  -4 -19  124.56   12.91
   1   4  19  117.01    9.63
   1  -4 -19  133.98   13.44
   1   4  20   -1.97    2.27
  -1   4 -20    3.16    2.38
  -1  -4 -20    0.23    3.48
   1   4  21   64.31    7.52
  -1   4 -21   69.57    7.33
  -1  -4 -21   64.25    9.62
   1  -4 -21   77.68   11.07
   1  -4 -22   64.32   10.62
  -1  -4 -22   43.31    8.83
  -1   4 -22   44.45    6.05
   1   4  22   45.10    6.56
   1  -4 -23  234.15   19.82
  -1  -4 -23  254.65   20.16
   1  -4 -24   20.18    7.35
  -1  -4 -24    9.85    5.92
   1  -4 -25    3.23    3.58
  -1  -4 -25    1.84    3.29
  -1  -4 -26   15.80    5.92
   1  -4 -26   29.27    7.96
  -1  -4 -27   29.14    7.86
   1  -4  27   28.63    7.20
  -1  -4 -28    5.71    4.48
   1  -4  28   -2.59    3.79
   1   5   0    0.16    1.91
  -1  -5   0   -0.77    1.45
  -1   5   0   -1.06    1.95
  -1   5   0    1.12    1.43
  -1  -5   0   -0.54    1.73
  -1   5  -1  737.69   19.66
  -1   5  -1  724.12   17.49
   1   5   1  743.18   21.44
  -1  -5  -1  749.12   21.41
  -1  -5   1  738.95   15.52
  -1   5   1  728.46   19.20
  -1   5   1  743.96   18.93
   1  -5  -1  771.89   19.78
  -1  -5   1  758.41   21.59
  -1  -5  -1  737.88   17.54
   1   5  -1  750.67   21.43
   1   5  -2    3.16    2.34
  -1  -5  -2    3.99    2.04
  -1   5  -2    3.12    1.73
   1  -5  -2    4.05    1.60
  -1  -5  -2    2.92    1.86
  -1   5   2    7.48    2.55
  -1  -5   2    5.56    1.50
   1   5   2    1.42    2.06
  -1   5   2    8.70    2.64
  -1   5  -3   32.26    4.40
   1  -5  -3   31.70    4.01
  -1   5   3   34.49    4.36
   1   5   3   29.56    4.58
  -1  -5   3   36.76    3.00
  -1  -5  -3   31.89    3.96
   1   5  -3   28.51    4.39
  -1  -5  -3   32.78    4.60
  -1   5   3   32.82    4.46
  -1   5   4   80.47    6.68
  -1  -5  -4   85.25    7.54
   1   5   4   74.05    7.00
   1   5  -4   93.78    7.85
   1  -5  -4   87.97    6.74
  -1  -5  -4   76.67    6.51
  -1   5   4   89.35    7.26
  -1  -5  -5   88.51    7.38
   1  -5  -5   94.61    7.30
  -1   5   5   88.72    7.67
   1   5  -5   83.23    7.95
  -1  -5  -6   73.55    7.13
   1  -5  -6   71.49    6.50
  -1  -5  -6   77.05    6.67
   1  -5  -7   -1.05    1.63
  -1  -5  -7   -0.04    1.39
   1  -5  -8  738.06   24.21
   1  -5  -8  761.62   22.10
  -1  -5  -8  738.21   20.91
  -1  -5  -8  748.66   23.96
  -1  -5  -9 1103.56   29.88
  -1  -5  -9 1111.72   25.64
   1  -5  -9 1118.45   20.65
   1  -5  -9 1078.46   29.99
   1  -5 -10    0.31    0.83
  -1  -5 -10    0.36    4.13
  -1  -5 -10    0.62    1.50
   1  -5 -11  148.46   12.12
   1  -5 -11  139.98    7.25
  -1  -5 -11  141.62    9.58
  -1  -5 -11  124.54   10.70
  -1  -5 -12    3.86    1.66
   1  -5 -12    9.60    5.51
   1  -5 -12    4.02    1.31
   1  -5 -13   45.96    4.34
  -1  -5 -13   42.40    6.64
   1  -5 -14  214.81   15.62
   1  -5 -14  196.69    8.87
  -1  -5 -14  212.48   15.21
  -1  -5 -15   97.49   10.58
   1  -5 -15  110.25   11.63
  -1  -5 -16   77.47   10.19
   1  -5 -16   86.31   10.81
  -1  -5 -17   40.35    7.49
  -1   5 -17   48.08    5.00
   1  -5 -17   61.84    9.42
  -1  -5 -18    0.91    3.25
  -1   5 -18    1.38    1.74
   1  -5 -18   -0.04    3.80
  -1   5 -19   45.56    5.40
   1  -5 -19   38.83    8.36
  -1  -5 -19   40.13    7.79
   1  -5 -20  105.27   13.06
  -1  -5 -20   83.40   11.59
   1  -5 -21   52.64    9.87
  -1  -5 -21   49.51    9.36
  -1  -5 -22   17.54    6.43
   1  -5 -22   33.22    8.39
   1  -5 -23   35.10    8.73
  -1  -5 -23   18.92    6.96
  -1  -5 -24    3.25    3.24
   1  -5 -24   12.93    6.09
   1  -5 -25   14.25    6.49
  -1  -5 -25    2.28    4.30
  -1  -5 -26   27.39    8.52
  -1  -5 -27    4.76    4.90
   1  -5  29   30.94    8.10
   1   6   0    1.10    2.11
  -1   6   0   -0.44    1.59
  -1   6   0    0.08    1.80
  -1  -6   0    3.66    2.63
  -1   6   1 2172.44   34.99
   1   6  -1 2123.06   39.63
  -1  -6  -1 2148.82   32.61
  -1  -6   1 2127.62   28.74
  -1   6  -1 2136.56   37.05
  -1   6  -1 2065.15   32.05
   1  -6  -1 2219.99   37.13
  -1   6   1 2090.15   36.15
   1   6   1 2133.88   39.89
  -1   6   2   26.01    4.16
  -1  -6  -2   28.40    4.15
  -1   6  -2   24.67    3.97
  -1  -6   2   29.37    3.55
   1  -6  -2   33.06    4.65
  -1   6   2   27.56    4.43
   1   6   2   23.33    4.27
  -1   6  -2   29.98    3.69
   1   6  -2   26.40    4.82
  -1   6   3  527.00   18.52
   1  -6  -3  534.77   18.27
  -1  -6  -3  513.77   17.63
   1   6   3  515.38   19.54
   1   6  -3  497.81   19.45
  -1   6  -3  493.36   14.61
  -1   6  -3  500.49   18.57
  -1   6   3  528.10   18.22
  -1   6  -4   35.35    5.11
   1   6  -4   31.72    5.17
  -1   6   4   30.88    4.61
  -1  -6  -4   38.84    5.46
   1   6   4   30.07    5.00
   1  -6  -4   36.75    4.73
  -1  -6  -5 1375.01   30.96
  -1   6   5 1414.26   30.13
   1   6  -5 1402.19   33.74
   1   6   5 1397.34   32.79
   1  -6  -5 1430.86   30.67
   1   6  -6   49.14    6.66
  -1  -6  -6   52.09    7.19
  -1  -6  -7  261.06   14.36
   1   6  -7  260.65   14.94
   1  -6  -8  173.51   13.10
  -1  -6  -8  164.16   12.24
  -1  -6  -9  682.26   24.95
   1  -6  -9  699.37   25.52
   1  -6  -9  696.88   18.52
  -1  -6 -10  163.90   12.80
   1  -6 -10  152.51   12.62
   1  -6 -10  147.81    8.46
   1  -6 -11  417.24   14.12
  -1  -6 -11  444.47   21.16
   1  -6 -11  439.44   21.49
   1  -6 -12  434.54   14.38
  -1  -6 -12  452.53   21.96
   1  -6 -12  452.77   22.50
  -1  -6 -13  223.17   16.00
   1  -6 -13  218.42   10.17
   1  -6 -13  221.91   16.45
   1  -6 -14   27.57    3.70
  -1  -6 -14   31.79    6.67
   1  -6 -14   39.91    8.37
  -1  -6 -15  196.53   15.92
   1  -6 -15  213.60   16.53
  -1  -6 -16    3.94    3.80
   1  -6 -16   11.16    6.01
  -1   6 -17    1.71    1.39
  -1  -6 -17   -3.93    4.11
   1  -6 -17    0.59    3.86
  -1  -6 -18   15.34    5.37
   1  -6 -18   44.31    9.57
   1  -6 -19   12.39    6.97
  -1  -6 -19    0.70    4.17
  -1  -6 -20  192.80   17.59
   1  -6 -20  168.04   16.80
   1  -6 -21    4.44    4.20
  -1  -6 -21    5.11    5.76
  -1  -6 -22  115.51   14.37
   1  -6 -22  138.25   16.10
   1  -6 -23   30.83    9.21
  -1  -6 -23   22.76    6.97
   1  -6 -24   38.33    8.68
  -1  -6 -24   33.07    8.07
  -1  -6 -25   11.13    6.37
  -1  -6 -26   11.00    6.31
  -1   7   0    0.35    1.60
   1   7   0    1.25    2.36
  -1  -7   0    2.86    2.51
  -1   7  -1  180.48   11.94
   1   7   1  194.68   12.97
  -1   7   1  182.70   11.74
  -1  -7  -1  169.82    9.99
   1   7  -1  183.76   12.71
  -1  -7   1  177.20    9.40
  -1   7  -1  179.69   10.17
  -1   7  -2   18.62    4.31
   1   7  -2   15.68    3.91
  -1  -7  -2   12.92    3.26
   1   7   2   12.89    3.67
  -1   7  -2   14.27    2.80
  -1   7   2   20.00    3.99
   1   7   3   24.37    4.46
  -1   7  -3   15.54    4.15
   1   7  -3   13.32    3.47
  -1   7   3   16.55    3.67
  -1   7  -3   18.86    3.29
  -1  -7  -3   22.09    4.29
   1   7   4  172.11   12.43
   1   7  -4  187.30   13.00
  -1   7  -4  177.97    9.16
  -1   7   4  161.65   11.24
  -1   7  -4  179.95   12.06
  -1  -7  -4  184.58   11.88
   1   7   5  609.02   23.51
  -1   7   5  629.11   21.88
  -1   7  -5  611.88   23.11
   1   7  -5  609.11   23.82
  -1   7  -5  609.72   16.44
  -1  -7  -5  628.23   22.15
  -1   7  -6  189.50   13.11
  -1  -7  -6  165.54   11.85
   1   7  -6  177.71   13.14
  -1   7  -6  179.07    8.75
   1   7  -7    3.15    2.69
  -1  -7  -7   -0.89    2.83
  -1  -7  -8  155.43   12.29
   1   7  -8  159.20   12.94
   1   7  -9   46.18    7.34
  -1  -7  -9   51.75    7.46
   1  -7 -10   98.86    7.70
  -1  -7 -10   94.09   10.07
   1  -7 -11   10.43    2.73
  -1  -7 -11    4.91    3.42
   1  -7 -12    7.64    2.27
  -1  -7 -12    7.79    3.79
   1  -7 -13  380.40   22.16
  -1  -7 -13  362.69   21.48
   1  -7 -14  606.64   28.16
  -1  -7 -14  554.17   26.70
   1  -7 -15   21.19    7.79
  -1  -7 -15    6.80    4.53
  -1  -7 -16    1.02    3.53
   1  -7 -16   10.54    6.77
   1  -7 -17  229.87   18.81
  -1  -7 -17  220.56   18.38
  -1  -7 -18   86.55   12.05
   1  -7 -18   81.25   12.10
   1  -7 -19  119.44   14.37
  -1  -7 -19   98.41   12.78
   1  -7 -20   13.43    7.81
  -1  -7 -20    5.03    4.03
   1  -7 -21   15.61    7.19
  -1  -7 -21    8.55    3.99
  -1  -7 -22   -2.57    3.48
  -1  -7 -23   58.57   10.97
  -1  -7 -24   -0.94    3.59
  -1  -7 -25    3.50    5.55
  -1   8   0    0.27    2.14
   1   8   0   -0.19    2.12
  -1  -8   0    2.35    3.40
  -1   8  -1 1092.36   31.21
   1   8  -1 1075.28   32.63
  -1  -8  -1 1069.64   26.30
   1   8   1 1108.64   32.99
  -1   8   1 1063.27   30.79
  -1   8   2  162.58   11.97
   1   8   2  166.08   12.70
  -1  -8  -2  164.73   11.06
  -1   8  -2  155.19    9.91
  -1   8  -2  159.24   12.14
   1   8  -2  161.70   12.92
  -1   8  -3   20.21    4.24
  -1   8  -3   24.90    3.85
  -1   8   3   20.58    4.42
   1   8  -3   24.97    5.02
  -1  -8  -3   36.07    5.56
   1   8   3   21.07    4.56
   1   8  -4   10.22    3.71
  -1   8  -4    9.71    2.61
  -1   8   4    7.45    3.10
  -1  -8  -4   14.41    4.71
  -1   8  -4   10.75    4.03
   1   8   4    7.55    2.34
  -1   8  -5  989.65   22.40
   1   8   5  970.81   31.51
  -1  -8  -5 1004.34   29.30
  -1   8  -5 1025.89   31.30
   1   8  -5 1040.91   32.85
  -1   8   5  986.25   30.00
  -1   8  -6   55.81    7.91
  -1   8  -6   54.33    5.24
  -1  -8  -6   52.24    7.40
   1   8  -6   46.99    7.57
   1   8  -7  244.93   16.64
  -1   8  -7  263.30   10.73
  -1  -8  -7  262.09   15.99
  -1   8  -7  288.83   17.67
   1   8  -8   19.00    6.48
  -1   8  -8   21.57    3.80
  -1  -8  -8   18.63    6.54
  -1   8  -8   31.83    7.49
  -1  -8  -9 1812.33   44.09
   1   8  -9 1819.04   46.36
  -1   8  -9 1700.16   25.48
  -1   8 -10   43.90    4.11
  -1  -8 -10   65.89   10.27
   1   8 -10   59.15    9.65
   1   8 -11   17.12    5.62
  -1   8 -11   26.20    3.10
  -1  -8 -11   21.95    5.49
  -1  -8 -12  249.33   18.03
  -1  -8 -13  105.31   12.28
  -1  -8 -14   -0.01    3.47
  -1  -8 -15   78.51   10.82
  -1  -8 -16   -0.26    3.36
  -1  -8 -17  167.46   16.40
  -1  -8 -18    8.37    5.44
  -1  -8 -19  284.36   22.24
  -1  -8 -20    2.88    4.70
  -1  -8 -21   81.76   13.07
  -1  -8 -22   13.98    6.74
  -1  -8 -23  116.68   16.01
  -1   9   0   -5.06    4.06
   1   9   0   -1.99    3.38
   1   9   1   35.95    6.69
   1   9  -1   40.92    7.13
  -1   9  -1   41.98    6.50
  -1   9   1   47.80    7.63
   1   9  -2  120.92   11.64
   1   9   2  128.42   12.06
  -1  -9  -2  130.35   10.40
  -1   9   2  120.71   11.01
  -1   9  -2  112.61   10.87
   1   9   3  181.86   14.46
  -1   9   3  170.58   13.35
  -1  -9  -3  173.48   12.44
  -1   9  -3  170.28   13.41
   1   9  -3  164.35   13.71
   1   9   4   64.25    8.92
  -1   9  -4   59.83    8.03
  -1   9  -4   52.92    5.75
  -1   9   4   57.34    8.02
  -1  -9  -4   57.55    7.84
   1   9  -4   59.39    7.97
  -1   9  -5   14.92    4.03
  -1   9  -5   10.70    2.63
   1   9  -5   12.06    3.69
  -1  -9  -5    9.67    4.05
  -1   9   5   19.25    4.94
   1   9   5   16.68    5.64
  -1   9  -6  102.05   11.27
   1   9  -6   91.89   10.75
  -1   9  -6   95.99    7.18
  -1  -9  -6   99.16   10.48
  -1   9  -7    0.69    1.52
   1   9  -7    1.46    3.70
  -1   9  -7    0.27    3.22
  -1  -9  -7    0.50    3.19
   1   9  -8   31.83    7.92
  -1   9  -8   27.67    6.94
  -1   9  -8   18.70    3.40
  -1  -9  -8   34.77    7.78
  -1  -9  -9 1369.20   40.47
  -1   9  -9 1431.87   42.60
   1   9  -9 1457.71   43.53
  -1   9 -10   60.72    9.56
  -1  -9 -10   58.52    9.88
   1   9 -10   57.15    9.68
  -1  -9 -11   43.13    7.97
   1   9 -11   50.92    8.47
   1   9 -12   15.18    4.91
  -1  -9 -12    7.57    4.30
   1   9 -13    0.37    3.96
  -1  -9 -13    4.01    5.49
  -1  -9 -14   14.25    5.95
   1   9 -14   14.00    5.92
  -1  -9 -15   52.81    9.88
  -1  -9 -16  106.54   13.38
  -1  -9 -17    4.21    3.36
  -1  -9 -18   53.17   10.60
  -1  -9 -19   47.51   10.44
  -1  -9 -20   43.50    9.95
  -1  -9 -21   62.17   11.50
  -1  -9 -22   18.06    7.27
   1  10   0   -6.91    4.26
  -1  10   0   -1.84    2.88
   1  10  -1  113.15   12.18
  -1  10  -1  101.27   11.16
  -1  10   1  109.69   11.31
   1  10   1  112.50   11.86
   1  10   2   76.14   10.15
  -1  10  -2   55.04    7.84
   1  10  -2   74.85   10.17
  -1  10   2   72.91    9.22
  -1  10   3  274.79   18.01
   1  10  -3  248.93   18.04
  -1  10  -3  242.54   17.04
   1  10   3  270.44   18.68
   1  10  -4    3.16    3.65
  -1  10  -4    9.04    2.73
  -1 -10  -4   15.92    4.52
  -1  10   4   19.45    5.34
   1  10   4   15.04    5.11
  -1 -10  -5  230.43   15.78
  -1  10   5  255.16   17.57
   1  10   5  243.43   17.99
  -1  10  -5  229.71   16.79
   1  10  -5  222.29   17.50
   1  10  -6  181.11   15.89
  -1 -10  -6  188.74   14.86
  -1  10  -6  198.96   16.00
  -1  10  -7  120.77   12.79
   1  10  -7  127.68   13.51
  -1 -10  -7  136.82   12.99
  -1 -10  -8   89.17   10.93
  -1  10  -8   97.45   11.93
   1  10  -8  100.47   12.48
  -1 -10  -9   84.56   10.90
  -1  10  -9   73.04   10.56
   1  10  -9   80.89   11.35
  -1 -10 -10  448.32   25.06
   1  10 -10  465.24   26.55
  -1  10 -10  488.52   26.80
  -1 -10 -11   35.08    7.96
  -1  10 -11   20.08    6.75
   1  10 -11   28.76    7.11
  -1 -10 -12  115.92   13.35
   1  10 -12   91.35   12.37
  -1  10 -12   87.05   11.97
  -1  10 -13   77.53   11.60
  -1 -10 -13   73.83   11.30
   1  10 -13   84.07   12.06
  -1 -10 -14    9.71    5.84
  -1  10 -14    3.38    3.18
   1  10 -14   10.91    5.95
   1  10 -15   -1.27    2.99
  -1 -10 -15    1.20    3.44
   1  10 -16  115.06   14.63
  -1 -10 -16  132.04   15.43
  -1 -10 -17   23.25    7.71
   1  10 -17   24.01    6.99
  -1 -10 -18   12.96    6.08
  -1 -10 -19   11.99    7.62
  -1 -10 -20  188.50   19.91
  -1  11   0   -0.15    2.87
   1  11   0   -0.43    3.47
  -1  11  -1    0.64    2.92
   1  11  -1    0.69    2.81
   1  11   1    1.10    2.56
  -1  11   1    2.12    2.51
   1  11   2    5.80    3.27
   1  11  -2    1.15    2.47
  -1  11   2    0.37    2.41
   1  11  -3   58.48    9.41
  -1  11   3   56.22    8.72
   1  11   3   67.03   10.26
  -1  11  -3   58.38    8.87
  -1  11  -4   51.56    8.34
   1  11  -4   43.78    8.34
  -1  11   4   48.03    8.35
   1  11   4   60.29   10.18
   1  11   5   -1.26    2.47
  -1  11  -5   -0.79    3.65
   1  11  -5   -5.22    4.96
  -1  11   5    3.41    3.72
   1  11  -6    3.16    3.03
  -1  11  -6   -0.81    3.87
  -1  11  -7   27.67    6.91
   1  11  -7   16.34    4.97
  -1 -11  -7   26.43    6.14
  -1  11  -8  173.32   16.30
   1  11  -8  183.69   17.17
  -1 -11  -8  172.53   15.55
   1  11  -9    3.38    3.20
  -1  11  -9   11.94    4.99
  -1 -11 -10  225.29   18.40
  -1  11 -10  217.78   18.69
   1  11 -10  201.75   18.52
  -1  11 -11   16.84    6.12
   1  11 -11   15.64    5.72
  -1 -11 -11   14.04    6.05
   1  11 -12   60.72   10.51
  -1 -11 -12   69.22   11.16
  -1  11 -12   44.27    8.98
   1  11 -13    9.43    5.13
  -1  11 -13   13.18    5.69
  -1 -11 -13    6.89    5.20
  -1  11 -14   -5.06    4.31
  -1 -11 -14    5.45    5.81
   1  11 -14   -3.01    3.58
   1  11 -15    1.82    4.11
  -1  11 -15   -1.41    2.69
  -1 -11 -15    5.10    5.01
  -1  11 -16    5.90    3.72
  -1 -11 -16   14.97    6.74
   1  11 -16    5.48    4.49
   1  11 -17   18.93    6.88
  -1  11 -17    8.32    4.48
  -1 -11 -17   29.18    9.05
   1  11 -18   -0.76    3.33
  -1  11 -18    6.08    5.16
  -1 -11 -18   -4.31    4.38
  -1 -11 -19   35.31    9.76
  -1  12   0   -2.21    3.55
   1  12   0   -1.00    2.47
  -1  12  -1    1.20    2.68
   1  12   1    2.53    3.68
   1  12  -1   -2.14    3.53
  -1  12   1   -1.15    2.31
  -1  12   2   54.66    9.51
  -1  12  -2   57.31    9.79
   1  12  -2   63.25   10.57
   1  12   2   64.56   10.37
   1  12   3   18.96    5.93
  -1  12  -3   10.06    4.72
  -1  12   3    9.60    4.29
   1  12  -3   13.14    5.65
   1  12  -4   -0.95    3.26
  -1  12  -4   -0.94    3.48
  -1  12   4   -2.18    3.04
   1  12   4    3.85    3.52
   1  12  -5    2.71    3.19
  -1  12   5    8.29    3.89
  -1  12  -5    1.56    3.06
   1  12   5    3.35    3.67
   1  12  -6    6.39    3.08
  -1  12  -6    9.75    4.50
   1  12  -7   10.58    4.44
  -1  12  -7   12.49    5.01
   1  12  -8   27.80    6.58
  -1  12  -8   29.60    7.28
  -1  12  -9  101.67   13.28
   1  12  -9  106.42   13.90
   1  12 -10    9.10    5.34
  -1  12 -10   21.44    6.56
   1  12 -11   -0.84    3.24
  -1  12 -11    4.47    4.55
   1  12 -12   17.67    6.38
  -1 -12 -12   10.51    5.71
  -1  12 -12   10.30    4.91
  -1 -12 -13  153.15   16.53
   1  12 -13  146.37   17.29
  -1  12 -13  153.52   17.03
  -1 -12 -14    2.31    4.80
  -1  12 -14    2.31    3.08
   1  12 -14   -0.44    3.38
  -1 -12 -15   -0.05    4.49
  -1  12 -15   -0.05    2.35
   1  12 -15   -0.53    3.01
  -1  12 -16   52.30   10.63
  -1 -12 -16   65.12   12.49
   1  12 -16   65.59   11.97
  -1 -12 -17   25.11    8.49
  -1  13   0   -0.01    2.89
   1  13   0   -1.48    3.32
  -1  13   1   31.74    7.35
  -1  13  -1   38.43    8.08
   1  13  -1   32.11    7.80
   1  13   1   37.28    8.56
  -1  13  -2   13.69    5.79
   1  13  -2   11.09    5.14
   1  13   2   18.33    6.20
  -1  13   2   11.37    4.98
   1  13  -3   19.65    6.58
  -1  13   3   24.33    6.65
   1  13   3   26.78    7.24
  -1  13  -3   14.24    5.52
   1  13  -4   34.60    8.21
  -1  13  -4   42.63    8.81
  -1  13   4   38.98    8.15
   1  13   4   29.13    7.13
  -1  13  -5   -1.95    3.78
   1  13  -5    2.91    3.68
  -1  13   5   -3.45    3.74
   1  13   5    5.12    3.77
   1  13  -6   -1.37    3.21
  -1  13  -6   -0.57    3.58
   1  13  -7   13.98    5.73
  -1  13  -7    4.73    4.13
   1  13  -8   10.23    5.43
  -1  13  -8   -1.67    3.46
  -1  13  -9   74.74   12.23
   1  13  -9   62.52   11.17
  -1  13 -10    8.32    4.95
   1  13 -10   13.31    6.74
  -1  13 -11    4.66    4.53
   1  13 -11    0.33    2.43
   1  13 -12   43.91    9.94
  -1  13 -12   27.40    7.55
  -1  13 -13   -3.07    4.25
  -1  14   0    3.30    4.60
   1  14   0   -4.92    3.73
  -1  14  -1   20.00    6.53
   1  14  -1   16.65    6.62
   1  14   1   20.67    6.73
  -1  14   1   19.80    6.24
  -1  14  -2   24.17    7.35
   1  14  -2   22.46    7.24
  -1  14   2   16.05    5.99
   1  14   2   17.54    5.89
  -1  14   3   13.71    4.97
   1  14  -3   10.20    4.78
  -1  14  -3   11.58    5.10
   1  14   3   24.26    7.26
  -1  14  -4    3.37    3.73
   1  14  -4   -1.14    3.44
  -1  14   4   -1.72    3.11
   1  14   4    2.36    3.52
  -1  14  -5   60.89   11.05
   1  14  -5   63.60   11.41
  -1  14  -6   71.71   11.97
   1  14  -6   81.05   13.06
   1  14  -7    4.27    5.44
  -1  14  -7   -5.01    4.11
   1  14  -8    8.41    4.27
  -1  14  -8    9.08    5.34
  -1  14  -9   15.12    6.27
  -1  14 -10   46.26    9.80
  -1  15   0    0.85    3.46
  -1  15   1    4.16    4.23
  -1  15  -1   -4.99    3.88
  -1  15  -2   58.55   10.99
  -1  15   2   51.69   10.33
  -1  15  -3   16.86    6.08
  -1  15   3   10.32    4.26
  -1  15  -4    6.85    4.64
   2   0   0  767.44   13.59
  -2   0   0  751.65   13.61
  -2   0   0  761.84    9.56
   2   0  -1    0.92    0.90
  -2   0   1   -0.43    1.23
  -2   0   1    1.85    0.72
  -2   0  -1   -0.36    1.09
   2   0  -1    3.38    0.65
   2   0   1   -1.94    1.74
   2   0  -2 6348.54   34.75
   2   0   2 6283.55   43.31
   2   0  -2 6311.67   25.71
  -2   0  -2 6343.81   44.34
  -2   0   3   -0.19    0.80
   2   0   3    0.57    1.90
  -2   0  -3    3.93    2.37
   2   0   4 3346.19   35.17
  -2   0  -4 3242.31   35.13
  -2   0   4 3296.21   23.21
   2   0   5    0.43    1.68
   2   0   6  518.12   15.25
  -2   0   7    3.22    1.89
   2   0   7   30.01    6.21
   2   0   8 2208.57   33.95
  -2   0   8 2230.87   30.44
   2   0   9  106.54   10.68
  -2   0   9    0.46    1.52
  -2   0  10 5312.16   51.15
   2   0  10 5384.91   56.26
   2   0  11  143.28   12.20
  -2   0  11    0.46    1.45
   2   0  12 1115.36   27.43
  -2   0  12 1105.11   25.17
   2   0  13   60.96    8.83
  -2   0  13    1.22    2.02
   2   0  14 1541.16   34.14
   2   0  15   46.14    7.86
   2   0  16   77.38    8.36
   2   0  17    2.90    3.41
   2   0  18  154.73   12.01
  -2   0 -18  153.78   12.47
  -2   0 -19   -1.74    2.43
   2   0  19    0.51    2.51
  -2   0  19    3.27    2.09
  -2   0  20   64.33    5.98
   2   0  20   66.09    8.37
  -2   0 -20   52.28    7.81
  -2   0  21    1.71    1.40
   2   0  21    1.61    2.40
  -2   0 -21   -1.71    3.04
   2   0  22   -1.87    2.21
  -2   0 -22   -0.90    2.67
  -2   0 -23    5.03    3.83
   2   0  23   -3.54    3.02
  -2   0 -24   13.95    4.44
   2   0  24   15.54    5.37
  -2   0 -25   -3.23    3.34
   2   0  25   -1.79    3.44
  -2   0 -26   47.74    8.94
   2   0  26   43.57    8.00
   2   0  27    8.44    3.81
  -2   0 -27    0.14    2.92
  -2   0 -28    0.16    3.49
  -2   0 -29    8.41    4.70
   2   1   0 8767.75   43.44
   2   1   0 8736.98   50.06
  -2  -1   0 8576.22   49.92
   2  -1   0 8580.12   45.23
  -2  -1   0 8502.01   43.44
  -2  -1   1 7164.45   38.89
  -2  -1   1 7234.54   44.85
   2  -1  -1 7513.51   39.03
   2  -1   1 7362.31   44.96
  -2  -1  -1 7426.32   48.05
   2   1   1 7477.24   47.74
   2   1  -1 7442.73   39.18
  -2  -1  -1 7396.99   42.24
   2   1  -2   56.85    3.60
   2   1   2   60.02    4.65
   2  -1  -2   57.62    3.16
  -2  -1  -2   60.53    4.77
  -2  -1   2   59.31    4.09
  -2  -1  -3 2890.72   32.31
   2  -1  -3 2816.71   19.34
   2   1   3 2843.35   31.75
  -2  -1  -4 2910.66   33.59
   2  -1  -4 2873.32   17.02
   2   1   4 2938.86   33.36
  -2  -1  -5   10.86    2.37
   2   1   5   12.33    2.37
  -2  -1  -6   10.51    2.36
   2   1   6    7.22    1.84
  -2  -1  -7  130.17    7.97
   2   1   7  124.94    7.69
  -2   1   7  132.04    8.02
  -2  -1   7  126.32    6.39
   2   1   8 1243.20   25.02
  -2  -1   8 1268.66   20.59
  -2   1   8 1304.53   25.20
  -2  -1  -8 1283.33   25.61
  -2  -1   9    6.16    1.77
  -2   1   9    4.71    1.84
  -2   1  10  714.80   20.18
   2   1  10  692.92   20.05
  -2  -1  10  692.62   16.84
  -2   1  10  634.42    8.41
  -2   1  11    6.22    1.55
  -2   1  11    2.92    2.21
  -2  -1  11    1.40    1.73
  -2   1  12 1878.61   18.17
  -2  -1  12 1968.22   30.91
   2  -1  12 1944.14   37.16
   2   1  12 1934.10   35.42
   2  -1  13   50.90    8.61
   2   1  13   34.90    8.22
  -2   1  13   14.85    2.78
  -2  -1  14  970.84   23.69
   2  -1  14  990.62   28.35
  -2   1  14  945.68   15.06
   2   1  14 1022.62   27.11
   2  -1  15  498.44   20.82
   2   1  15  497.50   19.74
  -2   1  15  455.24   11.04
   2  -1  16  110.81   10.60
  -2   1  16   86.53    5.24
   2   1  16   92.37    8.98
  -2   1  17   57.96    4.62
   2  -1  17   61.28    8.77
   2   1  17   67.86    8.46
  -2  -1 -17   53.31    7.77
  -2  -1 -18 1158.59   35.08
  -2   1  18 1131.94   20.21
   2   1  18 1141.97   32.37
   2  -1  18 1183.30   34.17
   2  -1  19   48.01    8.81
   2   1  19   32.75    7.01
  -2   1  19   10.23    3.28
  -2  -1 -19    2.21    4.39
  -2   1 -19    3.11    5.77
   2  -1  20   96.16   10.45
   2   1  20   91.61    9.68
  -2   1 -20   90.71    9.84
  -2  -1 -20   86.36   10.04
  -2   1  20   91.27    6.14
   2   1  21   73.15    9.04
   2  -1  21   79.99    9.79
  -2   1 -21   64.27    8.80
  -2  -1 -21   67.13    9.32
   2   1  22  245.40   16.55
  -2   1 -22  227.10   16.33
   2  -1  22  234.80   17.05
  -2  -1 -22  228.63   17.46
  -2   1 -23   40.66    7.02
   2   1  23   50.82    8.27
  -2  -1 -23   54.18    9.61
   2  -1  23   55.69    8.58
  -2  -1 -24   27.51    6.97
   2   1  24   27.30    6.63
   2  -1  24   25.48    6.13
  -2   1 -24   22.97    6.04
   2  -1  25  128.69   13.58
  -2   1 -25  134.39   13.85
   2   1  25  129.31   12.90
  -2  -1 -25  124.30   14.03
   2  -1  26  287.71   20.08
   2   1  26  303.38   19.80
  -2   1 -26  286.35   20.39
  -2  -1 -26  315.77   22.62
  -2  -1 -27   58.28   10.79
  -2   1 -27   44.09    9.09
   2  -1  27   47.22    8.79
  -2  -1 -28  279.05   22.43
   2  -1  28  268.09   19.97
  -2  -1 -29  156.00   17.03
  -2  -1 -30    8.38    5.28
  -2  -2   0 1545.26   23.93
  -2  -2   0 1548.95   22.53
   2   2   0 1522.47   22.25
  -2  -2  -1  262.47    9.53
   2   2  -1  258.70    9.12
  -2  -2  -1  264.72   10.10
   2   2   1  254.45    9.42
  -2  -2   1  287.90    9.78
  -2   2   1  241.12    5.26
   2   2   2   -4.98    2.45
   2   2  -2   -1.43    1.45
  -2  -2  -2   -0.59    1.39
  -2  -2   2    3.48    1.86
  -2  -2  -2   -0.46    1.57
   2  -2  -2   -0.13    0.68
  -2  -2  -3 3848.14   39.31
   2   2  -3 3770.33   35.89
   2   2   3 3739.58   39.15
  -2  -2  -3 3721.95   38.37
   2  -2  -3 3794.37   22.97
  -2  -2  -4 2690.34   33.73
   2   2   4 2720.35   34.02
  -2  -2  -5 1815.23   28.76
   2   2   5 1816.24   28.69
   2   2   6  531.21   15.83
  -2   2   6  548.80   16.56
  -2  -2  -6  542.84   16.00
  -2  -2  -7  721.76   19.09
   2   2   7  707.13   18.81
  -2  -2   7  702.63   12.70
  -2   2   7  689.08   19.40
   2   2   8    3.88    2.16
  -2  -2   8    1.18    0.83
  -2   2   8    0.46    1.96
  -2  -2  -8   -0.52    1.30
  -2   2   9   35.60    4.80
   2   2   9   33.51    4.59
  -2  -2   9   34.77    3.13
  -2  -2  -9   32.16    4.40
  -2  -2  10   12.93    2.17
   2   2  10   13.60    3.02
  -2  -2 -10   15.10    3.22
   2   2  11  581.59   18.88
  -2  -2  11  550.65   13.97
  -2  -2 -11  578.24   19.05
  -2  -2  12    6.78    1.71
   2   2  12   21.76    6.42
   2   2  13 1839.19   35.63
  -2   2  14   12.47    1.31
   2   2  14   30.72    6.45
  -2   2  15   31.21    2.28
   2   2  15   40.33    5.93
  -2  -2 -15   32.51    5.61
   2   2  16   87.21    8.68
  -2   2  16   92.83    4.27
  -2  -2 -16  106.47   10.39
   2   2  17    2.06    2.67
  -2   2  17    0.65    0.80
  -2  -2 -17   -1.10    3.12
   2   2  18   40.85    6.24
  -2   2  18   41.96    3.22
  -2  -2 -18   44.07    7.32
  -2   2  19   62.35    4.15
   2   2  19   71.66    8.35
   2  -2  19   61.27    8.63
  -2  -2 -19   48.93    7.89
  -2  -2 -20   -0.84    3.30
   2   2  20    5.93    3.82
  -2   2 -20   -4.10    3.35
  -2   2 -21   93.53   10.13
   2   2  21  107.04   10.54
   2  -2  21   89.13   10.78
  -2  -2 -21  105.50   11.85
  -2  -2 -22   55.02    9.23
   2   2  22   72.13    9.11
   2  -2  22   56.85    8.72
  -2   2 -22   55.93    7.71
  -2  -2 -23   -2.81    4.88
   2   2  23    3.71    2.53
   2  -2  23    0.53    2.84
  -2   2 -23    1.25    2.86
   2   2  24    6.29    3.75
  -2   2 -24    1.26    2.63
   2  -2  24   10.54    4.65
  -2  -2 -24    4.50    3.60
  -2   2 -25    2.94    3.22
   2   2  25    1.03    2.52
  -2  -2 -25   -0.77    3.89
   2  -2  25    1.00    2.64
  -2  -2 -26    7.19    3.89
   2  -2  26   11.16    4.15
  -2   2 -26   12.82    4.20
  -2  -2 -27   18.40    6.50
   2  -2  27   23.80    6.33
   2  -2  28   -2.36    2.65
  -2  -2 -28   11.83    5.59
  -2  -2 -29   34.72    8.49
  -2  -2 -30    1.13    3.78
  -2   3   0 1121.51   16.40
  -2  -3   0 1122.12   22.11
   2   3   0 1125.54   22.11
  -2   3   1  554.52   11.20
   2   3  -1  570.81   15.88
  -2  -3  -1  572.86   15.99
   2   3   1  566.47   16.00
  -2  -3   1  578.85   15.81
   2   3  -2   23.45    3.62
  -2  -3  -2   27.24    3.60
  -2  -3  -2   23.78    3.51
  -2  -3   2   26.72    3.56
  -2   3   2   23.69    2.41
   2  -3  -2   24.59    2.36
   2   3   2   23.81    3.62
   2  -3  -3  130.25    5.61
  -2  -3  -3  140.01    8.32
   2   3  -3  121.13    7.64
  -2  -3  -3  148.04    8.51
   2  -3  -4   28.76    2.73
  -2  -3  -4   32.00    4.06
   2   3  -4   33.33    4.46
  -2  -3  -4   32.01    4.11
   2  -3  -5  203.93    7.79
  -2  -3  -5  206.44   10.21
   2   3   5  195.24    9.88
  -2  -3  -5  189.21   10.26
  -2   3   5  203.83   10.55
   2  -3  -6  331.87   10.56
   2   3   6  328.58   13.09
  -2   3   6  335.43   13.99
  -2  -3  -6  340.43   13.40
  -2  -3  -7   29.67    4.27
   2   3   7   27.13    4.18
  -2  -3   7   25.22    2.06
  -2   3   7   25.57    4.09
  -2  -3  -8  707.86   20.05
  -2  -3   8  669.25   10.64
   2   3   8  708.03   19.98
   2   3   9  368.44   14.85
  -2  -3  -9  368.93   14.70
  -2  -3   9  360.50    8.32
  -2  -3  10  133.55    5.45
  -2  -3 -10  135.66    9.17
   2   3  10  150.55    9.66
   2   3  11  425.80   16.72
   2   3  12    1.12    2.51
  -2  -3 -13   90.96    9.20
   2   3  13   98.45    8.36
   2   3  14    9.00    3.50
  -2  -3 -14    4.36    2.81
   2   3  15   93.23    8.54
  -2  -3 -15   81.49    9.35
   2   3  16    0.92    2.69
  -2  -3 -16   -0.23    3.61
  -2  -3 -17  309.26   19.05
   2   3  17  322.68   16.64
  -2  -3 -18  112.33   12.13
   2   3  18  118.92   10.55
   2   3  19  223.53   14.75
  -2  -3 -19  244.95   17.81
  -2   3 -20   36.28    5.81
  -2  -3 -20   47.57    8.55
   2   3  20   44.32    7.15
  -2  -3 -21    4.66    3.88
   2   3  21    3.87    2.63
  -2   3 -21    2.69    2.07
  -2  -3 -22   73.20   10.79
   2   3  22   61.64    8.04
   2  -3  22   66.96    9.60
  -2   3 -22   60.56    7.78
  -2  -3 -23   -2.14    4.60
   2   3  23    2.37    3.29
   2  -3  23    4.23    3.38
  -2   3 -23    8.91    3.62
  -2   3 -24   15.23    4.64
   2   3  24    9.97    4.06
  -2  -3 -24   11.56    4.25
   2  -3  24   12.93    5.03
   2  -3  25  158.83   15.81
  -2  -3 -25  180.34   17.47
   2   3  25  183.74   14.78
  -2  -3 -26   -2.11    4.28
   2  -3  26    4.86    4.70
   2  -3  27   13.89    5.80
  -2  -3 -27   10.44    5.08
   2  -3  28   54.55    9.69
  -2  -3 -28   54.92   10.75
  -2  -3 -29  134.67   16.91
   2  -3  29  109.50   13.88
  -2  -4   0    4.22    1.71
  -2   4   0    5.11    1.45
   2   4   0    2.42    1.75
  -2  -4  -1    4.34    2.13
  -2   4   1    5.84    1.77
   2   4  -1    2.02    1.73
  -2  -4   1    5.97    2.45
   2   4   1    5.84    1.96
  -2   4  -1    6.40    1.95
   2   4   2   90.60    7.25
  -2  -4  -2   98.47    7.44
   2   4  -2   90.52    7.22
  -2   4   2   88.16    5.50
   2  -4  -2   89.48    5.58
  -2  -4   2   95.26    7.32
  -2   4   3  122.15    6.43
   2   4   3  109.89    8.19
  -2  -4  -3  118.78    8.36
  -2  -4  -3  130.45    8.58
   2   4  -3  118.94    8.17
   2  -4  -3  117.94    6.41
  -2   4   4  422.44   15.72
  -2  -4  -4  416.13   15.38
   2   4  -4  414.54   15.59
   2  -4  -4  409.98   12.17
  -2  -4  -4  396.49   15.58
   2   4  -5   45.84    5.60
  -2   4   5   41.31    5.27
  -2  -4  -5   37.82    4.71
  -2  -4  -5   34.17    4.68
   2  -4  -5   48.13    4.37
   2  -4  -6  658.84   16.59
  -2  -4  -6  667.18   19.85
   2  -4  -7  359.69   12.81
  -2  -4  -7  371.01   15.09
  -2  -4  -8 1010.27   25.06
   2  -4  -8  971.76   21.91
   2  -4  -9  178.40    5.58
  -2  -4  -9  201.53   12.70
  -2  -4 -10  373.93   17.49
   2   4  10  365.06   15.63
   2  -4 -10  327.04    7.04
   2  -4 -11    2.21    0.67
  -2  -4 -11    2.98    3.11
   2   4  11    1.23    2.03
   2   4  12   20.33    3.75
  -2  -4 -12   17.72    4.25
   2   4  13    7.87    2.91
  -2  -4 -13    4.84    2.50
   2   4  14  103.05    9.15
  -2  -4 -14   96.78   10.06
  -2  -4 -15  301.81   18.56
   2   4  15  299.55   15.71
   2   4  16   67.99    7.59
  -2  -4 -16   68.40    9.31
   2   4  17   -3.90    3.25
  -2  -4 -17   -4.76    4.24
   2   4  18    7.71    2.79
  -2  -4 -18    5.58    2.79
  -2  -4 -19    0.35    2.50
   2   4  19   -3.92    3.44
   2   4  20  125.58   11.13
  -2  -4 -20  112.81   12.77
   2   4  21    6.23    3.10
  -2  -4 -21    3.15    3.33
  -2   4 -21    0.93    1.77
  -2  -4 -22   55.18    9.43
  -2   4 -22   53.66    7.18
   2   4  22   52.75    7.69
   2   4  23   12.90    4.16
  -2  -4 -23    8.19    4.00
   2   4  24   11.89    3.65
  -2  -4 -24   17.58    5.85
  -2  -4 -25   52.01    9.65
   2  -4  25   44.51    9.11
  -2  -4 -26   -3.54    5.06
   2  -4  26   -1.76    2.95
  -2  -4 -27   13.86    5.21
   2  -4  27   14.39    5.56
  -2  -4 -28   24.07    7.93
   2  -4  28   22.14    6.95
   2  -4  29    5.72    4.87
  -2  -5   0 3847.09   39.44
   2   5   0 3952.57   51.48
  -2   5   0 3823.61   42.19
  -2  -5   1   25.31    4.10
  -2   5  -1   24.71    3.50
   2   5   1   16.21    3.75
   2   5  -1   22.50    4.57
  -2   5   1   19.44    3.02
  -2  -5  -2  111.93    7.66
  -2  -5   2  110.67    5.78
   2   5  -2  115.30    8.94
   2  -5  -2  112.96    7.26
  -2   5  -2  101.70    7.25
  -2   5   2  110.95    7.18
   2   5   2  113.59    9.01
  -2   5   3   83.38    6.36
  -2  -5  -3   86.24    6.94
   2   5   3   94.11    8.22
  -2  -5   3   91.10    4.84
   2  -5  -3   92.20    6.52
  -2   5   3   96.02    8.04
   2   5  -3   93.98    8.09
   2   5   4   89.69    8.06
  -2   5   4   84.56    6.34
  -2  -5  -4   87.77    7.33
  -2  -5   4   83.87    4.11
   2   5  -4   80.34    7.63
   2  -5  -4   86.71    6.33
  -2  -5  -5  397.11   15.88
   2  -5  -5  384.98   13.70
  -2  -5   5  361.86    7.21
   2   5  -5  387.65   16.82
   2   5  -6   75.77    7.81
  -2  -5  -6   66.79    6.96
   2  -5  -6   74.59    6.20
  -2  -5  -7  488.78   19.24
   2   5  -7  499.76   19.66
   2  -5  -7  495.01   16.28
  -2  -5  -8 1538.22   34.83
   2  -5  -8 1573.47   30.10
   2  -5  -9    4.64    4.25
  -2  -5  -9    5.32    3.97
   2  -5 -10  289.60   13.87
   2  -5 -10  278.28    8.62
  -2  -5 -10  275.97   15.94
   2  -5 -11   81.14    4.48
  -2  -5 -11   75.05    8.76
   2  -5 -12   16.41    1.97
  -2  -5 -12   10.90    3.98
   2  -5 -13   70.61    3.87
  -2  -5 -13   80.68    9.91
  -2  -5 -14  606.27   25.93
  -2  -5 -15  178.88   14.72
  -2  -5 -16   25.16    6.78
  -2  -5 -17    8.06    4.35
  -2  -5 -18   97.41   11.78
  -2  -5 -19  124.16   13.23
  -2  -5 -20   47.07    8.57
  -2  -5 -21    4.82    3.99
  -2  -5 -22  158.06   16.04
  -2  -5 -23   -0.85    3.73
  -2  -5 -24   40.04    9.01
  -2  -5 -25   -1.45    3.83
  -2  -5 -26   44.32   10.16
  -2  -5 -27    7.81    4.69
   2  -5  27   29.42    8.02
   2  -5  28   44.88    9.68
   2  -5  29    8.58    4.88
  -2  -6   0  580.52   16.55
   2   6   0  633.34   22.32
  -2   6   0  586.29   18.57
  -2   6  -1   49.21    5.67
  -2   6   1   41.12    5.10
  -2  -6  -1   43.73    5.09
   2   6  -1   41.11    5.94
   2   6   1   49.95    6.64
  -2  -6   1   45.69    4.59
  -2  -6  -2   20.17    3.38
  -2   6  -2   24.49    4.06
  -2  -6   2   18.80    2.63
   2   6  -2   23.97    4.52
  -2   6   2   23.92    3.62
   2   6   2   22.87    4.69
   2  -6  -2   28.23    4.01
  -2   6   3   41.92    5.00
   2  -6  -3   41.00    4.93
   2   6  -3   35.74    5.46
   2   6   3   34.90    5.48
  -2  -6   3   36.54    3.38
  -2   6  -3   46.08    5.59
  -2  -6  -3   46.83    5.75
   2   6   4  233.00   13.97
  -2  -6   4  235.22    7.76
  -2  -6  -4  244.11   12.65
  -2   6   4  240.42   12.02
  -2   6  -4  233.89   12.83
   2  -6  -4  247.22   11.84
   2   6  -4  238.81   14.04
  -2  -6  -5  159.50   10.66
  -2  -6   5  150.77    5.36
   2   6  -5  152.07   11.39
   2  -6  -5  154.26    9.62
   2  -6  -6   15.29    3.16
   2   6  -6   10.57    3.18
  -2  -6  -6   12.73    3.93
   2  -6  -7  201.99   11.30
  -2  -6  -7  188.33   12.48
   2   6  -7  197.15   13.44
  -2  -6  -8   10.91    3.75
   2   6  -8    8.36    4.06
  -2  -6  -9   14.42    4.13
  -2  -6 -10   51.22    7.51
   2  -6 -10   49.27    4.32
   2  -6 -11  541.65   14.03
  -2  -6 -11  561.39   24.05
  -2  -6 -12  156.61   13.20
   2  -6 -12  134.46    6.75
  -2  -6 -13  114.71   12.04
   2  -6 -13  108.72    5.87
  -2  -6 -14  291.36   19.11
  -2  -6 -15  134.72   13.64
  -2  -6 -16  160.47   14.57
  -2  -6 -17    0.72    4.38
  -2  -6 -18   52.42    8.62
  -2  -6 -19    5.42    3.53
  -2  -6 -20   -1.58    4.76
  -2  -6 -21    8.82    4.64
  -2  -6 -22   53.88   10.04
  -2  -6 -23   18.46    6.10
  -2  -6 -24   94.75   13.96
  -2  -6 -25   -2.24    5.12
  -2   7   0    2.23    1.74
  -2  -7   0    2.50    2.04
   2   7   0   -1.28    2.49
  -2  -7  -1  815.47   22.02
  -2  -7   1  821.83   20.09
  -2   7  -1  868.55   24.98
   2   7  -1  877.99   28.36
  -2   7   1  832.04   24.14
   2   7   1  816.29   27.61
  -2  -7  -2  250.33   12.84
  -2  -7   2  267.93   10.85
   2   7  -2  273.59   16.02
  -2   7  -2  262.65   14.10
  -2   7   2  261.81   13.53
   2   7   2  275.66   16.00
   2   7   3  760.88   26.88
  -2  -7  -3  741.41   22.46
   2   7  -3  767.06   26.62
  -2  -7   3  730.10   16.46
  -2   7  -3  734.46   23.45
  -2   7   3  738.70   22.66
  -2   7   4  120.28    9.09
  -2  -7  -4  119.05    9.69
   2   7   4  112.69   10.36
  -2  -7   4  116.80    6.13
  -2   7  -4  114.78    9.50
   2   7  -4  124.56   11.02
  -2   7   5  200.90   12.01
   2   7   5  209.13   14.24
  -2  -7  -5  202.97   12.85
  -2   7  -5  193.48   12.98
   2   7  -5  193.17   13.73
  -2  -7  -6  267.61   15.13
   2   7  -6  281.03   16.77
  -2  -7  -7  818.19   27.05
   2   7  -7  816.37   28.89
  -2  -7  -8  134.99   11.78
   2   7  -8  140.90   12.32
  -2  -7  -9   99.82   10.20
   2   7  -9  100.01   10.60
  -2  -7 -10   62.61    9.69
   2   7 -10   82.75   10.85
   2  -7 -11 2052.44   31.56
  -2  -7 -11 2101.60   48.48
  -2  -7 -12  338.78   20.51
  -2  -7 -13  139.41   13.37
  -2  -7 -14   77.03   10.42
  -2  -7 -15    6.55    3.95
  -2  -7 -16  149.17   14.62
  -2  -7 -17  176.12   16.69
  -2  -7 -18   48.67    9.17
  -2  -7 -19   44.69    8.33
  -2  -7 -20   18.94    7.41
  -2  -7 -21  109.00   14.20
  -2  -7 -22   -2.79    3.50
  -2  -7 -23    2.80    3.15
  -2  -7 -24   10.11    4.88
  -2   8   0   18.75    4.07
   2   8   0   17.45    4.45
  -2  -8   0   18.54    3.89
  -2  -8   1   14.82    3.45
  -2   8  -1   10.04    2.68
   2   8  -1    9.13    3.29
  -2   8   1   11.84    3.55
   2   8   1    9.43    3.36
  -2  -8  -1   10.63    2.71
   2   8  -2   23.66    5.03
  -2   8  -2   27.88    5.11
  -2  -8   2   30.97    4.25
  -2   8   2   33.98    5.20
   2   8   2   39.01    6.61
  -2  -8  -2   32.90    4.96
   2   8   3  142.52   12.58
  -2  -8  -3  155.15   11.01
  -2  -8   3  144.75    8.19
  -2   8  -3  142.40   11.37
   2   8  -3  147.08   12.54
  -2   8   3  130.89   10.39
  -2   8   4  254.36   14.49
   2   8   4  253.95   16.80
  -2  -8  -4  239.92   14.23
  -2   8  -4  258.83   15.34
   2   8  -4  259.71   16.82
  -2   8   5  198.25   13.03
   2   8   5  213.22   15.38
  -2  -8  -5  214.27   13.85
  -2   8  -5  199.21   14.02
   2   8  -5  195.14   14.79
  -2   8  -6    3.47    2.82
   2   8  -6    1.76    2.38
  -2  -8  -6   -4.51    4.18
  -2  -8  -7   68.14    7.95
   2   8  -7   70.09    9.15
  -2   8  -7   79.63    9.43
   2   8  -8    0.78    2.73
  -2  -8  -8   -5.41    4.82
  -2  -8  -9   83.49    9.25
   2   8  -9  103.19   11.50
   2   8 -10   77.89   10.13
  -2  -8 -10   57.66    8.22
  -2  -8 -11   -4.99    4.74
   2   8 -11   -1.45    3.02
   2   8 -12   22.05    5.35
  -2  -8 -12   17.08    5.21
  -2  -8 -13    1.40    3.17
   2   8 -13   -2.82    4.19
  -2  -8 -14   38.91    7.79
  -2  -8 -15  262.82   19.83
  -2  -8 -16    1.70    3.58
  -2  -8 -17   84.19   12.02
  -2  -8 -18   34.30    8.66
  -2  -8 -19   72.19   11.83
  -2  -8 -20   -4.53    4.91
  -2  -8 -21  133.36   16.35
  -2  -8 -22    0.59    4.06
  -2  -8 -23   12.90    6.35
  -2  -9   0   35.04    5.51
  -2   9   0   34.74    5.98
   2   9   0   23.87    5.16
  -2  -9  -1  177.97   11.58
  -2  -9   1  181.00   10.64
  -2   9  -1  174.51   12.97
   2   9  -1  177.53   14.66
  -2   9   1  187.12   13.43
   2   9   1  190.18   15.20
  -2   9   2   17.17    4.45
  -2  -9   2   17.18    3.85
  -2  -9  -2   19.77    4.48
   2   9  -2   13.43    4.74
  -2   9  -2   12.32    3.03
   2   9   2   17.06    5.10
  -2   9   3  409.43   20.01
   2   9   3  418.16   22.68
  -2  -9  -3  413.12   18.99
   2   9  -3  398.15   22.11
  -2   9  -3  431.76   20.81
  -2   9   4  128.68   11.33
   2   9   4  128.75   12.80
  -2   9  -4  130.71   11.68
   2   9  -4  117.86   11.98
  -2  -9  -4  128.37   11.15
   2   9  -5    9.74    3.53
  -2  -9  -5   13.17    4.23
  -2   9  -5    8.16    3.80
  -2   9   5   13.29    3.83
  -2  -9  -6  283.60   17.67
   2   9  -6  270.20   18.82
  -2   9  -6  291.08   18.22
  -2  -9  -7 1152.65   35.66
  -2   9  -7 1174.40   37.03
   2   9  -7 1180.32   38.99
  -2   9  -8  557.02   25.94
  -2  -9  -8  550.96   25.34
  -2   9  -8  501.87   17.77
   2   9  -8  530.96   26.46
   2   9  -9   32.00    7.32
  -2   9  -9   31.63    6.92
  -2  -9  -9   28.74    6.53
  -2  -9 -10  350.85   21.42
  -2   9 -10  365.37   21.77
   2   9 -10  390.42   23.21
   2   9 -11   71.98   10.04
  -2  -9 -11   74.45   10.29
   2   9 -12   -2.43    3.98
  -2  -9 -12   -3.28    4.19
   2   9 -13  177.62   16.66
  -2  -9 -13  165.00   15.62
   2   9 -14   33.87    8.06
  -2  -9 -14   37.91    8.30
  -2  -9 -15  110.97   13.77
   2   9 -15  111.26   13.91
   2   9 -16   53.03   10.38
  -2  -9 -16   71.39   11.37
  -2  -9 -17  235.06   20.49
  -2  -9 -18   15.69    7.51
  -2  -9 -19   25.19    8.15
  -2  -9 -20    6.25    5.57
  -2  -9 -21   41.01    9.89
  -2 -10   0   81.12    8.31
   2  10   0   64.30    9.35
  -2  10   0   75.85    9.55
  -2 -10  -1   10.10    3.41
   2  10  -1   12.29    4.72
  -2  10  -1    7.63    3.22
  -2  10   1    2.51    2.55
   2  10   1    7.50    3.79
  -2 -10  -2    2.77    3.35
   2  10  -2   -2.93    3.51
  -2  10  -2   -5.00    4.49
   2  10   2    1.24    2.51
  -2  10   2   -0.65    2.83
  -2  10  -3    3.34    2.24
   2  10  -3    5.02    2.97
  -2  10   3    1.29    2.60
   2  10   3    8.57    3.58
  -2 -10  -3    4.39    2.96
  -2 -10  -4   72.45    8.71
  -2  10  -4   73.17    9.30
   2  10   4   89.99   11.10
   2  10  -4   69.94    9.37
  -2  10   4   81.88    9.75
  -2  10  -5   21.90    5.18
   2  10  -5   13.71    3.90
  -2 -10  -5   23.29    5.85
  -2  10   5   29.77    6.81
   2  10   5   33.89    7.82
  -2 -10  -6   96.55   10.58
  -2  10  -6  128.82   12.72
   2  10  -6   99.68   12.06
   2  10  -7   -1.50    3.30
  -2 -10  -7    1.80    2.56
  -2  10  -7    2.93    3.49
   2  10  -8   23.39    6.91
  -2  10  -8   14.01    4.99
  -2 -10  -8   15.39    4.93
  -2  10  -9    8.80    4.59
   2  10  -9    1.42    3.32
  -2 -10  -9    0.15    3.83
  -2 -10 -10    2.13    3.23
   2  10 -10    4.30    3.86
  -2  10 -10    5.31    3.68
  -2 -10 -11   96.64   12.01
  -2  10 -11   92.37   11.97
   2  10 -11  102.23   12.97
  -2 -10 -12   53.48    9.50
   2  10 -12   61.70   10.24
  -2  10 -12   59.38    9.51
   2  10 -13    7.62    5.48
  -2 -10 -13    4.06    3.48
   2  10 -14   28.29    8.08
  -2 -10 -14   36.25    8.22
   2  10 -15   57.32   10.43
  -2 -10 -15   39.30    8.43
   2  10 -16   17.12    6.19
  -2 -10 -16   20.88    6.73
   2  10 -17   -1.24    3.50
  -2 -10 -17    2.36    4.69
   2  10 -18   45.50    9.83
  -2 -10 -18   26.21    7.88
  -2 -10 -19   30.27    9.00
   2  10 -19   37.94    9.24
   2  10 -20    7.90    4.57
  -2 -10 -20   11.64    6.63
  -2  11   0  290.04   19.11
   2  11   0  279.30   20.73
  -2  11  -1   13.98    4.48
   2  11  -1   25.28    6.38
  -2  11   1   15.04    4.66
   2  11   1   16.74    5.26
  -2  11  -2    3.14    3.17
   2  11  -2    3.28    2.68
  -2  11   2    0.09    2.29
   2  11   2   -3.73    3.54
  -2 -11  -2    3.06    3.95
  -2  11  -3   -0.07    3.69
   2  11  -3    1.65    3.20
  -2  11   3    3.75    2.51
   2  11   3    5.46    3.95
  -2  11  -4  580.90   27.77
   2  11   4  599.36   30.11
  -2 -11  -4  591.64   25.60
  -2  11   4  569.58   26.82
   2  11  -4  580.19   30.24
  -2  11  -5   15.96    5.35
   2  11  -5   12.29    4.81
  -2 -11  -5   21.05    5.97
  -2  11   5   22.30    6.09
   2  11   5   24.33    6.94
  -2 -11  -6  129.63   12.85
  -2  11  -6  109.27   12.47
   2  11  -6  111.18   13.27
  -2 -11  -7  198.29   16.74
  -2  11  -7  219.13   18.02
   2  11  -7  227.06   19.19
  -2 -11  -8   18.93    5.90
  -2  11  -8   17.75    5.61
   2  11  -8    8.34    4.08
  -2  11  -9   41.54    8.61
   2  11  -9   37.38    8.21
  -2 -11  -9   43.79    8.23
  -2 -11 -10  255.10   19.41
  -2  11 -10  247.82   19.78
   2  11 -10  247.19   20.60
  -2  11 -11    5.33    5.14
   2  11 -11    9.88    6.15
  -2 -11 -11    5.10    5.38
  -2  11 -12   57.08   10.09
   2  11 -12   49.48    9.71
  -2 -11 -12   45.30    8.69
  -2  11 -13   30.26    8.16
   2  11 -13   30.93    7.53
   2  11 -14   87.21   12.68
  -2  11 -14   89.84   12.73
  -2 -11 -14   95.66   13.00
   2  11 -15   10.98    4.67
  -2  11 -15   15.85    6.35
  -2 -11 -15   15.03    6.77
  -2 -11 -16   21.42    6.87
   2  11 -16   27.34    7.63
  -2  11 -16   31.08    8.30
  -2 -11 -17    8.22    4.53
   2  11 -17    5.92    4.88
   2  11 -18   33.16    8.53
  -2 -11 -18   47.62   10.58
  -2  12   0   57.79    9.21
   2  12   0   62.18   10.29
  -2  12  -1   26.95    6.78
   2  12  -1   16.06    5.19
  -2  12   1   22.39    5.70
   2  12   1   18.92    6.53
   2  12  -2   14.84    5.93
   2  12   2   16.93    6.33
  -2  12  -2   19.31    5.87
  -2  12   2   21.23    5.77
  -2  12  -3   30.60    7.14
   2  12  -3   17.40    5.79
  -2  12   3   21.56    6.02
   2  12   3   31.39    8.15
   2  12  -4    9.29    4.37
  -2  12  -4   13.39    5.23
  -2  12   4   11.39    4.69
   2  12   4    7.82    4.78
  -2  12  -5    8.90    4.58
   2  12  -5    5.59    2.90
  -2  12   5    4.68    3.65
   2  12   5   12.61    4.85
  -2 -12  -5    7.39    3.80
  -2 -12  -6    0.20    3.87
  -2  12  -6   -1.52    3.11
   2  12  -6   -0.01    2.92
   2  12  -7   -3.65    3.89
  -2  12  -7   -0.75    3.29
  -2 -12  -7   -0.26    4.51
  -2  12  -8    6.84    4.26
  -2 -12  -8   13.69    5.79
   2  12  -8   10.20    4.72
  -2  12  -9   18.57    6.15
   2  12  -9   20.14    6.60
  -2 -12  -9   33.46    7.65
  -2  12 -10    3.18    2.70
   2  12 -10   -3.51    3.28
  -2 -12 -10   -0.94    4.03
  -2  12 -11   35.74    8.33
   2  12 -11   18.26    6.67
  -2 -12 -11   20.45    6.64
  -2 -12 -12    9.24    4.76
   2  12 -12    3.77    3.32
  -2  12 -12   10.95    4.62
  -2  12 -13    4.75    4.35
   2  12 -13    0.62    2.93
  -2 -12 -13   -0.04    3.80
  -2  12 -14    8.37    4.52
  -2 -12 -14    8.45    5.27
   2  12 -14    6.77    4.67
  -2  12 -15    5.76    3.85
   2  12 -15    6.81    4.61
  -2  12 -16    0.79    2.60
  -2 -12 -16    7.93    6.27
  -2  13   0  209.99   18.36
   2  13   0  192.40   19.33
  -2  13  -1   57.41    9.88
   2  13  -1   49.93   10.00
  -2  13   1   51.89    9.24
   2  13   1   56.44   10.48
  -2  13  -2    7.02    3.79
   2  13  -2    5.47    3.37
  -2  13   2    4.91    2.93
   2  13   2    8.31    4.18
  -2  13  -3   11.53    5.10
   2  13  -3   10.32    4.78
  -2  13   3    3.38    3.28
   2  13   3   11.40    5.10
  -2  13  -4   26.51    6.95
   2  13  -4   30.57    8.12
  -2  13   4   35.91    7.86
   2  13   4   38.85    8.86
  -2  13  -5    3.58    3.02
   2  13  -5   -0.96    4.74
  -2  13  -6   14.60    4.98
   2  13  -6   24.89    7.15
  -2  13  -7  118.64   14.46
   2  13  -7  114.79   15.41
  -2  13  -8    2.84    3.40
   2  13  -8   12.45    6.48
   2  13  -9   16.32    6.06
  -2  13  -9   39.06    8.79
  -2 -13  -9   46.29    8.95
  -2 -13 -10   30.36    9.28
   2  13 -10   20.04    7.00
  -2  13 -10   19.96    6.52
  -2 -13 -11   62.88   10.81
   2  13 -11   47.26   10.28
  -2  13 -11   47.30    9.90
  -2  13 -12   19.77    6.91
  -2 -13 -12   19.76    6.93
  -2  13 -13    0.11    3.88
  -2 -13 -13    3.38    3.82
  -2 -13 -14   13.37    7.17
  -2  13 -14   -1.78    3.16
  -2  14   0   46.44    9.57
   2  14   0   64.86   11.82
  -2  14  -1    0.13    2.61
   2  14  -1    2.46    3.62
  -2  14   1    0.61    2.50
   2  14   1    6.11    4.85
  -2  14  -2    3.18    2.95
   2  14  -2    3.35    3.99
  -2  14   2    0.56    2.67
   2  14   2   -2.08    3.49
  -2  14  -3   36.19    8.51
   2  14  -3   35.70    8.79
  -2  14   3   28.58    7.30
   2  14   3   35.33    8.76
  -2  14  -4   20.44    6.14
   2  14   4   20.89    7.15
   2  14  -4   16.86    6.31
  -2  14   4   11.65    4.90
  -2  14  -5    8.34    5.20
   2  14  -5    0.29    4.27
  -2  14  -6    0.26    2.88
   2  14  -6    0.91    3.91
  -2  14  -7   14.83    5.99
  -2  14  -8    8.63    4.63
  -2  14  -9   -3.70    4.48
  -2  14 -10    4.55    4.18
  -2  15   0   34.21    8.27
  -2  15  -1    0.41    2.55
  -2  15   1   -0.59    3.32
  -2  15  -2    7.86    5.07
  -2  15   2    6.21    3.97
  -2  15  -3   32.21    8.25
  -2  15   3   26.49    7.22
  -2  15  -4   47.97   10.00
  -2  15  -5    1.18    3.23
   3   0   0    5.42    1.90
  -3   0   0    4.59    1.91
  -3   0   0    5.79    1.32
  -3   0   1    0.00    0.59
  -3   0  -1   -0.34    1.28
   3   0   1    0.42    1.50
  -3   0   1    0.15    1.31
   3   0  -1    3.05    1.61
  -3   0   2  821.65   16.23
   3   0   2  825.08   18.70
   3   0  -2  822.76   16.18
  -3   0  -2  857.77   19.29
   3   0  -2  840.63   10.93
   3   0  -3    1.24    0.81
  -3   0   3    0.71    1.03
   3   0  -3   -1.78    1.63
  -3   0  -3    1.39    1.31
   3   0   3   -1.66    2.30
  -3   0   4   59.23    4.14
   3   0   4   60.87    5.63
  -3   0  -4   64.55    5.70
  -3   0   5   -0.33    0.78
   3   0   5   -0.78    2.07
  -3   0   6   52.70    3.66
   3   0   6   50.50    5.47
  -3   0   7    2.72    0.95
   3   0   7   -2.53    2.62
  -3   0   8   11.82    1.74
   3   0   8    7.83    2.04
   3   0   9   -0.27    2.39
  -3   0   9   -0.37    1.64
  -3   0  10  145.08    9.08
   3   0  10  136.05    9.92
  -3   0  11   -0.09    1.63
   3   0  11    0.06    2.59
  -3   0  12   14.37    3.42
   3   0  12    4.71    2.62
   3   0  13   -5.35    3.77
   3   0  14   -4.94    2.87
   3   0  15   -0.73    2.98
   3   0  16    1.58    3.00
   3   0  17    1.21    3.23
   3   0  18  566.26   24.60
   3   0  19    5.96    4.11
  -3   0  19    2.88    2.44
   3   0  20   -1.69    3.59
   3   0  21   -1.63    3.27
  -3   0 -21   -4.26    4.90
   3   0  22   -3.14    2.87
  -3   0 -22    1.82    3.29
   3   0  23    4.38    3.50
  -3   0 -23    2.31    3.25
   3   0  24    4.27    3.61
  -3   0 -24   -4.65    4.05
   3   0  25   -3.92    3.78
  -3   0 -25   -2.79    4.05
  -3   0 -26   12.43    4.27
   3   0  26   23.29    6.03
  -3   0 -27   -0.25    3.51
   3   0  27    6.03    4.18
  -3   0 -28   -7.68    5.13
   3   0  28    8.21    5.40
  -3   0 -29    0.07    3.04
  -3  -1   0    0.23    1.05
  -3  -1   0    3.62    1.59
   3  -1   0   -0.38    1.36
   3   1   0   -1.16    1.55
   3   1   1  911.33   19.87
   3   1  -1  910.61   19.06
  -3  -1  -1  941.63   20.24
   3  -1  -1  889.28   16.91
  -3  -1   1  931.89   19.04
  -3  -1   1  928.92   15.63
   3  -1   1  915.55   18.87
  -3  -1  -1  893.41   16.46
   3   1  -1  936.64   15.64
   3  -1  -2 1672.30   22.02
  -3   1   2 1691.64   22.36
  -3  -1  -2 1688.34   23.86
  -3  -1   2 1694.77   25.15
   3   1   2 1712.65   27.86
   3  -1   2 1666.32   26.80
  -3  -1  -2 1725.61   28.27
  -3  -1   2 1681.80   21.00
   3   1  -2 1715.37   21.01
   3   1   3 3752.38   42.44
  -3  -1  -3 3724.75   42.38
   3  -1   3 3713.75   41.82
  -3   1   3 3662.77   30.82
   3  -1  -3 3673.74   30.68
   3   1  -3 3685.55   31.54
  -3  -1   3 3704.22   36.46
   3  -1  -4   17.14    2.11
  -3  -1   4   16.83    2.70
   3   1  -4   15.22    2.08
  -3   1   4   17.56    2.35
   3   1   4   14.39    3.24
  -3  -1  -4   13.63    2.95
   3  -1   4   23.45    4.73
   3  -1   5  571.30   18.07
  -3  -1   5  556.34   13.80
   3  -1  -5  558.49   10.41
   3   1   5  544.53   17.20
  -3  -1  -5  572.11   17.68
  -3   1   5  550.29   10.28
   3  -1   6 2234.45   36.16
   3   1   6 2218.00   35.83
  -3   1   6 2242.79   19.13
  -3  -1  -6 2271.84   36.23
  -3  -1  -7  342.27   14.35
  -3   1   7  303.26    6.48
   3   1   7  327.07   14.13
   3  -1   8  927.46   24.93
   3   1   8  930.75   24.41
  -3  -1  -8  927.64   24.33
   3  -1   9  429.78   17.84
  -3   1   9  374.79   15.20
   3   1   9  431.33   17.26
   3   1  10  979.12   26.28
  -3   1  10  944.81   24.79
   3  -1  10  907.31   26.14
  -3  -1  10  943.70   21.44
   3  -1  11   39.95    9.02
   3   1  11   26.19    7.33
   3   1  12 1649.86   36.39
   3  -1  12 1762.62   37.94
  -3  -1  12 1719.18   30.88
   3   1  13  428.83   19.09
   3  -1  13  455.57   20.40
  -3  -1  13  402.92   15.52
  -3  -1  14   19.67    3.38
   3  -1  14   36.58    6.96
   3   1  14   30.88    5.68
   3   1  15  144.95   12.09
  -3   1  15  125.26    3.93
  -3   1  16  922.79   11.34
   3  -1  16 1000.95   31.83
   3   1  16 1005.68   31.03
  -3   1  17  159.79    5.09
   3   1  17  198.50   14.45
   3  -1  17  186.47   14.82
   3   1  18    2.35    3.44
  -3   1  18    8.47    1.33
   3  -1  18    8.14    3.63
   3   1  19   17.64    5.06
   3  -1  19   22.01    6.20
   3   1  20  351.81   20.16
   3  -1  20  364.02   20.98
  -3  -1 -20  360.85   21.47
   3  -1  21   38.10    7.78
   3   1  21   41.54    7.78
  -3  -1 -21   31.48    6.78
   3   1  22  131.61   13.02
  -3  -1 -22  125.02   13.54
  -3   1 -22  124.96   12.62
   3  -1  22  129.75   13.45
   3  -1  23  261.60   19.17
  -3  -1 -23  255.41   19.91
  -3   1 -23  242.60   18.06
   3   1  23  278.82   19.08
   3  -1  24   72.68   10.71
   3   1  24   89.04   11.31
  -3   1 -24   66.48   10.07
  -3  -1 -24   81.00   11.66
  -3  -1 -25   -1.34    3.45
   3   1  25    7.08    4.25
   3  -1  25    2.21    3.20
  -3   1 -25    2.69    3.71
   3  -1  26  131.50   14.40
  -3   1 -26  111.23   13.19
  -3  -1 -26  136.82   15.40
   3   1  26  126.62   13.84
  -3   1 -27   50.45    9.27
   3   1  27   63.48   10.23
   3  -1  27   60.86   10.10
  -3  -1 -27   54.24   10.42
   3  -1  28   17.98    5.99
  -3   1 -28   20.34    6.20
  -3  -1 -28    9.94    5.31
  -3  -1 -29    3.32    3.18
   3  -1  29    8.39    4.03
  -3  -1 -30   36.29    8.94
  -3  -2   0   -0.93    1.71
  -3  -2   0   -0.02    0.96
   3   2   0    0.43    1.28
   3   2   1   -3.14    2.52
  -3  -2  -1    0.70    1.19
   3   2  -1    1.96    1.41
  -3  -2   1    6.23    2.48
  -3  -2   1    3.46    1.59
  -3  -2  -1   -0.53    1.46
   3  -2  -1    4.00    1.89
   3   2   1    2.79    1.72
   3  -2  -2  225.77    8.36
  -3  -2  -2  226.39   10.79
   3   2   2  231.18   10.79
  -3  -2   2  232.86   10.29
  -3  -2   2  220.59    9.11
   3   2  -2  230.17    9.43
  -3  -2  -2  230.06    9.90
  -3  -2  -3  554.41   16.01
  -3  -2   3  553.78   15.71
   3   2   3  562.32   17.25
   3  -2  -3  534.78   11.88
  -3  -2  -3  559.76   17.10
   3   2  -3  540.85   14.35
  -3  -2  -4  727.40   20.05
   3  -2  -4  702.85   12.42
  -3  -2  -4  695.77   18.38
   3   2   4  717.53   19.90
   3   2  -4  705.86   16.83
   3  -2  -4  677.37    8.42
   3  -2  -5  380.64    8.22
  -3  -2  -5  370.53   14.69
   3   2   5  367.07   14.67
   3   2  -5  379.54   12.66
   3   2   6    1.76    2.06
   3  -2  -6    0.35    0.46
  -3  -2  -6   -1.37    1.99
  -3  -2  -7  251.72   12.63
   3   2   7  242.69   12.53
   3   2   8  449.71   17.17
   3   2   9    2.78    2.31
  -3  -2  10    0.60    1.63
   3   2  10   -2.76    2.72
  -3  -2  11   29.79    3.78
   3   2  11   38.52    5.74
   3   2  12   90.57    8.63
  -3  -2  12   88.60    6.42
   3   2  13   58.47    7.38
  -3  -2  13   51.51    5.08
   3  -2  14   92.65    9.37
   3   2  14   81.44    8.69
  -3  -2  14   89.87    6.96
  -3  -2  15   71.55    6.44
   3   2  15   77.17    8.76
   3  -2  15   66.14    8.50
  -3  -2  16  127.48    8.88
   3  -2  16  133.74   12.15
   3   2  16  138.08   11.64
   3   2  17   64.22    8.46
   3  -2  17   86.61   10.02
   3   2  18   99.57   10.21
   3  -2  18  111.30   11.79
  -3  -2 -19   -6.72    5.56
   3   2  19    4.79    3.85
   3  -2  19    9.00    5.35
   3   2  20   36.50    6.68
  -3  -2 -20   25.47    5.66
   3  -2  20   35.67    7.61
   3   2  21   63.83    8.80
   3  -2  21   56.92    9.29
  -3  -2 -21   54.19    9.13
   3   2  22   12.88    4.56
   3  -2  22   14.94    4.75
  -3  -2 -22   14.75    5.47
   3   2  23    2.97    2.73
   3  -2  23    1.37    2.99
  -3   2 -23   -3.10    4.28
  -3  -2 -23   -2.74    4.59
  -3   2 -24   -5.01    4.81
   3   2  24   -2.52    3.11
  -3  -2 -24    1.17    3.19
   3  -2  24   -0.88    3.14
  -3  -2 -25    1.18    3.17
   3   2  25    6.24    3.76
   3  -2  25    4.06    3.53
  -3   2 -25    3.74    2.54
  -3  -2 -26   -3.12    3.41
   3   2  26    1.12    2.15
   3  -2  26   -0.31    3.56
  -3  -2 -27   19.27    6.21
   3   2  27   26.76    6.21
   3  -2  27   23.51    6.84
  -3  -2 -28    4.65    4.29
   3  -2  28    0.62    2.71
   3  -2  29   -4.79    4.28
  -3  -2 -29    7.99    4.48
  -3   3   0   -0.11    0.82
  -3  -3   0   -3.05    2.31
  -3  -3   0   -2.03    1.53
   3   3   0    0.77    1.52
   3   3   1  106.56    7.49
  -3  -3   1   94.32    6.91
  -3  -3  -1   99.58    7.57
  -3  -3   1  105.51    7.65
  -3   3   1   97.49    4.17
  -3  -3  -1   94.10    7.02
   3   3  -1  104.49    7.29
  -3   3   2  894.82   11.89
  -3  -3  -2  949.79   23.32
   3   3   2  919.77   21.76
  -3  -3   2  938.36   21.45
   3   3  -2  928.90   21.18
  -3  -3  -2  895.10   21.72
  -3  -3  -3  159.27    9.68
   3  -3  -3  150.60    4.91
   3   3  -3  150.99    8.55
  -3  -3  -3  161.28    9.30
  -3  -3  -4  533.55   17.59
   3   3   4  516.61   17.83
  -3  -3  -4  500.44   17.45
   3   3  -4  505.15   16.03
   3  -3  -4  489.83    9.50
   3   3   5 3677.24   48.57
  -3  -3  -5 3746.36   48.29
  -3  -3  -5 3710.78   47.83
   3   3  -5 3698.50   44.38
   3  -3  -5 3697.66   28.27
   3  -3  -6  821.85   14.67
   3  -3  -6  787.38   11.77
   3   3   6  821.03   23.25
  -3  -3  -6  817.09   22.94
   3   3  -6  787.80   21.06
   3   3   7  111.69    9.44
   3  -3  -7   88.40    3.26
   3   3   8  389.79   16.81
   3   3   9 1305.71   30.91
   3   3  10  242.63   13.77
  -3  -3  10  218.19    8.33
  -3  -3  11   46.13    3.95
   3   3  11   45.93    6.15
   3   3  12    5.96    3.61
  -3  -3  12    0.65    1.06
  -3  -3  13  474.30   13.68
   3   3  13  475.92   20.01
   3   3  14    2.22    3.57
  -3  -3  14    0.14    1.27
   3   3  15  340.68   17.80
   3   3  16    7.14    4.61
   3   3  17  400.75   20.10
  -3  -3 -17  358.77   20.87
  -3  -3 -18  125.17   12.91
   3   3  18  131.38   12.07
   3   3  19  169.49   13.59
   3  -3  19  185.83   15.61
  -3  -3 -19  159.99   14.88
   3  -3  20   22.20    6.47
   3   3  20   15.50    4.75
  -3  -3 -20   11.18    4.63
   3   3  21   34.70    6.54
   3  -3  21   41.62    8.48
  -3  -3 -21   49.64    8.89
   3   3  22   16.74    4.72
   3  -3  22   18.31    6.37
  -3  -3 -22   19.32    6.12
   3   3  23  126.31   12.79
  -3  -3 -23  143.14   15.43
   3  -3  23  136.71   14.38
  -3   3 -23  148.92   13.37
   3   3  24    5.61    3.46
   3  -3  24    1.74    2.83
  -3  -3 -24    2.51    3.47
  -3   3 -24    1.93    2.94
   3  -3  25    4.69    3.20
  -3  -3 -25   14.44    5.93
   3   3  25    7.86    4.23
  -3   3 -25    3.10    2.16
  -3  -3 -26   39.46    8.72
   3  -3  26   23.74    6.36
   3   3  26   32.83    7.00
   3  -3  27   53.39    9.92
  -3  -3 -27   38.94    8.69
  -3  -3 -28   18.74    6.80
   3  -3  28   12.44    6.27
   3  -3  29   13.46    5.95
   3  -3  30   23.27    7.23
  -3  -4   0   -0.39    0.93
  -3   4   0   -0.32    1.11
  -3  -4   0   -1.37    1.95
   3   4   0    0.52    1.63
   3   4   1  336.35   14.47
  -3   4  -1  340.43   10.81
  -3  -4   1  356.76   14.72
  -3  -4  -1  364.76   15.02
  -3   4   1  331.53    9.83
   3   4  -1  329.92   14.15
   3   4  -2    0.28    1.92
  -3  -4   2    6.19    2.33
  -3   4   2    0.72    0.97
   3   4   2    3.41    2.07
  -3  -4  -2    0.18    1.45
  -3   4   3   79.07    4.71
   3   4   3   81.51    7.24
   3  -4  -3   66.85    4.22
   3   4  -3   63.52    6.37
  -3  -4  -3   68.39    6.60
   3  -4  -4 1169.81   18.29
   3   4  -4 1154.72   27.01
   3   4  -5   50.67    5.92
   3  -4  -5   39.67    3.48
   3   4  -6  193.39   11.58
   3  -4  -6  187.95    8.02
   3   4  -7  140.62   10.13
   3  -4  -7  149.94    7.59
   3  -4  -8   59.13    5.15
   3   4   8   62.94    7.28
   3   4   9  818.03   25.31
  -3  -4   9  803.46   13.18
   3  -4  -9  836.74   19.77
   3   4  10    7.94    3.17
  -3  -4  10    4.61    1.10
   3   4  11   -1.02    2.71
  -3  -4  11   -1.34    0.97
   3   4  12   15.86    3.60
  -3  -4  12   17.24    2.10
   3   4  13    9.83    2.33
   3   4  14   -3.99    3.27
   3   4  15   -0.81    3.09
  -3  -4 -15   -1.75    4.48
  -3  -4 -16   16.99    4.94
   3   4  16   24.85    4.91
   3   4  17   13.10    4.66
  -3  -4 -17   12.70    4.31
   3   4  18   11.35    3.82
  -3  -4 -18   -1.14    3.13
   3   4  19    1.20    2.07
  -3  -4 -19   -0.17    3.69
   3   4  20   48.82    7.82
  -3  -4 -20   63.76    9.89
  -3  -4 -21   11.75    4.93
   3   4  21    9.84    4.39
   3   4  22    4.52    3.44
  -3  -4 -22   -4.19    4.43
   3   4  23    0.94    2.68
  -3  -4 -23   -3.14    4.10
   3  -4  23    2.63    3.28
  -3  -4 -24   -4.47    4.82
   3   4  24   -4.10    3.73
   3  -4  24    3.16    3.88
   3   4  25   -2.43    3.94
   3  -4  25   -0.93    2.71
  -3  -4 -26    7.99    3.97
   3  -4  26   14.32    5.59
  -3  -4 -27   -1.23    4.22
   3  -4  27    1.28    3.25
   3  -4  28   10.11    5.52
   3  -4  29    5.60    4.23
  -3   5   0    1.71    1.21
   3   5   0   -1.97    2.82
  -3   5  -1  354.21   12.66
  -3   5   1  352.77   11.92
   3   5  -1  367.19   16.37
   3   5   1  380.21   16.76
   3   5   2  664.91   22.19
  -3   5  -2  627.72   17.41
   3   5  -2  649.90   21.91
  -3   5   2  619.68   15.62
   3   5  -3   36.36    5.07
  -3   5   3   29.37    3.44
   3   5   3   26.06    4.82
   3  -5  -4   16.06    2.44
   3   5  -4    9.98    2.88
   3   5  -5  363.65   16.63
   3  -5  -5  356.54   12.19
   3   5  -6  335.46   16.30
   3  -5  -6  342.77   12.23
   3   5  -7  156.66   11.38
   3  -5  -7  154.70    8.57
   3   5  -8  375.36   17.94
   3  -5  -8  376.91   13.77
   3  -5  -9    2.52    1.57
   3   5  -9    1.69    2.08
   3  -5 -10   20.13    1.90
   3  -5 -10   28.55    4.14
   3  -5 -11  519.05   18.23
  -3  -5 -12   29.48    5.88
  -3  -5 -13   25.86    5.20
   3   5  14    8.67    3.23
  -3  -5 -14    6.76    2.97
  -3  -5 -15   55.38    8.81
   3   5  15   52.24    7.87
   3   5  16  383.52   19.99
  -3  -5 -16  371.24   22.08
  -3  -5 -17  145.76   14.36
   3   5  17  148.07   12.93
   3   5  18   18.63    5.00
  -3  -5 -18   25.67    6.44
  -3  -5 -19   26.66    7.27
   3   5  19   24.71    5.57
   3   5  20   80.29   10.03
  -3  -5 -20   76.38   11.13
  -3  -5 -21  106.36   13.51
   3   5  21   93.34   10.87
   3   5  22   85.89   10.82
  -3  -5 -22   93.57   13.03
   3   5  23    3.68    3.58
  -3  -5 -23    4.04    3.99
   3   5  24  227.54   17.86
  -3  -5 -24  214.93   20.13
  -3  -5 -25    1.14    3.88
   3  -5  25   10.41    5.88
  -3  -5 -26   53.42   10.72
   3  -5  26   49.31    9.96
   3  -5  27   32.91    8.31
   3  -5  28   22.48    6.81
  -3   6   0   -0.40    1.32
   3   6   0   -3.86    3.50
  -3   6  -1   10.68    2.51
  -3   6   1   14.82    2.95
   3   6  -1   11.59    3.70
   3   6   1   15.36    3.92
   3   6   2  417.11   19.16
  -3   6  -2  398.00   15.25
   3   6  -2  393.54   18.37
  -3   6   2  392.80   14.17
  -3   6  -3   35.89    5.26
   3   6  -3   34.15    5.59
  -3   6   3   28.11    3.87
   3   6   3   39.39    5.84
  -3   6   4   44.50    4.88
   3   6  -4   40.89    6.17
   3  -6  -4   45.04    4.87
   3   6   4   40.69    6.21
   3   6  -5   55.26    7.18
   3  -6  -5   59.66    5.58
  -3  -6   6  132.82    5.42
   3   6  -6  132.89   11.01
   3  -6  -6  132.98    8.52
  -3  -6   7    0.54    0.70
   3   6  -7   -3.89    3.07
   3  -6  -7   -1.50    2.26
  -3  -6  -7   -5.97    4.18
   3   6  -8   60.75    7.85
  -3  -6  -8   49.33    6.39
   3  -6  -8   62.19    6.04
   3   6  -9   25.85    5.22
   3  -6  -9   19.27    3.58
  -3  -6  -9   15.25    3.76
   3   6 -10   11.73    4.18
  -3  -6 -10    5.48    2.37
   3  -6 -11   11.79    1.81
  -3  -6 -11    1.31    4.25
   3  -6 -12    0.36    0.62
  -3  -6 -12   -7.50    6.21
  -3  -6 -13   29.81    6.40
  -3  -6 -14   57.68    8.84
  -3  -6 -15    5.35    3.38
  -3  -6 -16   -6.10    5.04
  -3  -6 -17   12.72    5.46
  -3  -6 -18    3.67    3.47
  -3  -6 -19    1.32    3.21
  -3  -6 -20   10.46    4.90
  -3  -6 -21    0.14    4.00
  -3  -6 -22   -1.06    3.72
  -3  -6 -23   -2.41    4.58
  -3  -6 -24    2.66    4.92
  -3  -6 -25   10.91    6.84
  -3   7   0   -1.32    2.12
   3   7   0   -1.85    3.25
  -3  -7   0   -0.61    1.64
  -3  -7  -1  552.25   19.02
  -3   7  -1  544.78   19.21
  -3  -7   1  539.14   17.14
  -3   7   1  554.26   18.88
   3   7  -1  574.60   23.86
   3   7   1  533.99   22.99
  -3   7  -2   22.96    4.20
   3   7  -2   15.42    4.38
  -3   7   2   15.74    2.69
   3   7   2   17.58    4.61
  -3  -7  -2   23.64    4.82
  -3  -7   2   17.44    3.16
  -3   7   3  703.60   21.23
  -3  -7  -3  698.31   22.81
  -3  -7   3  654.36   16.92
   3   7   3  720.05   26.80
  -3   7  -3  718.77   22.93
   3   7  -3  725.75   26.95
  -3  -7  -4 1024.26   28.72
  -3   7   4 1000.82   25.26
   3   7   4 1024.64   32.38
  -3  -7   4 1007.32   19.23
   3  -7  -4 1060.59   25.83
  -3   7  -4 1048.86   28.43
   3   7  -4 1038.74   32.44
  -3  -7  -5  973.86   28.84
  -3  -7   5  980.12   17.21
  -3   7  -5 1000.93   28.29
   3  -7  -5 1041.26   25.70
   3   7  -5 1013.04   32.26
  -3  -7  -6  154.83   11.98
  -3  -7   6  151.18    5.96
   3  -7  -6  163.21   10.31
   3   7  -6  172.49   13.55
  -3  -7  -7    0.63    2.64
   3   7  -7   -2.76    4.08
  -3  -7  -8  318.15   18.00
   3   7  -8  298.33   17.89
  -3  -7  -9  579.49   24.96
   3   7  -9  580.00   25.53
   3   7 -10   62.32    8.84
  -3  -7 -10   50.07    7.71
   3   7 -11    2.35    3.10
  -3  -7 -11   -5.57    5.10
  -3  -7 -12   97.09   11.29
   3   7 -12   91.26   11.44
  -3  -7 -13  814.83   32.33
   3   7 -13  839.91   33.02
  -3  -7 -14   29.09    7.09
  -3  -7 -15    2.92    4.39
  -3  -7 -16   22.56    6.79
  -3  -7 -17  298.97   21.86
  -3  -7 -18    4.11    4.50
  -3  -7 -19  195.85   18.19
  -3  -7 -20   39.33    8.58
  -3  -7 -21   35.88    8.27
  -3  -7 -22   20.30    6.30
  -3  -7 -23  212.02   21.01
  -3  -7 -24    6.11    4.93
  -3  -8   0   -2.06    2.49
  -3   8   0   -0.89    2.25
   3   8   0   -1.00    3.13
  -3  -8  -1   13.54    3.72
  -3  -8   1   12.93    2.75
  -3   8   1   13.52    3.50
   3   8  -1   16.00    4.73
  -3   8  -1   16.92    3.57
   3   8   1   13.12    4.53
  -3  -8  -2   -1.58    2.31
  -3   8  -2    0.52    2.03
  -3  -8   2   -1.21    2.25
   3   8  -2   -1.58    3.19
  -3   8   2    0.89    1.82
   3   8   2    3.47    3.09
  -3   8   3  113.95    9.50
   3   8   3  121.34   12.07
  -3  -8   3  122.45    7.75
  -3  -8  -3  122.29   10.08
  -3   8  -3  119.45   10.15
   3   8  -3  114.15   11.46
  -3  -8  -4   51.31    7.21
  -3  -8   4   47.74    4.65
  -3   8  -4   56.95    7.32
   3   8  -4   53.17    7.96
  -3   8   4   49.08    6.15
   3   8   4   55.45    8.52
  -3  -8  -5   50.02    7.16
  -3   8  -5   46.86    7.43
   3   8  -5   53.82    8.02
  -3  -8   5   47.89    4.10
  -3  -8  -6   67.98    8.58
   3   8  -6   67.89    9.15
  -3  -8   6   63.28    4.18
  -3   8  -6   62.48    8.11
   3   8  -7    5.61    3.15
  -3  -8  -7   14.84    4.30
  -3   8  -7   11.25    4.20
  -3  -8  -8   93.35   10.50
   3   8  -8   87.19   10.58
  -3  -8  -9  158.66   13.67
   3   8  -9  167.62   14.35
  -3  -8 -10   31.42    6.65
   3   8 -10   34.90    7.12
   3   8 -11   11.29    4.38
  -3  -8 -11    7.22    4.50
   3   8 -12   17.29    4.63
  -3  -8 -12   26.21    6.34
   3   8 -13    8.68    4.20
  -3  -8 -13   -0.21    4.73
   3   8 -14    3.63    4.07
  -3  -8 -14   -4.25    4.07
  -3  -8 -15   62.98    9.78
   3   8 -15   61.50   10.20
  -3  -8 -16   -0.04    4.79
   3   8 -16    1.23    3.70
  -3  -8 -17   49.78    9.37
  -3  -8 -18   -7.64    5.23
  -3  -8 -19   -0.97    4.84
  -3  -8 -20    8.54    5.06
  -3  -8 -21    2.11    4.07
  -3  -8 -22    2.83    4.65
  -3   9   0   -2.86    2.22
   3   9   0   -1.53    3.18
  -3  -9   0   -4.24    2.75
  -3  -9  -1  660.33   23.01
  -3  -9   1  667.30   21.14
  -3   9  -1  651.47   24.82
  -3   9   1  665.68   24.85
   3   9  -1  687.99   29.32
   3   9   1  669.92   29.23
  -3  -9  -2   68.75    7.81
  -3   9  -2   58.45    7.52
  -3  -9   2   66.62    6.47
   3   9  -2   76.39    9.76
   3   9   2   72.91    9.93
  -3   9   2   75.10    8.27
  -3   9  -3   -2.32    3.21
  -3  -9  -3   -2.07    3.74
  -3  -9   3   -0.04    2.01
   3   9  -3   -3.22    3.61
  -3   9   3   -5.52    4.07
   3   9   3    1.77    2.75
  -3   9   4  190.45   13.22
  -3  -9  -4  185.96   13.52
  -3   9  -4  188.46   14.20
   3   9   4  197.78   16.51
   3   9  -4  216.72   16.56
  -3  -9   4  201.68    9.60
  -3   9   5  959.88   29.34
  -3  -9  -5  918.14   30.61
  -3   9  -5  961.05   31.63
   3   9  -5 1018.75   36.51
  -3  -9  -6  223.48   15.82
  -3   9  -6  246.08   16.39
   3   9  -6  239.33   17.99
  -3  -9  -7  138.17   12.36
  -3   9  -7  150.41   13.56
   3   9  -7  148.71   14.44
  -3  -9  -8  119.14   12.01
  -3   9  -8  130.02   12.64
   3   9  -8  119.95   13.19
  -3  -9  -9  385.00   21.93
  -3   9  -9  369.14   21.38
   3   9  -9  382.08   23.25
  -3  -9 -10  190.55   16.04
   3   9 -10  167.62   15.72
   3   9 -11   55.72    9.32
  -3  -9 -11   62.13    9.23
  -3  -9 -12    1.00    3.32
   3   9 -12    2.50    3.13
  -3  -9 -13  111.50   12.91
   3   9 -13  121.84   14.31
   3   9 -14   75.78   11.38
  -3  -9 -14   64.62   10.41
   3   9 -15    6.70    5.82
  -3  -9 -15    4.45    4.49
  -3  -9 -16  227.54   20.13
   3   9 -16  222.45   19.85
   3   9 -17  174.08   17.88
  -3  -9 -17  174.75   18.32
   3   9 -18    3.41    3.71
  -3  -9 -18    1.86    3.93
  -3  -9 -19  123.92   15.76
   3   9 -19  113.05   14.99
   3   9 -20   88.04   13.59
  -3  -9 -20   87.07   13.13
  -3  -9 -21   49.98   10.87
  -3 -10   0   -0.42    2.33
  -3  10   0   -0.52    2.14
   3  10   0   -5.99    4.57
  -3 -10  -1    4.04    2.36
  -3  10  -1    7.99    3.54
  -3  10   1    6.97    3.15
   3  10  -1    9.40    4.23
   3  10   1    3.86    3.14
  -3 -10   1    8.55    3.20
  -3 -10  -2    2.26    2.42
  -3 -10   2    1.27    1.82
  -3  10  -2   -3.83    3.67
   3  10  -2   -0.59    3.56
  -3  10   2    2.30    2.53
   3  10   2    3.43    2.77
  -3  10  -3   14.42    3.87
  -3 -10   3   21.97    3.79
   3  10  -3   16.09    5.35
  -3  10   3   21.69    4.77
   3  10   3   18.56    6.34
  -3 -10  -3   14.99    4.42
  -3  10  -4   10.53    3.84
   3  10  -4   13.35    5.54
  -3  10   4    7.47    3.23
  -3 -10  -4    4.41    2.58
   3  10   4   14.54    6.10
  -3  10  -5   -2.67    2.46
   3  10  -5   -2.80    3.47
  -3 -10  -5   -5.28    4.12
  -3  10   5    2.68    2.77
  -3  10  -6   10.21    4.20
   3  10  -6    8.90    3.84
  -3 -10  -6    1.87    3.07
  -3  10  -7   57.44    8.94
  -3 -10  -7   50.53    8.37
   3  10  -7   56.87    9.76
  -3 -10  -8  141.04   13.57
  -3  10  -8  141.58   13.58
   3  10  -8  146.12   14.96
  -3  10  -9   62.04    9.47
   3  10  -9   54.58    9.61
  -3 -10  -9   71.15   10.35
  -3  10 -10   56.30    9.27
   3  10 -10   65.41   10.47
  -3 -10 -10   54.96    8.94
  -3  10 -11    4.74    2.99
   3  10 -11    3.75    3.53
   3  10 -12    2.70    3.34
  -3  10 -12    1.20    2.94
  -3 -10 -12   -1.65    3.17
   3  10 -13    4.22    3.72
  -3 -10 -13    1.53    4.09
   3  10 -14   25.85    6.75
  -3 -10 -14   27.32    7.09
   3  10 -15    1.03    3.71
  -3 -10 -15   -5.11    4.89
   3  10 -16   39.00    9.34
  -3 -10 -16   26.73    7.79
   3  10 -17   30.25    8.29
  -3 -10 -17   21.60    7.05
   3  10 -18   59.40   11.40
  -3 -10 -18   58.58   11.66
   3  10 -19   12.32    6.59
  -3 -10 -19    6.40    4.87
  -3  11   0   -2.86    3.89
  -3 -11   0    0.69    2.54
   3  11   0   -3.00    4.67
  -3 -11  -1   38.68    6.23
  -3  11  -1   34.04    6.62
  -3 -11   1   34.65    5.48
   3  11  -1   36.38    7.64
  -3  11   1   35.78    6.65
   3  11   1   29.21    7.20
  -3  11   2  192.16   15.26
   3  11   2  196.84   17.72
  -3 -11  -2  173.31   12.99
  -3  11  -2  181.81   15.07
   3  11  -2  169.23   16.50
  -3  11  -3   24.90    5.85
   3  11  -3   24.64    6.14
  -3 -11  -3   20.46    5.06
  -3  11   3   22.89    5.34
   3  11   3   25.46    6.44
  -3  11  -4   26.44    5.91
  -3 -11  -4   30.31    5.81
   3  11  -4   37.93    8.42
  -3  11   4   29.65    6.16
   3  11   4   34.48    7.67
  -3  11  -5   51.44    8.78
  -3 -11  -5   36.48    7.13
   3  11  -5   39.55    8.64
  -3 -11  -6   91.32   10.88
   3  11  -6   82.80   12.04
  -3  11  -6   84.84   11.11
  -3 -11  -7    2.77    3.19
   3  11  -7    5.83    6.08
  -3  11  -7   -0.10    3.27
  -3 -11  -8    0.72    2.87
  -3  11  -8    3.62    3.45
   3  11  -8    3.89    3.72
  -3 -11  -9    3.41    3.01
  -3  11  -9    1.48    2.60
   3  11  -9    1.37    3.21
  -3  11 -10   14.06    5.21
  -3 -11 -10   10.35    4.41
   3  11 -10   11.37    4.99
  -3  11 -11    2.62    3.53
  -3 -11 -11    8.34    5.03
   3  11 -11   -2.38    4.25
  -3 -11 -12  262.99   21.15
  -3  11 -12  266.34   21.16
   3  11 -12  266.73   22.09
  -3 -11 -13   21.78    7.01
  -3  11 -13   20.41    6.72
   3  11 -13   18.39    6.95
  -3 -11 -14   33.55    7.98
   3  11 -14   32.94    8.19
  -3  11 -14   44.04    9.28
   3  11 -15   15.37    6.06
  -3 -11 -15   11.20    5.55
  -3  11 -15   16.50    5.99
   3  11 -16   16.06    5.90
  -3 -11 -16   16.70    6.58
   3  11 -17   -3.59    3.24
  -3 -11 -17   -0.15    3.72
  -3 -11 -18    5.51    3.74
  -3  12   0   -2.09    3.18
   3  12   0    2.47    3.25
   3  12  -1   15.46    5.36
  -3  12  -1   14.19    4.42
  -3  12   1   17.82    5.34
   3  12   1   25.90    7.08
  -3 -12  -2   31.95    6.61
  -3  12  -2   12.40    4.51
   3  12  -2    9.83    5.48
  -3  12   2   22.17    6.21
   3  12   2   18.37    5.91
  -3  12  -3   -2.38    3.23
   3  12  -3   -0.16    3.54
  -3 -12  -3   -0.36    2.85
  -3  12   3    4.98    3.57
   3  12   3    3.46    3.75
  -3  12  -4   -1.68    2.19
  -3 -12  -4    1.85    3.35
   3  12  -4    3.97    5.32
  -3  12   4    0.77    2.16
   3  12   4    0.70    3.59
  -3  12  -5   -0.19    3.30
   3  12  -5    1.22    3.66
  -3 -12  -5   -0.53    3.62
  -3 -12  -6    6.16    4.16
  -3  12  -6    1.20    2.36
   3  12  -6    4.31    4.08
  -3  12  -7    2.44    2.67
   3  12  -7   -1.59    4.11
  -3 -12  -7    0.51    3.08
  -3  12  -8   -4.37    4.17
   3  12  -8    3.49    4.29
  -3 -12  -8   -0.93    2.87
  -3  12  -9   19.18    6.10
   3  12  -9   11.71    4.90
  -3 -12  -9   19.56    6.06
  -3  12 -10   16.41    5.38
   3  12 -10   12.29    5.67
  -3 -12 -10    8.22    5.00
  -3  12 -11   -0.97    2.94
   3  12 -11    1.57    3.42
  -3 -12 -11    6.01    4.13
  -3  12 -12   19.68    6.54
   3  12 -12   18.98    6.48
  -3 -12 -12   14.63    5.65
  -3  12 -13   -0.93    2.39
   3  12 -13   -0.49    3.70
  -3 -12 -13    0.23    3.87
  -3  12 -14    4.18    3.27
   3  12 -14    9.42    5.49
  -3 -12 -14   19.53    6.85
  -3  12 -15    1.81    4.43
  -3 -12 -15    1.11    3.62
  -3  12 -16    8.96    5.32
  -3 -12 -16    6.49    5.19
  -3  13   0    3.94    4.14
   3  13   0    2.66    3.51
  -3  13   1  127.72   14.00
   3  13   1  126.38   16.10
  -3  13  -1  117.04   13.54
   3  13  -1  126.37   15.87
  -3  13   2  131.47   14.16
   3  13   2  149.03   17.10
  -3  13  -2  129.07   14.38
   3  13  -2  159.33   18.12
  -3  13  -3   -5.43    4.65
   3  13  -3    4.68    4.73
  -3  13   3   -1.70    2.85
   3  13   3   -0.24    3.01
  -3  13  -4   43.77    8.51
   3  13  -4   37.94    9.07
  -3  13   4   34.83    7.50
   3  13   4   59.65   11.16
  -3  13  -5   68.19   10.75
   3  13  -5   77.44   12.61
  -3  13  -6   -1.68    3.77
   3  13  -6   -3.14    3.84
  -3 -13  -6    3.19    4.23
  -3 -13  -7   16.70    6.01
  -3  13  -7   10.89    4.45
   3  13  -7   14.16    5.69
  -3  13  -8   30.71    7.49
   3  13  -8   20.57    7.63
  -3 -13  -8   34.12    7.99
  -3  13  -9   74.33   11.82
   3  13  -9   71.80   12.58
  -3 -13  -9   80.44   11.74
   3  13 -10    7.43    5.01
  -3  13 -10    1.32    3.75
  -3 -13 -10   -0.54    3.96
  -3  13 -11   32.00    8.36
  -3 -13 -11   48.03    9.94
  -3  13 -12    8.62    4.74
  -3 -13 -12   13.10    6.14
  -3 -13 -13  129.90   16.13
  -3  13 -13  110.72   15.08
  -3  13 -14   -2.11    2.74
  -3 -13 -14    3.44    4.55
  -3  14   0   -1.19    2.88
   3  14   0    3.02    4.57
   3  14  -1   24.15    7.93
  -3  14  -1   18.81    5.83
  -3  14   1   27.32    7.04
   3  14   1   31.80    9.39
  -3  14  -2   -2.14    2.98
   3  14  -2   -0.97    3.36
  -3  14   2    3.97    3.64
   3  14   2    0.82    3.96
  -3  14  -3    5.37    4.24
  -3  14   3    3.71    2.90
   3  14   3    1.51    3.33
  -3  14  -4   -0.27    2.39
  -3  14  -5   -1.46    2.59
  -3  14  -6   31.04    7.80
  -3  14  -7    9.91    4.71
  -3  14  -8    6.84    4.26
  -3  14  -9    2.15    3.70
  -3  14 -10   10.30    5.52
  -3 -14 -10   15.53    6.54
  -3 -14 -11    4.39    3.88
  -3 -14 -12   12.19    5.54
  -3  15   0    1.91    3.82
  -3  15  -1   20.07    6.68
  -3  15  -2  138.68   16.31
  -3  15  -3   26.54    7.61
  -3  15  -4   72.81   12.06
  -3  15  -5    2.10    3.17
  -3  15  -6   95.65   14.06
  -4   0   0 7261.47   60.36
   4   0   0 7246.71   60.19
  -4   0   0 7047.08   40.85
  -4   0   1    1.40    0.96
   4   0   1    5.57    3.60
  -4   0   1    0.71    1.36
   4   0  -1    6.35    2.93
  -4   0  -1    2.99    2.42
  -4   0  -1   -0.25    0.81
   4   0  -2  583.24   16.12
   4   0   2  575.70   17.88
  -4   0   2  578.47   16.02
  -4   0  -2  569.61   17.92
   4   0  -3    1.48    1.30
   4   0   3    1.90    2.59
  -4   0   3   -0.75    1.30
   4   0  -3    0.33    0.65
  -4   0  -3    4.07    2.61
   4   0   4  529.59   18.22
  -4   0   4  516.43   14.28
   4   0  -4  541.42   14.61
  -4   0  -4  559.25   18.72
   4   0  -4  539.98   10.51
   4   0  -5   -0.03    0.79
  -4   0   5   -0.46    1.07
   4   0   5   -3.30    3.45
  -4   0   6   74.79    5.20
   4   0   6   63.13    6.42
  -4   0   7    1.70    1.17
   4   0   7    2.08    3.60
  -4   0   8  407.73   11.46
   4   0   8  394.84   17.46
  -4   0   9   -0.09    0.67
   4   0   9   -0.38    2.85
  -4   0  10  259.19    8.64
   4   0  10  259.82   14.90
  -4   0  11    0.38    0.82
   4   0  11    2.94    4.21
  -4   0  12  199.05    7.43
   4   0  12  210.64   14.13
  -4   0  13    1.80    1.29
   4   0  13   29.13    8.68
  -4   0  14 1979.45   23.27
   4   0  14 2108.44   46.11
   4   0  15   32.64    8.46
  -4   0  15    2.89    1.50
  -4   0  16  344.60    9.75
   4   0  16  394.95   21.00
   4   0  17    2.40    4.15
   4   0  18   46.74    7.72
   4   0  19   -6.28    4.36
   4   0  20   61.39    9.11
   4   0  21   -1.88    3.00
   4   0  22   63.81   10.13
   4   0  23    5.39    4.41
  -4   0 -24    5.21    4.30
   4   0  24    5.09    3.43
   4   0  25   -0.82    3.34
  -4   0 -25   -4.56    5.11
   4   0  26   -2.01    4.20
  -4   0 -26   -0.02    3.95
   4   0  27    3.93    3.93
  -4   0 -27   -3.80    3.55
  -4   0 -28   38.48    9.02
   4   0  28   61.16   10.93
  -4   0 -29    6.85    5.31
   4   0  29    7.16    4.62
  -4   1   0  202.84    5.59
   4   1   0  207.80   10.66
  -4  -1   0  215.87   10.68
   4  -1   0  228.38   10.54
  -4  -1   0  211.23    8.49
   4   1   1  475.64   16.32
   4   1  -1  480.89   15.88
  -4  -1   1  488.87   15.86
   4  -1  -1  494.98   14.89
  -4  -1  -1  489.97   16.59
   4  -1   1  479.96   15.78
   4   1  -1  478.49   12.14
  -4  -1   1  467.17   12.14
  -4  -1  -1  466.85   13.00
  -4  -1  -2  282.04   10.59
   4   1  -2  274.89   11.72
   4  -1  -2  277.92   10.80
  -4  -1  -2  283.17   12.83
   4  -1   2  285.50   12.50
  -4   1   2  286.30   10.95
   4   1   2  269.89   12.62
  -4  -1   2  296.29   12.02
  -4  -1   2  271.15    9.17
   4   1  -2  278.91    9.24
  -4  -1  -3   99.44    6.76
   4  -1  -3   97.99    6.26
  -4  -1   3  112.68    7.35
  -4  -1  -3   95.21    7.73
   4  -1   3   94.90    8.25
  -4   1   3  101.88    6.41
   4   1   3   98.23    8.05
   4   1  -3   93.48    5.51
   4  -1  -4 2159.68   27.63
   4   1   4 2168.96   37.71
  -4   1   4 2192.08   27.78
  -4  -1   4 2208.37   31.66
   4  -1   4 2185.61   36.99
   4   1  -4 2237.94   26.80
   4  -1  -5  287.76    9.61
   4   1   5  287.24   14.13
   4  -1   5  293.74   14.31
  -4  -1   5  292.97   11.36
  -4   1   5  281.63    9.54
   4  -1  -5  271.58    5.89
   4   1  -5  285.01    9.94
   4   1  -6   24.51    3.07
  -4   1   6   29.83    3.09
  -4  -1   6   24.23    3.26
   4   1   6   21.69    4.22
   4  -1   6   30.86    5.16
  -4  -1   7  143.05    7.79
   4   1   7  140.41   10.37
  -4   1   7  146.62    6.16
   4  -1   7  149.35   11.29
   4   1   8  888.29   26.46
  -4   1   8  910.27   14.18
   4  -1   8  916.91   26.95
  -4  -1   8  892.84   19.26
  -4   1   9   13.84    1.83
  -4  -1   9    9.15    2.01
   4   1   9   13.67    5.28
  -4  -1  10  215.82    9.48
   4   1  10  222.44   13.97
   4  -1  10  238.99   14.55
  -4   1  10  209.65    5.81
   4   1  11  157.22   12.32
   4  -1  11  156.65   12.41
  -4  -1  11  155.79   10.07
   4   1  12  197.25   13.63
   4  -1  12  198.48   14.01
  -4  -1  12  192.17   11.20
   4   1  13   95.90   10.52
   4  -1  13   95.73   10.67
   4  -1  14  534.22   24.10
   4   1  14  554.37   24.02
   4  -1  15 1392.69   39.02
   4   1  15 1414.03   38.68
   4   1  16  325.01   19.31
   4  -1  16  285.68   18.56
   4   1  17   41.82    7.83
   4  -1  17   36.66    7.30
   4   1  18  343.59   20.42
   4  -1  18  360.71   21.13
   4   1  19    7.95    4.75
   4  -1  19    4.36    4.30
   4   1  20   30.26    7.03
   4  -1  20   30.28    6.87
   4   1  21   78.66   10.95
   4  -1  21   65.18   10.07
   4   1  22  304.12   20.90
   4  -1  22  315.62   21.52
  -4  -1 -23    1.66    2.82
   4   1  23    4.61    4.00
   4   1  24   17.87    5.71
   4  -1  24   17.83    6.51
  -4  -1 -24   11.06    4.63
  -4   1 -25  102.90   12.88
   4  -1  25   99.81   13.04
  -4  -1 -25  103.50   13.89
   4   1  25  103.16   13.03
  -4   1 -26  165.27   16.49
   4   1  26  191.89   17.71
   4  -1  26  187.73   17.87
  -4  -1 -26  182.24   18.42
   4   1  27    9.20    5.27
   4  -1  27    7.28    5.16
  -4   1 -27    0.41    3.27
  -4  -1 -27    7.46    4.51
  -4  -1 -28   69.07   12.18
   4   1  28   69.04   11.12
   4  -1  28   62.40   11.46
  -4   1 -28   56.50   10.59
   4  -1  29   17.56    6.36
   4   2   0  520.94   17.56
  -4  -2   0  523.19   17.63
   4  -2   0  525.22   16.23
   4   2   0  512.31   14.91
  -4  -2   0  505.93   15.05
  -4  -2   1    9.02    2.42
   4   2   1   11.43    2.86
  -4  -2   1    8.53    2.44
  -4  -2  -1    9.35    2.74
  -4  -2  -1    3.82    1.03
   4  -2  -1    6.86    2.14
   4  -2   1    9.93    2.60
   4   2  -1    7.96    1.92
   4   2   2  509.72   17.94
  -4  -2   2  492.77   16.69
   4  -2   2  499.63   17.03
   4  -2  -2  482.10   14.27
  -4  -2  -2  501.25   17.77
  -4  -2   2  489.39   14.50
   4   2  -2  488.02   14.39
  -4  -2  -2  493.98   15.54
  -4  -2   3 1148.05   25.20
   4  -2  -3 1118.64   20.61
   4  -2   3 1210.58   27.12
   4   2   3 1159.62   27.66
   4   2  -3 1168.46   22.30
  -4  -2  -3 1130.91   24.40
  -4  -2  -4 1948.15   32.98
  -4  -2   4 1930.95   32.27
   4   2   4 1952.19   36.79
   4  -2   4 1990.97   35.94
   4  -2  -4 1899.70   25.58
   4   2  -4 1910.21   29.05
  -4  -2   5  119.32    7.93
  -4  -2  -5  120.79    8.51
   4   2   5  121.39    9.80
   4  -2  -5  118.06    6.05
   4  -2   5  122.24    9.97
   4   2  -5  115.23    7.29
  -4  -2   6  239.28   11.25
   4  -2  -6  236.97    7.82
   4  -2   6  250.60   13.83
   4   2   6  251.68   13.67
   4   2  -6  233.06   10.60
   4  -2  -7  752.60   12.61
   4   2   7  803.99   24.88
  -4  -2   7  783.81   20.22
   4  -2   7  788.57   24.70
   4   2  -7  781.18   19.99
   4  -2   8  177.31   12.57
   4   2   8  161.01   11.45
   4   2   9    9.02    3.32
   4  -2   9   15.03    4.89
   4   2  10   12.53    4.07
   4  -2  10   13.20    4.30
   4   2  11   77.60    8.53
   4  -2  11   73.49    8.87
  -4  -2  11   89.88    7.25
   4   2  12  125.00   11.05
   4  -2  12  135.81   11.93
  -4  -2  12  133.57    8.74
   4   2  13  103.29   10.42
   4  -2  13   98.03   10.69
  -4  -2  13  109.02    8.12
  -4  -2  14   52.60    5.92
   4   2  14   67.03    8.82
   4  -2  14   65.48    8.92
   4  -2  15  129.34   12.29
   4   2  15  163.18   13.27
   4  -2  16   71.69    9.28
   4   2  16   90.08   10.42
   4  -2  17   76.90   10.34
   4   2  17   81.57    9.91
   4   2  18  174.63   14.54
   4  -2  18  199.93   16.13
   4   2  19    6.44    3.76
   4  -2  19   16.62    6.13
   4   2  20   -1.29    3.35
   4  -2  20    0.35    2.90
   4   2  21   19.10    5.39
   4  -2  21   28.27    6.78
   4   2  22    8.31    3.66
   4  -2  22    7.91    4.80
  -4  -2 -22    4.57    3.24
   4   2  23   16.18    5.68
   4  -2  23   12.68    5.15
  -4  -2 -23   11.30    4.85
   4   2  24    2.92    2.65
   4  -2  24    0.41    2.46
  -4  -2 -24   -5.58    4.60
   4   2  25    2.10    2.61
   4  -2  25   -0.96    3.36
  -4  -2 -25   -0.92    3.56
  -4   2 -25   -0.23    3.70
   4   2  26   37.12    7.78
   4  -2  26   27.81    7.08
  -4   2 -26   26.84    6.57
  -4  -2 -26   17.34    5.65
  -4  -2 -27    1.14    3.06
   4   2  27    1.78    3.37
   4  -2  27    5.15    4.14
  -4   2 -27    2.41    3.04
  -4  -2 -28    0.08    3.52
   4   2  28   -0.28    2.96
   4  -2  28   -4.28    4.12
   4  -2  29   18.79    6.98
   4   3   0 1473.42   28.65
  -4   3   0 1407.35   15.79
  -4  -3   0 1485.33   28.70
  -4  -3  -1   24.22    3.85
  -4  -3   1   21.69    3.49
   4   3  -1   19.30    3.34
   4  -3  -1   23.92    4.27
   4   3   1   28.64    4.16
  -4   3   1   15.62    1.38
   4  -3  -2   59.43    5.36
  -4  -3   2   56.98    5.60
  -4  -3  -2   58.60    5.87
   4   3  -2   58.54    5.67
   4   3   3  485.54   18.74
  -4  -3   3  513.88   18.06
   4  -3  -3  496.84   14.25
   4   3  -3  504.83   16.58
  -4  -3  -3  523.67   17.99
  -4  -3   4    6.75    2.16
   4   3   4    0.10    2.48
   4   3  -4    2.93    1.59
   4  -3  -4    2.28    1.01
  -4  -3  -4    4.50    1.92
   4  -3  -5  251.67    9.02
   4   3   5  262.89   14.23
   4  -3  -5  226.98    5.01
   4   3  -5  276.45   12.57
   4  -3  -6  952.65   15.95
   4   3   6  975.71   27.69
   4   3  -6  955.51   23.72
   4  -3  -6  931.65   12.51
   4   3   7  128.28   10.46
   4   3  -7  130.22    9.12
   4  -3  -7  120.16    5.13
   4  -3  -7  123.97    5.34
   4  -3  -8  133.94    4.44
   4   3  -8  139.56    9.60
   4   3   9  132.58   10.70
   4   3  10   40.69    6.47
   4   3  11  285.26   16.22
  -4  -3  11  276.36   11.39
  -4  -3  12   33.66    4.23
   4   3  12   37.43    6.15
  -4  -3  13   18.14    3.29
   4   3  13   14.39    4.21
   4   3  14    8.43    3.81
  -4  -3  14    8.57    2.33
   4  -3  14    2.14    3.26
   4   3  15   96.78   10.20
  -4  -3  15  109.83    7.77
   4  -3  15   97.15   10.95
   4   3  16    2.31    3.06
   4  -3  16    2.09    3.46
  -4  -3  16    1.32    1.65
   4   3  17  158.17   13.82
   4  -3  17  176.72   15.41
   4   3  18   83.38   10.49
   4  -3  18   93.98   11.66
   4   3  19  107.13   12.21
   4  -3  19  117.94   12.90
   4   3  20   70.37   10.17
   4  -3  20   78.85   11.31
  -4  -3 -20   60.68   10.35
  -4  -3 -21  487.64   28.07
   4   3  21  507.46   26.17
   4  -3  21  510.89   27.97
   4   3  22    5.20    5.39
   4  -3  22    8.07    6.12
  -4  -3 -22    6.05    5.03
   4  -3  23   37.90    8.44
   4   3  23   44.94    8.49
  -4  -3 -23   38.81    8.91
   4   3  24   -2.02    3.22
   4  -3  24   -0.42    3.12
  -4  -3 -24    2.56    3.45
   4   3  25   65.59   10.14
   4  -3  25   47.75    9.61
  -4  -3 -25   54.28   10.21
  -4  -3 -26   23.90    6.73
   4   3  26   18.03    5.62
   4  -3  26   15.37    5.99
   4   3  27    6.92    4.06
   4  -3  27    0.79    3.38
  -4  -3 -27   -1.32    3.84
   4  -3  28   10.03    4.12
  -4   4   0   21.63    2.47
   4   4   0   23.34    4.00
  -4  -4   1   28.08    4.33
   4   4  -1   29.38    4.55
  -4   4  -1   28.53    3.08
   4   4   1   27.59    4.45
  -4   4   1   26.77    2.48
  -4   4   2  152.52    5.61
   4   4   2  152.37   10.14
  -4  -4   2  158.37   10.16
   4   4  -2  154.87   10.11
   4   4  -3   54.42    5.97
   4   4  -4  155.80   10.33
   4  -4  -5  947.32   14.15
   4   4  -5  972.85   25.88
   4  -4  -6  140.47    6.95
   4   4  -6  156.71   10.58
   4  -4  -6  143.61    5.93
   4  -4  -7  257.23    8.39
   4   4   7  280.96   15.89
   4   4  -7  289.38   14.64
   4  -4  -7  272.69    8.79
   4   4  -8    3.57    2.34
   4   4   8    1.14    2.51
   4  -4  -8    1.83    0.62
   4  -4  -8    3.69    1.29
   4   4  -9    0.83    2.09
   4   4   9   -2.71    2.74
   4  -4  -9    1.59    1.54
   4  -4 -10   51.33    4.82
   4   4  10   52.28    6.92
  -4  -4  11   20.37    3.21
   4   4  11   10.40    2.49
   4   4  12    0.01    2.95
  -4  -4  12    2.56    1.47
   4   4  13    6.88    3.18
  -4  -4  13    5.84    1.59
  -4  -4  14  118.88    6.90
   4   4  14  121.63   11.55
   4   4  15   35.94    6.54
   4   4  16   23.38    5.40
   4   4  17   22.25    5.35
   4   4  18   60.85    9.18
  -4  -4 -18   53.06    9.47
  -4  -4 -19  135.94   14.50
   4   4  19  125.07   12.74
   4  -4  19  161.74   15.72
   4   4  20   -1.42    3.65
   4  -4  20    6.63    4.97
  -4  -4 -20    0.75    4.00
   4   4  21    1.52    2.92
   4  -4  21   -0.28    2.97
   4   4  22   35.68    7.26
   4  -4  22   33.58    8.23
  -4  -4 -22   33.18    7.65
   4   4  23   -0.32    2.42
   4  -4  23    0.48    2.72
  -4  -4 -23   -2.60    4.53
  -4  -4 -24   -2.34    4.57
   4   4  24    0.00    2.40
   4  -4  24   -2.14    4.05
  -4  -4 -25    4.57    4.14
   4   4  25    6.26    3.05
   4  -4  25    1.67    3.53
   4   4  26    1.09    3.28
  -4  -4 -26    2.86    4.24
   4  -4  26   -4.58    4.81
   4  -4  27    3.71    3.78
  -4   5   0  349.99   11.51
   4   5   0  364.23   16.97
  -4   5  -1   -0.76    1.02
  -4   5   1    0.14    0.97
   4   5  -1   -1.26    2.36
   4   5   1   -1.29    1.84
   4   5   2  183.97   12.29
  -4   5  -2  181.94    9.17
   4   5  -2  185.27   12.05
  -4   5   2  178.58    7.71
  -4   5   3  265.78    9.13
   4   5  -3  290.21   15.14
   4   5  -4  124.66   10.13
   4  -5  -5  114.34    6.14
   4   5  -5  119.17    9.98
   4  -5  -6   16.21    2.40
   4   5  -6   10.44    3.08
   4   5  -7    7.54    3.18
   4  -5  -7    7.57    1.70
   4   5  -8  252.50   14.88
   4  -5  -8  252.20   10.19
   4  -5  -9  175.84    6.21
   4   5  -9  178.20   12.92
   4  -5  -9  195.07    9.43
   4   5 -10  374.73   19.03
   4  -5 -10  379.93   13.90
  -4  -5  11   40.31    3.35
   4   5 -11   59.58    8.28
   4  -5 -11   49.48    5.34
   4  -5 -12  106.02    8.08
  -4  -5  12  105.40    5.20
   4   5  12  116.22   11.56
   4   5  13   33.16    6.79
  -4  -5  13   27.33    2.56
   4   5  14  553.76   25.06
   4   5  15    5.27    3.59
   4   5  16  158.92   13.97
  -4  -5 -16  152.29   14.78
   4   5  17   68.45    9.65
  -4  -5 -17   63.76   10.30
   4   5  18  108.15   12.05
  -4  -5 -18  100.42   12.85
   4   5  19    1.38    3.24
  -4  -5 -19   -2.78    3.67
   4   5  20   80.29   10.70
  -4  -5 -20   74.91   11.41
   4   5  21    5.54    3.81
  -4  -5 -21    9.87    5.07
  -4  -5 -22  178.13   18.18
   4  -5  22  176.50   17.72
   4   5  22  168.16   16.01
  -4  -5 -23   23.14    6.96
   4   5  23   27.53    7.24
   4  -5  23   25.90    7.36
   4   5  24   56.05    9.67
  -4  -5 -24   51.92   10.58
   4  -5  24   58.44   10.77
  -4  -5 -25   18.15    7.20
   4   5  25   22.89    6.64
   4  -5  25   20.94    7.60
   4  -5  26   11.10    5.80
  -4   6   0  258.68   11.38
   4   6   0  268.17   15.81
   4   6  -1   43.35    6.39
   4   6   1   40.31    6.54
  -4   6  -1   47.09    5.07
  -4   6   1   48.52    4.87
   4   6   2  157.25   12.24
  -4   6  -2  154.26    9.39
   4   6  -2  161.62   12.30
  -4   6   2  157.76    8.53
  -4   6  -3    8.69    2.56
   4   6  -3    7.63    3.82
  -4   6   3    7.59    2.06
   4   6   3    9.38    3.75
   4   6  -4  271.03   15.92
   4   6  -5   32.14    5.86
   4  -6  -6  254.83   10.76
   4   6  -6  238.36   15.22
   4   6  -7   41.99    6.64
   4  -6  -7   46.75    4.75
   4   6  -8    9.10    5.03
   4  -6  -8   -0.67    1.28
   4   6  -9   15.17    4.50
   4  -6  -9   15.86    3.02
  -4  -6  10   36.89    2.61
   4   6 -10   36.76    6.26
   4  -6 -10   42.95    5.04
   4   6 -11   40.30    7.03
   4  -6 -11   26.75    2.14
   4  -6 -11   33.10    4.63
   4   6 -12  219.70   16.05
   4   6 -13    6.16    3.86
  -4  -6 -13  -10.90    5.71
  -4  -6 -14   28.77    6.66
  -4  -6 -15  382.51   23.51
  -4  -6 -16    1.96    3.87
  -4  -6 -17   20.34    6.13
  -4  -6 -18   56.24    9.71
  -4  -6 -19   17.86    6.43
  -4  -6 -20   15.47    6.22
  -4  -6 -21   62.25   10.91
  -4  -6 -22   17.27    6.48
  -4  -6 -23   12.49    5.96
  -4  -6 -24    3.99    4.25
   4  -6  24   13.08    5.89
   4  -6  25    6.93    5.09
   4   7   0   59.35    8.03
  -4   7   0   60.20    6.24
   4   7   1  146.57   12.36
  -4   7  -1  145.58    9.63
  -4   7   1  141.84    9.11
   4   7  -1  134.04   11.81
   4   7  -2   33.04    6.87
  -4   7  -2   26.26    4.46
  -4   7   2   25.36    4.14
   4   7   2   30.07    6.13
  -4   7   3 1559.01   29.78
   4   7   3 1565.75   41.15
  -4   7  -3 1542.19   33.05
   4   7  -3 1637.50   41.24
  -4   7  -4  438.75   18.43
   4   7  -4  459.90   22.17
   4   7  -5   67.92    8.94
  -4   7  -5   57.23    6.88
   4  -7  -6  101.96    7.73
   4   7  -6   92.34   10.31
   4  -7  -7  279.76   12.95
   4   7  -7  282.15   17.95
  -4  -7   7  279.03    8.99
   4  -7  -8   -0.93    1.73
   4   7  -8   -0.11    2.80
  -4  -7   8    0.39    0.65
   4   7  -9    9.14    3.25
   4  -7  -9    7.62    2.21
   4   7 -10   17.98    5.44
  -4  -7 -10   13.95    3.83
  -4  -7 -11  453.37   23.63
   4   7 -11  436.39   23.08
   4   7 -12   12.28    5.03
  -4  -7 -12   19.18    6.22
  -4  -7 -13  276.41   19.71
   4   7 -13  243.64   18.32
   4   7 -14   36.93    7.90
  -4  -7 -14   41.90    8.87
   4   7 -15  310.72   21.36
  -4  -7 -15  346.85   22.94
   4   7 -16   20.03    6.20
  -4  -7 -16   19.89    5.87
  -4  -7 -17   22.85    6.25
  -4  -7 -18   33.07    7.39
  -4  -7 -19   36.61    8.35
  -4  -7 -20    4.47    4.41
  -4  -7 -21  189.05   19.50
  -4  -7 -22   33.26    8.65
  -4  -7 -23    1.73    3.68
  -4  -8   0  196.48   12.11
  -4   8   0  211.83   12.54
   4   8   0  210.30   15.97
  -4   8  -1    6.95    1.73
  -4   8   1    7.21    2.24
   4   8  -1    1.24    3.28
  -4  -8  -1    9.82    3.18
   4   8   1    7.70    4.01
  -4  -8   1   10.67    2.83
  -4   8  -2    2.25    2.35
   4   8  -2   -2.40    3.80
  -4   8   2   -0.60    2.21
  -4  -8  -2    0.55    2.19
  -4  -8   2    0.28    2.25
   4   8   2    6.57    4.56
  -4   8   3  295.40   14.50
  -4  -8  -3  284.59   15.97
   4   8   3  323.89   19.83
  -4  -8   3  286.11   12.71
  -4   8  -3  283.25   15.33
   4   8  -3  302.78   19.24
   4   8   4  100.28   11.52
  -4  -8   4   82.68    6.56
  -4   8   4   78.85    7.45
  -4  -8  -4   75.42    8.61
  -4   8  -4   82.32    8.63
   4   8  -4   82.18   10.15
  -4  -8   5   -0.89    1.58
  -4   8  -5    1.88    2.29
   4   8  -5    3.78    4.16
  -4  -8  -5   -4.32    4.12
  -4  -8   6   63.37    4.72
   4   8  -6   75.21    9.95
  -4   8  -6   79.36    8.82
  -4  -8  -6   61.71    8.27
  -4  -8  -7  185.82   14.26
  -4  -8   7  171.89    6.77
  -4   8  -7  187.76   13.73
   4   8  -7  200.06   15.91
  -4  -8  -8  116.59   11.75
   4   8  -8  119.28   12.39
   4   8  -9   27.37    5.90
  -4  -8  -9   23.08    5.21
   4   8 -10    7.78    4.18
  -4  -8 -10    5.93    3.62
   4   8 -11   27.88    6.07
  -4  -8 -11   25.15    6.40
   4   8 -12    9.65    4.31
  -4  -8 -12   14.39    4.25
   4   8 -13    9.49    4.56
  -4  -8 -13   13.22    4.63
  -4  -8 -14    6.21    3.52
   4   8 -14    6.51    3.81
  -4  -8 -15   31.90    7.14
   4   8 -15   28.06    7.23
   4   8 -16   10.51    5.13
  -4  -8 -16   10.63    4.81
  -4  -8 -17   97.94   13.63
   4   8 -17   96.93   13.15
   4   8 -18   10.27    4.99
  -4  -8 -18   15.26    6.84
  -4  -8 -19   23.57    7.88
   4   8 -19   16.81    5.47
  -4  -8 -20   -6.36    5.85
   4   8 -20    4.12    4.41
  -4  -8 -21   89.73   13.43
  -4  -9   0  635.64   22.31
  -4   9   0  594.47   22.83
   4   9   0  622.92   29.16
   4   9   1  232.84   17.94
  -4  -9   1  241.48   13.26
  -4  -9  -1  240.34   14.26
  -4   9  -1  240.89   14.85
  -4   9   1  239.56   14.32
   4   9  -1  243.16   18.05
  -4  -9  -2  224.65   14.53
  -4  -9   2  238.13   12.68
   4   9   2  224.90   17.34
  -4   9  -2  227.60   14.47
   4   9  -2  232.69   17.68
  -4   9   2  209.91   13.27
  -4   9   3  403.48   18.30
  -4  -9  -3  413.90   19.84
  -4  -9   3  402.63   15.56
   4   9   3  415.26   23.83
  -4   9  -3  386.38   19.12
   4   9  -3  403.55   23.48
  -4   9   4  481.27   19.90
  -4  -9  -4  496.40   22.38
   4   9   4  493.05   25.90
  -4  -9   4  466.22   15.83
  -4   9  -4  470.67   21.79
   4   9  -4  483.65   25.57
  -4  -9  -5    1.28    2.92
  -4   9  -5    1.56    2.13
   4   9  -5    4.72    4.56
  -4  -9   5   -0.32    1.49
  -4  -9  -6  176.47   14.31
  -4   9  -6  170.35   13.58
   4   9  -6  172.93   15.94
  -4  -9  -7  566.49   25.83
  -4   9  -7  623.91   26.27
   4   9  -7  599.41   29.03
  -4  -9  -8   63.25    9.06
   4   9  -8   76.40   11.09
  -4   9  -8   68.36    9.66
   4   9  -9   61.60    9.71
  -4  -9  -9   71.81    9.65
  -4   9  -9   75.26    9.70
  -4  -9 -10   12.29    5.12
   4   9 -10    8.55    3.93
  -4  -9 -11   78.18   10.96
   4   9 -11   86.14   11.65
  -4  -9 -12   10.81    5.17
   4   9 -12   13.93    5.36
  -4  -9 -13   10.05    4.88
   4   9 -13   15.37    5.76
   4   9 -14   75.07   11.45
  -4  -9 -14   79.10   11.67
  -4  -9 -15   88.09   12.49
   4   9 -15   99.01   13.02
   4   9 -16   -2.10    3.38
  -4  -9 -16    5.97    5.52
  -4  -9 -17  103.99   14.30
   4   9 -17  137.46   16.07
   4   9 -18   60.52   11.04
  -4  -9 -18   46.10    9.77
   4   9 -19    2.12    3.58
  -4  -9 -19  -13.13    7.16
   4   9 -20    8.06    4.54
  -4  -9 -20   -2.71    6.18
   4   9 -21   83.07   14.07
  -4 -10   0   41.53    6.10
  -4  10   0   41.61    6.58
   4  10   0   36.36    7.80
  -4  10  -1   12.38    4.11
  -4 -10  -1    6.43    2.47
  -4  10   1    8.29    3.18
  -4 -10   1   13.94    3.60
   4  10  -1   11.10    5.14
   4  10   1   13.91    5.58
  -4  10  -2    9.07    3.46
  -4 -10  -2    9.16    3.89
   4  10  -2    8.87    4.01
  -4  10   2   12.50    3.82
   4  10   2    9.69    4.58
  -4 -10   2    7.87    2.22
  -4  10  -3   -3.70    3.48
  -4 -10  -3   -0.96    3.01
   4  10  -3   -2.57    2.71
  -4  10   3    1.53    2.11
   4  10   3    8.02    5.58
  -4  10  -4   -0.66    2.90
  -4 -10  -4   -2.04    3.10
   4  10  -4    0.80    3.43
  -4  10   4    1.08    1.90
   4  10   4    4.40    5.00
  -4  10  -5    3.50    2.62
  -4 -10  -5    1.49    2.50
   4  10  -5    3.62    3.56
  -4 -10  -6  161.61   14.01
  -4  10  -6  150.47   13.36
   4  10  -6  146.99   15.39
  -4  10  -7    7.88    4.40
  -4 -10  -7    2.77    3.85
   4  10  -7    4.67    4.01
  -4 -10  -8  171.18   15.06
  -4  10  -8  172.03   15.12
   4  10  -8  166.94   16.46
   4  10  -9   -1.34    3.11
  -4 -10  -9   -0.61    4.10
  -4  10  -9   -0.97    2.19
  -4  10 -10    4.81    3.90
   4  10 -10    2.47    3.64
  -4 -10 -10   -0.76    3.96
  -4 -10 -11  115.60   13.26
  -4  10 -11  109.88   12.78
   4  10 -11   98.91   12.88
   4  10 -12   15.86    5.97
  -4 -10 -12    6.72    3.11
  -4  10 -12   18.13    5.73
   4  10 -13    3.22    3.20
  -4 -10 -13    0.12    3.76
   4  10 -14    6.19    3.42
  -4 -10 -14    5.57    3.43
   4  10 -15    2.23    3.21
  -4 -10 -15    1.54    3.02
   4  10 -16   12.24    6.01
  -4 -10 -16   15.02    5.81
   4  10 -17    2.84    4.44
  -4 -10 -17    0.50    4.22
   4  10 -18   33.68    8.12
  -4 -10 -18   23.99    7.99
   4  10 -19    9.67    5.17
   4  11   0  286.38   21.84
  -4 -11   0  301.40   16.66
  -4  11   0  309.00   18.89
  -4 -11  -1   34.24    6.25
  -4  11  -1   36.63    6.97
  -4  11   1   43.50    7.20
   4  11  -1   36.31    7.75
   4  11   1   24.86    6.89
  -4  11  -2    4.58    2.73
   4  11  -2    4.29    3.33
  -4  11   2    1.28    2.16
   4  11   2    4.20    2.64
  -4 -11  -2    0.10    2.39
  -4  11  -3   43.47    7.74
   4  11  -3   45.33    9.11
  -4 -11  -3   48.24    7.73
  -4  11   3   51.45    7.83
   4  11   3   45.22    9.78
  -4  11   4  391.94   20.73
   4  11   4  368.96   25.05
  -4 -11  -4  387.06   21.48
  -4  11  -4  361.24   21.50
   4  11  -4  387.20   25.60
  -4 -11  -5   83.46   10.61
  -4  11  -5   67.07    9.38
   4  11  -5   78.68   12.47
  -4 -11  -6  280.18   19.30
  -4  11  -6  272.24   19.06
   4  11  -6  271.56   22.00
  -4  11  -7   13.64    4.97
   4  11  -7   20.66    7.20
  -4 -11  -7   13.66    5.41
  -4  11  -8    8.89    4.01
   4  11  -8    2.71    3.50
  -4 -11  -8    0.60    3.02
  -4  11  -9   27.88    6.70
   4  11  -9   22.90    6.73
  -4 -11  -9   19.70    6.03
  -4 -11 -10  218.29   18.45
  -4  11 -10  218.73   18.17
   4  11 -10  200.22   19.16
  -4  11 -11    4.58    3.74
   4  11 -11   -4.95    4.11
  -4 -11 -11    6.67    5.08
  -4  11 -12   23.01    6.80
   4  11 -12   23.82    6.64
  -4 -11 -12   18.91    6.03
  -4  11 -13   12.52    4.98
   4  11 -13   19.08    6.89
  -4 -11 -13    9.59    5.60
  -4  11 -14   87.27   12.55
  -4 -11 -14   83.97   12.64
   4  11 -14  100.36   14.13
   4  11 -15   -1.87    3.11
  -4  11 -15    4.97    2.73
  -4 -11 -15   -6.27    4.62
   4  11 -16    5.60    3.71
  -4 -11 -16   -0.57    2.98
  -4 -11 -17  -13.37    6.81
  -4  12   0   40.06    7.33
   4  12   0   44.04    9.32
  -4  12  -1   -3.02    2.68
   4  12  -1   -5.21    4.85
  -4  12   1   -0.79    2.39
   4  12   1   -2.91    4.49
  -4  12  -2    2.53    3.09
   4  12  -2    7.28    4.31
  -4  12   2   13.21    4.55
   4  12   2    7.08    4.26
  -4  12   3   64.35    9.11
  -4  12  -3   65.37    9.50
   4  12  -3   66.79   11.65
   4  12   3   61.47   10.96
  -4 -12  -4   11.42    4.62
  -4  12  -4    3.55    3.08
   4  12  -4    4.15    3.24
  -4 -12  -5    5.75    3.79
  -4  12  -5   -0.04    2.08
   4  12  -5    3.29    4.26
  -4 -12  -6   32.11    7.21
  -4  12  -6   23.63    5.88
   4  12  -6   31.90    7.86
  -4 -12  -7   11.76    4.88
  -4  12  -7   12.08    3.94
   4  12  -7    8.59    4.83
  -4 -12  -8   18.31    4.97
  -4  12  -8   14.23    5.46
   4  12  -8   14.76    5.56
  -4  12  -9   18.17    5.91
   4  12  -9   20.12    6.50
  -4 -12  -9   13.08    4.73
  -4 -12 -10    8.44    3.65
  -4  12 -10   13.56    5.44
   4  12 -10   14.36    5.77
  -4 -12 -11   16.06    6.00
  -4  12 -11   29.25    7.52
   4  12 -11   28.59    7.56
  -4 -12 -12   -1.56    4.01
  -4  12 -12    1.61    3.00
   4  12 -12    4.42    3.60
  -4 -12 -13    7.89    4.35
  -4  12 -13    7.80    4.98
   4  12 -13    6.50    3.45
  -4 -12 -14   28.23    7.82
  -4  12 -14   36.86    8.85
  -4 -12 -15    9.14    6.28
  -4  12 -15    1.39    2.66
  -4  12 -16   -1.11    2.97
  -4  13   0   25.74    6.35
   4  13   0   24.12    7.75
  -4  13  -1   34.46    7.43
   4  13  -1   43.42    9.63
  -4  13   1   29.91    6.61
   4  13   1   28.80    7.82
  -4  13  -2    1.05    2.73
   4  13  -2    4.80    4.02
   4  13   2    5.50    4.08
   4  13   3  146.02   17.03
  -4  13  -3  169.22   16.08
   4  13  -3  145.14   17.36
  -4  13  -4    3.47    2.97
   4  13  -4    6.56    4.62
  -4  13  -5    1.22    2.30
   4  13  -5    3.12    4.11
  -4  13  -6    5.79    4.04
   4  13  -6    2.73    3.74
  -4  13  -7   45.43    8.79
   4  13  -7   52.69   10.73
  -4 -13  -7   63.27   10.08
  -4  13  -8   59.80   10.16
   4  13  -8   51.55   11.29
  -4 -13  -8   53.66    9.57
  -4  13  -9    8.63    4.37
  -4 -13  -9   11.14    4.53
  -4  13 -10    6.09    4.19
  -4 -13 -10    2.97    2.84
  -4  13 -11    3.16    2.95
  -4 -13 -11   -1.66    3.21
  -4  13 -12   45.97    9.45
  -4 -13 -12   58.81   10.70
  -4  13 -13   14.71    6.11
  -4 -13 -13   17.94    6.48
  -4  14  -6   30.93    7.52
  -4  14  -7   19.31    6.13
  -4  14  -8   19.41    6.50
  -4  14  -9    6.70    4.26
  -4  14 -10    8.64    4.52
  -5   0   0   -1.04    1.11
   5   0   0    4.45    2.52
  -5   0   0    1.02    2.25
  -5   0   1    0.24    0.63
   5   0   1    2.36    2.84
   5   0  -1   -0.17    1.95
  -5   0  -1    0.50    1.02
  -5   0   1    0.48    1.51
  -5   0  -2 1070.54   20.13
   5   0  -2 1154.75   25.75
   5   0   2 1122.36   28.16
  -5   0   2 1139.44   25.48
   5   0  -3   14.66    4.40
   5   0   3   20.20    6.35
  -5   0   3   12.95    3.74
  -5   0  -3   10.12    2.81
   5   0  -4 1709.40   19.43
   5   0  -4 1712.46   30.05
  -5   0   4 1741.40   30.13
   5   0   4 1745.39   36.76
   5   0  -5   -1.93    1.20
  -5   0   5    0.50    1.07
   5   0   6 1402.53   34.36
  -5   0   6 1407.09   25.51
   5   0  -6 1348.80   19.14
   5   0  -7   -1.29    1.41
  -5   0   7   -0.45    1.13
  -5   0   8  353.74   12.23
   5   0   8  366.93   18.44
   5   0  -8  365.36   11.36
  -5   0   9   -0.07    0.94
   5   0   9    3.62    3.75
  -5   0  10  149.72    7.50
   5   0  10  156.87   12.58
  -5   0  11    2.25    1.61
   5   0  11    7.91    5.50
  -5   0  12  585.50   14.14
   5   0  12  576.84   25.25
  -5   0  13    1.71    1.52
   5   0  13    7.23    5.20
  -5   0  14  125.46    6.12
   5   0  14  126.14   12.42
   5   0  15   18.44    7.89
   5   0  16  754.86   30.76
   5   0  17    5.68    4.76
   5   0  18   33.02    6.87
   5   0  19    2.01    4.43
   5   0  20  127.27   13.85
   5   0  21   -5.31    4.93
   5   0  22   15.64    5.18
   5   0  23   19.48    7.55
   5   0  24  315.93   23.51
   5   0  25   12.97    6.52
  -5   0 -26  111.67   14.70
   5   0  26  139.89   16.38
   5   0  27   12.29    5.94
  -5   0 -27    0.59    3.51
   5   0  28   51.07   10.35
  -5   0 -28   50.33   10.49
   5   1   0    0.03    2.71
  -5  -1   0    0.50    1.18
   5  -1   0    1.36    2.35
  -5   1   0   -0.16    0.47
  -5   1  -1  154.40    6.27
   5   1  -1  152.91   10.13
   5   1   1  156.26   10.61
   5  -1  -1  159.47    9.60
   5  -1   1  154.54   10.05
  -5   1   1  137.29    4.20
  -5  -1   1  152.29    7.49
  -5  -1  -1  156.05    8.13
   5   1  -2    4.80    2.17
   5   1   2    4.60    2.42
   5  -1  -2    5.61    1.89
  -5  -1   2    2.46    1.60
   5  -1   2    1.42    2.44
  -5  -1  -2    5.82    1.50
  -5   1   2    6.08    1.85
  -5  -1   2    3.99    1.28
   5   1  -2    6.34    1.63
   5  -1  -3   17.13    3.17
   5   1   3   11.53    3.17
  -5  -1   3   18.20    3.32
   5  -1   3    8.12    2.54
  -5   1   3   13.36    2.77
   5   1  -3   14.86    2.45
  -5  -1  -3   13.73    2.74
   5  -1  -4   14.35    2.66
   5   1   4   17.08    4.22
  -5  -1   4   15.09    3.17
   5  -1   4   13.91    3.13
   5   1  -4   14.67    2.59
  -5   1   4   18.91    3.18
  -5  -1  -4   12.31    2.68
   5  -1  -5    9.11    2.08
   5   1   5    1.02    2.36
   5   1  -5    9.31    2.10
  -5  -1   5    7.23    2.31
   5  -1   5    8.20    2.57
  -5   1   5   11.09    2.77
   5  -1   6  389.61   18.13
  -5   1   6  387.26   12.68
  -5  -1   6  389.10   14.46
   5   1   6  361.60   17.63
   5   1  -6  374.08   12.27
   5  -1  -6  359.50    7.02
  -5  -1   7   45.66    5.02
  -5   1   7   47.06    4.34
   5   1   7   44.17    6.69
   5  -1   7   52.90    7.64
   5  -1  -7   45.39    2.99
   5   1  -7   48.77    4.69
   5   1  -8   18.50    3.09
  -5   1   8   23.22    3.04
  -5  -1   8   25.13    3.71
   5   1   8   22.61    5.18
   5  -1   8   26.38    5.45
  -5  -1   9   74.91    6.25
   5   1   9   75.72    8.80
   5  -1   9   79.81    9.51
  -5   1   9   81.27    5.12
  -5  -1  10  574.78   16.86
   5  -1  10  589.30   24.51
  -5   1  10  575.77   12.49
   5   1  10  605.84   24.47
  -5  -1  11   38.86    4.45
  -5   1  11   45.75    3.39
   5   1  11   45.45    7.94
   5  -1  11   43.20    7.93
  -5  -1  12  239.83   10.73
   5   1  12  262.62   17.31
   5  -1  12  245.07   16.76
  -5  -1  13  371.27   13.28
   5   1  13  407.31   21.81
   5  -1  13  370.23   20.91
   5   1  14  160.09   14.35
   5  -1  14  157.47   13.99
  -5  -1  14  142.98    8.15
   5   1  15   28.36    7.31
   5  -1  15   19.02    6.03
   5  -1  16  179.06   15.35
   5   1  16  194.57   15.89
   5   1  17   31.89    6.60
   5  -1  17   27.80    6.48
   5   1  18   25.02    6.48
   5  -1  18   20.67    5.44
   5   1  19   23.76    6.54
   5  -1  19   12.21    4.88
   5   1  20   92.92   12.00
   5  -1  20  100.93   12.69
   5   1  21   57.06    9.82
   5  -1  21   51.25    9.33
   5   1  22    6.17    4.82
   5  -1  22    2.77    3.83
   5   1  23   89.55   12.55
   5  -1  23   93.58   12.82
   5   1  24  153.79   16.33
   5  -1  24  139.06   15.88
   5   1  25    5.62    3.70
   5  -1  25   -2.21    3.56
  -5  -1 -25    6.97    4.51
   5   1  26   32.48    8.31
   5  -1  26   20.43    7.08
  -5  -1 -26   24.38    7.28
   5   1  27   21.64    7.17
   5  -1  27   24.75    7.65
  -5   1 -27   18.60    6.09
  -5  -1 -27   22.52    7.24
   5   1  28    5.40    4.26
   5  -1  28    4.02    3.34
  -5   1 -28    2.66    3.67
   5   2   0    1.26    1.90
  -5  -2   0   -0.96    1.90
   5  -2   0   -1.72    2.03
  -5   2   0    0.11    0.31
   5   2   1  100.98    8.95
   5   2  -1   96.47    6.73
   5  -2   1   99.79    8.39
   5  -2  -1  105.15    8.00
  -5  -2   1  104.14    7.08
  -5  -2  -1  104.47    7.41
   5   2  -2   86.53    6.43
   5   2   2   98.16    8.75
   5  -2  -2   92.81    7.26
   5  -2   2   96.87    8.66
  -5  -2   2  102.41    6.98
  -5  -2  -2   93.37    7.30
   5   2   3 1071.20   29.56
   5  -2  -3 1086.96   23.44
   5  -2   3 1100.67   28.37
  -5  -2  -3 1076.97   25.22
   5   2  -3 1095.74   22.82
  -5  -2  -4  787.23   22.18
   5   2   4  775.19   25.59
   5  -2  -4  739.15   18.57
   5  -2   4  766.76   24.52
   5   2  -4  755.18   19.08
   5  -2   5  827.84   26.29
   5  -2  -5  795.60   18.48
   5   2   5  811.35   26.70
   5   2  -5  787.73   19.84
   5  -2  -6  668.60   16.35
  -5  -2   6  724.33   21.37
   5   2   6  733.35   25.42
   5  -2   6  724.74   25.44
   5   2  -6  697.37   19.12
   5  -2  -7  102.28    5.96
   5   2   7  108.61   10.33
   5  -2   7  126.33   11.56
  -5  -2   7  104.54    8.05
   5   2  -7   99.61    7.38
   5   2  -8    5.36    2.35
  -5  -2   8    2.39    1.57
   5   2   8    4.35    3.64
   5  -2   8    9.51    5.55
  -5  -2   9  544.60   18.37
   5   2   9  544.70   23.38
   5  -2   9  564.40   23.66
   5   2  -9  547.65   18.51
   5  -2  10  192.54   14.43
   5   2  10  163.19   13.30
  -5  -2  10  186.19   10.71
   5   2 -10  176.85   10.85
  -5  -2  11   52.32    5.65
   5   2  11   61.63    8.77
   5  -2  11   65.65    9.15
  -5  -2  12  158.62    9.88
   5   2  12  165.31   14.04
   5  -2  12  177.49   14.77
  -5  -2  13  634.74   19.69
   5  -2  13  664.72   28.21
   5   2  13  656.35   27.26
  -5  -2  14   39.56    5.01
   5   2  14   57.69    9.42
   5  -2  14   56.14    8.92
   5   2  15  189.97   15.76
   5  -2  15  184.41   15.43
   5   2  16  113.59   12.61
   5  -2  16  111.16   12.63
   5   2  17  187.25   15.92
   5  -2  17  213.01   17.14
   5   2  18  125.90   13.83
   5  -2  18  144.04   14.68
   5   2  19   52.85    9.30
   5  -2  19   41.61    8.35
   5   2  20  164.41   15.46
   5  -2  20  196.10   17.52
   5   2  21   30.69    7.31
   5  -2  21   25.69    7.73
   5   2  22   29.51    7.14
   5  -2  22   18.93    6.09
   5   2  23   29.53    7.50
   5  -2  23   29.68    7.27
   5   2  24   13.63    4.84
   5  -2  24   18.29    6.10
  -5  -2 -24   24.46    7.27
   5   2  25   -5.17    4.89
   5  -2  25    7.96    5.23
  -5  -2 -25    4.57    5.09
   5   2  26   13.66    5.40
   5  -2  26    4.94    4.29
  -5  -2 -26   11.28    5.80
   5   2  27  105.48   13.93
   5  -2  27   96.57   14.06
  -5   2 -27   89.86   12.61
   5   2  28    9.44    5.62
  -5   3   0    0.30    0.43
  -5  -3   0   -0.86    1.56
   5  -3   0    0.70    2.13
   5   3   0   -0.28    1.82
  -5  -3   1    9.10    2.58
  -5  -3  -1   10.47    2.79
   5  -3  -1    9.95    2.92
   5  -3   1   14.54    3.96
   5   3  -1    7.53    2.41
   5  -3  -2  244.26   11.81
   5  -3   2  252.51   13.72
  -5  -3   2  271.85   12.79
  -5  -3  -2  265.90   13.20
   5   3  -2  252.06   12.29
   5  -3  -3   -0.44    1.55
   5   3  -3    3.46    2.17
   5  -3   3    5.41    3.23
   5   3   4   -4.67    3.83
   5   3  -4    2.81    2.06
   5  -3  -4   -1.60    1.39
   5  -3   4    2.55    3.04
   5   3   5  290.92   16.34
   5  -3  -5  283.37   11.11
   5  -3   5  279.06   15.54
   5   3  -5  296.69   13.55
   5  -3  -6   44.86    4.35
   5   3   6   49.03    7.34
   5  -3   6   53.72    7.88
   5   3  -6   47.41    5.56
   5   3   7  242.69   15.30
   5  -3  -7  233.65    8.71
   5  -3   7  256.48   15.49
   5   3  -7  234.66   12.41
   5   3  -8   12.84    2.89
   5  -3  -8   11.70    1.84
   5   3   8    6.99    2.46
   5  -3  -8   10.02    1.32
   5  -3   8   13.80    4.59
   5  -3  -9   33.62    2.90
   5   3  -9   30.08    4.78
   5   3   9   34.77    6.11
   5  -3   9   39.88    6.93
   5   3 -10   12.39    3.31
   5  -3  10    6.43    3.99
   5   3  11   -3.19    3.67
   5  -3  11    5.09    3.50
   5   3 -11    4.54    2.72
   5   3  12   -1.96    2.89
   5  -3  12    5.80    4.19
   5   3  13  191.30   15.05
   5  -3  13  188.62   15.17
  -5  -3  13  189.57   11.07
   5   3  14   -3.45    3.23
   5  -3  14   -1.39    3.61
  -5  -3  14    3.13    2.34
   5   3  15  168.44   14.41
   5  -3  15  162.20   14.71
   5   3  16   32.22    6.58
   5  -3  16   36.87    8.18
   5   3  17    2.23    2.68
   5  -3  17    4.57    2.93
   5   3  18    3.70    3.47
   5  -3  18   -0.17    2.73
   5   3  19   27.62    6.55
   5  -3  19   38.61    8.48
   5   3  20   13.55    5.22
   5  -3  20   21.41    7.02
   5   3  21   16.87    6.09
   5  -3  21   14.93    5.99
   5   3  22   10.05    4.81
   5  -3  22    0.33    3.24
   5   3  23   18.87    5.58
   5  -3  23   22.84    6.87
  -5  -3 -23   17.23    6.52
  -5  -3 -24   86.03   13.52
   5  -3  24   99.47   13.79
   5   3  24   89.19   12.30
   5   3  25   11.55    4.71
   5  -3  25    9.31    4.83
  -5  -3 -25   13.30    5.47
   5   3  26    0.62    3.78
   5  -3  26   -3.08    3.46
   5   3  27   45.37    9.59
   5   3  28   -7.82    4.57
  -5   4   0   -0.37    0.65
   5  -4   0    2.22    3.17
   5   4   0   -0.83    2.11
   5   4  -1  317.38   15.25
   5   4   1  304.57   15.09
   5  -4  -1  325.74   14.66
   5  -4   1  322.81   15.48
  -5   4  -1  315.70    9.36
  -5   4   1  292.33    6.47
   5   4  -2    2.54    1.70
   5  -4  -2   10.54    3.12
   5   4  -3    2.56    1.96
   5  -4  -3    4.52    2.24
   5  -4  -4   85.49    6.79
   5   4  -4   75.20    7.69
   5  -4  -5   34.47    4.38
   5   4  -5   33.18    5.61
   5   4   6  580.04   23.91
   5  -4  -6  548.39   15.01
   5   4  -6  539.46   20.37
   5  -4  -7  426.97   12.22
   5   4   7  428.85   21.19
   5   4  -7  436.54   18.64
   5   4   8  112.78   11.25
   5  -4  -8  107.67    5.61
   5   4  -8  108.23    9.41
   5  -4  -8  100.60    4.53
   5  -4  -9   66.68    3.73
   5   4   9   81.77    9.39
   5   4  -9   65.08    7.37
   5  -4  -9   69.26    4.33
   5   4 -10   -2.08    2.82
   5   4  10   -3.83    4.21
   5   4 -11    6.55    2.84
   5   4  11    1.27    3.01
   5  -4 -11    6.09    1.70
   5  -4 -12  179.60    9.04
   5   4  12  169.27   14.05
   5   4 -12  183.63   13.40
   5   4  13   14.05    4.55
  -5  -4  13   20.68    3.68
   5  -4  13   12.03    5.51
   5   4  14   43.02    7.18
   5  -4  14   45.38    8.08
   5   4  15   18.70    5.78
   5  -4  15   17.88    6.74
   5   4  16  229.39   17.70
   5  -4  16  230.53   18.49
   5   4  17  117.25   13.20
   5  -4  17  120.05   13.83
   5   4  18    3.25    3.31
   5  -4  18    5.07    4.33
   5   4  19   51.99    8.61
   5  -4  19   56.49    9.60
   5   4  20    3.07    3.14
   5  -4  20    9.02    4.98
   5   4  21    5.03    3.73
  -5  -4 -21    5.35    3.99
   5   4  22    6.21    4.65
   5  -4  22   10.26    6.14
  -5  -4 -22    1.72    4.64
  -5  -4 -23  315.46   24.67
   5   4  23  329.41   23.38
   5  -4  23  327.15   25.20
   5   4  24    5.23    4.39
   5  -4  24    3.72    4.15
  -5  -4 -24    4.69    5.37
   5   4  25    2.03    3.21
   5  -4  25    6.87    4.98
   5   4  26   18.66    5.89
   5   4  27    1.36    2.90
  -5   5   0    0.78    1.12
   5   5   0   -3.99    2.99
   5   5   1  449.77   19.59
  -5   5  -1  407.08   12.23
  -5   5   1  418.59   10.59
   5   5  -1  450.97   19.52
  -5   5   2  196.11    6.69
  -5   5  -2  207.42    9.31
   5   5  -2  222.46   13.90
   5   5  -3    7.32    2.38
   5   5  -4   32.17    5.32
   5  -5  -5   85.22    6.93
   5   5  -5   88.19    8.77
   5  -5  -6  229.89   10.51
   5   5  -6  235.92   14.46
   5  -5  -7  199.48    9.07
   5   5  -7  182.02   13.06
   5  -5  -8  113.94    6.26
   5  -5  -8  121.29    5.86
   5   5  -8  108.81   10.16
   5   5  -9   10.76    3.76
   5  -5  -9   10.27    2.01
   5  -5  -9    9.88    1.71
   5  -5 -10    9.24    1.21
   5   5 -10   14.49    4.42
   5  -5 -10    9.14    1.92
   5   5  11   71.83    9.65
   5   5 -11   69.14    8.52
   5  -5 -11   68.25    5.48
   5   5  12  264.46   18.27
   5   5 -12  255.88   16.57
   5   5 -13   -0.12    2.21
   5   5  13   -2.59    4.22
   5   5 -14    2.03    3.04
   5   5  14    0.01    3.63
   5   5  15    9.93    4.10
   5   5 -15   15.91    5.28
   5   5  16   34.85    7.47
   5   5  17    4.20    3.69
   5   5  18   18.80    5.69
   5  -5  18   26.50    7.31
   5   5  19   -0.47    3.70
   5  -5  19    4.49    4.02
  -5  -5 -19    0.79    3.64
   5   5  20    6.77    4.92
   5  -5  20    8.21    5.29
  -5  -5 -20   -1.33    3.13
   5   5  21   90.75   12.32
   5  -5  21   96.00   13.76
  -5  -5 -21   84.35   12.67
   5   5  22    8.35    4.81
   5  -5  22   14.99    6.89
  -5  -5 -22    9.41    5.31
   5   5  23   32.96    7.51
   5  -5  23   51.41   11.09
  -5  -5 -23   40.36    9.74
   5   5  24   66.19   11.33
   5  -5  24   53.07   10.86
   5   5  25   -2.50    3.91
   5   5  26   17.41    6.04
  -5   6   0   -0.09    1.25
   5   6   0   -0.86    2.89
   5   6   1  578.11   23.97
  -5   6  -1  560.61   16.34
  -5   6   1  556.51   14.70
   5   6  -1  533.07   23.02
  -5   6   2  262.48    9.66
   5   6   2  281.89   16.78
  -5   6  -2  255.40   11.58
   5   6  -2  285.02   16.71
  -5   6  -3  302.15   13.12
   5   6  -3  308.81   17.42
   5   6  -4   97.94   10.06
   5   6  -5  182.76   13.68
   5   6  -6   13.51    4.23
   5   6  -7   27.31    5.48
   5  -6  -8   58.79    5.08
   5   6  -8   51.52    7.68
   5  -6  -8   54.35    4.61
   5  -6  -9  279.68    9.93
   5  -6  -9  283.17   10.81
   5   6  -9  292.72   17.84
   5   6 -10    4.99    2.99
   5  -6 -10    2.41    0.81
   5   6 -11   67.48    9.39
   5   6 -12  209.40   15.95
   5   6 -13   70.44    9.55
   5   6 -14    8.89    4.17
   5   6 -15  179.20   15.45
   5   6 -16    5.59    4.13
  -5  -6 -17    0.61    3.84
   5   6 -17    0.16    2.98
  -5  -6 -18   -4.44    6.39
  -5  -6 -19   14.24    4.94
  -5  -6 -20  237.05   21.26
   5  -6  21    3.95    5.96
  -5  -6 -21   -1.78    3.65
  -5  -6 -22  191.07   19.77
   5  -6  22  174.52   18.97
   5  -6  23   24.71    8.53
  -5   7   0   -2.67    2.09
   5   7   0   -2.51    4.18
   5   7  -1   45.91    7.79
   5   7   1   50.40    8.14
  -5   7  -1   46.84    5.30
  -5   7   1   48.78    5.02
  -5   7   2  532.22   16.27
   5   7   2  524.79   24.54
  -5   7  -2  547.91   18.53
   5   7  -2  523.94   24.36
  -5   7  -3  205.70   11.74
   5   7  -3  209.28   15.57
  -5   7  -4  169.75   11.11
   5   7  -4  177.62   14.34
   5   7  -5   47.18    7.56
  -5   7  -5   46.99    6.21
   5   7  -6    2.84    2.74
   5   7  -7   -0.72    3.05
   5   7  -8   67.76    9.22
   5   7  -9  210.82   16.23
   5   7 -10    4.77    3.11
   5   7 -11   68.36    9.77
   5   7 -12   33.88    6.82
   5   7 -13   85.93   10.98
  -5  -7 -13   87.08   11.66
  -5  -7 -14   89.82   12.37
   5   7 -14   81.51   11.12
   5   7 -15   22.21    5.92
  -5  -7 -15   20.02    6.28
   5   7 -16   19.28    5.84
  -5  -7 -16   28.06    6.75
   5   7 -17    5.12    3.78
  -5  -7 -17   -1.78    4.93
   5   7 -18    5.53    4.20
  -5  -7 -18  -14.39    6.74
   5   7 -19    3.69    2.64
  -5  -7 -19   -0.06    4.03
   5   7 -20    0.87    2.84
  -5  -7 -20    1.88    3.96
  -5  -7 -21    1.87    3.95
   5   7 -21   -3.99    4.16
  -5   8   0   -1.94    2.31
   5   8   0    3.81    3.71
   5   8   1  752.49   30.98
  -5   8  -1  734.05   22.78
  -5   8   1  737.17   21.82
   5   8  -1  759.90   31.05
  -5   8   2  138.49    9.41
   5   8   2  137.13   13.44
  -5   8  -2  131.30    9.93
   5   8  -2  130.45   13.07
  -5   8  -3    0.83    1.82
   5   8  -3    0.98    3.53
  -5   8   3    4.30    2.14
   5   8   3    0.00    2.98
  -5   8  -4   27.31    5.04
   5   8  -4   22.59    5.65
  -5   8  -5 1282.51   33.42
   5   8  -5 1298.69   40.94
  -5   8  -6   28.18    5.45
   5   8  -6   31.37    7.36
   5   8  -7    4.74    3.03
  -5   8  -7    2.30    2.40
   5   8  -8   37.36    7.70
  -5  -8  -8   27.39    6.71
   5   8  -9  620.65   29.31
  -5  -8  -9  589.00   27.85
  -5  -8 -10   98.86   12.11
   5   8 -10   99.35   12.04
   5   8 -11   35.91    7.49
  -5  -8 -11   48.25    8.56
   5   8 -12   49.20    9.01
  -5  -8 -12   52.73    9.33
  -5  -8 -13  223.04   18.93
   5   8 -13  231.70   18.97
   5   8 -14    5.88    4.32
  -5  -8 -14   -0.11    3.13
   5   8 -15   11.54    4.74
  -5  -8 -15    7.68    3.55
   5   8 -16    1.09    3.70
  -5  -8 -16    6.26    3.20
  -5  -8 -17  143.47   16.50
   5   8 -17  161.55   16.77
  -5  -8 -18    1.03    4.58
   5   8 -18    4.06    3.78
  -5  -8 -19  121.03   15.61
   5   8 -19  116.58   14.80
   5   8 -20    4.73    4.47
  -5  -8 -20    9.12    4.94
   5   8 -21   45.07    9.93
   5   8 -22   13.16    5.90
  -5   9   0   -0.38    1.89
  -5  -9   0    3.49    2.66
   5   9   0   -0.56    2.92
   5   9   1  320.57   21.50
  -5  -9   1  308.04   15.91
  -5  -9  -1  312.55   17.08
  -5   9  -1  325.78   16.65
  -5   9   1  317.15   15.75
   5   9  -1  319.84   21.38
  -5   9  -2    9.28    3.25
   5   9  -2   10.79    4.91
  -5  -9  -2    9.87    3.85
  -5   9   2   14.53    3.71
  -5  -9   2   16.08    3.95
   5   9   2   15.84    5.39
  -5   9  -3    0.80    2.29
   5   9  -3    1.08    2.95
  -5  -9  -3    4.83    3.38
  -5  -9   3    4.84    1.61
  -5   9   3    6.67    2.46
   5   9   3    9.49    4.67
  -5   9  -4   46.47    6.78
   5   9  -4   48.36    8.72
  -5  -9  -4   46.72    7.21
  -5  -9   4   43.72    5.21
  -5   9  -5   50.33    7.14
   5   9  -5   55.63    9.29
  -5  -9  -5   57.14    8.52
  -5  -9  -6  141.35   13.16
  -5   9  -6  135.92   11.84
   5   9  -6  154.38   15.46
  -5   9  -7    3.18    2.44
   5   9  -7    7.16    4.33
  -5  -9  -7   -2.69    3.91
  -5   9  -8   21.71    5.60
   5   9  -8   19.67    6.18
  -5  -9  -8   22.55    5.92
   5   9  -9   31.19    7.61
  -5   9  -9   29.68    6.15
  -5  -9  -9   34.32    7.52
   5   9 -10   15.40    5.55
  -5  -9 -10   17.29    5.84
   5   9 -11   32.75    7.66
  -5  -9 -11   34.97    7.84
   5   9 -12   97.70   12.76
  -5  -9 -12   85.29   11.98
   5   9 -13   -2.40    4.15
  -5  -9 -13    0.43    3.18
  -5  -9 -14    0.28    3.29
   5   9 -14   -0.72    4.22
  -5  -9 -15   39.37    8.80
   5   9 -15   36.22    8.48
  -5  -9 -16   37.33    8.36
   5   9 -16   41.12    8.83
  -5  -9 -17   10.82    5.34
   5   9 -17    5.97    4.45
   5   9 -18   -5.29    4.44
  -5  -9 -18    0.92    3.40
   5   9 -19    6.01    4.63
  -5  -9 -19    3.11    3.71
   5   9 -20   19.42    6.81
  -5 -10   0    0.24    3.02
  -5  10   0   -3.79    3.17
   5  10   0   -5.78    4.29
  -5 -10   1   70.37    7.90
  -5 -10  -1   66.80    8.25
   5  10  -1   61.94    9.81
   5  10   1   66.47   10.35
  -5  10  -1   64.76    8.08
  -5  10   1   67.17    7.89
  -5  10   2  199.65   13.32
  -5 -10  -2  188.69   14.27
   5  10   2  176.29   16.76
  -5  10  -2  193.63   14.00
   5  10  -2  197.58   17.70
  -5  10   3  166.18   12.14
   5  10   3  153.00   15.79
  -5 -10  -3  167.95   13.71
  -5  10  -3  145.46   12.39
   5  10  -3  140.45   14.95
  -5 -10  -4  361.71   20.62
  -5  10  -4  362.98   19.76
   5  10  -4  343.06   23.57
  -5 -10  -5  302.05   19.50
  -5  10  -5  271.12   17.63
   5  10  -5  309.83   22.48
  -5 -10  -6  213.34   16.76
  -5  10  -6  205.27   15.66
   5  10  -6  234.14   19.67
  -5  10  -7    6.16    3.67
  -5 -10  -7    5.62    3.29
   5  10  -7    5.15    4.51
  -5 -10  -8   11.45    4.08
  -5  10  -8   23.25    5.79
   5  10  -8   13.36    4.38
  -5 -10  -9   -0.18    3.69
  -5  10  -9    1.93    2.33
   5  10  -9    1.52    3.36
  -5 -10 -10    2.18    2.93
  -5  10 -10    7.50    3.45
   5  10 -10   10.99    5.69
  -5  10 -11   44.02    8.46
  -5 -10 -11   55.20    9.95
   5  10 -11   50.92    9.45
  -5 -10 -12   16.25    5.87
   5  10 -12   27.05    7.39
  -5  10 -12   28.88    6.90
  -5 -10 -13   69.76   11.12
   5  10 -13   77.86   12.25
  -5 -10 -14   -7.78    4.25
   5  10 -14   -2.03    3.49
  -5 -10 -15    0.48    4.74
   5  10 -15    1.58    3.62
   5  10 -16   77.42   12.37
  -5 -10 -16   67.33   12.33
   5  10 -17    3.33    3.09
  -5 -10 -17    0.33    4.03
   5  10 -18   -1.35    4.97
  -5  11   0   -0.23    2.27
   5  11   0    1.65    2.87
  -5  11  -1   -1.16    1.84
   5  11  -1   -0.97    3.62
   5  11   1    0.85    3.31
   5  11   2  115.81   14.34
  -5 -11  -2   94.63   10.39
  -5  11  -2   99.43   10.56
   5  11  -2  101.67   13.49
  -5 -11  -3   17.53    4.78
  -5  11  -3   20.66    5.21
   5  11  -3   21.58    6.52
   5  11   3   23.25    7.28
  -5 -11  -4    2.22    2.94
  -5  11  -4    1.85    1.96
   5  11  -4    2.35    3.70
  -5  11  -5    8.54    4.45
  -5 -11  -5   -2.62    4.25
   5  11  -5    9.15    4.75
  -5  11  -6    3.95    2.80
  -5 -11  -6   -1.91    3.88
   5  11  -6    3.49    4.31
  -5  11  -7   53.78    8.47
  -5 -11  -7   49.20    8.49
   5  11  -7   47.17    9.66
  -5  11  -8   16.73    5.21
  -5 -11  -8   22.03    5.99
   5  11  -8   16.83    5.75
  -5  11  -9   63.53    9.90
  -5 -11  -9   60.22    9.78
   5  11  -9   58.58   10.59
  -5  11 -10   51.84    9.03
  -5 -11 -10   52.47    9.72
   5  11 -10   55.43   10.53
  -5  11 -11   51.45    9.37
  -5 -11 -11   45.87    8.42
   5  11 -11   48.75   10.28
  -5  11 -12   57.51    9.96
   5  11 -12   49.90   10.35
  -5 -11 -12   43.89    8.74
  -5  11 -13    4.07    3.57
   5  11 -13    0.41    2.58
  -5 -11 -13    2.59    3.25
  -5  11 -14   -0.42    2.89
   5  11 -14   -1.82    3.27
  -5 -11 -14   -3.15    4.30
   5  11 -15    1.49    3.02
  -5 -11 -15    2.44    3.26
  -5  11 -15    9.90    5.36
   5  12   0    3.44    3.45
   5  12  -1   41.84    9.41
   5  12   1   43.83    9.28
   5  12  -2   24.91    7.12
   5  12   2   23.79    7.70
   5  12  -3   -0.06    3.54
   5  12  -4   11.67    5.09
   5  12  -5   41.16    9.19
  -5 -12  -5   43.91    7.98
  -5  12  -6    7.27    3.29
   5  12  -6   10.98    4.86
  -5 -12  -6   14.44    5.02
  -5  12  -7    0.76    2.44
   5  12  -7   -5.14    5.00
  -5 -12  -7    1.89    2.97
  -5  12  -8   29.11    6.45
   5  12  -8   27.59    8.20
  -5 -12  -8   39.79    8.17
  -5  12  -9    6.44    4.47
   5  12  -9    6.07    5.82
  -5 -12  -9   -7.83    4.34
  -5  12 -10   27.95    7.01
   5  12 -10   29.20    8.84
  -5 -12 -10   32.86    7.60
  -5  12 -11    5.01    3.50
   5  12 -11    3.78    5.39
  -5 -12 -11    3.26    3.06
  -5  12 -12   63.27   10.74
  -5 -12 -12   71.01   11.71
  -5  12 -13   40.02    9.08
  -5 -12 -13   37.35    8.59
  -5  12 -14    0.73    2.97
  -5 -12 -14    3.98    3.96
  -5  12 -15    2.18    3.14
  -5  12 -16    7.95    5.15
   5  13   0    0.57    3.29
   5  13  -1   25.30    7.84
   5  13   1   20.39    6.72
   5  13  -2   12.01    6.18
   5  13   2   12.35    5.35
   5  13  -3   17.02    6.54
   5  13  -4   10.49    5.53
   5  13  -5   -2.53    4.04
  -5 -13  -9   52.24   10.47
  -5 -13 -10    6.26    5.29
  -5 -13 -11    5.92    4.44
  -5 -13 -12   15.47    6.23
   6   0   0 5356.32   64.14
  -6   0   0 5254.90   41.46
   6   0   1   30.56    7.77
   6   0  -1   29.39    6.43
  -6   0  -1    7.46    2.67
   6   0  -2  198.36   12.13
   6   0   2  205.00   13.48
  -6   0  -2  192.65    9.17
   6   0  -3    6.90    3.99
  -6   0  -3    5.36    2.22
   6   0  -4 1045.74   26.35
  -6   0  -4 1003.67   22.98
   6   0   4 1007.00   30.37
  -6   0   5   -0.72    1.23
   6   0  -5   -0.25    0.62
   6   0   6  286.87   16.99
  -6   0   6  264.35   12.65
   6   0  -6  274.16    8.47
   6   0  -7    4.93    1.97
  -6   0   7   10.55    3.51
  -6   0   8 1939.23   32.46
   6   0   8 1954.59   45.65
   6   0  -8 1902.19   25.07
   6   0  -9    0.61    1.35
  -6   0   9    4.93    2.91
   6   0  10 2200.97   50.28
  -6   0  10 2102.76   32.18
   6   0 -10 2125.36   30.16
  -6   0  11    8.75    3.03
   6   0 -11    8.49    3.26
   6   0  12   67.83   10.25
   6   0  13   46.17   10.42
   6   0  14  991.17   36.20
   6   0  15   28.72    8.55
   6   0  16   19.61    5.99
   6   0  17    0.72    3.40
   6   0  18   67.71   10.56
   6   0  19    1.05    4.00
   6   0  20   -2.19    3.77
   6   0  21    0.87    3.01
   6   0  22  122.87   14.98
   6   0  23   -6.17    4.56
   6   0  24   51.63    9.99
   6   0  25    5.47    6.15
   6   0  26  149.90   17.54
   6   1   0   39.46    5.73
   6  -1   0   43.89    6.06
  -6  -1   0   35.55    4.11
  -6   1   0   31.75    2.69
   6   1  -1   45.54    5.86
   6   1   1   47.68    6.54
   6  -1  -1   50.49    6.04
   6  -1   1   48.52    6.47
  -6  -1   1   49.96    4.56
  -6  -1  -1   51.88    5.04
  -6   1  -1   51.83    3.87
   6   1  -2   -2.19    3.38
   6   1   2   -5.71    4.01
   6  -1  -2   -1.83    2.37
   6  -1   2   -3.41    3.45
  -6  -1  -2   -0.24    1.54
  -6   1  -2   -0.58    1.03
   6  -1  -3    5.62    2.32
   6   1   3    1.08    3.13
   6  -1   3    6.78    3.46
  -6  -1  -3    5.94    2.39
  -6  -1  -4  325.61   14.02
   6   1  -4  305.13   10.92
   6   1   4  329.20   17.45
   6  -1  -4  320.43   14.21
   6  -1   4  316.33   17.10
  -6   1   4  314.26   13.91
   6  -1  -5    2.50    1.72
   6   1   5    4.33    3.13
   6  -1   5    3.08    3.09
   6   1  -5    3.22    1.41
  -6   1   5    5.37    2.65
  -6  -1  -5    1.06    1.86
   6  -1  -6  216.06   11.05
   6   1   6  211.36   14.63
   6  -1   6  213.88   14.76
  -6   1   6  209.14   10.72
   6   1  -6  213.10    9.41
  -6   1   7   50.01    5.18
   6   1   7   45.23    7.06
   6  -1   7   38.58    6.83
   6   1  -7   45.21    4.55
   6   1  -8   20.21    3.21
   6   1   8   14.27    4.60
  -6  -1   8   21.70    3.80
   6  -1   8   23.62    5.71
  -6   1   8   22.85    3.49
   6  -1  -8   17.12    1.85
   6  -1  -9   18.12    2.21
   6   1  -9   19.81    3.31
   6   1   9   15.51    4.73
  -6  -1   9   20.98    3.70
   6  -1   9   16.79    4.62
  -6   1   9   16.52    2.85
   6  -1 -10    0.89    0.93
   6   1 -10    0.16    1.59
   6   1  10    2.23    3.08
  -6  -1  10    2.50    1.70
   6  -1  10    0.00    3.26
   6   1 -11    5.50    2.59
   6   1  11    6.75    5.05
  -6  -1  11    1.41    1.48
   6  -1  11   -1.92    3.49
   6   1  12   51.24    9.11
   6  -1  12   55.84    9.41
   6   1 -12   60.11    6.60
   6   1  13  449.62   24.21
   6  -1  13  454.49   24.59
   6   1  14  370.27   22.60
   6  -1  14  375.45   22.61
   6   1  15  119.66   13.51
   6  -1  15  108.88   12.71
   6   1  16    6.25    4.69
   6  -1  16    1.27    3.57
   6   1  17   36.38    7.31
   6  -1  17   38.68    7.53
   6   1  18   15.36    5.60
   6  -1  18   15.72    6.16
   6   1  19  158.53   16.32
   6  -1  19  173.74   17.13
   6   1  20    3.72    4.36
   6  -1  20    7.75    5.22
   6   1  21  121.18   14.45
   6  -1  21  106.31   13.85
   6   1  22    3.40    4.00
   6  -1  22   -4.85    4.70
   6   1  23   -6.36    5.56
   6  -1  23   -6.32    5.25
   6   1  24   -1.21    3.65
   6  -1  24    1.38    2.76
   6   1  25   13.75    6.00
   6  -1  25   13.10    6.20
   6   1  26    6.00    4.62
   6   2   0  282.33   15.69
   6  -2   0  290.09   14.89
  -6  -2   0  288.20   12.72
  -6   2  -1  181.25    6.28
   6   2   1  199.36   13.44
   6  -2  -1  189.75   11.85
   6  -2   1  199.99   12.70
  -6  -2   1  187.71   10.06
  -6  -2  -1  192.59   10.62
   6   2   2   13.68    3.81
  -6  -2  -2   11.45    2.84
   6  -2  -2   10.29    3.06
   6  -2   2   15.44    4.18
  -6  -2   2   12.46    2.60
   6   2  -3  533.69   16.81
   6   2   3  551.84   23.17
   6  -2  -3  558.09   19.02
   6  -2   3  564.00   22.18
  -6  -2  -3  551.49   19.12
   6   2   4 1016.56   31.60
   6  -2  -4  970.57   24.19
   6  -2   4  998.74   30.23
   6   2  -4  980.88   22.68
   6  -2  -5   99.11    7.59
   6  -2   5  100.49   10.65
   6   2   5   88.58    9.38
   6   2  -5   80.43    6.48
   6  -2  -6  458.52   15.52
   6   2   6  476.34   22.38
   6  -2   6  446.20   21.50
   6   2  -6  464.17   15.97
   6  -2  -7  721.25   18.59
   6   2   7  702.97   27.82
   6  -2   7  728.55   27.90
   6   2  -7  716.12   20.26
   6  -2   8   75.37   10.05
   6   2   8   66.12    9.05
   6   2  -8   68.61    6.60
   6   2  -9    5.38    2.26
   6   2   9    4.66    3.42
   6   2  10  140.44   13.66
   6  -2 -10  121.33    5.19
   6   2 -10  129.21    9.46
   6   2  11  854.49   32.24
   6  -2  11  839.19   32.31
   6   2 -11  830.07   24.24
   6   2  12   94.46   11.48
   6  -2  12  104.32   12.48
   6   2 -12  101.42    9.02
   6   2  13  541.00   26.41
   6  -2  13  573.08   27.41
   6   2 -13  543.79   20.82
   6   2  14   29.46    7.67
   6  -2  14   32.89    7.71
   6   2  15   15.82    5.71
   6  -2  15    4.75    3.05
   6   2  16   47.92    8.58
   6  -2  16   50.68    9.46
   6   2  17   58.87    9.74
   6  -2  17   74.20   11.23
   6  -2  18   88.70   12.21
   6   2  18   99.63   12.56
   6   2  19   81.68   11.93
   6  -2  19   71.35   11.01
   6   2  20    1.23    3.46
   6  -2  20    0.18    3.29
   6  -2  21   93.89   12.96
   6   2  21   73.75   11.41
   6   2  22   34.07    8.02
   6  -2  22   34.62    8.25
   6   2  23    4.83    4.60
   6  -2  23    1.39    3.83
   6   2  24    1.14    2.64
   6  -2  24   -4.52    4.00
   6   2  25   68.96   11.96
   6  -2  25   66.63   12.00
   6   2  26    3.21    3.94
   6  -3   0   -3.47    3.34
   6  -3  -1   32.21    4.89
   6  -3   1   39.37    5.86
  -6  -3   2   13.22    3.20
   6  -3  -2   10.38    2.80
   6  -3   2   14.17    3.90
   6   3  -2    7.76    1.92
   6   3   3   -4.95    4.09
   6  -3  -3    3.16    2.07
   6  -3   3    1.94    2.89
   6   3  -3    0.29    1.76
   6   3   4  674.05   26.23
   6  -3  -4  636.71   19.73
   6  -3   4  670.74   25.10
   6   3  -4  632.64   20.55
   6  -3  -5   65.86    6.29
   6  -3   5   90.45   10.25
   6   3   5   70.29    9.03
   6   3  -5   66.97    6.73
   6   3   6    1.74    3.31
   6  -3  -6    6.98    2.14
   6   3  -6    9.69    3.45
   6  -3   6    7.63    4.71
   6   3   7  252.56   16.89
   6  -3  -7  234.79   10.51
   6  -3   7  255.46   16.80
   6   3  -7  232.97   12.78
   6  -3  -8  154.08    7.84
   6   3   8  133.59   12.65
   6  -3   8  154.54   13.47
   6   3  -8  161.11   10.74
   6   3  -9   -1.35    2.05
   6   3   9   -2.87    4.04
   6  -3   9    4.17    4.38
   6   3  10  131.46   12.68
   6  -3  10  149.14   13.68
   6   3 -10  145.35   10.86
   6   3 -11    4.00    2.95
   6   3  11   -0.18    4.36
   6  -3  11    6.53    5.32
   6   3  12  222.58   16.86
   6  -3  12  234.45   17.51
   6   3 -12  231.15   14.36
   6   3 -13   22.26    4.97
   6   3  13   18.95    5.64
   6  -3  13   20.57    6.33
   6   3 -14   32.66    6.09
   6   3  14   38.89    7.72
   6  -3  14   30.55    7.34
   6   3  15   19.65    6.28
   6  -3  15   19.72    6.52
   6   3 -15   25.13    5.62
   6   3  16  275.49   20.09
   6  -3  16  242.14   19.74
   6   3  17    9.76    5.01
   6  -3  17   17.66    6.81
   6   3  18  177.05   16.67
   6  -3  18  155.02   16.09
   6   3  19  115.95   13.97
   6  -3  19  126.39   14.86
   6   3  20   15.71    6.09
   6  -3  20   32.81    8.46
   6   3  21    1.96    2.98
   6  -3  21    1.30    3.45
   6   3  22   49.85    9.71
   6  -3  22   47.62   10.22
   6   3  23    1.89    3.48
   6  -3  23   10.55    4.59
   6   3  24   11.99    5.51
   6  -3  24    6.88    4.70
   6   3  25   -4.16    4.74
   6   3  26  -11.74    6.64
   6  -4   0  122.52   10.08
   6   4  -1  136.20   10.38
   6  -4  -1  129.89   10.09
   6  -4   1  140.44   11.00
  -6   4  -1  128.57    5.35
   6  -4  -2    8.90    3.33
   6  -4   2    7.90    3.78
   6   4  -2    6.02    2.84
   6  -4  -3   90.18    7.94
   6  -4   3  105.24   10.06
   6   4  -3   99.27    8.92
   6  -4  -4   26.48    4.29
   6   4  -4   24.86    4.68
   6  -4   4   24.17    5.56
   6  -4  -5   13.01    2.81
   6   4  -5   15.56    3.71
   6  -4   5   14.66    4.05
   6   4   6    3.67    3.27
   6  -4  -6    5.07    2.00
   6   4  -6   10.01    3.42
   6  -4   6    7.97    3.51
   6   4   7  322.97   19.93
   6  -4  -7  309.78   12.08
   6  -4   7  311.19   19.00
   6   4  -7  321.86   16.59
   6   4   8  688.82   29.12
   6  -4  -8  669.74   16.27
   6  -4   8  672.72   28.13
   6   4  -8  666.77   23.78
   6   4   9  138.69   13.33
   6  -4  -9  133.40    6.55
   6  -4   9  165.42   14.65
   6   4  -9  141.41   11.34
   6   4  10  259.99   18.21
   6  -4  10  274.61   18.90
   6   4 -10  255.73   15.42
   6   4 -11   12.53    3.90
   6   4  11    9.59    3.07
   6  -4  11   13.91    5.18
   6   4 -12   22.95    5.07
   6  -4  12   17.32    5.33
   6   4 -13   33.04    6.05
   6   4  13   25.16    6.18
   6  -4  13   30.99    7.21
   6   4 -14   48.99    7.53
   6   4  14   40.04    8.34
   6  -4  14   41.50    8.21
   6   4  15  188.12   16.99
   6  -4  15  185.28   16.86
   6   4 -15  194.37   14.86
   6   4 -16   44.77    7.50
   6   4  16   57.81    9.40
   6  -4  16   60.75   10.79
   6   4  17   77.98   11.26
   6  -4  17   69.10   11.54
   6   4 -17   78.94   10.07
   6   4  18  135.28   15.27
   6  -4  18  116.33   14.41
   6   4  19   27.60    7.96
   6  -4  19   24.31    7.11
   6   4  20   -5.67    4.41
   6  -4  20    0.76    3.63
   6   4  21   34.71    8.18
   6  -4  21   33.42    8.82
   6   4  22   60.36   10.58
   6  -4  22   59.46   11.23
   6   4  23   36.19    8.59
   6  -4  23   40.35    9.55
  -6  -4 -23   27.68    8.19
   6   4  24    1.29    3.27
   6   4  25   39.22    9.58
  -6   5   0    5.41    1.25
   6   5   0    7.47    3.62
   6   5  -1  238.10   15.04
   6  -5  -1  235.15   14.06
   6  -5   1  249.37   15.17
  -6   5  -1  225.31    8.15
   6  -5  -2   47.19    6.27
   6  -5   2   42.03    7.03
   6   5  -2   34.58    5.70
  -6   5  -2   42.80    4.01
   6  -5  -3   -0.06    1.78
   6   5  -3   -1.91    3.45
   6  -5   3   -0.06    2.92
   6   5  -4    5.03    3.21
   6  -5  -4    0.57    2.17
   6  -5   4    4.85    4.21
   6  -5  -5  225.14   11.91
   6  -5   5  222.37   15.77
   6   5  -5  227.75   14.76
   6  -5  -6  117.64    8.10
   6  -5   6  125.61   12.47
   6   5  -6  122.40   11.10
   6  -5  -7  161.02    9.04
   6  -5   7  175.37   14.64
   6   5  -7  163.41   12.54
   6   5  -8   14.68    4.08
   6  -5  -8   14.80    2.53
   6  -5  -9  150.58    7.17
   6  -5   9  146.64   14.19
   6   5  -9  138.78   11.89
   6   5 -10   12.44    3.86
   6  -5  10   13.48    5.53
   6   5  11    7.66    3.49
   6   5 -11   12.03    3.67
   6  -5  11   14.42    5.61
   6   5  12   30.01    6.87
   6   5 -12   24.76    5.25
   6  -5  12   29.50    7.24
   6   5  13  160.13   15.16
   6  -5  13  161.88   16.00
   6   5 -13  165.46   13.87
   6   5 -14   45.11    7.74
   6   5  14   33.07    7.10
   6  -5  14   41.04    8.60
   6   5 -15   18.86    5.22
   6   5  15   14.02    4.94
   6  -5  15   30.08    8.37
   6   5 -16    7.07    3.69
   6   5  16    6.34    3.67
   6  -5  16   11.83    5.03
   6   5 -17    0.74    2.58
   6   5  17    7.56    4.68
   6  -5  17    6.39    5.09
   6   5  18  119.17   14.39
   6  -5  18  129.33   15.51
   6   5 -18  122.62   13.19
   6   5  19   32.88    8.06
   6  -5  19   40.88    9.30
   6   5 -19   30.18    6.87
   6   5  20    0.82    3.20
   6  -5  20   -1.06    3.90
   6   5 -20    2.99    3.52
   6   5  21   45.81    9.80
   6  -5  21   27.23    8.44
  -6  -5 -21   29.11    6.99
   6   5  22    2.56    3.34
   6  -5  22   -3.47    4.75
  -6  -5 -22    2.48    4.37
   6   5  23   10.71    5.44
   6   5  24   49.40   10.39
   6   5  25   14.07    6.27
  -6   6   0    1.31    1.34
   6   6   0    4.70    3.51
  -6   6   1  151.67    6.43
   6   6  -1  150.06   12.58
   6   6   1  152.94   12.74
  -6   6  -1  163.12    8.11
  -6   6  -2   16.62    3.02
   6  -6  -2   17.20    4.79
   6   6  -2   16.51    3.87
  -6   6  -3   17.32    3.48
   6   6  -3   22.67    5.68
   6  -6  -3   23.43    5.37
   6  -6  -4  757.41   23.68
   6   6  -4  788.71   28.83
   6  -6  -5   98.51    8.39
   6   6  -5   90.93   10.03
   6   6  -6   25.73    5.30
   6  -6  -6   37.20    5.04
   6  -6  -7  214.63   10.88
   6   6  -7  222.04   15.52
   6   6  -8   10.80    4.42
   6  -6  -8   18.30    3.09
   6   6  -9   11.34    3.71
   6   6 -10   62.56    9.24
   6   6 -11  259.51   17.65
   6   6 -12   95.96   10.93
   6   6 -13   27.54    6.44
   6   6 -14  328.30   21.15
   6  -6  15  111.54   14.47
   6   6 -15  110.98   12.58
   6   6 -16   29.96    6.69
   6  -6  16   29.58    8.01
   6   6 -17   14.35    4.79
   6  -6  17   21.65    6.69
   6   6 -18   73.60   10.71
   6  -6  18   86.59   13.14
   6   6 -19   23.21    6.73
   6  -6  19   20.79    7.98
  -6  -6 -19   13.27    4.96
   6   6 -20   15.12    5.51
   6  -6  20    9.43    4.90
  -6  -6 -20    9.32    4.91
   6   6 -21   19.29    6.49
   6  -6  21   22.79    7.38
  -6  -6 -21   18.69    6.42
   6   6 -22   48.20    9.78
   6   6 -23   16.80    5.69
   6   6 -24   43.00    9.35
   6   7   0  185.44   15.06
  -6   7   0  189.42    9.21
  -6   7   1  105.48    6.53
   6   7  -1  105.01   11.47
   6   7   1   98.99   11.19
  -6   7  -1  106.66    7.38
   6   7  -2  272.70   18.06
  -6   7  -2  258.84   12.05
  -6   7  -3  122.30    8.69
   6   7  -3  134.53   12.81
  -6   7  -4    1.86    1.55
   6   7  -4    0.38    2.49
  -6   7  -5   31.06    4.76
   6   7  -5   27.72    5.92
   6   7  -6    2.76    3.21
   6  -7  -6    2.30    2.61
   6   7  -7   -0.23    2.20
   6  -7  -7    4.48    2.53
   6   7  -8   -2.50    3.16
   6   7  -9    4.22    2.80
   6   7 -10   45.34    7.76
   6   7 -11    1.17    2.17
   6   7 -12   15.30    4.43
   6   7 -13    7.20    3.92
   6   7 -14   41.59    7.85
   6   7 -15   12.92    4.73
   6   7 -16   10.02    4.87
  -6  -7 -16    4.35    3.45
   6   7 -17   18.96    6.08
  -6  -7 -17   11.37    4.87
   6   7 -18   28.44    7.31
  -6  -7 -18   31.38    8.29
   6   7 -19    2.90    3.32
   6  -7  19    5.18    6.93
  -6  -7 -19   -1.14    4.74
   6   7 -20    3.67    3.61
  -6  -7 -20    5.16    3.68
   6   7 -21   -4.44    4.25
   6   7 -22   10.38    4.74
   6   7 -23   -2.03    3.83
  -6   8   0    9.01    2.18
   6   8   0    3.37    2.82
  -6   8  -1   11.48    2.97
   6   8  -1    6.15    2.52
   6   8   1   12.46    4.67
   6   8  -2   40.44    7.60
  -6   8  -2   42.10    5.38
  -6   8  -3  200.84   12.15
   6   8  -3  210.61   17.16
   6   8  -4   73.06   10.24
  -6   8  -4   68.10    7.34
  -6   8  -5  204.02   13.13
   6   8  -5  184.91   15.89
  -6   8  -6   -0.94    1.90
   6   8  -6    3.41    4.09
  -6   8  -7  401.33   19.59
   6   8  -7  412.26   23.82
   6   8  -8    2.82    3.31
   6   8  -9   15.94    4.81
   6   8 -10   25.41    6.67
   6   8 -11  199.11   17.50
   6   8 -12    7.95    4.80
   6   8 -13    6.36    4.09
  -6  -8 -13    5.66    4.91
   6   8 -14   23.72    7.20
  -6  -8 -14   20.00    6.86
  -6  -8 -15  320.58   24.34
   6   8 -15  319.38   22.94
   6   8 -16    4.81    3.40
  -6  -8 -16    4.17    4.88
  -6  -8 -17  128.19   15.91
   6   8 -17  120.52   14.71
   6   8 -18    5.14    4.10
  -6  -8 -18    1.88    4.86
   6   8 -19   59.26   10.94
   6   8 -20   16.75    6.21
   6   8 -21  104.63   14.55
   6   9   0   81.33   11.30
   6   9  -1    4.30    3.46
   6   9   1    7.42    4.20
   6   9  -2    0.32    3.55
   6   9   2   -1.40    4.19
  -6   9  -3    5.59    1.92
   6   9  -3    6.26    4.45
  -6   9  -4    5.81    2.74
   6   9  -4    7.18    4.26
  -6   9  -5  167.30   12.48
   6   9  -5  157.98   15.81
  -6   9  -6   38.09    6.24
   6   9  -6   50.31    9.38
  -6   9  -7    1.59    2.23
   6   9  -7   -0.65    2.57
  -6  -9  -7    2.94    4.44
  -6   9  -8   27.43    5.60
   6   9  -8   24.88    6.56
  -6  -9  -8   25.04    6.97
  -6   9  -9    5.93    2.83
   6   9  -9   13.25    5.06
  -6  -9  -9   12.92    4.48
   6   9 -10   11.20    4.61
  -6  -9 -10    8.16    3.65
   6   9 -11   16.19    5.49
  -6  -9 -11    1.89    3.18
   6   9 -12   11.62    4.49
  -6  -9 -12    8.08    3.34
   6   9 -13   13.00    5.67
  -6  -9 -13   14.46    5.92
   6   9 -14   28.39    7.52
  -6  -9 -14   27.27    7.63
   6   9 -15    2.55    2.99
  -6  -9 -15   -2.31    4.49
   6   9 -16    3.91    3.94
  -6  -9 -16   10.97    5.62
   6   9 -17    2.16    2.48
  -6  -9 -17    1.58    3.61
   6   9 -18   -1.33    3.36
   6   9 -19   -4.59    3.72
   6  10   0  107.00   13.46
  -6 -10   0  108.55   10.59
  -6 -10  -1   13.55    3.47
   6  10  -1    7.45    3.55
   6  10   1   19.53    6.42
   6  10  -2    4.69    5.17
  -6 -10  -2   -2.65    2.93
   6  10   2   -0.94    3.66
   6  10  -3   35.73    8.20
  -6 -10  -3   40.52    6.96
  -6 -10  -4  153.27   13.95
   6  10  -4  168.97   16.95
   6  10  -5    5.61    3.53
  -6 -10  -5    1.46    3.24
   6  10  -6   36.08    8.21
  -6 -10  -6   37.62    7.42
   6  10  -7   13.80    5.54
  -6 -10  -7    9.06    4.39
  -6 -10  -8  132.35   14.52
  -6  10  -8  138.09   13.05
   6  10  -8  136.63   15.52
  -6  10  -9    2.80    3.20
   6  10  -9    0.67    3.68
  -6 -10  -9   -0.56    3.75
  -6  10 -10   57.46    8.93
   6  10 -10   51.94    9.87
  -6 -10 -10   54.29    9.65
  -6 -10 -11   96.17   13.16
   6  10 -11   71.23   11.76
  -6  10 -11   93.19   11.79
   6  10 -12   68.50   11.70
  -6  10 -12   81.35   11.23
  -6 -10 -12   84.60   12.51
  -6 -10 -13    3.31    3.96
   6  10 -13    3.76    4.83
  -6 -10 -14  112.41   14.85
   6  10 -14  101.93   14.28
  -6 -10 -15   42.68   10.11
   6  10 -15   38.73    9.10
  -6 -10 -16    6.38    5.09
   6  10 -16    9.13    5.23
   6  10 -17    4.74    4.61
   6  11   0    9.28    5.09
   6  11  -1   28.18    7.11
   6  11   1   15.77    5.40
   6  11  -2   30.91    7.88
   6  11  -3   51.98    9.99
  -6 -11  -4   -1.30    2.93
   6  11  -4   -0.78    3.47
  -6 -11  -5   -2.22    2.55
   6  11  -5   -2.40    3.23
  -6 -11  -6    7.01    3.86
   6  11  -6    2.31    2.31
  -6 -11  -7    2.67    2.89
   6  11  -7    7.14    5.19
  -6 -11  -8    3.44    2.71
   6  11  -8    4.51    4.32
  -6 -11  -9   12.82    4.43
   6  11  -9   14.02    5.27
  -6 -11 -10    4.15    3.47
   6  11 -10    5.44    3.82
  -6 -11 -11   -5.13    3.72
   6  11 -11   -0.47    3.58
  -6 -11 -12   25.94    7.27
   6  11 -12   34.30    8.95
  -6 -11 -13   22.85    7.15
   6  11 -13   23.07    7.58
  -6 -11 -14    2.62    3.14
   6  11 -14    0.56    3.36
   6  12   0   29.76    7.61
   6  12  -1   35.13    8.65
   6  12   1   30.11    7.97
   6  12  -2   51.15   10.58
   6  12  -3   42.99    9.50
   6  12  -4   23.94    7.37
   6  12  -5   15.04    6.36
   6  12  -6    2.29    3.23
  -6 -12  -7    2.26    2.76
   6  12  -7    2.65    3.16
  -6 -12  -8    1.17    2.86
   6  12  -8   10.23    5.20
  -6 -12  -9   16.72    5.75
   6  12  -9   26.81    8.45
  -6 -12 -10    7.89    4.57
  -6 -12 -11   89.50   13.44
  -6 -12 -12   -5.21    5.22
  -7   0   0    1.97    1.28
   7   0   0   -2.86    3.09
  -7   0  -1    0.13    0.88
   7   0  -1    0.10    2.14
   7   0   1    3.67    2.59
   7   0  -2  959.82   28.78
   7   0   2  979.24   31.06
  -7   0  -2  924.25   20.83
   7   0  -3   -3.76    3.33
   7   0   3   -2.02    3.06
  -7   0  -3   -0.48    1.65
   7   0  -4  565.29   21.61
   7   0   4  600.70   25.47
  -7   0  -4  571.82   18.27
   7   0   5    5.50    4.44
  -7   0  -5    1.62    2.10
   7   0   6  153.60   13.61
   7   0   7   -1.50    3.78
   7   0   8  556.71   26.37
   7   0  -8  522.96   12.23
   7   0   9    9.88    6.71
   7   0  -9    0.66    1.09
   7   0  10   75.88   10.46
   7   0 -10   68.28    5.12
   7   0 -11   -0.22    1.23
   7   0  11    5.67    4.11
   7   0  12  126.65   13.80
   7   0 -12  132.98    8.06
   7   0  13   34.07    9.81
   7   0  14  838.13   35.32
   7   0  15   24.23    8.62
   7   0  16  562.01   30.05
   7   0  17   14.82    7.51
   7   0  18   75.42   11.87
   7   0  19    5.74    5.36
   7   0  20  105.06   14.24
   7   0  21    6.26    4.41
   7   0  22   61.54   11.27
   7   0  23   -0.59    4.14
  -7   1   0    0.60    0.78
  -7  -1   0   -1.79    1.47
   7   1   0   -1.29    3.06
   7  -1   0    2.21    2.75
   7   1  -1  257.49   15.97
   7   1   1  270.63   16.53
   7  -1  -1  272.70   15.34
   7  -1   1  257.98   15.96
  -7  -1   1  244.64   10.72
  -7  -1  -1  252.70   11.56
  -7   1  -1  251.72    8.70
   7   1  -2  466.14   20.66
   7   1   2  451.72   21.63
   7  -1  -2  427.88   19.25
   7  -1   2  451.94   21.13
  -7  -1  -2  442.76   15.91
  -7   1  -2  446.51   12.93
   7  -1  -3  150.74   11.27
   7   1   3  178.04   13.75
   7  -1   3  170.46   13.14
  -7  -1  -3  152.07    9.71
  -7   1  -3  151.14    8.24
  -7   1  -4  103.06    7.27
   7  -1  -4  101.95    8.94
   7   1   4   97.69   10.48
   7  -1   4  113.85   10.90
   7  -1  -5    3.28    2.67
   7   1   5    3.20    3.80
   7  -1   5    9.28    4.08
   7   1  -6  386.91   12.64
   7   1   6  380.49   20.94
   7  -1   6  396.92   21.39
   7   1   7    9.13    3.37
   7   1  -7   10.21    1.97
   7   1   8  313.68   19.70
   7  -1   8  341.18   20.60
   7   1  -8  307.39   11.92
   7   1   9  271.96   18.64
   7  -1   9  252.95   18.43
   7   1  -9  253.25   11.28
   7   1 -10   27.45    3.95
   7   1  10   28.75    6.88
   7  -1  10   27.38    7.05
   7   1  11  277.93   19.78
   7  -1  11  303.73   20.55
   7   1 -11  272.26   12.56
   7   1  12  462.67   25.93
   7  -1  12  499.26   26.93
   7   1 -12  488.46   17.23
   7   1 -13   14.83    3.61
   7  -1  13   10.80    6.00
   7   1  14  101.32   12.81
   7  -1  14   85.66   11.62
   7   1 -14   99.66    8.51
   7   1  15    1.73    4.62
   7  -1  15   -5.57    4.98
   7   1  16   -5.45    4.65
   7  -1  16    5.66    3.93
   7   1  17   12.72    5.76
   7  -1  17   13.76    5.91
   7   1  18    7.62    4.62
   7  -1  18    3.65    3.70
   7   1  19    5.85    4.00
   7  -1  19    2.56    4.15
   7   1  20    1.66    3.00
   7  -1  20    3.73    3.62
   7   1  21   -0.93    3.16
   7  -1  21    0.26    2.85
   7   1  22    4.17    4.17
   7  -1  22   -7.59    6.01
   7   1  23   -1.00    3.20
   7  -1  23    0.89    3.30
  -7  -2   0   -1.09    2.25
   7  -2   0   -1.86    3.09
   7   2   1  467.50   22.02
   7  -2  -1  448.71   19.81
   7  -2   1  456.98   21.05
  -7  -2   1  437.99   16.08
  -7  -2  -1  452.72   17.01
  -7   2  -1  408.62    9.05
   7   2   2  105.87   10.90
   7  -2  -2  104.03    9.39
   7  -2   2  113.63   11.14
  -7   2  -2   96.71    5.46
  -7   2  -3   79.67    5.46
   7   2   3   96.80   10.48
   7  -2  -3   81.93    8.10
   7  -2   3   82.61    9.33
   7   2   4    4.76    4.37
   7  -2  -4    9.43    3.51
   7  -2   4   10.10    5.87
   7   2  -4    4.18    2.34
   7   2  -5 1170.07   25.66
   7   2   5 1196.50   37.27
   7  -2  -5 1161.72   28.70
   7  -2   5 1210.76   36.49
   7  -2  -6   37.48    5.15
   7   2   6   42.38    8.07
   7  -2   6   40.33    7.55
   7   2  -6   47.87    5.62
   7  -2  -7  221.50   11.72
   7   2   7  216.03   16.52
   7  -2   7  218.93   16.19
   7   2  -7  214.16   11.11
   7   2   8   41.20    7.46
   7   2  -8   37.76    4.75
   7  -2   8   44.77    8.15
   7   2   9   -0.69    4.08
   7   2  -9    3.48    1.63
   7  -2   9    0.78    2.97
   7   2  10  321.33   20.64
   7  -2  10  311.99   20.50
   7   2 -10  304.20   14.27
   7   2  11  104.40   12.19
   7  -2  11   95.49   11.92
   7   2 -11   81.94    7.73
   7   2 -12   23.70    4.44
   7   2  12   24.42    6.58
   7  -2  12   30.37    7.67
   7   2  13  235.49   18.91
   7  -2  13  231.75   18.39
   7   2 -13  217.73   13.15
   7   2 -14    6.53    3.28
   7   2  14    4.61    4.77
   7  -2  14    4.11    4.13
   7   2  15   52.30    9.90
   7  -2  15   52.61    9.52
   7   2 -15   67.07    7.94
   7   2  16  124.41   14.60
   7  -2  16  130.16   14.91
   7   2  17   44.16    9.01
   7  -2  17   44.71    9.35
   7   2  18    2.43    4.18
   7  -2  18    9.09    5.58
   7   2  19  219.12   20.28
   7  -2  19  229.15   21.04
   7   2  20  179.72   18.55
   7  -2  20  149.91   17.17
   7   2  21   19.10    7.49
   7  -2  21    8.19    5.76
   7   2  22    2.97    4.56
   7  -2  22    0.10    3.51
   7   2  23  113.18   15.61
   7  -3   0   -3.51    3.75
   7  -3  -1   51.19    6.95
   7  -3   1   44.62    6.69
  -7   3  -2   21.28    2.39
   7  -3  -2   25.45    4.86
   7  -3   2   21.60    4.95
   7   3   3   10.06    3.24
   7  -3  -3   11.20    3.02
   7  -3   3   13.57    3.94
   7   3  -3    6.44    2.13
   7   3  -4   54.36    6.33
   7  -3  -4   53.20    6.39
   7   3   4   48.06    7.78
   7  -3   4   52.10    7.90
   7   3  -5  659.42   21.74
   7   3   5  669.56   28.95
   7  -3  -5  641.34   21.04
   7  -3   5  702.18   28.08
   7   3   6   11.57    5.14
   7  -3  -6    8.26    3.27
   7  -3   6   14.06    6.28
   7   3  -6    9.03    3.80
   7   3   7  129.37   13.18
   7  -3  -7  108.33    8.09
   7  -3   7  118.26   12.15
   7   3  -7  103.02    8.74
   7  -3  -8   78.27    6.52
   7   3   8   98.22   11.79
   7  -3   8   83.77   10.76
   7   3  -8   73.42    7.26
   7  -3   9  129.82   13.09
   7   3   9  103.75   11.81
   7   3  -9  130.03   10.12
   7   3  10    0.58    3.72
   7   3 -10    1.41    2.03
   7  -3  10    4.38    4.20
   7   3  11  193.10   16.57
   7  -3  11  221.65   17.82
   7   3 -11  199.93   12.97
   7   3  12  116.69   13.19
   7  -3  12  130.45   14.23
   7   3 -12  115.15   10.10
   7   3 -13   31.38    5.47
   7   3  13   30.05    6.71
   7  -3  13   25.86    6.83
   7   3 -14    5.97    2.40
   7   3  14    2.45    4.05
   7  -3  14    3.48    3.55
   7   3 -15   43.03    6.88
   7   3  15   39.28    8.81
   7  -3  15   43.39    8.57
   7   3 -16    4.39    3.07
   7   3  16    4.45    3.27
   7  -3  16    5.32    4.20
   7   3 -17   15.39    4.42
   7   3  17    7.05    3.11
   7  -3  17   17.79    5.46
   7   3  18   -5.37    4.06
   7  -3  18   -5.35    5.40
   7   3  19    6.05    4.09
   7  -3  19    3.23    4.17
   7   3  20    4.80    4.88
   7  -3  20   -2.40    5.24
   7   3  21    2.32    3.13
   7  -3  21   -3.03    4.24
   7   3  22    0.72    3.40
   7  -3  22   -7.55    6.10
   7   3  23    0.69    3.68
   7  -4   0    1.38    2.87
   7  -4  -1  161.40   12.11
   7  -4   1  167.57   12.86
   7   4  -2  534.98   21.14
   7  -4  -2  522.75   21.14
   7  -4   2  517.98   23.22
   7  -4  -3   12.24    3.84
   7  -4   3   20.70    6.17
   7   4  -3    9.91    3.52
   7   4  -4  644.93   23.39
   7  -4  -4  631.58   21.94
   7  -4   4  663.52   27.19
   7  -4  -5  142.86   10.25
   7  -4   5  151.61   13.85
   7   4  -5  141.55   11.27
   7  -4  -6   75.96    7.00
   7  -4   6   77.24    9.99
   7   4  -6   65.69    7.51
   7   4   7   36.71    7.20
   7  -4  -7   36.94    4.79
   7   4  -7   30.48    4.95
   7  -4   7   38.13    7.33
   7   4   8  157.24   14.86
   7  -4  -8  148.13    8.82
   7  -4   8  146.68   14.19
   7   4  -8  149.01   11.48
   7   4   9  171.95   15.67
   7  -4   9  202.98   16.68
   7   4  -9  194.30   13.33
   7   4  10    0.36    3.99
   7   4 -10    5.40    3.04
   7  -4  10    0.19    3.63
   7   4  11   -1.56    4.47
   7   4 -11    1.42    1.69
   7  -4  11    4.61    4.20
   7   4 -12    4.03    2.61
   7   4  12    4.50    4.77
   7  -4  12    1.07    3.29
   7   4  13  186.54   17.38
   7  -4  13  184.91   17.19
   7   4 -13  179.70   13.70
   7   4 -14    4.49    2.86
   7   4  14   -5.25    4.90
   7  -4  14   10.12    5.83
   7   4 -15   12.96    4.04
   7   4  15    8.82    3.65
   7  -4  15    7.87    3.95
   7   4  16   92.29   13.05
   7  -4  16   94.59   13.10
   7   4 -16   84.48   10.06
   7   4 -17   60.58    8.69
   7   4  17   62.86   10.78
   7  -4  17   74.92   12.23
   7   4  18   75.28   12.03
   7  -4  18   70.35   11.83
   7   4 -18   67.30    9.54
   7   4  19   33.13    8.61
   7  -4  19   33.88    8.41
   7   4  20  108.84   14.84
   7  -4  20   71.23   11.89
   7   4  21    0.00    3.01
   7  -4  21    7.16    5.77
   7   4  22    2.95    2.77
   7  -5   0    4.06    3.43
   7  -5  -1    0.09    2.69
   7  -5   1    7.11    3.40
   7   5  -1   13.81    4.17
  -7   5  -2    9.11    1.64
   7  -5  -2    9.63    3.14
   7  -5   2    7.62    4.17
   7   5  -2   13.73    4.21
   7  -5  -3   46.90    6.41
   7  -5   3   64.67    8.79
  -7   5  -3   50.10    4.42
   7   5  -3   56.47    7.44
   7  -5  -4   20.34    4.03
   7  -5   4   23.32    6.04
   7   5  -4   19.89    4.64
   7  -5  -5    8.63    2.65
   7  -5   5    5.07    3.53
   7   5  -5    9.92    3.56
   7  -5  -6   95.34    8.08
   7  -5   6  100.36   11.45
   7   5  -6  108.40   10.31
   7  -5  -7  122.51    8.64
   7  -5   7  127.36   13.27
   7   5  -7  103.85   10.27
   7   5  -8   -2.12    2.81
   7  -5   8   -0.39    3.37
   7   5  -9   -0.92    2.56
   7  -5   9    2.21    2.96
   7   5 -10    2.97    2.02
   7  -5  10    5.45    3.99
   7   5 -11   29.22    5.97
   7  -5  11   42.56    8.68
   7   5  12   18.20    5.40
   7   5 -12   27.99    5.86
   7  -5  12   24.39    6.76
   7   5 -13   -0.79    2.50
   7   5  13   -4.60    4.67
   7  -5  13   -1.50    4.37
   7   5 -14    5.30    2.60
   7   5  14    2.15    4.54
   7   5 -15   19.57    4.99
   7   5  15    8.33    4.27
   7  -5  15   22.52    6.68
   7   5 -16   32.81    6.84
   7   5  16   26.49    6.95
   7  -5  16   39.45    8.91
   7   5 -17    9.60    4.26
   7   5  17   -2.90    3.67
   7  -5  17    3.79    4.19
   7   5 -18    1.26    2.51
   7   5  18   -1.32    4.02
   7  -5  18   -2.23    4.14
   7   5 -19    7.02    3.91
   7   5  19    5.43    3.37
   7  -5  19    3.01    3.86
   7   5  20   10.19    5.18
   7  -5  20    4.72    4.14
   7   5  21    1.21    3.25
   7   5  22   16.61    6.16
   7  -6   0    4.39    3.57
   7   6  -1  334.42   19.85
   7  -6  -1  363.70   19.38
   7  -6   1  381.35   20.61
   7   6  -2  338.04   19.88
   7  -6  -2  345.10   18.08
   7  -6   2  345.65   20.15
   7  -6  -3    1.98    2.03
   7  -6   3    6.61    4.70
   7   6  -3    3.39    2.67
  -7   6  -4    1.35    2.02
   7  -6  -4    1.45    2.45
   7  -6   4    3.94    4.48
   7   6  -4    0.59    2.24
   7  -6  -5  365.73   16.85
   7  -6   5  356.54   21.51
   7   6  -5  381.19   20.65
   7  -6  -6   -0.04    1.59
   7   6  -6   -1.78    3.17
   7  -6   6    4.66    4.59
   7  -6  -7   98.03    7.96
   7  -6   7   97.54   11.88
   7   6  -7  101.40   10.82
   7   6  -8   10.67    3.63
   7  -6   8   25.17    6.70
   7   6  -9   51.84    8.31
   7  -6   9   48.53    8.99
   7  -6  10  176.84   16.65
   7   6 -10  156.98   13.97
   7   6 -11   19.87    5.74
   7  -6  11   32.76    8.97
   7  -6  12  321.27   23.43
   7   6 -12  316.40   20.37
   7  -6  13  119.70   15.19
   7   6 -13  102.91   11.99
   7   6 -14    0.39    2.36
   7  -6  14   13.99    7.85
   7   6 -15    1.61    2.41
   7  -6  15   16.86    7.46
   7  -6  16   91.55   13.71
   7   6 -16   80.69   11.04
   7   6 -17   19.33    5.85
   7  -6  17   21.84    7.41
   7   6 -18    6.60    4.42
   7  -6  18    9.69    4.62
   7   6 -19   18.35    5.64
   7  -6  19   33.31    9.03
   7  -7   0   -2.40    3.55
   7   7   0    1.86    3.10
   7  -7  -1    3.04    2.37
   7  -7   1    1.13    3.59
   7   7  -1    0.34    2.59
   7  -7  -2   49.50    7.47
   7  -7   2   63.92    9.06
   7   7  -2   60.93    9.20
   7   7  -3  106.28   11.97
   7  -7  -3  109.60   10.27
   7  -7   3  109.25   12.06
   7  -7  -4    3.05    3.27
   7  -7   4    9.43    4.71
   7   7  -4   -0.04    2.22
   7  -7  -5   28.80    4.88
   7   7  -5   23.82    5.81
   7  -7   5   41.43    8.85
   7  -7  -6   -2.57    2.60
   7   7  -6   -0.68    2.58
   7  -7   6    1.48    2.98
   7   7  -7    0.35    2.82
   7  -7   7    9.06    5.30
   7   7  -8    0.03    2.40
   7  -7   8    9.43    5.57
   7  -7   9   86.91   12.40
   7   7  -9   73.89   10.15
   7   7 -10    8.23    4.60
   7  -7  10   16.82    7.27
   7   7 -11   16.82    5.62
   7  -7  11   23.61    7.23
   7   7 -12   16.49    5.58
   7  -7  12   30.01    9.25
   7  -7  13  228.62   20.64
   7   7 -13  191.88   16.96
   7   7 -14   23.98    6.40
   7  -7  14   35.89    9.22
   7   7 -15    3.89    3.13
   7  -7  15    4.46    6.00
   7   7 -16   24.07    6.37
   7  -7  16   28.20    8.70
   7   7 -17   12.73    4.41
   7  -7  17   15.26    7.17
   7   7 -18    2.64    2.52
   7  -7  18    7.98    6.49
   7   7 -19   38.74    8.44
   7   7 -20   58.90   10.51
   7   8   0    1.44    3.32
   7   8  -1  398.24   23.73
   7  -8  -2   50.60    8.15
   7   8  -2   46.26    8.56
   7  -8  -3   61.12    8.16
   7   8  -3   49.76    8.61
   7  -8  -4   24.19    5.19
   7   8  -4   18.41    5.12
   7  -8  -5   61.87    7.80
   7   8  -5   55.40    9.00
   7   8  -6   -0.94    2.71
   7   8  -7   61.31    9.41
   7   8  -8   -2.66    3.16
   7   8  -9  230.32   18.70
   7   8 -10    6.44    4.85
   7   8 -11   14.11    5.69
   7   8 -12   21.74    6.71
   7   8 -13   45.80    9.04
   7   8 -14    8.96    4.88
   7  -8  15  117.36   15.79
   7   8 -15   77.92   11.84
  -7  -8 -16    2.94    3.49
   7   8 -16    3.61    4.32
   7   8 -17   60.82   10.38
   7   8 -18    7.08    4.11
   7   8 -19   76.80   12.33
   7   8 -20   21.94    7.11
   7   9   0   -0.35    3.26
   7   9  -1    2.99    3.06
   7   9  -2   -0.38    2.74
   7   9  -3    2.63    3.17
   7   9  -4   11.37    5.01
   7   9  -5  106.20   13.22
   7   9  -6    7.66    3.94
   7   9  -7   49.02    8.98
   7   9  -8   21.03    6.08
   7   9  -9   24.05    6.99
   7   9 -10   14.31    5.11
   7   9 -11   48.62    9.47
  -7  -9 -11   47.74    9.09
   7   9 -12   -3.38    4.02
  -7  -9 -12   -3.57    4.90
   7   9 -13   54.05   10.14
  -7  -9 -13   61.30   10.86
   7   9 -14    7.37    4.86
  -7  -9 -14    0.68    3.49
   7   9 -15    3.56    4.30
  -7  -9 -15   -3.86    4.61
   7   9 -16    0.52    2.65
   7   9 -17  118.92   15.50
   7   9 -18    9.84    5.83
   7  10   0    5.75    4.59
   7  10  -1   -2.31    3.72
   7  10  -2   99.38   13.19
  -7 -10  -2   89.71   10.58
   7  10  -3   33.52    7.91
  -7 -10  -3   35.15    7.04
   7  10  -4   -3.93    4.85
  -7 -10  -4   -3.14    3.57
  -7 -10  -5    5.51    2.91
   7  10  -5    4.92    3.60
   7  10  -6   60.72   10.43
  -7 -10  -6   61.40    9.71
   7  10  -7   49.75    9.86
  -7 -10  -7   45.98    8.64
   7  10  -8   54.33   10.48
  -7 -10  -8   54.55    9.67
   7  10  -9   43.99    9.41
  -7 -10  -9   59.27   10.78
   7  10 -10   83.80   12.63
  -7 -10 -10   74.71   11.83
   7  10 -11    1.37    4.32
  -7 -10 -11    0.18    3.61
   7  10 -12   89.50   13.35
  -7 -10 -12   80.68   12.62
   7  10 -13   18.45    6.90
  -7 -10 -13    6.29    4.77
   7  10 -14   -0.34    3.06
  -7 -10 -14   -9.30    5.55
   7  10 -15    6.66    4.64
   7  11   0   -2.17    3.51
   7  11  -1    5.37    2.39
   7  11  -2   15.55    5.41
   7  11  -3    0.66    3.02
   7  11  -4    6.05    3.71
   7  11  -5   13.06    5.25
   7  11  -6   -4.74    4.22
  -7 -11  -6   -2.68    3.52
   7  11  -7    3.68    3.47
  -7 -11  -7   10.78    4.88
   7  11  -8    1.55    3.32
  -7 -11  -8   -3.24    3.66
   7  11  -9   -1.17    3.35
  -7 -11  -9    0.56    2.70
   7  11 -10    1.28    2.67
  -7 -11 -10    1.41    3.37
  -7 -11 -11    1.27    3.27
   7  11 -11   16.49    6.65
  -7 -11 -12   -9.03    5.69
   7  12   0    3.71    3.87
   7  12  -1    6.31    4.11
   7  12  -2   44.83   10.10
   7  12  -3   62.30   11.49
   7  12  -4    0.96    3.93
  -7 -12 -10    4.42    3.38
   8   0   0  715.75   28.02
   8   0  -1    1.03    3.07
   8   0   1   -0.10    2.66
   8   0  -2  115.83   10.91
   8   0   2  111.21   11.58
   8   0  -3    0.15    2.36
   8   0   3    2.98    3.32
   8   0   4   60.16    8.82
   8   0   5   -5.20    4.12
   8   0   6  103.85   11.69
   8   0   7    3.21    3.55
   8   0   8   12.47    3.71
   8   0   9    6.20    5.32
   8   0  10  534.48   28.68
   8   0  11    8.92    6.27
   8   0  12    5.47    4.84
   8   0  13   -0.29    3.21
   8   0  14  170.84   17.14
   8   0  15   14.62    7.05
   8   0  16   33.59    8.50
   8   0  17    3.42    4.39
   8   0  18   39.31    9.16
   8   0  19    0.93    3.38
   8   0  20   43.06   10.19
   8   1   0  449.00   22.66
   8  -1   0  424.02   21.52
   8   1  -1  312.47   18.64
   8   1   1  348.69   20.27
   8  -1  -1  324.10   18.67
   8  -1   1  332.43   19.42
   8   1   2    4.42    3.97
   8  -1  -2    0.54    3.34
   8  -1   2   -1.26    2.95
   8  -1  -3   48.11    7.29
   8   1   3   43.02    7.80
   8  -1   3   44.28    7.42
   8  -1  -4  271.55   16.11
   8   1   4  297.67   19.39
   8  -1   4  281.24   18.48
   8  -1  -5    2.73    1.87
   8   1   5    3.85    3.44
   8  -1   5    7.11    3.40
   8   1   6  130.15   13.38
   8  -1   6  136.11   13.67
   8  -1   7   96.99   12.08
   8   1   7   81.50   10.72
   8  -1   8   93.46   11.56
   8   1   8   79.89   10.87
   8   1   9   40.03    7.93
   8  -1   9   36.67    7.26
   8   1  10   32.42    7.28
   8  -1  10   37.61    8.23
   8   1  11   14.61    6.53
   8  -1  11   21.18    7.78
   8   1  12  322.76   22.91
   8  -1  12  312.62   22.45
   8   1  13   11.79    6.00
   8  -1  13   13.83    7.09
   8  -1  14   99.00   13.77
   8   1  14   85.93   12.68
   8   1  15  103.10   13.76
   8  -1  15  127.38   15.43
   8   1  16   49.79    9.75
   8  -1  16   57.88   11.38
   8   1  17   61.41   11.59
   8  -1  17   63.11   12.12
   8   1  18  387.45   27.23
   8  -1  18  379.43   27.23
   8   1  19   12.84    6.74
   8  -1  19   14.95    7.24
   8   1  20   -3.90    4.89
   8  -1  20   10.54    6.10
   8  -2   0   59.75    7.99
   8   2   1  126.53   12.39
   8  -2  -1  111.14   10.63
   8  -2   1  113.66   11.33
   8   2   2   18.61    5.61
   8  -2  -2   19.43    4.85
   8  -2   2   12.15    3.66
   8   2   3  324.62   20.62
   8  -2  -3  300.27   16.75
   8  -2   3  307.92   19.09
   8   2   4   23.15    6.17
   8  -2  -4   20.35    4.45
   8  -2   4   18.75    5.38
   8  -2  -5   27.72    5.05
   8   2   5   27.86    6.55
   8  -2   5   30.03    6.72
   8  -2  -6   66.69    7.43
   8  -2   6   85.69   11.55
   8   2   6   65.34   10.45
   8   2  -7  461.93   16.56
   8   2   7  481.54   26.51
   8  -2   7  500.89   26.33
   8   2   8   11.86    6.16
   8  -2   8    9.86    5.78
   8   2  -8    8.06    2.49
   8   2   9    4.97    4.55
   8  -2   9   18.68    6.09
   8   2  10    6.88    3.87
   8  -2  10   -1.06    3.61
   8   2  11  108.85   13.36
   8  -2  11  107.36   12.85
   8   2  12   47.51    9.10
   8  -2  12   52.53    9.77
   8   2  13   29.40    6.71
   8  -2  13   31.21    8.07
   8   2  14   23.79    6.97
   8  -2  14   32.07    7.81
   8   2  15   -2.05    3.86
   8  -2  15    0.43    3.52
   8   2  16   -2.61    4.95
   8  -2  16    3.74    3.23
   8   2  17   -3.24    5.71
   8  -2  17    7.55    4.41
   8   2  18    8.45    6.39
   8  -2  18    4.86    5.54
   8   2  19   47.72   10.06
   8  -2  19   44.57   10.08
   8   2  20   14.61    6.28
   8  -2  20   24.61    7.74
   8  -3   0   44.79    7.10
   8  -3  -1   34.94    6.13
   8  -3   1   50.19    7.55
   8  -3  -2   17.35    4.56
   8  -3   2   12.88    3.78
   8  -3  -3  156.27   12.08
   8  -3   3  140.86   12.98
   8   3   4  109.47   12.22
   8  -3  -4   95.04    9.32
   8  -3   4  108.84   11.73
   8   3   5   21.07    6.26
   8  -3  -5   25.01    4.84
   8  -3   5   27.74    6.40
   8   3  -5   29.00    4.85
   8   3  -6  345.27   16.08
   8   3   6  354.53   22.58
   8  -3  -6  341.56   16.34
   8  -3   6  357.93   22.25
   8   3  -7  137.36   10.20
   8  -3  -7  139.91   10.15
   8   3   7  129.08   14.07
   8  -3   7  155.28   14.72
   8   3   8  123.98   13.99
   8  -3   8  126.31   13.55
   8   3  -8  141.67   10.49
   8   3   9    2.29    3.44
   8  -3   9    2.21    4.56
   8   3  -9   -0.16    1.90
   8   3  10   11.86    4.52
   8  -3  10   10.10    4.98
   8   3  11  119.02   13.97
   8  -3  11  127.30   14.37
   8   3  12   -3.73    5.07
   8  -3  12    1.75    2.66
   8   3  13   10.61    4.95
   8  -3  13   14.84    5.39
   8   3  14   11.97    3.87
   8  -3  14   17.81    6.30
   8   3  15   47.06    9.60
   8  -3  15   55.11   10.09
   8   3  16   24.90    6.68
   8  -3  16   29.92    7.58
   8   3  17  116.31   14.95
   8  -3  17  120.69   15.46
   8   3  18    5.98    5.07
   8  -3  18   12.47    6.48
   8   3  19  129.43   16.13
   8  -3  19  152.19   17.71
   8   3  20    8.27    5.11
   8  -4   0   19.18    3.38
   8  -4  -1   39.65    6.63
   8  -4   1   45.15    7.38
   8  -4  -2  178.43   13.46
   8  -4   2  191.70   15.03
   8  -4  -3    2.04    3.08
   8  -4   3    3.86    3.07
   8  -4  -4   44.85    6.86
   8  -4   4   32.44    7.04
   8   4  -4   37.35    6.21
   8   4  -5  227.76   14.32
   8  -4  -5  232.96   13.94
   8  -4   5  247.63   17.98
   8   4  -6   59.38    7.41
   8  -4  -6   60.62    6.94
   8  -4   6   64.91    9.82
   8  -4  -7   68.16    7.17
   8  -4   7   58.79    9.62
   8   4  -7   69.68    8.14
   8   4   8  116.47   13.82
   8  -4   8  120.86   13.24
   8   4  -8  127.52   11.01
   8   4   9   32.06    7.47
   8  -4   9   35.89    7.80
   8   4  -9   39.70    6.16
   8   4  10   43.47    8.45
   8   4 -10   37.41    5.93
   8  -4  10   38.29    8.01
   8   4  11   24.52    6.60
   8   4 -11   30.83    5.76
   8  -4  11   22.22    6.08
   8   4  12    4.45    3.56
   8  -4  12    3.26    3.52
   8   4  13   -1.39    3.71
   8  -4  13   -3.84    5.57
   8   4  14    6.74    4.23
   8  -4  14    4.54    3.75
   8   4  15   13.02    5.69
   8  -4  15   27.45    8.02
   8   4  16  -11.04    6.74
   8  -4  16    2.47    3.84
   8   4  17   32.06    8.27
   8  -4  17   18.52    6.74
   8   4  18   55.54   11.10
   8  -4  18   53.82   10.68
   8   4  19   38.20    9.14
   8  -5   0 1142.08   35.62
   8  -5  -1   36.32    7.25
   8  -5   1   36.79    7.63
   8  -5  -2    9.97    3.71
   8  -5   2    4.85    3.02
   8   5  -3   99.66   10.29
   8  -5  -3  102.71    9.98
   8  -5   3   93.78   11.32
   8   5  -4   87.67    9.60
   8  -5  -4   92.77    9.36
   8  -5   4  104.11   11.88
   8   5  -5   82.48    9.50
   8  -5  -5   74.84    8.08
   8  -5   5   72.92   10.35
   8   5  -6  119.04   11.36
   8  -5  -6  140.10   10.58
   8  -5   6  127.25   14.00
   8  -5   7   88.45   12.02
   8   5  -7   75.49    9.15
   8  -5   8   66.17   10.32
   8   5  -8   55.80    7.72
   8   5  -9   26.83    5.24
   8  -5   9   26.75    7.04
   8  -5  10   80.33   11.58
   8   5 -10   85.99    9.65
   8   5 -11   30.82    6.33
   8  -5  11   23.12    6.37
   8   5 -12    3.06    3.34
   8  -5  12    3.55    4.22
   8  -5  13   13.82    6.09
   8   5  14   51.81   10.09
   8  -5  14   50.11    9.78
   8   5  15   -7.95    6.66
   8  -5  15   -1.40    5.19
   8   5  16   -1.26    5.00
   8  -5  16   -3.06    3.50
   8   5  17    6.57    3.75
   8  -5  17   14.56    6.38
   8   5  18   75.32   12.82
   8  -5  18   67.62   12.44
   8  -6   0    1.04    2.82
   8  -6  -1    3.52    3.85
   8  -6   1    0.99    3.78
   8  -6  -2  443.80   21.91
   8  -6   2  463.10   24.46
   8   6  -3  124.59   12.50
   8  -6  -3  135.86   11.88
   8  -6   3  143.51   14.52
   8  -6  -4    8.80    2.70
   8  -6   4    7.92    4.49
   8   6  -4    9.98    4.25
   8  -6  -5    4.21    3.19
   8  -6   5    4.70    4.06
   8   6  -5   -0.68    2.58
   8  -6   6    1.70    3.75
   8   6  -6   -0.01    2.61
   8  -6   7    2.30    2.93
   8   6  -7    6.52    3.33
   8  -6   8   -0.48    2.58
   8   6  -8    3.24    2.61
   8   6  -9    1.74    1.96
   8  -6   9   -1.15    3.19
   8   6 -10   10.71    4.12
   8  -6  10   11.53    5.28
   8   6 -11   24.95    6.20
   8  -6  11   24.98    7.81
   8   6 -12   38.92    7.36
   8  -6  12   39.08    8.81
   8   6 -13   -2.08    3.27
   8  -6  13    5.00    5.27
   8  -6  14   34.39    8.98
   8  -6  15   -1.76    3.39
   8  -6  16   -6.51    4.86
   8  -7   0   19.86    7.18
   8  -7  -1  214.79   16.00
   8  -7   1  230.73   17.34
   8  -7  -2    7.68    4.14
   8  -7   2   20.35    6.57
   8   7  -2   20.50    6.45
   8   7  -3  328.10   21.00
   8  -7  -3  331.62   18.70
   8  -7   3  353.28   22.30
   8  -7  -4   35.64    6.22
   8  -7   4   43.24    9.13
   8   7  -4   36.26    7.31
   8  -7   5   16.56    6.87
   8   7  -5    1.26    3.02
   8  -7   6    8.26    5.30
   8   7  -6   -3.32    3.48
   8  -7   7   93.10   12.42
   8   7  -7   80.69   10.36
   8   7  -8   64.41    9.51
   8  -7   8   77.99   11.54
   8   7  -9   10.83    3.88
   8  -7   9   19.60    6.98
   8  -7  10   73.13   11.86
   8   7 -10   74.54   10.49
   8  -7  11  215.64   20.02
   8   7 -11  188.99   16.47
   8   7 -12    3.47    2.66
   8  -7  12    7.67    5.58
   8   7 -13   32.68    7.37
   8  -7  13   25.40    8.13
   8   7 -14   13.24    4.97
   8  -7  14   16.12    6.96
   8  -7  15   14.03    6.51
   8  -8   0  158.44   14.71
   8  -8  -1   49.25    8.63
   8  -8   1   51.57    9.00
   8  -8  -2    5.12    3.30
   8  -8   2    3.70    4.62
   8   8  -2    1.37    2.35
   8  -8  -3   12.83    3.72
   8  -8   3   18.93    5.69
   8   8  -3   16.11    5.33
   8  -8   4   11.78    5.61
   8   8  -4    5.22    3.51
   8  -8   5   48.26    8.97
   8   8  -5   48.74    8.78
   8  -8   6   35.38    8.29
   8   8  -6   43.47    8.18
   8  -8   7   61.15   10.48
   8   8  -7   48.32    8.76
   8   8  -8   -0.25    2.44
   8  -8   8    6.84    5.93
   8   8  -9    0.10    2.29
   8  -8   9    4.98    4.65
   8   8 -10    8.86    5.07
   8  -8  10    6.50    5.48
   8  -8  11   65.97   12.20
   8   8 -11   71.23   11.07
   8   8 -12   15.44    5.35
   8  -8  12   11.89    5.97
   8   8 -13   -3.38    4.04
   8  -8  13    4.55    5.99
   8   8 -14    7.67    3.94
   8  -9   0   96.97   11.65
   8  -9  -1   51.31    8.48
   8  -9   1   60.29    9.77
   8  -9   2   26.17    6.87
   8   9  -2   20.00    5.91
   8  -9   3   59.74   10.14
   8   9  -3   48.46    9.26
   8  -9   4   10.56    5.37
   8   9  -4    1.55    2.74
   8  -9   5   24.85    6.89
   8   9  -5   20.76    6.89
   8  -9   6   40.15    9.45
   8   9  -6   26.08    7.10
   8  -9   7  246.18   21.23
   8   9  -7  228.69   19.86
   8  -9   8   93.48   13.87
   8   9  -8   72.83   11.60
   8   9  -9   -0.14    3.07
   8  -9   9   11.49    6.50
   8   9 -10   14.48    5.11
   8  -9  10   18.08    6.71
   8   9 -11   54.93   10.22
   8  -9  11   57.92   11.52
   8   9 -12   14.04    5.34
   8  -9  12   33.28    8.91
   8   9 -13   46.66    9.66
   8   9 -14   25.61    7.28
   8   9 -15   25.63    7.38
   8 -10   0   13.39    6.07
   8 -10   1    5.11    3.76
   8 -10   2    1.26    3.25
   8  10  -2   -8.30    5.69
   8 -10   3   19.66    6.76
   8  10  -3   14.07    5.77
   8 -10   4   75.28   11.66
   8  10  -4   71.69   11.69
   8  10  -5    1.68    2.64
   8  10  -6    0.28    3.50
   8  10  -7   11.90    6.20
   8  10  -8    7.47    5.62
  -8 -10  -8    5.37    3.81
   8  10  -9   11.46    4.54
   8 -10   9   13.45    6.86
  -8 -10  -9   -0.92    4.00
   8  10 -10    0.49    3.25
  -8 -10 -10   -7.40    5.08
   8 -10  10    3.88    5.73
   8  10 -11    0.53    2.82
  -8 -10 -11    3.27    4.73
   8  10 -12   11.20    5.57
   8  10 -13    4.70    4.06
   8  11  -2    9.89    4.97
   8  11  -3    4.54    4.04
   8  11  -4  108.82   14.95
   8  11  -5    0.97    2.78
   8  11  -6    6.42    4.32
   8  11  -7    9.87    4.85
   8  11  -8   18.90    6.87
  -8 -11  -8   10.88    5.27
  -8 -11  -9   25.93    7.35
  -8 -11 -10   49.36   10.31
   9   0   0    6.12    3.92
   9   0  -1    0.82    4.20
   9   0   1    6.70    4.72
   9   0  -2    5.81    3.75
   9   0   2    8.63    4.13
   9   0   3   -2.43    2.91
   9   0   4   11.35    4.84
   9   0   5   -5.00    5.11
   9   0   6   84.68   11.52
   9   0   7   -7.77    5.12
   9   0   8   22.23    6.64
   9   0   9   -2.08    2.99
   9   0  10    8.67    4.22
   9   0  11    0.13    3.41
   9   0  12    9.97    4.96
   9   0  13   -3.81    5.45
   9   0  14   46.79    9.66
   9   0  15    0.99    3.11
   9   0  16    9.93    4.34
   9   0  17    1.15    4.85
   9   1   0   -4.28    3.90
   9  -1   0   10.38    4.90
   9   1   1  204.53   17.17
   9  -1  -1  217.30   16.46
   9  -1   1  218.84   17.09
   9   1   2  641.16   30.01
   9  -1  -2  616.31   26.73
   9  -1   2  609.57   28.74
   9  -1  -3    3.92    3.40
   9   1   3   11.07    5.35
   9  -1   3   19.31    6.35
   9  -1  -4  198.52   14.84
   9   1   4  199.89   17.03
   9  -1   4  208.38   17.17
   9   1   5   66.40   10.69
   9  -1   5   58.57    9.75
   9   1   6  131.16   14.58
   9  -1   6  127.45   13.86
   9   1   7   -0.13    2.60
   9  -1   7   -0.12    2.85
   9   1   8  236.49   19.81
   9  -1   8  232.02   19.54
   9   1   9  146.89   16.07
   9  -1   9  142.70   15.57
   9   1  10  181.51   17.76
   9  -1  10  177.07   17.38
   9   1  11   19.18    7.00
   9  -1  11   14.61    6.24
   9   1  12  165.20   17.25
   9  -1  12  165.97   17.64
   9   1  13   67.93   11.68
   9  -1  13   74.36   12.14
   9   1  14    2.26    3.14
   9  -1  14   14.25    6.76
   9   1  15    0.38    3.10
   9  -1  15    3.80    5.08
   9  -1  16  113.31   15.63
   9   1  16  104.76   14.57
   9   1  17   25.45    7.48
   9  -1  17   28.92    8.52
   9  -2   0   -4.74    4.40
   9  -2  -1    3.45    3.34
   9  -2   1    0.66    3.35
   9   2   2   -3.19    4.22
   9  -2  -2   -0.96    2.83
   9  -2   2    2.16    2.81
   9   2   3    4.73    3.66
   9  -2  -3   -0.82    2.21
   9  -2   3   -4.64    5.08
   9   2   4   -0.61    2.90
   9  -2  -4    3.13    2.92
   9  -2   4    5.70    4.06
   9  -2  -5   68.22    8.34
   9   2   5   52.16    9.18
   9  -2   5   55.05    9.25
   9  -2  -6   17.17    4.40
   9   2   6   16.03    5.74
   9  -2   6    9.93    3.99
   9   2   7   31.15    7.15
   9  -2   7   39.82    8.35
   9   2   8   -2.56    4.13
   9  -2   8    8.51    5.05
   9   2   9   41.37    9.32
   9  -2   9   43.96    8.93
   9   2  10   21.70    7.25
   9  -2  10   13.41    5.63
   9   2  11   -1.77    3.46
   9  -2  11   -3.25    3.72
   9   2  12    5.99    5.18
   9  -2  12   -0.03    3.35
   9   2  13    0.75    3.33
   9  -2  13    1.68    4.13
   9   2  14    2.27    3.07
   9  -2  14    5.78    5.72
   9   2  15   82.90   13.19
   9  -2  15  102.56   14.65
   9   2  16   -0.51    3.91
   9  -2  16    2.44    5.49
   9   2  17   75.31   12.73
   9  -2  17   75.10   12.96
   9  -3   0    1.89    2.41
   9  -3  -1  236.80   17.09
   9  -3   1  224.01   16.90
   9  -3  -2    8.08    4.11
   9  -3   2    0.63    3.32
   9  -3  -3   57.13    7.84
   9  -3   3   59.77    9.12
   9  -3  -4   15.79    4.53
   9  -3   4   25.58    6.58
   9   3   5  189.46   17.67
   9  -3  -5  216.27   14.71
   9  -3   5  242.95   18.93
   9   3   6   -1.18    3.70
   9  -3  -6    1.80    2.09
   9  -3   6    8.09    4.77
   9   3   7    0.41    3.98
   9  -3   7   11.51    4.79
   9   3   8    9.73    5.22
   9  -3   8   14.83    6.65
   9   3   9  290.65   22.88
   9  -3   9  295.34   22.15
   9   3  10   44.87    9.74
   9  -3  10   44.17    8.91
   9   3  11    4.96    5.25
   9  -3  11    5.55    3.25
   9   3  12    6.32    3.99
   9  -3  12    7.43    4.29
   9   3  13   39.20    8.86
   9  -3  13   29.07    8.35
   9   3  14    9.59    4.84
   9  -3  14    3.54    4.88
   9   3  15  115.15   15.17
   9  -3  15  106.62   14.90
   9   3  16    7.05    4.62
   9  -3  16   10.53    5.45
   9  -4   0   -2.87    3.12
   9  -4  -1    7.72    3.95
   9  -4   1    5.37    3.71
   9  -4  -2   19.29    5.10
   9  -4   2   16.95    5.31
   9  -4  -3    4.49    2.89
   9  -4   3   -0.31    3.39
   9  -4  -4   -0.24    1.98
   9  -4   4   -1.44    4.02
   9  -4  -5   28.78    5.43
   9  -4   5   32.98    7.04
   9  -4   6    7.58    3.28
   9  -4   7    8.40    4.76
   9  -4   8  127.73   14.70
   9   4   9    4.70    4.35
   9  -4   9   12.80    5.74
   9   4  10    4.44    3.77
   9  -4  10    5.28    3.48
   9   4  11    0.68    3.62
   9  -4  11    1.20    3.20
   9   4  12    6.65    4.67
   9  -4  12    8.99    4.78
   9   4  13   -8.13    4.73
   9  -4  13    0.62    2.82
   9   4  14    8.30    5.14
   9  -4  14    7.48    4.64
   9   4  15   -1.60    5.19
   9  -4  15   -3.84    5.21
   9   4  16    2.71    3.13
   9  -4  16   -2.01    3.86
   9  -5   0   -8.30    4.68
   9  -5  -1    1.62    3.56
   9  -5   1   -5.91    5.48
   9  -5  -2  125.82   12.29
   9  -5   2  117.36   12.57
   9  -5  -3   17.60    4.94
   9  -5   3    9.88    3.07
   9  -5  -4    1.95    2.04
   9  -5   4   -1.13    3.85
   9  -5   5   -3.86    4.07
   9  -5   6   61.97   10.15
   9  -5   7    6.39    4.00
   9  -5   8  128.54   14.69
   9  -5   9   15.41    6.50
   9  -5  10   68.34   11.20
   9  -5  11   28.68    7.72
   9  -5  12  105.77   14.22
   9  -5  13   30.12    7.94
   9  -5  14   28.01    8.09
   9  -5  15   21.87    7.39
   9  -6   0   -4.32    3.67
   9  -6  -1    7.09    2.55
   9  -6   1   10.13    4.64
   9  -6  -2    7.80    3.46
   9  -6   2    4.78    4.04
   9  -6  -3   24.00    5.42
   9  -6   3   11.50    3.84
   9  -6   4    1.91    2.84
   9  -6   5    4.18    3.68
   9   6  -5    5.09    2.90
   9  -6   6   -4.02    4.60
   9  -6   7   -0.30    3.37
   9  -6   8   15.66    5.40
   9  -6   9    6.04    4.47
   9  -6  10   -2.50    4.90
   9  -6  11    1.41    2.99
   9  -6  12    3.52    3.82
   9  -6  13    0.83    3.66
   9  -6  14    1.39    4.17
   9  -7   0   -1.46    3.28
   9  -7  -1   20.26    5.48
   9  -7   1   15.92    5.01
   9  -7   2   34.07    7.60
   9  -7   3  154.60   15.33
   9  -7   4    1.31    3.25
   9   7  -5  108.09   12.20
   9  -7   5  102.95   13.18
   9  -7   6   25.73    7.75
   9   7  -6   23.71    6.11
   9  -7   7   12.39    5.41
   9  -7   8    9.23    5.59
   9  -7   9  109.28   14.13
   9  -7  10   40.17    9.53
   9  -7  11   13.86    6.41
   9  -7  12   44.03   10.62
   9  -8   0   -0.87    3.48
   9  -8   1    3.29    3.90
   9  -8   2   12.73    4.90
   9  -8   3   18.69    5.87
   9  -8   4    6.59    4.34
   9   8  -4    1.84    2.38
   9  -8   5   47.15    9.32
   9   8  -5   41.76    8.21
   9  -8   6   16.77    6.61
   9   8  -6   13.37    4.94
   9  -8   7   11.78    4.55
   9   8  -7   11.20    4.45
   9  -8   8   12.14    5.73
   9  -8   9   19.67    6.99
   9  -8  10    6.76    5.60
   9  -8  11   -6.20    5.48
   9  -9   1   49.72    8.98
   9  -9   2   20.92    6.22
   9  -9   3    9.39    5.25
   9  -9   4    2.76    3.67
   9   9  -4   -0.81    3.14
   9  -9   5   11.91    6.50
   9   9  -5    2.77    2.93
   9   9  -6  111.58   14.18
   9  -9   6  122.15   15.34
   9  -9   7   29.73    8.60
   9   9  -7   17.96    6.18
   9  -9   8   33.03    9.16
   9  -9   9  111.20   15.39
   9 -10   3   15.58    6.58
   9 -10   4   15.22    5.94
   9  10  -4   12.10    5.87
   9 -10   5    1.91    3.95
   9  10  -5   -2.67    3.69
   9 -10   6    4.86    3.15
   9  10  -6    8.64    5.49
   9 -10   7    1.23    3.36
   9  10  -7    0.51    3.00
   9 -11   4   -2.82    2.80
  10   0   0  144.80   14.79
  10   0  -1    8.85    4.76
  10   0   1    9.70    5.13
  10   0   2   65.55    9.92
  10   0   3   -0.50    3.34
  10   0   4   37.04    7.98
  10   0   5   -2.14    3.89
  10   0   6    1.08    2.83
  10   0   7    5.28    4.24
  10   0   8   75.49   12.00
  10   0   9   -4.15    4.65
  10   0  10   15.09    6.52
  10   0  11   -3.51    3.17
  10   0  12   64.15   11.62
  10   0  13    2.34    4.26
  10   0  14   20.72    6.99
  10  -1   0    5.19    3.57
  10   1   1    4.05    3.45
  10  -1  -1    8.34    4.29
  10  -1   1    9.31    4.17
  10   1   2   -1.71    3.72
  10  -1  -2   -0.52    3.14
  10  -1   2    3.86    3.49
  10  -1  -3   17.62    5.33
  10   1   3   18.99    6.17
  10  -1   3   14.40    5.70
  10   1   4   96.97   12.88
  10  -1   4   97.45   12.75
  10   1   5   27.82    7.45
  10  -1   5   22.75    6.46
  10   1   6   27.73    7.26
  10  -1   6   29.14    7.82
  10  -1   7   82.47   12.40
  10   1   7   71.75   11.99
  10   1   8  109.63   14.25
  10  -1   8  115.95   14.88
  10   1   9   19.44    5.41
  10  -1   9   22.74    7.46
  10   1  10   69.00   12.17
  10  -1  10   49.39    9.91
  10   1  11  101.45   14.28
  10  -1  11  114.51   15.34
  10   1  12    2.67    4.58
  10  -1  12    8.89    5.78
  10   1  13   10.43    5.72
  10  -1  13   19.06    7.04
  10  -1  14   30.14    8.01
  10  -2   0   -3.71    4.51
  10  -2  -1    2.94    2.69
  10  -2   1   -3.46    3.50
  10  -2  -2    3.81    3.07
  10  -2   2   -0.03    2.92
  10   2   3    0.17    3.59
  10  -2  -3   -4.20    3.13
  10  -2   3    3.82    4.00
  10   2   4   41.31    8.92
  10  -2  -4   55.28    8.24
  10  -2   4   52.98    9.02
  10  -2  -5    7.21    3.41
  10   2   5    2.41    3.01
  10  -2   5   10.55    5.14
  10   2   6    5.27    4.43
  10  -2   6   11.92    4.75
  10   2   7   15.28    5.84
  10  -2   7   15.70    6.24
  10   2   8   36.59    8.82
  10  -2   8   39.58    8.96
  10   2   9    4.38    4.05
  10  -2   9   -3.86    4.62
  10   2  10   60.50   11.18
  10  -2  10   57.29   10.91
  10   2  11   29.33    8.26
  10  -2  11   32.59    8.32
  10   2  12    5.82    5.10
  10  -2  12    2.75    3.35
  10   2  13    3.41    3.33
  10  -2  13   11.64    6.41
  10  -3   0    1.61    3.02
  10  -3  -1    6.08    2.47
  10  -3   1    4.95    2.85
  10  -3  -2    7.20    3.79
  10  -3   2    8.69    5.05
  10  -3  -3  133.00   13.00
  10  -3   3  156.88   15.67
  10  -3  -4   18.04    5.54
  10  -3   4    6.96    5.25
  10  -3   5   58.38   10.32
  10  -3   6   40.32    9.13
  10   3   7  282.95   23.12
  10  -3   7  309.92   23.41
  10   3   8   29.31    8.32
  10  -3   8   29.30    8.69
  10   3   9    5.29    3.97
  10  -3   9   13.44    6.30
  10   3  10   -3.59    4.21
  10  -3  10    5.18    5.30
  10   3  11   30.34    7.90
  10  -3  11   36.55    8.83
  10   3  12    6.15    4.45
  10  -3  12    2.58    3.23
  10  -3  13   43.11    9.79
  10  -4   0   23.20    6.20
  10  -4  -1   45.97    8.21
  10  -4   1   48.98    8.92
  10  -4  -2   -3.33    2.66
  10  -4   2    1.72    3.74
  10  -4  -3   -2.77    3.51
  10  -4   3    0.78    2.73
  10  -4   4    5.92    3.63
  10  -4   5    3.80    3.41
  10  -4   6   10.69    4.79
  10  -4   7   77.16   12.28
  10  -4   8    0.63    4.07
  10  -4   9    5.13    4.54
  10  -4  10    1.41    3.35
  10   4  11    4.35    3.55
  10  -4  11    0.60    4.08
  10  -4  12   15.51    6.36
  10  -5   0   85.90   11.56
  10  -5  -1   70.34    9.99
  10  -5   1   81.35   11.27
  10  -5   2   24.39    6.89
  10  -5   3   23.88    7.14
  10  -5   4  103.95   13.31
  10  -5   5    1.86    3.10
  10  -5   6   -2.81    5.39
  10  -5   7   -5.50    4.35
  10  -5   8   27.71    7.82
  10  -5   9   15.81    5.27
  10  -5  10  137.24   16.74
  10  -5  11    7.76    5.70
  10  -6   0   98.70   12.08
  10  -6   1    8.53    4.79
  10  -6   2    9.04    4.37
  10  -6   3    1.59    3.34
  10  -6   4   42.78    8.55
  10  -6   5   -1.42    4.84
  10  -6   6    5.13    4.01
  10  -6   7    1.08    3.14
  10  -6   8   10.65    3.37
  10  -6   9   16.58    6.83
  10  -6  10  106.51   14.97
  10  -7   1  115.00   13.60
  10  -7   2   19.28    6.47
  10  -7   3   51.93    9.57
  10  -7   4   13.21    5.10
  10  -7   5   -3.90    4.07
  10  -7   6    7.40    4.10
  10  -7   7   31.29    8.28
  10  -7   8   -2.83    3.12
  10  -7   9   -0.73    3.34
  10  -8   2    7.61    4.17
  10  -8   3    8.10    4.95
  10  -8   4    1.19    3.26
  10  -8   5    1.52    3.58
  10  -8   6   11.78    5.40
  10  -8   7   83.19   13.46
  10  -9   4   57.62   10.94
  10  -9   5   27.20    7.93
  11   0   0    0.41    2.45
  11   0   1    4.96    4.81
  11   0   2   93.40   13.13
  11   0   3   11.02    5.98
  11   0   4   44.29    9.30
  11   0   5    3.42    4.35
  11   0   6   37.78    9.31
  11   0   7   -0.02    3.51
  11   0   8   14.14    6.32
  11   0   9    2.52    3.94
  11  -1   0    0.16    2.52
  11  -1  -1    2.38    3.87
  11  -1   1   -4.42    4.07
  11   1   2   14.57    5.90
  11  -1  -2    7.50    3.74
  11  -1   2   11.71    4.93
  11   1   3    0.93    3.82
  11  -1   3   -0.22    3.47
  11   1   4    9.57    5.15
  11  -1   4    8.86    4.68
  11   1   5    7.73    4.95
  11  -1   5    7.73    4.33
  11   1   6   21.48    6.28
  11  -1   6   22.69    7.13
  11   1   7    8.86    4.81
  11  -1   7    7.52    4.24
  11   1   8    3.51    3.72
  11  -1   8    6.95    4.17
  11   1   9    9.48    4.77
  11  -1   9    6.95    5.65
  11  -2   0   -0.25    2.54
  11  -2  -1   31.55    7.11
  11  -2   1   31.77    7.34
  11  -2  -2   58.94    9.39
  11  -2   2   57.48   10.14
  11  -2   3   -1.38    3.45
  11  -2   4   20.60    6.11
  11   2   5   39.78    9.64
  11  -2   5   21.24    7.05
  11   2   6    3.50    3.89
  11  -2   6    1.69    3.06
  11   2   7    1.86    4.35
  11  -2   7   -2.10    3.13
  11   2   8    9.82    5.73
  11  -2   8   14.09    5.99
  11  -2   9   26.26    8.08
  11  -3   0   -6.20    4.85
  11  -3  -1   -0.67    3.20
  11  -3   1    7.56    4.26
  11  -3   2   -1.25    3.01
  11  -3   3   -2.38    3.41
  11  -3   4    4.08    3.26
  11  -3   5   37.12    8.55
  11  -3   6    2.81    3.40
  11  -3   7   -1.88    3.85
  11  -3   8    1.76    3.40
  11  -3   9    0.21    3.54
  11  -4   0    3.95    3.56
  11  -4   1   72.78   11.05
  11  -4   2    4.68    3.58
  11  -4   3    1.54    3.21
  11  -4   4    1.74    2.69
  11  -4   5   -4.34    4.56
  11  -4   6   -8.83    4.78
  11  -4   7   -4.50    4.09
  11  -4   8    4.66    3.92
  11  -5   1   31.74    8.24
  11  -5   2   88.26   12.55
  11  -5   3   -0.77    3.07
  11  -5   4   19.09    6.46
  11  -5   5    8.86    5.22
  11  -5   6   32.83    8.41
  11  -5   7    1.37    3.32
  11  -6   2  103.97   13.45
  11  -6   3    5.05    3.97
  11  -6   4   10.37    4.97
  11  -6   5   13.62    6.25
  11  -6   6   13.47    5.74
  11  -7   4   16.32    5.84
  11  -7   5   20.24    7.05
  12   0   2    6.38    3.27
  12   0   3   -2.60    3.70
  12   0   4   31.55    8.27
  12  -1   0    0.81    2.72
  12  -1   1    5.88    3.96
  12  -1   2    1.75    3.33
  12  -1   3   -6.02    4.95
  12  -1   4    4.18    4.34
  12  -1   5   16.56    6.30
  12  -2   1    2.29    3.46
  12  -2   2   -3.47    3.58
  12  -2   3   26.14    7.91
  12  -2   4   43.83    9.82
  12  -2   5   17.71    6.52
  12  -3   2    6.74    4.46
  12  -3   3   -4.16    4.39
  12  -3   4   26.54    7.26
  12  -4   3   45.46    9.65
  12  -4   4   36.10    9.14
   0   0   0    0.00    0.00
  
TITL smz_f2_260 in Pbca
REM Pbca (#61 in standard setting)
CELL 0.71073   9.122814  11.652160  22.848827  90.0000  90.0000  90.0000
ZERR    6.00   0.000443   0.000558   0.000980   0.0000   0.0000   0.0000
LATT  1
SYMM -x+1/2,-y, z+1/2
SYMM -x, y+1/2,-z+1/2
SYMM  x+1/2,-y+1/2,-z
SFAC C H N O S
UNIT 90.00 90.00 24.00 12.00 6.00
TREF
HKLF 4
END
_computing_structure_solution     'SHELXT 2014/5 (Sheldrick, 2014)'
;
_shelx_hkl_checksum              86462
loop_
_space_group_symop_operation_xyz
'x, y, z'
'-x+1/2, -y, z+1/2'
'-x, y+1/2, -z+1/2'
'x+1/2, -y+1/2, -z'
'-x, -y, -z'
'x-1/2, y, -z-1/2'
'x, -y-1/2, z-1/2'
'-x-1/2, y-1/2, z'
loop_
_atom_site_label
_atom_site_type_symbol
_atom_site_fract_x
_atom_site_fract_y
_atom_site_fract_z
_atom_site_U_iso_or_equiv
_atom_site_adp_type
_atom_site_occupancy
_atom_site_site_symmetry_order
_atom_site_calc_flag
_atom_site_refinement_flags_posn
_atom_site_refinement_flags_adp
_atom_site_refinement_flags_occupancy
_atom_site_disorder_assembly
_atom_site_disorder_group
S1 S 0.66728(5) 0.34663(4) 0.38977(2) 0.03185(16) Uani 1 1 d . . . . .
O1 O 0.80199(15) 0.39721(13) 0.40954(6) 0.0397(4) Uani 1 1 d . . . . .
O2 O 0.65746(17) 0.22445(12) 0.38622(7) 0.0432(4) Uani 1 1 d . . . . .
N1 N 0.5437(3) 0.53286(19) 0.15520(9) 0.0519(6) Uani 1 1 d D . . . .
N2 N 0.54878(19) 0.39487(15) 0.43747(8) 0.0345(4) Uani 1 1 d D . . . .
N3 N 0.33399(18) 0.42635(15) 0.48541(8) 0.0348(4) Uani 1 1 d . . . . .
N4 N 0.34450(19) 0.28601(14) 0.40921(8) 0.0368(4) Uani 1 1 d . . . . .
C1 C 0.6238(2) 0.40438(17) 0.32187(9) 0.0318(4) Uani 1 1 d . . . . .
C2 C 0.6665(2) 0.51527(17) 0.30799(10) 0.0360(5) Uani 1 1 d . . . . .
H2 H 0.7134 0.5603 0.3359 0.047 Uiso 1 1 calc R U . . .
C3 C 0.6396(2) 0.55896(17) 0.25310(11) 0.0402(5) Uani 1 1 d . . . . .
H3 H 0.6702 0.6330 0.2440 0.052 Uiso 1 1 calc R U . . .
C4 C 0.5667(2) 0.49332(18) 0.21073(10) 0.0385(5) Uani 1 1 d . . . . .
C5 C 0.5219(3) 0.38245(19) 0.22590(10) 0.0463(6) Uani 1 1 d . . . . .
H5 H 0.4719 0.3378 0.1987 0.060 Uiso 1 1 calc R U . . .
C6 C 0.5511(3) 0.33868(19) 0.28059(10) 0.0441(6) Uani 1 1 d . . . . .
H6 H 0.5218 0.2644 0.2899 0.057 Uiso 1 1 calc R U . . .
C7 C 0.4021(2) 0.36649(16) 0.44335(9) 0.0312(4) Uani 1 1 d . . . . .
C8 C 0.1924(2) 0.4012(2) 0.49274(10) 0.0418(5) Uani 1 1 d . . . . .
H8 H 0.1398 0.4408 0.5212 0.054 Uiso 1 1 calc R U . . .
C9 C 0.1215(2) 0.3202(2) 0.46036(10) 0.0428(5) Uani 1 1 d . . . . .
H9 H 0.0228 0.3043 0.4664 0.056 Uiso 1 1 calc R U . . .
C10 C 0.2012(2) 0.26253(18) 0.41816(10) 0.0393(5) Uani 1 1 d . . . . .
C11 C 0.1343(3) 0.1698(2) 0.38183(12) 0.0581(7) Uani 1 1 d . . . . .
H11A H 0.1470 0.1876 0.3411 0.076 Uiso 1 1 calc R U . . .
H11B H 0.0316 0.1642 0.3905 0.076 Uiso 1 1 calc R U . . .
H11C H 0.1812 0.0980 0.3905 0.076 Uiso 1 1 calc R U . . .
H1N1 H 0.550(3) 0.6051(16) 0.1457(13) 0.082(10) Uiso 1 1 d D . . . .
H2N1 H 0.480(2) 0.4926(19) 0.1346(11) 0.057(8) Uiso 1 1 d D . . . .
H1N2 H 0.579(3) 0.4492(17) 0.4597(9) 0.047(7) Uiso 1 1 d D . . . .
loop_
_atom_site_aniso_label
_atom_site_aniso_U_11
_atom_site_aniso_U_22
_atom_site_aniso_U_33
_atom_site_aniso_U_23
_atom_site_aniso_U_13
_atom_site_aniso_U_12
S1 0.0320(3) 0.0343(3) 0.0292(3) -0.0030(2) 0.0004(2) 0.0039(2)
O1 0.0287(7) 0.0561(9) 0.0343(8) -0.0016(7) -0.0005(6) 0.0030(7)
O2 0.0564(10) 0.0333(8) 0.0400(9) -0.0031(7) -0.0003(7) 0.0093(7)
N1 0.0683(15) 0.0464(12) 0.0411(11) 0.0067(11) -0.0175(11) -0.0030(11)
N2 0.0310(9) 0.0381(9) 0.0344(9) -0.0109(8) 0.0042(8) -0.0054(8)
N3 0.0303(9) 0.0421(9) 0.0318(9) -0.0035(8) 0.0029(7) -0.0027(7)
N4 0.0370(10) 0.0371(9) 0.0364(9) -0.0008(8) -0.0031(8) -0.0057(8)
C1 0.0324(10) 0.0336(9) 0.0293(10) -0.0031(9) -0.0010(9) 0.0022(8)
C2 0.0406(12) 0.0312(10) 0.0362(11) -0.0063(9) -0.0073(9) 0.0013(9)
C3 0.0479(13) 0.0298(10) 0.0430(12) 0.0019(10) -0.0066(11) -0.0010(9)
C4 0.0393(12) 0.0397(11) 0.0365(11) 0.0005(10) -0.0062(9) 0.0054(9)
C5 0.0579(15) 0.0421(12) 0.0389(12) -0.0030(10) -0.0160(12) -0.0098(11)
C6 0.0542(14) 0.0374(11) 0.0407(12) 0.0013(11) -0.0078(11) -0.0113(10)
C7 0.0320(11) 0.0327(10) 0.0288(10) 0.0028(9) -0.0006(9) -0.0013(9)
C8 0.0343(11) 0.0541(13) 0.0371(11) 0.0025(11) 0.0044(10) -0.0009(10)
C9 0.0322(12) 0.0560(13) 0.0402(12) 0.0078(12) -0.0015(10) -0.0080(10)
C10 0.0386(11) 0.0388(11) 0.0406(12) 0.0092(10) -0.0095(10) -0.0086(9)
C11 0.0540(15) 0.0540(14) 0.0663(18) -0.0048(14) -0.0143(14) -0.0164(12)
loop_
_atom_type_symbol
_atom_type_description
_atom_type_scat_dispersion_real
_atom_type_scat_dispersion_imag
_atom_type_scat_source
C C 0.0033 0.0016 'International Tables Vol C Tables 4.2.6.8 and 6.1.1.4'
H H 0.0000 0.0000 'International Tables Vol C Tables 4.2.6.8 and 6.1.1.4'
N N 0.0061 0.0033 'International Tables Vol C Tables 4.2.6.8 and 6.1.1.4'
O O 0.0106 0.0060 'International Tables Vol C Tables 4.2.6.8 and 6.1.1.4'
S S 0.1246 0.1234 'International Tables Vol C Tables 4.2.6.8 and 6.1.1.4'
loop_
_geom_angle_atom_site_label_1
_geom_angle_atom_site_label_2
_geom_angle_atom_site_label_3
_geom_angle
_geom_angle_site_symmetry_1
_geom_angle_site_symmetry_3
O2 S1 O1 118.72(9) . .
O2 S1 N2 109.81(9) . .
O1 S1 N2 102.42(9) . .
O2 S1 C1 108.72(9) . .
O1 S1 C1 108.50(9) . .
N2 S1 C1 108.14(10) . .
C4 N1 H1N1 123(2) . .
C4 N1 H2N1 114.6(17) . .
H1N1 N1 H2N1 115(3) . .
C7 N2 S1 128.43(15) . .
C7 N2 H1N2 115.7(17) . .
S1 N2 H1N2 115.6(17) . .
C8 N3 C7 115.12(19) . .
C7 N4 C10 115.89(19) . .
C6 C1 C2 119.61(19) . .
C6 C1 S1 120.25(16) . .
C2 C1 S1 120.09(16) . .
C3 C2 C1 120.24(19) . .
C3 C2 H2 119.9 . .
C1 C2 H2 119.9 . .
C2 C3 C4 120.82(19) . .
C2 C3 H3 119.6 . .
C4 C3 H3 119.6 . .
N1 C4 C5 119.8(2) . .
N1 C4 C3 122.0(2) . .
C5 C4 C3 118.1(2) . .
C6 C5 C4 120.7(2) . .
C6 C5 H5 119.6 . .
C4 C5 H5 119.6 . .
C5 C6 C1 120.5(2) . .
C5 C6 H6 119.8 . .
C1 C6 H6 119.8 . .
N4 C7 N3 127.25(19) . .
N4 C7 N2 119.58(18) . .
N3 C7 N2 113.16(18) . .
N3 C8 C9 122.9(2) . .
N3 C8 H8 118.6 . .
C9 C8 H8 118.6 . .
C8 C9 C10 117.8(2) . .
C8 C9 H9 121.1 . .
C10 C9 H9 121.1 . .
N4 C10 C9 121.1(2) . .
N4 C10 C11 117.3(2) . .
C9 C10 C11 121.6(2) . .
C10 C11 H11A 109.5 . .
C10 C11 H11B 109.5 . .
H11A C11 H11B 109.5 . .
C10 C11 H11C 109.5 . .
H11A C11 H11C 109.5 . .
H11B C11 H11C 109.5 . .
loop_
_geom_bond_atom_site_label_1
_geom_bond_atom_site_label_2
_geom_bond_distance
_geom_bond_site_symmetry_2
S1 O2 1.4288(15) .
S1 O1 1.4359(15) .
S1 N2 1.6348(18) .
S1 C1 1.737(2) .
N1 C4 1.366(3) .
N1 H1N1 0.871(17) .
N1 H2N1 0.883(16) .
N2 C7 1.385(3) .
N2 H1N2 0.858(16) .
N3 C8 1.335(3) .
N3 C7 1.340(3) .
N4 C7 1.328(3) .
N4 C10 1.351(3) .
C1 C6 1.384(3) .
C1 C2 1.386(3) .
C2 C3 1.375(3) .
C2 H2 0.9300 .
C3 C4 1.402(3) .
C3 H3 0.9300 .
C4 C5 1.398(3) .
C5 C6 1.376(3) .
C5 H5 0.9300 .
C6 H6 0.9300 .
C8 C9 1.363(3) .
C8 H8 0.9300 .
C9 C10 1.382(3) .
C9 H9 0.9300 .
C10 C11 1.493(3) .
C11 H11A 0.9600 .
C11 H11B 0.9600 .
C11 H11C 0.9600 .
loop_
_geom_torsion_atom_site_label_1
_geom_torsion_atom_site_label_2
_geom_torsion_atom_site_label_3
_geom_torsion_atom_site_label_4
_geom_torsion
_geom_torsion_site_symmetry_1
_geom_torsion_site_symmetry_2
_geom_torsion_site_symmetry_3
_geom_torsion_site_symmetry_4
O2 S1 N2 C7 -46.9(2) . . . .
O1 S1 N2 C7 -173.92(18) . . . .
C1 S1 N2 C7 71.6(2) . . . .
O2 S1 C1 C6 17.2(2) . . . .
O1 S1 C1 C6 147.60(18) . . . .
N2 S1 C1 C6 -102.02(19) . . . .
O2 S1 C1 C2 -160.51(17) . . . .
O1 S1 C1 C2 -30.1(2) . . . .
N2 S1 C1 C2 80.30(19) . . . .
C6 C1 C2 C3 -1.4(3) . . . .
S1 C1 C2 C3 176.28(16) . . . .
C1 C2 C3 C4 1.1(3) . . . .
C2 C3 C4 N1 -177.4(2) . . . .
C2 C3 C4 C5 0.1(3) . . . .
N1 C4 C5 C6 176.4(2) . . . .
C3 C4 C5 C6 -1.1(4) . . . .
C4 C5 C6 C1 0.8(4) . . . .
C2 C1 C6 C5 0.4(4) . . . .
S1 C1 C6 C5 -177.27(19) . . . .
C10 N4 C7 N3 0.1(3) . . . .
C10 N4 C7 N2 179.29(19) . . . .
C8 N3 C7 N4 -0.4(3) . . . .
C8 N3 C7 N2 -179.70(18) . . . .
S1 N2 C7 N4 3.8(3) . . . .
S1 N2 C7 N3 -176.84(15) . . . .
C7 N3 C8 C9 0.5(3) . . . .
N3 C8 C9 C10 -0.2(3) . . . .
C7 N4 C10 C9 0.3(3) . . . .
C7 N4 C10 C11 -178.07(19) . . . .
C8 C9 C10 N4 -0.2(3) . . . .
C8 C9 C10 C11 178.1(2) . . . .
