#------------------------------------------------------------------------------
#$Date: 2017-09-28 16:09:50 +0300 (Thu, 28 Sep 2017) $
#$Revision: 201435 $
#$URL: file:///home/coder/svn-repositories/cod/cif/1/54/74/1547433.cif $
#------------------------------------------------------------------------------
#
# This file is available in the Crystallography Open Database (COD),
# http://www.crystallography.net/
#
# All data on this site have been placed in the public domain by the
# contributors.
#
data_1547433
loop_
_publ_author_name
'Anuradha R. Pallipurath'
'Jonathan M. Skelton'
'Mark R. Warren'
'Naghmeh Kamali'
'Patrick McArdle'
'Andrea Erxleben'
_publ_section_title
;
 Sulfamerazine: Understanding the Influence of Slip Planes in the
 Polymorphic Phase Transformation through X-Ray Crystallographic Studies
 and ab Initio Lattice Dynamics
;
_journal_name_full               'Molecular Pharmaceutics'
_journal_page_first              3735
_journal_page_last               3748
_journal_paper_doi               10.1021/acs.molpharmaceut.5b00504
_journal_volume                  12
_journal_year                    2015
_chemical_formula_moiety         'C11 H12 N4 O2 S'
_chemical_formula_sum            'C11 H12 N4 O2 S'
_chemical_formula_weight         264.31
_chemical_name_common            Sulfamerazine
_chemical_name_systematic        4-amino-N-(4-methylpyrimidin-2-yl)
_space_group_crystal_system      orthorhombic
_space_group_IT_number           61
_space_group_name_Hall           '-P 2ac 2ab'
_space_group_name_H-M_alt        'P b c a'
_symmetry_space_group_name_Hall  '-P 2ac 2ab'
_symmetry_space_group_name_H-M   'P b c a'
_atom_sites_solution_hydrogens   mixed
_cell_angle_alpha                90
_cell_angle_beta                 90
_cell_angle_gamma                90
_cell_formula_units_Z            8
_cell_length_a                   9.1074(3)
_cell_length_b                   11.6193(5)
_cell_length_c                   22.8456(9)
_cell_measurement_reflns_used    2206
_cell_measurement_temperature    229.9(1)
_cell_measurement_theta_max      29.0350
_cell_measurement_theta_min      4.2030
_cell_volume                     2417.56(16)
_computing_cell_refinement
;
'Tue Feb 03 15:46:58 2015'
;
_computing_data_collection
;
'Tue Feb 03 15:46:58 2015'
;
_computing_data_reduction
;
'Tue Feb 03 15:46:58 2015'
;
_computing_molecular_graphics    OSCAIL
_computing_structure_refinement  'SHELXL-2014/7 (Sheldrick, 2014)'
_computing_structure_solution    SHELXT
_diffrn_ambient_temperature      229.9(1)
_diffrn_detector_area_resol_mean 16.1048
_diffrn_measured_fraction_theta_full 0.998
_diffrn_measured_fraction_theta_max 0.866
_diffrn_measurement_device_type  'Xcalibur, Sapphire3'
_diffrn_measurement_method       '\w scans'
_diffrn_radiation_type           MoK\a
_diffrn_radiation_wavelength     0.71073
_diffrn_reflns_av_R_equivalents  0.0247
_diffrn_reflns_av_unetI/netI     0.0371
_diffrn_reflns_Laue_measured_fraction_full 0.998
_diffrn_reflns_Laue_measured_fraction_max 0.866
_diffrn_reflns_limit_h_max       11
_diffrn_reflns_limit_h_min       -12
_diffrn_reflns_limit_k_max       10
_diffrn_reflns_limit_k_min       -15
_diffrn_reflns_limit_l_max       30
_diffrn_reflns_limit_l_min       -19
_diffrn_reflns_number            7239
_diffrn_reflns_point_group_measured_fraction_full 0.998
_diffrn_reflns_point_group_measured_fraction_max 0.866
_diffrn_reflns_theta_full        25.242
_diffrn_reflns_theta_max         29.370
_diffrn_reflns_theta_min         3.507
_diffrn_source                   'Enhance (Mo) X-ray Source'
_exptl_absorpt_coefficient_mu    0.268
_exptl_absorpt_correction_T_max  1.00000
_exptl_absorpt_correction_T_min  0.98008
_exptl_absorpt_correction_type   multi-scan
_exptl_absorpt_process_details
;
crysalispro, agilent technologies,
version 1.171.37.33 (release 27-03-2014 crysalis171 .net)
(compiled mar 27 2014,17:12:48)
empirical absorption correction using spherical harmonics,
 implemented in scale3 abspack scaling algorithm.
;
_exptl_crystal_colour            Colourless
_exptl_crystal_density_diffrn    1.452
_exptl_crystal_description       Parallelepiped
_exptl_crystal_F_000             1104
_exptl_crystal_size_max          0.50
_exptl_crystal_size_mid          0.40
_exptl_crystal_size_min          0.20
_refine_diff_density_max         0.286
_refine_diff_density_min         -0.426
_refine_diff_density_rms         0.055
_refine_ls_extinction_coef       .
_refine_ls_extinction_method     none
_refine_ls_goodness_of_fit_ref   1.080
_refine_ls_hydrogen_treatment    mixed
_refine_ls_matrix_type           full
_refine_ls_number_parameters     176
_refine_ls_number_reflns         2885
_refine_ls_number_restraints     3
_refine_ls_restrained_S_all      1.080
_refine_ls_R_factor_all          0.0635
_refine_ls_R_factor_gt           0.0435
_refine_ls_shift/su_max          0.001
_refine_ls_shift/su_mean         0.000
_refine_ls_structure_factor_coef Fsqd
_refine_ls_weighting_details
'w=1/[\s^2^(Fo^2^)+(0.0422P)^2^+0.9545P] where P=(Fo^2^+2Fc^2^)/3'
_refine_ls_weighting_scheme      calc
_refine_ls_wR_factor_gt          0.1001
_refine_ls_wR_factor_ref         0.1113
_reflns_Friedel_coverage         0.000
_reflns_Friedel_fraction_full    .
_reflns_Friedel_fraction_max     .
_reflns_number_gt                2185
_reflns_number_total             2885
_reflns_threshold_expression     'I > 2\s(I)'
_cod_data_source_file            Exp_Form-II2FInHouse_Form-II_230K.cif
_cod_data_source_block           smz_f2_230
_cod_database_code               1547433
_shelx_space_group_comment
;
The symmetry employed for this shelxl refinement is uniquely defined
by the following loop, which should always be used as a source of
symmetry information in preference to the above space-group names.
They are only intended as comments.
;
_shelx_res_file
;
  
    smz_f2_230.res created by SHELXL-2014/7
  
TITL smz_f2_230_a.res in Pbca
REM Old TITL smz_f2_230 in Pbca
REM SHELXT solution in Pbca
REM R1 0.127,  Rweak 0.517,  Alpha 0.026,  Orientation as input
REM Formula found by SHELXT:  C12 N3 O2 S
CELL  0.71073   9.1074  11.6193  22.8456   90.000   90.000   90.000
ZERR    8.000   0.0003   0.0005   0.0009    0.000    0.000    0.000
REM SG 61 8 8 Pbca P21/b21/c21/a PGmmm Orthorhombic
LATT 1
REM SG  ASUN  1  .5 .5 .5
REM SG  ORGN  at Inv.cen.
SYMM 0.5-X,-Y,0.5+Z
SYMM -X,0.5+Y,0.5-Z
SYMM 0.5+X,0.5-Y,-Z
SFAC C H N O S
UNIT 88 96 32 16 8
DFIX  0.89 .02  N1 H1N1 N1 H2N1 N2 H1N2
FMAP 2
PLAN -32
BOND $H
L.S. 12
ACTA
CONF
HTAB
LIST 4
WGHT    0.042200    0.954500
FVAR       0.57551
S1    5    0.667645    0.346349    0.389693    11.00000    0.02839    0.03042 =
         0.02516   -0.00238    0.00037    0.00356
O1    4    0.802531    0.397185    0.409657    11.00000    0.02590    0.04841 =
         0.02999   -0.00201   -0.00005    0.00286
O2    4    0.657893    0.223998    0.386334    11.00000    0.04970    0.02807 =
         0.03630   -0.00208    0.00052    0.00691
N1    3    0.544310    0.532708    0.154945    11.00000    0.06004    0.04072 =
         0.03545    0.00470   -0.01504   -0.00270
N2    3    0.548810    0.394901    0.437423    11.00000    0.02745    0.03397 =
         0.02963   -0.01001    0.00285   -0.00347
N3    3    0.333808    0.426206    0.485332    11.00000    0.02793    0.03650 =
         0.02864   -0.00272    0.00259   -0.00169
N4    3    0.344480    0.285543    0.409024    11.00000    0.03354    0.03273 =
         0.03119   -0.00137   -0.00353   -0.00447
C1    1    0.624488    0.403994    0.321662    11.00000    0.03021    0.02953 =
         0.02640   -0.00074   -0.00037    0.00116
C2    1    0.667776    0.515144    0.307889    11.00000    0.03466    0.02888 =
         0.03154   -0.00634   -0.00647    0.00125
AFIX  43
H2    2    0.715117    0.560181    0.335751    11.00000   -1.30000
AFIX   0
C3    1    0.640560    0.558808    0.252853    11.00000    0.04239    0.02531 =
         0.03729    0.00139   -0.00531   -0.00062
AFIX  43
H3    2    0.671170    0.633025    0.243720    11.00000   -1.30000
AFIX   0
C4    1    0.567344    0.493004    0.210352    11.00000    0.03611    0.03393 =
         0.03036   -0.00027   -0.00619    0.00535
C5    1    0.522312    0.381729    0.225816    11.00000    0.05067    0.03694 =
         0.03504   -0.00267   -0.01452   -0.00764
AFIX  43
H5    2    0.471930    0.336929    0.198713    11.00000   -1.30000
AFIX   0
C6    1    0.551544    0.337888    0.280452    11.00000    0.04675    0.03241 =
         0.03563    0.00076   -0.00662   -0.00867
AFIX  43
H6    2    0.522198    0.263461    0.289798    11.00000   -1.30000
AFIX   0
C7    1    0.401676    0.366202    0.443282    11.00000    0.02805    0.02959 =
         0.02475    0.00337    0.00073   -0.00053
C8    1    0.191817    0.400911    0.492782    11.00000    0.02994    0.04739 =
         0.03272    0.00258    0.00436   -0.00060
AFIX  43
H8    2    0.139111    0.440507    0.521244    11.00000   -1.30000
AFIX   0
C9    1    0.121070    0.319391    0.460342    11.00000    0.02807    0.04941 =
         0.03887    0.00906   -0.00160   -0.00761
AFIX  43
H9    2    0.022222    0.303272    0.466436    11.00000   -1.30000
AFIX   0
C10   1    0.200728    0.261639    0.418232    11.00000    0.03522    0.03421 =
         0.03468    0.00844   -0.00970   -0.00793
C11   1    0.133729    0.169241    0.381579    11.00000    0.04755    0.04969 =
         0.05717   -0.00442   -0.01150   -0.01403
AFIX 137
H11A  2    0.148209    0.186851    0.340932    11.00000   -1.30000
H11B  2    0.030476    0.164533    0.389687    11.00000   -1.30000
H11C  2    0.179395    0.096888    0.390537    11.00000   -1.30000
AFIX   0
H1N1  2    0.551913    0.605544    0.146633    11.00000    0.06417
H2N1  2    0.481984    0.492886    0.133949    11.00000    0.05624
H1N2  2    0.584182    0.447123    0.460291    11.00000    0.04445
HKLF 4
  
REM  smz_f2_230_a.res in Pbca
REM R1 =  0.0435 for    2185 Fo > 4sig(Fo)  and  0.0635 for all    2885 data
REM    176 parameters refined using      3 restraints
  
END
  
WGHT      0.0400      0.9697
  
REM Instructions for potential hydrogen bonds
EQIV $1 -x+3/2, y+1/2, z
HTAB C2 O2_$1
EQIV $2 -x+1, -y+1, -z+1
HTAB C8 O1_$2
EQIV $3 x-1, y, z
HTAB C9 O1_$3
EQIV $4 -x+1, y+1/2, -z+1/2
HTAB N1 O2_$4
HTAB N1 N4_$4
EQIV $5 x-1/2, y, -z+1/2
HTAB N1 O1_$5
HTAB N2 N3_$2
  
REM Highest difference peak  0.286,  deepest hole -0.426,  1-sigma level  0.055
Q1    1   0.6402  0.3782  0.3494  11.00000  0.05    0.29
Q2    1   0.5955  0.5167  0.2373  11.00000  0.05    0.22
Q3    1   0.6136  0.5472  0.2813  11.00000  0.05    0.20
Q4    1   0.6142  0.4562  0.3221  11.00000  0.05    0.20
Q5    1   0.3758  0.3953  0.5297  11.00000  0.05    0.18
Q6    1   0.3605  0.2899  0.3714  11.00000  0.05    0.18
Q7    1   0.4062  0.4788  0.5015  11.00000  0.05    0.17
Q8    1   0.6321  0.3683  0.2985  11.00000  0.05    0.17
Q9    1   0.4031  0.2330  0.3812  11.00000  0.05    0.17
Q10   1   0.2732  0.2642  0.4290  11.00000  0.05    0.17
Q11   1  -0.1381  0.1588  0.3863  11.00000  0.05    0.17
Q12   1   0.7674  0.1573  0.3617  11.00000  0.05    0.16
Q13   1   0.1523  0.0945  0.4209  11.00000  0.05    0.16
Q14   1   0.6650  0.1550  0.3188  11.00000  0.05    0.16
Q15   1   0.6621  0.1968  0.3600  11.00000  0.05    0.16
Q16   1   0.5648  0.3352  0.5080  11.00000  0.05    0.15
Q17   1   0.6838  0.1201  0.3625  11.00000  0.05    0.15
Q18   1   0.5542  0.4332  0.4419  11.00000  0.05    0.15
Q19   1   0.5449  0.2114  0.3622  11.00000  0.05    0.15
Q20   1   0.7348  0.6182  0.2301  11.00000  0.05    0.15
Q21   1   0.3667  0.3449  0.4163  11.00000  0.05    0.15
Q22   1   0.5584  0.4307  0.2155  11.00000  0.05    0.15
Q23   1   0.1356  0.3131  0.4295  11.00000  0.05    0.15
Q24   1   0.6828  0.6147  0.1679  11.00000  0.05    0.15
Q25   1   0.6799  0.7046  0.2171  11.00000  0.05    0.15
Q26   1   0.3662  0.3748  0.4706  11.00000  0.05    0.15
Q27   1   0.3248  0.2220  0.5116  11.00000  0.05    0.15
Q28   1   0.3404  0.1339  0.4475  11.00000  0.05    0.14
Q29   1   0.6318  0.6155  0.2510  11.00000  0.05    0.14
Q30   1   0.5513  0.5175  0.1006  11.00000  0.05    0.14
Q31   1   0.6402  0.5814  0.3976  11.00000  0.05    0.14
Q32   1   0.0035  0.2228  0.4881  11.00000  0.05    0.14
;
_shelx_res_checksum              19920
_shelx_hkl_file
;
   0   0  -4 2907.80   20.72
   0   0  -5   11.31    3.15
   0   0  -6 7302.25   40.81
   0   0  -7   19.30    4.57
   0   0  -8 1185.89   18.84
   0   0  -9   14.24    3.09
   0   0 -10 5711.85   46.23
   0   0 -11   95.45    7.25
   0   0 -12    2.03    1.44
   0   0 -13    1.24    1.83
   0   0 -14  864.02   21.44
   0   0 -15   24.99    4.16
   0   0 -16   18.79    3.32
   0   0  17   22.30    6.92
   0   0  18 1531.42   39.85
   0   0  19   65.36   10.49
   0   0  20  163.83   13.90
   0   0  21   11.45    5.33
   0   0  22  248.58   18.21
   0   0  23   10.74    6.12
   0   0  24   84.15   11.52
   0   0  25    6.39    4.22
   0   0  26   54.37   10.56
   0   0  27   -0.48    3.66
   0   0  28   55.46   10.77
   0   0  29    9.15    5.89
   0   1  -4    0.23    1.22
   0  -1   4   26.86    3.37
   0   1  -5    1.05    1.07
   0   1   5   -1.30    1.22
   0  -1   5    1.35    1.21
   0   1   6    0.91    1.30
   0  -1   6   -2.21    1.79
   0   1   7    3.89    1.74
   0  -1   7   -2.38    1.91
   0  -1   8   -0.59    1.86
   0   1   8    4.75    2.04
   0  -1   9   -2.12    1.45
   0  -1  10   -0.42    2.50
   0  -1  11   -4.46    3.20
   0   1 -12    5.11    2.60
   0  -1  12   -0.07    2.72
   0  -1  13   -0.52    1.92
   0   1 -13    1.68    2.41
   0  -1  14    0.24    2.34
   0   1 -14    6.29    3.14
   0  -1  15   -1.57    3.16
   0   1 -15    2.21    2.40
   0  -1  16    4.60    3.88
   0  -1  17    0.03    3.32
   0  -1  18   -0.46    3.69
   0  -1  19   -1.86    3.77
   0  -1  20   -7.14    4.51
   0  -1  21   -1.35    3.05
   0   1  22   -5.35    4.48
   0  -1  22    1.34    2.89
   0  -1  23   -1.84    3.46
   0   1  23   -2.95    4.71
   0  -1  24   -1.10    4.13
   0   1  24   -2.27    4.42
   0   1  25    3.81    4.98
   0  -1  25    6.45    4.24
   0   1  26   -2.65    5.11
   0  -1  26    4.42    4.21
   0   1  27   -4.61    4.61
   0  -1  27   -0.75    3.48
   0  -1  28    3.82    3.98
   0   1  28    0.83    3.69
   0  -1  29    0.22    3.22
   0   1  29   -6.55    6.32
   0   2   0    6.54    1.36
   0   2  -1 7339.10   37.79
   0   2   1 7201.61   39.51
   0   2   2 4524.37   33.49
   0  -2   2 4532.51   30.05
   0  -2   3 9999.00   47.47
   0   2  -3 9902.38   51.43
   0   2  -4 8016.74   48.54
   0  -2   4 8298.03   49.33
   0   2  -5 8344.43   52.78
   0  -2   5 8358.50   52.71
   0  -2   6 8183.63   55.16
   0   2  -6 8192.11   55.74
   0  -2   7   85.45    6.29
   0   2  -7   78.04    5.79
   0   2   8  572.30   12.46
   0   2  -8  593.65   16.65
   0  -2   8  591.14   16.53
   0   2   9 1971.82   24.29
   0  -2   9 1960.84   31.77
   0   2  10  981.16   18.04
   0  -2  10 1023.92   24.21
   0  -2  11 1451.30   30.52
   0   2  11 1386.45   22.40
   0   2  12  608.47   15.60
   0  -2  12  668.61   21.66
   0  -2  13  170.23   11.98
   0  -2  14  791.89   25.38
   0  -2  15   47.67    7.69
   0  -2  16   93.10    9.98
   0  -2  17  548.20   23.61
   0  -2  18  303.18   18.80
   0  -2  19  813.42   30.39
   0  -2  20  133.62   13.30
   0  -2  21   85.62   11.13
   0  -2  22   17.73    6.79
   0  -2  23  502.62   27.14
   0  -2  24   30.79    7.92
   0  -2  25   24.59    7.29
   0  -2  26  115.97   14.16
   0   2  26  100.19   13.49
   0  -2  27   15.91    6.03
   0   2  27   14.00    6.27
   0  -2  28   11.73    6.04
   0   2  28   20.30    7.57
   0   2  29   71.01   12.27
   0  -2  29   83.85   13.10
   0  -3   0   -0.66    1.52
   0   3   0    0.76    1.24
   0  -3   1    0.13    1.39
   0   3   1   -0.85    1.39
   0   3  -1    0.91    1.18
   0  -3  -1    2.84    1.57
   0  -3   2    0.08    1.35
   0   3  -2   -0.15    1.36
   0   3   2    0.10    1.39
   0  -3  -2    2.84    1.94
   0   3   3    0.30    1.09
   0   3  -3    1.77    1.56
   0   3   4    1.20    1.43
   0  -3   4    0.24    1.62
   0   3  -4   -0.91    1.58
   0  -3   5    3.95    2.24
   0   3  -5    1.33    1.45
   0  -3   6   12.21    4.00
   0   3  -6    3.44    1.62
   0   3  -7    1.34    1.60
   0  -3   7   -0.75    1.56
   0  -3   8    2.62    2.22
   0   3  -8    0.59    1.34
   0  -3   9    1.73    2.23
   0   3  -9   -1.16    1.32
   0  -3  10    1.98    2.02
   0   3 -10   -0.58    1.89
   0   3  11   -1.27    1.77
   0  -3  11    1.32    2.54
   0  -3  12    0.00    2.06
   0   3  12   -1.59    1.81
   0   3  13    2.34    1.52
   0  -3  13   -1.17    2.26
   0   3  14    1.57    2.35
   0  -3  14   -1.97    2.71
   0   3  15    1.47    2.33
   0  -3  15    1.98    2.75
   0  -3  16   -1.57    2.75
   0  -3  17    1.67    2.39
   0  -3  18    4.39    3.51
   0  -3  19    0.95    2.64
   0  -3  20    1.59    3.29
   0  -3  21    5.08    4.11
   0  -3  22   -6.04    4.15
   0  -3  23   -3.65    4.19
   0  -3  24    2.62    3.04
   0  -3  25   -6.54    4.82
   0  -3  26   -1.18    3.12
   0  -3  27   -2.11    4.22
   0   3  28   -5.63    5.00
   0  -3  28    2.68    4.69
   0  -3  29   -0.84    3.88
   0  -4   0 4260.29   40.81
   0   4   0 4412.95   41.89
   0   4   1 1622.91   25.74
   0  -4   1 1579.68   24.73
   0  -4  -1 1528.44   25.18
   0   4  -1 1625.11   25.10
   0  -4  -2 1941.34   28.80
   0   4  -2 1873.77   26.80
   0  -4   2 1822.88   26.65
   0   4   2 1829.09   28.06
   0   4   3  125.73    7.65
   0  -4  -3  130.42    7.72
   0  -4   3  121.47    6.96
   0   4  -3  133.42    7.39
   0  -4   4  238.85    9.92
   0   4  -4  243.92   10.07
   0   4   4  235.56   10.85
   0   4  -5  275.25   11.94
   0   4   5  299.01   12.49
   0  -4   5  282.80   11.08
   0   4   6  862.05   22.09
   0  -4   6  826.10   19.56
   0   4  -6  850.86   21.34
   0   4  -7  373.75   14.51
   0   4   7  371.37   15.06
   0  -4   7  376.35   13.80
   0  -4   8  284.28   12.44
   0   4  -8  274.26   12.83
   0  -4   9   15.33    3.44
   0  -4   9   15.55    3.73
   0  -4  10    4.31    2.88
   0  -4  11  109.06    9.01
   0  -4  12    7.08    3.62
   0   4  13    1.31    2.18
   0  -4  13    2.47    3.05
   0   4  14  194.02    9.89
   0  -4  14  214.29   13.99
   0   4  15   99.88    7.34
   0  -4  15  110.27   10.54
   0  -4  16  182.06   13.90
   0   4  16  178.62   10.07
   0  -4  17  627.15   26.56
   0   4  17  638.32   19.35
   0  -4  18 1615.46   42.74
   0  -4  19  449.37   24.45
   0  -4  20   12.93    6.25
   0  -4  21   45.96    8.04
   0  -4  22    0.68    2.73
   0  -4  23  119.38   14.09
   0  -4  24  334.52   23.21
   0  -4  25  139.05   15.49
   0  -4  26    9.94    5.64
   0  -4  27    2.46    4.44
   0  -4  28   46.23    9.82
   0   5   0   -0.09    1.62
   0  -5   0   -1.41    2.03
   0  -5  -1    1.87    1.94
   0   5   1   -0.22    1.56
   0  -5   1   -0.76    1.91
   0   5  -1   -0.03    1.65
   0   5   2    1.94    1.64
   0  -5  -2   -0.04    1.91
   0   5  -2   -0.64    1.29
   0  -5   2   -3.38    1.85
   0   5   3   -0.10    1.35
   0  -5   3    2.05    2.12
   0   5  -3    0.68    1.41
   0  -5  -3    1.05    1.75
   0   5  -4   -0.39    1.35
   0  -5   4   -1.19    1.86
   0   5   4    2.72    1.77
   0   5   5   -0.10    1.95
   0  -5   5   -2.74    1.94
   0   5  -5   -0.97    1.57
   0  -5   6   -4.63    3.01
   0   5  -6    0.01    1.50
   0  -5   7   -0.62    2.00
   0  -5   8    0.86    1.99
   0  -5   9    0.90    2.65
   0  -5  10    0.88    2.01
   0  -5  11   -1.38    2.11
   0  -5  12    3.38    3.10
   0  -5  13    2.09    3.48
   0  -5  13    6.01    3.61
   0   5  14   -2.49    2.67
   0  -5  14    8.31    4.23
   0  -5  15   -1.40    3.00
   0   5  15   -2.26    2.63
   0  -5  16   -1.00    3.45
   0   5  16   -1.11    2.39
   0  -5  17    4.98    4.00
   0   5  17    3.61    2.87
   0  -5  18   -4.91    3.89
   0   5  18    4.57    2.72
   0   5  19    4.33    2.90
   0  -5  19   -1.41    3.78
   0  -5  20    3.91    3.70
   0  -5  21   -0.85    3.21
   0  -5  22   -0.09    3.83
   0  -5  23   -3.49    3.87
   0  -5  24   -3.85    4.99
   0  -5  25    2.05    4.05
   0  -5  26    0.58    3.25
   0  -5  27    2.67    3.12
   0  -5  28   17.63    7.33
   0  -6   0   17.67    3.60
   0   6   0   24.27    3.85
   0  -6   1 4171.76   49.58
   0   6   1 4246.27   51.11
   0   6  -1 4225.92   50.23
   0  -6  -1 4169.17   51.08
   0  -6  -2 1421.99   30.34
   0   6  -2 1409.75   29.07
   0  -6   2 1428.35   28.95
   0  -6   3  271.23   12.72
   0   6  -3  273.28   12.96
   0  -6  -3  265.05   13.14
   0  -6   4  660.96   19.90
   0   6  -4  684.28   20.38
   0   6  -5   29.38    4.57
   0  -6   5   28.12    4.05
   0  -6   6    5.38    2.48
   0  -6   7  346.01   15.23
   0  -6   8   60.23    6.47
   0  -6   9   53.87    6.34
   0  -6  10   67.28    7.22
   0  -6  11    7.82    4.29
   0  -6  12 3406.64   53.29
   0  -6  13    7.50    4.53
   0  -6  14  310.94   17.42
   0  -6  15  616.49   24.79
   0  -6  16   87.19    9.77
   0   6  16   65.34    6.55
   0  -6  17  109.48   11.79
   0   6  17   85.19    7.53
   0  -6  18  576.15   26.18
   0   6  18  512.35   18.55
   0   6  19  323.40   14.89
   0  -6  19  321.57   20.15
   0  -6  20   88.78   12.51
   0  -6  20   78.80   11.08
   0  -6  21  435.91   25.48
   0  -6  21  417.76   24.16
   0  -6  22  265.68   20.77
   0  -6  22  302.06   21.25
   0  -6  23   14.12    5.27
   0  -6  23   15.27    6.23
   0  -6  24   62.22   10.79
   0  -6  25  149.73   16.84
   0  -6  26  184.21   18.82
   0  -6  27   13.61    7.27
   0  -6  27    7.43    5.48
   0  -6  28  113.45   15.03
   0  -7   0   -1.72    2.62
   0  -7  -1    3.78    3.12
   0  -7   1    1.79    2.06
   0  -7  -2    3.77    3.24
   0  -7   2   -1.91    2.70
   0  -7  -3    1.89    2.76
   0  -7   3    2.50    2.81
   0  -7   4   -3.34    2.94
   0  -7   5    3.77    2.81
   0  -7   6    0.90    1.92
   0  -7   7    1.92    2.21
   0  -7   8   -3.83    3.34
   0  -7   9   -1.69    3.19
   0  -7  10   -5.23    4.48
   0  -7  11    1.68    3.08
   0  -7  12   -1.19    3.22
   0  -7  13   -5.88    4.29
   0  -7  14   -2.43    3.04
   0  -7  15   -1.76    3.39
   0  -7  16    1.02    2.92
   0   7  17   -2.02    2.99
   0  -7  17   -3.23    3.99
   0   7  18   -1.63    2.92
   0  -7  18   -3.30    3.59
   0  -7  19   -2.84    3.97
   0  -7  20    0.72    3.66
   0  -7  21   -2.87    3.22
   0  -7  22    4.11    4.06
   0  -7  23    1.50    3.04
   0  -7  24    3.28    4.20
   0  -7  25   -1.87    4.52
   0  -7  26   -0.60    3.92
   0  -7  27   -1.55    3.39
   0  -7  28   -2.81    3.75
   0  -8   0  494.56   20.22
   0  -8   1   15.60    3.81
   0  -8  -1   22.05    4.83
   0  -8  -2   41.03    6.47
   0  -8   2   43.47    5.95
   0  -8  -3   14.87    4.37
   0  -8   3   10.58    3.46
   0  -8   4  193.50   12.73
   0  -8   5   81.01    8.35
   0  -8   6  256.72   14.87
   0  -8   7 1239.37   32.52
   0  -8   8  496.09   20.90
   0  -8   9  210.48   13.87
   0  -8  10  180.15   13.31
   0  -8  11 1561.85   39.19
   0  -8  12   50.14    7.88
   0  -8  13  178.50   13.52
   0  -8  14  191.77   14.90
   0  -8  15  808.85   30.22
   0  -8  16   13.59    5.66
   0  -8  17  727.20   30.01
   0  -8  18   86.51   11.30
   0  -8  19  215.49   17.14
   0  -8  20   -2.48    2.85
   0  -8  21  198.84   17.04
   0  -8  22    7.31    4.93
   0  -8  23  128.13   14.47
   0  -8  24   22.94    7.57
   0  -8  25  250.62   21.44
   0  -8  26    5.09    4.95
   0  -8  27   49.27    9.80
   0  -9   0    6.95    4.32
   0  -9  -1   -4.67    3.46
   0  -9   1    5.05    3.89
   0  -9  -2   -0.54    2.97
   0  -9   2    3.40    3.20
   0  -9   3    0.52    2.66
   0  -9  -3    8.74    3.96
   0  -9   4   -3.86    3.48
   0  -9   5   -7.64    4.65
   0  -9   6   -2.44    3.88
   0  -9   7   -1.65    2.95
   0  -9   8   -0.10    2.71
   0  -9   9    2.99    3.29
   0  -9  10   -0.12    3.15
   0  -9  11   -4.59    3.87
   0  -9  12   -1.81    3.66
   0  -9  13   -0.54    3.43
   0  -9  14   -1.72    4.27
   0  -9  15   -1.14    3.49
   0  -9  16   -5.53    4.48
   0  -9  17    0.36    2.78
   0  -9  18   -1.14    3.03
   0  -9  19   -2.24    3.39
   0  -9  20   -0.98    3.57
   0  -9  21   -0.90    3.32
   0  -9  22   -3.75    4.55
   0  -9  23    3.78    4.70
   0  -9  24   -1.28    4.46
   0  -9  25   -1.34    3.66
   0 -10   0   26.31    5.73
   0 -10  -1   10.97    3.91
   0 -10   1    9.94    3.83
   0 -10   2   12.32    4.26
   0 -10  -2   21.23    5.73
   0 -10   3   -0.17    3.08
   0 -10  -3    4.31    3.86
   0 -10   4  293.77   17.68
   0 -10   5  282.19   17.39
   0 -10   6  251.36   16.39
   0 -10   7   85.92    9.78
   0 -10   8  733.00   28.24
   0 -10   9   78.69    9.98
   0 -10  10    2.67    2.75
   0 -10  11  356.01   20.88
   0 -10  12   91.42   11.06
   0 -10  13   55.54    8.47
   0 -10  14  311.96   20.02
   0 -10  15    7.26    3.05
   0 -10  16   -4.39    3.75
   0 -10  17   13.15    5.30
   0 -10  18  159.40   15.51
   0 -10  19    9.67    4.68
   0 -10  20    8.88    4.72
   0 -10  21   46.62    9.33
   0 -10  22  336.43   23.93
   0 -10  23    0.41    3.31
   0 -11   0    0.72    2.65
   0 -11   1   -0.71    3.50
   0 -11  -1    1.12    2.76
   0 -11   2   -2.59    2.99
   0 -11  -2    0.67    3.01
   0 -11   3    2.31    3.20
   0 -11   4   -3.36    3.33
   0 -11   5    0.33    2.68
   0 -11   6    0.01    2.65
   0 -11   7    2.00    3.81
   0 -11   8   -1.10    2.78
   0 -11   9   -2.37    3.68
   0 -11  10    1.27    3.59
   0 -11  11   -2.67    3.22
   0 -11  12    1.63    2.83
   0 -11  13   -2.00    3.14
   0 -11  14   -4.39    3.83
   0 -11  15   -3.35    3.32
   0 -11  16   -4.24    4.24
   0 -11  17   -2.29    3.72
   0 -11  18    2.81    3.85
   0 -11  19   -3.64    4.03
   0 -11  20    3.40    4.70
   0 -11  21    0.59    3.11
   0 -12   0  192.04   16.42
   0 -12  -1    8.50    4.86
   0 -12   1    2.26    3.88
   0 -12   2    1.33    3.79
   0 -12  -2    2.14    3.29
   0 -12   3  143.76   14.51
   0 -12   4    9.48    4.45
   0 -12   5  111.07   12.27
   0 -12   6    2.54    3.99
   0 -12   7   30.50    6.88
   0 -12   8   25.83    6.43
   0 -12   9   25.63    7.02
   0 -12  10  352.50   22.65
   0 -12  11  153.88   15.05
   0 -12  12   44.47    8.21
   0 -12  13    1.05    3.03
   0 -12  14   15.12    5.69
   0 -12  15   -0.59    3.36
   0 -12  16    6.45    4.11
   0 -12  17   11.39    5.32
   0 -12  18   13.86    5.76
   0 -13   0    2.85    3.34
   0 -13   1    0.42    3.59
   0 -13  -1    4.42    3.92
   0 -13   2    2.60    3.42
   0 -13   3    0.33    4.10
   0 -13   4    0.67    3.71
   0 -13   5    0.58    2.67
   0 -13   6   -5.82    4.64
   0 -13   7    2.44    3.79
   0 -13   8    2.09    3.60
   0 -13   9    3.21    3.59
   0 -13  10   -0.30    2.84
   0 -13  11    0.15    3.40
   0 -13  12    3.65    2.94
   0 -13  13   -1.60    3.64
   0 -13  14    1.56    2.99
   0 -13  15   -6.58    4.72
   0 -14   0   39.05    8.52
   0 -14   1   83.28   11.97
   0 -14   2    5.53    4.75
   0 -14   3    9.20    4.12
   0 -14   4   17.14    6.11
   0 -14   5   -2.53    3.90
   0 -14   6   37.74    8.47
   0 -14   7  116.49   14.02
   0 -14   8   98.33   12.93
   0 -14   9   -1.18    3.53
   0 -14  10  121.37   14.28
   0 -14  11   10.31    4.96
   0 -14  12   41.94    8.84
   0 -15   2    1.29    3.65
   0 -15   3    7.50    4.96
   0 -15   4    6.02    5.19
   0 -15   5   -0.90    3.31
   0 -15   6    1.48    3.35
   0 -15   7    3.08    4.08
   0 -15   8   -1.73    3.39
   0 -15   9   -1.86    3.90
  -1   0   4 1935.33   21.85
   1   0  -4 1888.13   21.90
   1   0  -5    2.63    1.14
  -1   0   5   15.92    3.21
   1   0  -6 3547.08   33.91
  -1   0   6 3509.28   34.00
   1   0  -7   18.24    3.81
  -1   0   7    8.92    3.34
   1   0  -8 3438.33   37.32
   1   0  -9   18.10    4.97
   1   0 -10    5.18    2.01
   1   0 -11    3.25    2.47
  -1   0 -11    3.85    2.29
  -1   0 -12 1779.67   25.40
   1   0 -12 1847.40   32.24
  -1   0 -13   21.19    3.77
   1   0 -13   35.34    5.56
  -1   0  14  770.77   25.24
  -1   0 -14  795.61   18.55
   1   0 -14  777.91   22.17
  -1   0  15   44.31    8.44
  -1   0 -15   17.67    3.82
  -1   0  16 2313.98   47.39
  -1   0 -16 2263.65   33.92
  -1   0 -17   63.77    6.65
  -1   0  17   97.57   12.45
  -1   0  18    1.26    3.74
  -1   0 -18    1.10    1.72
   1   0  18    1.91    3.51
   1   0  19   -2.50    4.01
  -1   0 -19   -3.65    2.62
  -1   0  19    3.28    3.85
   1   0  20   93.94   10.15
  -1   0  20   96.44   10.87
  -1   0  21    3.54    2.85
   1   0  21   -2.15    3.99
  -1   0  22   63.75    9.76
   1   0  22   70.30   10.00
  -1   0  23   -1.98    3.36
   1   0  23   10.82    5.34
   1   0  24  359.03   23.24
  -1   0  24  372.06   24.61
  -1   0  25   25.92    8.60
   1   0  25   35.63    8.84
   1   0  26  458.77   27.69
  -1   0  26  468.24   28.75
  -1   0  27   20.36    7.61
   1   0  27   20.44    7.25
  -1   0  28   10.82    6.66
   1   0  28    8.72    5.12
   1   0  29    5.87    5.25
   1  -1   3  563.48    8.46
   1   1  -3  551.73   11.60
  -1   1   3  569.22   11.15
  -1  -1   3  590.61   11.75
  -1   1  -3  539.73    8.53
   1   1  -4  179.26    7.31
  -1  -1   4  183.88    7.26
   1  -1   4  188.00    5.82
  -1   1   5  704.78   13.97
   1   1  -5  670.60   15.13
  -1  -1   5  702.19   15.51
   1  -1   5  667.43   12.44
   1  -1   6  148.06    6.51
   1   1  -6  160.75    7.94
  -1   1   6  145.45    6.80
  -1  -1   6  137.93    7.43
   1   1  -6  144.68    7.57
  -1   1   7  377.71   11.70
  -1  -1   7  394.72   13.35
   1   1  -7  404.64   12.92
   1  -1   7  401.89   11.52
   1   1  -8  436.68   14.02
  -1  -1  -8  424.71    7.76
   1  -1   8  435.72   13.00
  -1   1   8  427.54   12.78
  -1  -1   8  395.77   14.23
  -1  -1   9  105.94    7.71
   1   1  -9  116.68    7.74
   1  -1   9  113.33    7.31
  -1  -1  -9  107.17    4.40
  -1   1   9  106.50    6.94
  -1  -1 -10   28.75    2.55
   1  -1  10   38.20    4.63
   1   1 -10   34.13    4.61
  -1   1  10   33.72    4.26
  -1  -1  10   40.24    5.80
  -1  -1 -11  301.59    8.62
   1  -1  11  309.33   13.24
   1   1 -11  309.65   13.34
  -1   1  11  297.50   12.32
  -1  -1  11  289.52   14.06
  -1  -1  12   56.71    7.59
   1  -1  12   53.56    6.80
   1   1 -12   53.41    6.06
  -1  -1 -12   48.47    3.94
  -1   1  12   52.61    5.98
  -1  -1  13  698.75   23.53
   1  -1  13  710.69   21.99
  -1  -1 -13  687.88   14.92
  -1  -1  14  108.00   10.94
   1  -1  14  121.56   10.00
  -1  -1  15   99.47    9.90
   1  -1  15   98.19    9.19
   1  -1  16  193.97   13.45
  -1  -1  16  221.40   15.34
  -1   1 -16  201.28   11.28
  -1   1 -17  881.08   23.68
   1  -1  17  927.27   29.34
  -1  -1  18   46.70    8.64
   1  -1  18   40.84    8.39
  -1  -1  19   15.87    6.14
   1  -1  19   15.79    5.56
  -1  -1  20  525.36   25.68
   1  -1  20  552.27   25.04
  -1   1  21   22.20    6.81
  -1  -1  21   16.51    6.47
   1  -1  21   16.92    5.97
   1  -1  22  119.75   12.77
  -1   1  22  109.06   12.60
  -1  -1  22  110.37   12.77
  -1   1  23   88.73   11.77
   1  -1  23  119.67   13.00
   1   1  23  112.18   12.60
  -1  -1  23  112.91   13.24
  -1   1  24    3.57    4.77
  -1  -1  24    6.36    5.20
   1  -1  24    8.11    5.25
   1   1  24    5.88    4.69
   1  -1  25  101.32   12.96
  -1   1  25  100.91   13.47
  -1  -1  25   97.88   13.21
   1   1  25   98.33   12.59
   1  -1  26   76.55   11.44
  -1  -1  26   79.88   12.43
  -1   1  26   91.26   12.81
   1   1  26   85.22   12.45
  -1  -1  27   13.67    6.54
   1   1  27    4.51    4.36
  -1   1  27    0.94    3.78
   1  -1  27    7.86    5.41
  -1   1  28    4.84    5.36
   1  -1  28    1.40    3.34
   1   1  28   -3.36    4.33
  -1  -1  28   10.09    6.65
   1  -1  29   12.23    5.75
   1   1  29    2.62    3.27
  -1   2   0    0.92    1.04
   1   2   0    1.61    0.77
   1  -2   0   -0.27    1.30
  -1   2  -1  135.13    6.10
   1   2  -1  135.65    4.13
  -1  -2   1  143.63    4.06
   1  -2  -1  125.30    5.80
  -1   2   1  128.27    5.94
   1  -2   1  144.56    6.19
  -1  -2   2  507.35    7.79
   1  -2   2  488.32   11.86
  -1   2   2  501.48   12.04
  -1   2  -2  527.49   12.41
   1  -2  -2  526.23   12.16
   1   2  -2  495.30    7.85
   1  -2  -3 8476.32   51.08
   1   2  -3 8254.19   51.43
  -1  -2   3 8452.96   34.49
   1  -2   3 8465.52   50.96
  -1  -2   4  354.84   11.32
   1   2  -4  370.15   11.50
  -1   2  -4  375.97    9.41
   1  -2   4  372.32   11.42
  -1   2   4  386.57   11.58
   1   2  -5 7580.11   54.16
  -1   2  -5 7601.85   45.88
  -1   2   5 7502.25   53.24
   1  -2   5 7516.37   45.57
  -1  -2   5 7452.08   53.56
   1  -2   6 1093.03   18.69
   1   2  -6 1102.87   22.03
  -1  -2   6 1108.74   21.88
  -1   2  -6 1114.43   19.02
   1  -2   7  389.00   11.82
  -1  -2   7  385.95   13.83
  -1   2  -7  383.91   11.96
   1   2  -7  411.97   14.03
   1   2   7  381.21    6.50
   1   2  -8  106.58    7.50
   1   2   8   97.60    3.63
  -1   2   8   95.36    6.14
  -1  -2   8   89.30    7.18
   1  -2   8  101.87    6.52
   1   2   9  589.17    9.75
   1  -2   9  601.60   16.76
   1   2  -9  579.36   18.33
  -1  -2   9  599.55   18.76
  -1   2   9  565.37   15.67
  -1   2  10 2766.93   35.77
   1  -2  10 2834.52   38.18
  -1  -2  10 2757.61   41.90
  -1  -2  11  205.03   12.08
   1  -2  11  210.40   11.07
  -1   2  11  192.18    9.89
  -1   2  12   43.25    4.96
  -1  -2  12   47.10    6.63
   1  -2  12   43.62    5.84
  -1  -2  13  729.71   24.36
  -1   2  13  749.33   20.59
   1  -2  13  730.71   22.41
  -1   2  14   76.66    7.34
   1  -2  14   84.66    9.14
  -1  -2  14   86.68   10.36
  -1  -2  15  602.04   23.79
   1  -2  15  558.94   21.42
  -1   2  15  588.53   19.53
  -1  -2  16  195.94   14.28
   1  -2  16  173.76   12.83
   1  -2  17  101.73   10.08
  -1  -2  17   92.85   10.31
   1  -2  18    7.72    3.96
  -1  -2  18   26.11    6.74
   1  -2  19  112.09   11.88
  -1  -2  19  134.56   13.71
   1  -2  20 1179.10   36.61
  -1  -2  20 1165.56   38.37
   1  -2  21  128.15   13.22
  -1  -2  21  121.52   14.44
  -1  -2  22   60.87   10.19
   1  -2  22   52.33    8.93
  -1  -2  23  112.18   13.19
   1  -2  23  101.10   12.06
   1  -2  24   34.81    7.54
  -1  -2  24   31.47    7.83
  -1   2  25   -0.29    4.99
   1  -2  25    0.62    3.23
  -1   2  26   53.27    9.88
   1  -2  26   57.35    9.70
   1   2  26   67.65   10.87
  -1  -2  26   63.44   10.84
  -1  -2  27  156.30   17.43
   1  -2  27  147.70   16.08
   1   2  27  150.64   16.80
  -1   2  27  118.35   14.82
  -1  -2  28    7.63    5.27
   1   2  28    4.33    4.22
  -1   2  28    7.30    4.26
   1  -2  28    9.24    5.24
   1  -2  29    9.58    5.72
   1   2  29   16.25    6.98
   1   3   0   -0.35    1.12
  -1   3   0    0.80    1.19
  -1  -3   0    1.40    1.57
   1  -3   0   -1.01    1.94
   1  -3   1 2113.76   27.60
  -1  -3   1 2027.29   20.77
   1   3  -1 1996.25   21.10
  -1   3  -1 2094.23   27.50
  -1   3   1 1973.68   27.19
   1   3   1 1975.53   23.01
   1  -3  -1 2021.64   27.13
  -1  -3   2  456.64    9.85
   1   3   2  448.48   11.59
   1  -3  -2  464.49   13.37
  -1   3   2  452.23   13.27
   1   3  -2  444.63    9.79
   1  -3   2  473.24   13.34
  -1   3  -2  451.79   12.98
  -1   3   3 2895.55   34.14
  -1   3  -3 2793.51   33.03
   1  -3  -3 2705.77   33.30
   1   3  -3 2787.20   25.20
  -1  -3   3 2787.08   24.71
   1  -3   3 2796.53   32.74
  -1   3  -4  316.25   10.24
   1  -3  -4  318.53   11.91
   1   3  -4  324.39   11.93
   1  -3   4  321.30   11.54
  -1  -3   4  307.28    8.60
  -1   3   4  342.58   12.23
   1  -3   5  924.41   20.25
  -1   3  -5  881.86   17.63
   1   3  -5  894.38   20.56
  -1   3   5  905.10   20.64
  -1  -3   5  904.06   15.68
  -1  -3   6  540.31   16.59
  -1   3  -6  530.78   14.28
  -1   3   6  600.95   17.24
  -1  -3   6  562.87   13.21
   1  -3   6  548.28   16.50
   1   3  -6  554.15   16.65
  -1   3  -7   79.74    5.89
  -1  -3   7   78.96    6.67
   1   3  -7   78.87    6.58
   1  -3   7   83.35    6.06
  -1   3   7   85.05    6.94
  -1  -3   8 2868.75   41.26
  -1   3  -8 2932.74   37.09
   1   3  -8 2959.09   41.55
   1  -3   8 2846.79   36.67
  -1   3  -9  302.19   12.46
  -1  -3   9  280.80   13.52
   1  -3   9  286.23   12.22
  -1   3 -10  655.12   19.15
   1   3  10  692.47   12.03
   1  -3  10  671.50   19.38
  -1  -3  10  672.20   21.54
   1   3  11   73.18    4.13
  -1  -3  11   66.18    7.18
  -1   3  11   65.76    5.72
   1  -3  11   76.43    6.93
  -1  -3  12  146.76   10.67
   1  -3  12  139.48    9.77
   1   3  12  147.19    6.11
  -1   3  12  143.32    8.76
   1  -3  13    2.68    1.95
  -1  -3  13   -0.14    2.44
  -1   3  13    4.11    1.92
  -1  -3  14  119.21   10.45
   1  -3  14  120.85    9.71
  -1   3  14  105.15    8.02
  -1   3  15    0.22    1.96
  -1  -3  15   -0.79    2.96
   1  -3  15   -0.87    2.92
  -1   3  16    4.08    2.92
  -1  -3  16    2.48    3.09
   1  -3  16   -2.03    3.36
   1  -3  17   49.40    7.08
  -1  -3  17   60.72    8.24
  -1   3  17   63.07    7.13
   1  -3  18   72.59    9.88
  -1  -3  18   92.36   11.72
   1  -3  19  701.72   27.63
  -1  -3  19  726.56   29.70
   1  -3  20  135.75   12.92
  -1  -3  20  170.47   15.38
  -1  -3  21  188.98   16.20
   1  -3  21  176.42   15.15
  -1  -3  22   40.35    8.60
   1  -3  22   32.03    7.53
  -1  -3  23   61.49   10.27
   1  -3  23   56.38    9.01
   1  -3  24   -0.38    2.83
  -1  -3  24    1.97    3.83
   1  -3  25   44.02    8.50
  -1  -3  25   44.62    9.13
   1  -3  26    8.81    4.63
  -1  -3  26   23.55    7.43
  -1   3  27   -2.52    4.16
  -1  -3  27    2.48    3.16
   1  -3  27    4.12    4.26
   1  -3  28    4.71    4.26
  -1  -3  28    3.94    4.33
   1  -3  29    3.74    3.74
   1  -4   0   -1.52    1.87
   1   4   0   -0.75    1.18
  -1  -4   0    1.49    1.33
  -1   4   0   -0.54    1.12
   1  -4  -1   11.57    2.43
  -1  -4   1   13.81    2.25
  -1  -4  -1   13.12    2.51
   1   4  -1   15.35    2.32
  -1   4  -1   13.74    2.83
   1   4   1   11.60    2.30
  -1   4   1   14.72    2.93
   1  -4   1   14.60    2.93
   1   4  -2 2157.99   26.28
  -1   4   2 2185.44   32.32
   1   4   2 2162.17   29.17
   1  -4  -2 2187.50   32.64
  -1  -4   2 2145.08   25.91
   1  -4   2 2139.27   31.71
  -1   4  -2 2124.58   31.85
   1   4   3   36.84    4.02
   1  -4   3   38.54    4.64
  -1  -4   3   36.19    3.49
   1  -4  -3   34.43    4.41
  -1   4  -3   37.75    4.39
   1   4  -3   38.69    3.94
  -1   4   3   37.55    4.34
   1  -4   4  767.94   19.36
  -1   4   4  784.45   20.37
  -1  -4   4  750.44   15.69
   1   4  -4  804.95   16.41
  -1   4  -4  771.93   19.94
   1   4   4  768.37   18.80
   1  -4  -4  786.23   20.56
  -1   4  -5 1010.53   21.30
   1  -4   5 1029.89   23.14
   1   4  -5 1031.77   24.19
  -1   4   5 1040.05   24.09
  -1  -4   5 1004.21   18.60
  -1   4  -6  540.02   15.93
  -1  -4   6  513.28   13.94
   1   4  -6  545.99   17.86
   1  -4   6  545.48   17.26
  -1   4   6  537.98   17.93
   1  -4   7 1209.82   26.68
  -1  -4   7 1174.41   21.98
  -1   4  -7 1207.31   24.61
  -1   4   7 1242.16   27.86
   1   4  -7 1209.46   27.46
  -1  -4   8 2052.08   30.60
   1  -4   8 2066.88   36.32
  -1   4  -8 2043.78   33.17
   1  -4   9 1789.38   34.59
  -1   4  -9 1814.07   32.38
  -1  -4   9 1793.49   35.46
  -1  -4   9 1758.93   29.51
   1  -4  10  527.76   18.27
  -1   4 -10  551.78   18.58
  -1  -4  10  532.22   20.26
  -1  -4  11    2.31    2.82
   1  -4  11    7.20    2.83
  -1  -4  12  101.12    9.41
   1   4  12   83.69    4.93
   1  -4  12   89.94    8.11
   1  -4  13   92.13    8.75
  -1   4  13   80.22    7.02
  -1  -4  13   84.90    8.68
   1   4  13   84.72    5.24
   1  -4  14  442.54   19.09
  -1   4  14  456.41   16.98
   1   4  14  452.54   12.27
  -1  -4  14  468.79   21.19
  -1   4  15   29.59    4.64
   1  -4  15   37.30    5.95
   1   4  15   34.08    3.82
  -1  -4  15   29.46    6.43
  -1   4  16   37.85    5.28
  -1  -4  16   38.15    6.96
   1  -4  16   33.20    6.30
  -1   4  17  334.89   15.70
   1  -4  17  332.94   18.25
  -1  -4  17  332.41   19.77
  -1   4  18  226.14   13.44
  -1  -4  18  224.62   16.53
   1  -4  18  230.88   15.82
   1  -4  19  130.20   12.45
  -1  -4  19  152.64   14.17
  -1   4  19  140.71   10.94
  -1  -4  20    8.21    5.14
   1  -4  20    4.21    3.97
  -1  -4  21   86.76   11.33
   1  -4  21   86.54   10.79
   1  -4  22   59.82    9.73
  -1  -4  22   57.36    9.74
  -1  -4  23  298.47   21.90
   1  -4  23  286.42   20.39
  -1  -4  24   21.65    7.39
   1  -4  24    7.32    4.37
   1  -4  25    1.72    2.74
  -1  -4  25    2.27    4.26
  -1  -4  26   38.22    8.84
   1  -4  26   24.66    7.16
  -1  -4  27   44.71    9.58
   1  -4  27   43.61    9.13
   1  -4  28    2.01    3.38
  -1  -4  28    4.82    4.80
   1  -4  29    0.56    3.74
  -1   5   0    0.35    1.46
   1  -5   0    0.43    2.02
  -1  -5   0    0.74    1.47
   1   5   0   -0.18    1.28
   1  -5   1  800.10   21.16
   1  -5  -1  729.80   20.53
  -1   5  -1  794.86   21.39
   1   5  -1  741.05   17.74
  -1  -5   1  747.16   17.72
   1   5   1  771.22   18.94
  -1   5   1  818.91   21.58
  -1  -5  -1  782.23   18.80
  -1   5   2    3.33    1.76
   1  -5  -2    7.58    2.87
  -1   5  -2    4.35    1.73
  -1  -5   2    5.35    1.63
   1  -5   2    6.57    2.64
   1   5   2    7.04    2.07
   1   5  -2    8.27    2.29
   1   5   3   33.18    4.27
  -1   5  -3   33.64    4.50
   1  -5   3   35.19    4.76
   1   5  -3   33.17    3.93
  -1   5   3   35.68    4.53
  -1  -5   3   32.71    3.79
   1  -5  -3   31.30    4.65
   1  -5   4   80.76    6.92
  -1   5  -4   93.89    7.48
   1   5  -4   91.37    6.21
  -1  -5   4   89.04    6.21
   1  -5  -4   82.49    7.45
   1   5   4   94.20    7.20
   1   5   5   97.01    7.67
   1  -5   5   89.28    7.46
   1   5  -5   92.02    6.65
  -1   5  -5   90.65    7.73
   1  -5  -5   83.66    7.77
  -1  -5   5   84.78    6.11
   1  -5   6   78.50    7.03
  -1   5  -6   75.82    6.64
  -1  -5   6   85.80    6.62
   1  -5   7   -1.64    3.89
  -1  -5   7   -2.27    2.57
  -1   5  -7   -1.31    1.92
  -1  -5   8  743.42   19.54
   1  -5   8  756.39   22.87
  -1   5  -8  775.11   21.91
   1  -5   9 1206.05   29.57
  -1  -5   9 1163.03   25.18
  -1  -5  10   -0.96    2.14
   1  -5  10    0.54    2.24
  -1  -5  11  142.04    9.81
   1  -5  11  147.75   11.28
   1  -5  12    6.47    3.19
  -1  -5  12    1.82    2.09
  -1  -5  13   49.40    6.66
   1  -5  13   64.75    8.20
  -1  -5  13   67.04    8.52
   1  -5  14  225.25   14.24
   1  -5  14  224.91   14.84
  -1  -5  14  224.11   15.61
   1   5  14  213.54    9.02
   1   5  15  103.62    6.44
  -1   5  15  116.89    9.14
   1  -5  15  118.75   10.85
  -1  -5  15  119.50   11.73
  -1  -5  16   83.19   10.06
  -1   5  16   70.86    7.19
   1  -5  16   82.79    9.46
   1   5  16   88.51    6.10
   1   5  17   57.10    5.08
   1  -5  17   48.17    7.27
  -1  -5  17   45.84    7.70
  -1   5  17   45.45    5.99
  -1  -5  18   -3.52    4.13
  -1   5  18    0.00    2.06
   1  -5  18   -5.95    4.26
  -1  -5  19   48.46    8.31
   1  -5  19   40.84    7.46
  -1   5  19   56.64    7.38
  -1  -5  20   72.82   10.60
  -1   5  20   86.08    9.03
   1  -5  20   93.12   11.09
   1  -5  21   69.95    9.89
  -1   5  21   61.51    7.62
  -1  -5  21   66.56   10.05
   1  -5  22   26.32    6.57
  -1  -5  22   20.28    6.07
   1  -5  23   30.13    7.18
  -1  -5  23   27.32    7.01
   1  -5  24    7.05    5.07
  -1  -5  24   -7.50    6.38
  -1  -5  25   -0.19    4.05
   1  -5  25    1.61    3.46
  -1  -5  26   33.13    8.35
   1  -5  26   37.56    8.27
  -1  -5  27    4.96    4.08
   1  -5  27    8.87    4.83
   1  -5  28   -0.45    3.30
   1  -6   0   -3.37    2.86
   1   6   0    0.36    1.32
  -1  -6   0   -2.74    2.16
  -1  -6   1 2159.59   33.87
   1   6   1 2268.39   35.62
   1   6  -1 2173.39   34.02
  -1  -6  -1 2176.27   34.81
   1  -6  -1 2211.65   38.77
   1  -6   1 2201.21   38.53
   1   6   2   32.89    4.59
  -1  -6   2   30.25    4.10
   1   6  -2   34.35    4.32
   1  -6   2   28.69    4.75
   1  -6  -2   35.32    5.60
   1   6   3  546.23   18.16
   1  -6  -3  543.85   19.75
  -1  -6   3  530.32   16.70
   1  -6   3  550.93   19.28
   1   6  -3  562.67   17.11
   1  -6  -4   41.56    6.11
   1   6  -4   39.85    4.71
  -1  -6   4   35.60    4.43
   1  -6   4   40.68    5.62
   1  -6  -5 1458.61   33.53
   1   6  -5 1472.15   28.34
   1  -6   5 1477.72   32.25
  -1  -6   5 1451.26   27.66
  -1  -6   6   51.50    5.46
   1  -6   6   49.81    6.33
   1  -6   7  254.20   14.09
  -1  -6   7  262.51   12.32
   1  -6   8  184.35   12.25
  -1  -6   8  177.46   10.27
   1  -6   9  704.65   24.23
  -1  -6   9  711.58   21.03
  -1  -6  10  168.67   10.80
   1  -6  10  170.34   12.13
  -1  -6  11  459.28   18.08
   1  -6  11  450.91   20.38
   1  -6  12  485.50   21.57
  -1  -6  12  500.73   19.16
   1  -6  13  262.10   16.09
  -1  -6  13  257.08   14.52
  -1  -6  14   35.53    5.32
   1  -6  14   38.11    6.30
   1   6  15  217.75    9.96
   1  -6  15  233.20   16.06
  -1  -6  15  219.05   14.22
   1  -6  16    0.93    3.06
  -1   6  16    0.24    2.66
  -1  -6  16    4.71    3.59
   1   6  16    3.93    1.58
   1   6  17    0.39    1.47
  -1  -6  17    1.45    2.77
  -1   6  17   -4.31    4.07
   1  -6  17    1.82    2.81
  -1  -6  18   26.10    5.49
   1  -6  18   22.12    6.17
  -1   6  18   26.02    4.89
   1  -6  19    4.47    4.54
  -1  -6  19   -2.65    2.57
  -1   6  19   -1.77    2.94
   1  -6  20  219.75   17.87
  -1   6  20  192.94   12.99
  -1  -6  20  178.31   15.09
  -1  -6  20  210.50   17.87
  -1  -6  21   -0.64    4.20
  -1  -6  21    9.89    5.12
   1  -6  21   10.44    5.90
  -1  -6  22  152.89   15.99
  -1  -6  22  151.50   14.51
   1  -6  22  141.31   15.28
   1  -6  23   25.33    6.91
  -1  -6  23   26.85    7.92
   1  -6  23   15.75    6.07
   1  -6  24   33.15    7.92
  -1  -6  24   33.67    8.52
   1  -6  24   49.92   10.13
   1  -6  25    8.52    4.47
  -1  -6  25   20.81    7.53
   1  -6  25    8.66    4.94
   1  -6  26   15.21    6.06
   1  -6  26    7.52    4.68
  -1  -6  26   21.16    7.31
   1  -6  27   19.04    6.93
   1  -6  27   11.31    6.49
   1  -6  28  109.59   14.56
  -1  -6  28  110.52   14.43
   1  -6  28  119.68   15.92
   1  -7   0    1.80    2.91
  -1  -7   0    0.45    1.79
  -1  -7   1  196.88   11.31
   1  -7  -1  195.38   12.49
   1  -7   1  216.69   13.16
  -1  -7  -1  209.36   11.86
   1  -7  -2   13.98    4.21
   1  -7   2   15.41    4.17
  -1  -7  -2   13.15    3.65
  -1  -7   2   14.39    3.10
   1   7  -3   18.17    3.58
   1  -7  -3   16.95    4.45
  -1  -7   3   15.84    3.33
   1  -7   3   14.27    3.90
   1  -7  -4  174.55   12.59
   1  -7   4  180.56   12.18
  -1  -7   4  180.33   10.72
  -1  -7   5  650.74   20.22
   1  -7  -5  667.80   24.43
   1  -7   5  663.64   23.22
   1  -7   6  202.75   13.08
  -1  -7   6  203.50   11.53
   1  -7   7    6.92    3.19
  -1  -7   7   -3.05    2.72
  -1  -7   8  178.17   11.08
   1  -7   8  178.65   12.59
  -1  -7   9   53.20    6.38
   1  -7   9   46.47    6.52
   1  -7  10  113.78   10.49
  -1  -7  10  110.60    9.35
  -1  -7  11    8.58    3.14
   1  -7  11   14.05    5.14
   1  -7  12    7.30    4.06
  -1  -7  12    8.98    3.09
   1  -7  13  439.67   21.62
  -1  -7  13  385.03   18.29
   1  -7  14  601.34   26.15
  -1  -7  14  596.92   23.21
  -1  -7  15    3.05    3.20
   1  -7  15   -2.69    3.65
  -1  -7  16   -2.49    2.59
   1  -7  16    4.84    3.44
  -1   7  17  253.31   15.04
   1  -7  17  237.51   17.74
  -1  -7  17  264.23   17.05
   1  -7  18   73.30   10.36
  -1  -7  18   85.50   10.10
  -1   7  18   85.24    8.77
  -1   7  19  125.58   10.82
   1  -7  19  112.71   13.04
  -1  -7  19  109.87   11.73
   1  -7  20    5.25    3.75
  -1  -7  20    5.07    2.66
  -1  -7  21    7.43    3.82
   1  -7  21    0.90    3.16
   1  -7  22   -0.41    3.85
  -1  -7  22    0.95    3.74
   1  -7  23   80.31   12.19
  -1  -7  23   84.51   11.35
   1  -7  24    0.70    4.92
  -1  -7  24    0.91    2.78
  -1  -7  25    5.98    3.75
   1  -7  25    8.68    5.23
   1  -7  26    2.56    3.96
  -1  -7  26    4.55    4.27
   1  -7  27   76.22   12.90
   1  -8   0    3.74    2.73
  -1  -8   0    0.84    2.20
   1  -8  -1 1207.06   33.10
  -1  -8   1 1183.52   29.85
   1  -8   1 1206.29   32.72
  -1  -8  -1 1178.42   30.19
   1  -8  -2  128.10   11.48
  -1  -8  -2  160.35   11.66
   1  -8   2  151.30   11.72
  -1  -8   2  150.98   10.76
   1  -8  -3   28.15    5.91
  -1  -8   3   27.46    4.35
   1  -8   3   21.81    4.63
   1  -8   4   14.74    3.65
   1  -8  -4   10.82    4.55
  -1  -8   4   10.60    3.29
   1  -8  -5 1065.25   32.80
   1  -8   5 1116.85   32.04
  -1  -8   5 1052.12   27.77
  -1  -8   6   39.04    5.52
   1  -8   6   43.43    6.96
   1  -8   7  316.55   17.44
  -1  -8   7  322.45   15.72
   1  -8   8   26.42    6.29
  -1  -8   8   19.50    4.24
   1  -8   9 1960.38   44.22
  -1  -8   9 1911.55   39.21
   1  -8  10   53.15    8.55
  -1  -8  10   41.85    6.36
  -1  -8  11   13.38    3.61
   1  -8  11   26.85    6.32
  -1  -8  12  268.72   15.49
   1  -8  12  267.83   17.21
   1  -8  13  135.62   12.60
  -1  -8  13  130.55   11.11
  -1  -8  14    9.21    3.50
   1  -8  14    3.47    2.65
   1  -8  15   90.48   10.69
  -1  -8  15   93.99   10.04
  -1  -8  16    3.50    2.57
   1  -8  16    0.98    3.41
  -1  -8  17  202.34   15.21
   1  -8  17  176.62   15.48
   1  -8  18    4.38    4.69
  -1   8  18   -1.33    2.79
  -1  -8  18   10.53    4.76
  -1  -8  19  330.00   20.30
   1  -8  19  316.05   21.76
  -1  -8  20   -2.73    2.83
   1  -8  20    3.68    4.20
   1  -8  21  123.88   14.25
  -1  -8  21   93.51   11.29
   1  -8  22    5.29    3.49
  -1  -8  22   14.06    4.91
   1  -8  23  130.14   15.16
  -1  -8  23  132.50   14.24
   1  -8  24    1.91    3.88
  -1  -8  24    1.46    3.72
   1  -8  25   32.90    8.47
   1  -8  26    5.11    6.25
  -1  -9   0    1.17    2.76
   1  -9   0   -3.18    3.95
  -1  -9  -1   67.24    8.22
  -1  -9   1   60.89    7.53
   1  -9  -1   54.83    7.94
   1  -9   1   50.53    7.51
   1  -9   2  119.40   11.39
  -1  -9   2  133.57   10.83
   1  -9  -2  136.04   12.31
   1  -9  -3  208.79   15.33
   1  -9   3  207.73   14.79
  -1  -9   3  195.04   13.14
  -1  -9   4   72.17    7.90
   1  -9   4   75.17    8.86
   1  -9  -4   71.02    9.36
   1  -9   5   14.63    3.96
   1  -9  -5   18.62    5.71
  -1  -9   5   10.45    3.48
  -1  -9   6  116.33   10.29
   1  -9   6  116.28   11.03
   1  -9   7   -1.98    3.27
  -1  -9   7   -2.04    3.81
  -1  -9   8   31.53    5.82
   1  -9   8   38.09    7.61
  -1  -9   9 1613.93   38.53
   1  -9   9 1565.79   41.58
  -1  -9  10   41.56    6.79
   1  -9  10   44.96    7.94
  -1  -9  11   48.75    6.94
   1  -9  11   46.01    7.17
  -1  -9  12    6.68    2.27
   1  -9  12    4.12    3.45
  -1  -9  13    5.21    2.70
   1  -9  13   -0.90    3.66
   1  -9  14   10.62    4.89
  -1  -9  14   14.39    4.34
  -1  -9  15   50.11    7.57
   1  -9  15   55.86    9.01
  -1  -9  16  108.81   11.25
   1  -9  16  111.46   12.37
  -1  -9  17   15.55    4.88
   1  -9  17    8.70    4.27
  -1  -9  18   62.41    9.00
   1  -9  18   53.83    9.09
  -1  -9  19   55.10    8.83
   1  -9  19   53.90    9.40
   1  -9  20   43.81    9.46
  -1  -9  20   41.85    8.14
  -1  -9  21   77.12   10.66
   1  -9  21   65.93   11.23
  -1  -9  22   14.24    5.32
   1  -9  22   26.46    7.47
   1  -9  23    4.88    4.80
   1  -9  24   29.29    7.80
   1  -9  25    1.33    3.98
  -1 -10   0   -1.22    2.59
   1 -10   0   -4.61    4.30
   1 -10   1  116.81   12.06
  -1 -10   1  117.69   10.92
   1 -10  -1  119.21   11.99
  -1 -10  -1  117.66   11.23
   1 -10   2   64.93    9.07
   1 -10  -2   60.66    9.05
  -1 -10   2   62.39    8.27
  -1 -10   3  312.91   17.87
   1 -10   3  309.34   18.91
   1 -10  -3  302.29   19.28
   1 -10  -4   13.06    4.95
   1 -10   4   17.13    5.85
  -1 -10   4    6.64    2.97
  -1 -10   5  259.32   16.13
   1 -10   5  269.21   17.81
  -1 -10   6  205.03   14.30
   1 -10   6  189.79   14.85
  -1 -10   7  144.57   12.09
   1 -10   7  145.84   13.19
  -1 -10   8   86.78    9.39
   1 -10   8   79.71   10.17
  -1 -10   9   98.49   10.47
   1 -10   9  109.43   12.06
  -1 -10  10  529.58   23.48
   1 -10  10  539.24   25.98
   1 -10  11   30.69    6.44
  -1 -10  11   29.19    5.83
  -1 -10  12  110.35   10.98
   1 -10  12   98.84   11.37
   1 -10  13   80.32   10.34
  -1 -10  13   84.46    9.76
   1 -10  14    0.17    2.86
  -1 -10  14    7.50    2.87
   1 -10  15   -4.29    3.85
  -1 -10  15    1.22    2.51
   1 -10  16  138.97   14.74
  -1 -10  16  148.60   13.91
   1 -10  17   21.90    6.86
  -1 -10  17   20.08    5.75
   1 -10  18    8.06    4.25
  -1 -10  18   15.86    5.10
  -1 -10  19    7.69    4.66
   1 -10  19    5.21    4.81
  -1 -10  20  221.69   18.07
   1 -10  20  211.92   19.08
   1 -10  21    0.42    3.24
   1 -10  22   14.36    5.50
   1 -10  23    0.57    3.42
   1 -10  24   41.15    9.56
  -1 -11   0    0.81    2.83
   1 -11   0   -0.80    2.78
   1 -11   1    1.02    2.98
  -1 -11   1    5.03    3.20
   1 -11  -1   -0.16    3.34
  -1 -11   2    5.54    2.98
   1 -11   2    3.71    2.92
   1 -11  -2    4.60    3.48
   1 -11  -3   63.08    9.85
   1 -11   3   64.00    9.76
  -1 -11   3   72.10    9.23
   1 -11   4   50.77    8.48
   1 -11  -4   40.19    7.70
  -1 -11   4   51.28    7.69
   1 -11   5   -1.62    2.73
  -1 -11   5   -1.59    3.03
   1 -11   6   14.88    5.73
  -1 -11   6    8.85    3.42
   1 -11   7   34.89    7.00
  -1 -11   7   28.23    5.69
  -1 -11   8  183.41   14.67
   1 -11   8  197.80   16.36
   1 -11   9    6.51    3.52
  -1 -11   9   15.68    5.40
  -1 -11  10  256.76   17.32
   1 -11  10  243.84   18.47
  -1 -11  11   12.88    4.45
   1 -11  11   22.40    6.48
   1 -11  12   53.48    8.66
  -1 -11  12   64.53    8.87
  -1 -11  13    8.40    2.75
   1 -11  13    7.20    4.63
  -1 -11  14   -1.58    2.88
   1 -11  14   -2.72    4.29
   1 -11  15    0.36    3.50
  -1 -11  15   -6.67    4.46
  -1 -11  16    2.14    2.60
   1 -11  16    3.97    3.26
   1 -11  17   19.92    6.18
  -1 -11  17   24.01    5.61
   1 -11  18   -2.33    3.99
   1 -11  19   28.58    7.62
   1 -11  20   27.26    7.60
   1 -11  21   13.57    6.40
   1 -11  22    1.89    3.11
  -1 -12   0    1.34    3.56
   1 -12   0   -2.21    3.98
  -1 -12   1    6.58    4.67
   1 -12  -1    3.29    3.40
   1 -12   1    3.63    2.86
   1 -12   2   73.97   10.62
   1 -12  -2   64.91   10.52
  -1 -12   2   68.24    9.60
   1 -12   3   14.60    5.16
  -1 -12   3   11.05    5.19
   1 -12  -3    2.97    3.39
   1 -12   4    1.00    3.47
  -1 -12   4    0.26    3.21
  -1 -12   5    2.48    2.74
   1 -12   5    8.82    4.64
  -1 -12   6   13.32    3.98
   1 -12   6   11.65    4.54
   1 -12   7   28.04    7.12
  -1 -12   7   23.46    5.63
   1 -12   8   45.98    9.02
  -1 -12   8   34.75    7.09
  -1 -12   9  107.49   11.93
   1 -12   9  101.45   12.46
   1 -12  10   15.20    5.93
  -1 -12  10    8.41    3.86
  -1 -12  11    6.06    3.96
   1 -12  11    6.27    3.72
  -1 -12  12   13.50    4.73
   1 -12  12   13.01    5.64
  -1 -12  13  192.66   16.37
   1 -12  13  201.60   18.10
   1 -12  14   -3.68    3.92
  -1 -12  14    2.56    3.96
   1 -12  15    4.41    3.67
   1 -12  16   80.09   12.03
   1 -12  17   18.26    6.26
   1 -12  18    2.73    3.48
   1 -12  19   72.03   11.91
   1 -12  20   -4.75    4.19
   1 -13   0   -1.30    3.46
  -1 -13   1   52.66    8.78
   1 -13   1   46.71    9.17
   1 -13  -1   41.76    8.17
  -1 -13   2   19.05    5.39
   1 -13   2   30.48    7.74
   1 -13  -2   27.14    7.32
  -1 -13   3   28.21    6.46
   1 -13   3   21.09    6.44
   1 -13   4   49.38    9.49
  -1 -13   4   46.55    8.05
   1 -13   5   -3.61    4.45
  -1 -13   5   -2.92    4.95
  -1 -13   6    5.31    4.14
   1 -13   6    2.76    3.91
  -1 -13   7    8.32    4.45
   1 -13   7    6.18    3.86
  -1 -13   8   -1.00    3.21
   1 -13   8    1.00    4.15
   1 -13   9   79.36   11.91
  -1 -13   9   80.19   10.61
  -1 -13  10    4.73    4.31
   1 -13  10    8.35    4.26
   1 -13  11    0.42    3.78
  -1 -13  11   -0.84    4.32
   1 -13  12   31.28    7.61
   1 -13  13    0.50    4.11
   1 -13  14   18.13    6.66
   1 -13  15   61.54   10.82
   1 -13  16    2.66    3.28
   1 -13  17    3.23    3.06
   1 -13  18    7.18    4.77
   1 -14   0    5.89    4.52
   1 -14  -1   18.74    6.80
   1 -14   1   11.73    4.79
  -1 -14   2   23.94    6.36
   1 -14   2   22.34    6.93
  -1 -14   3   26.79    6.85
   1 -14   3   25.30    7.19
  -1 -14   4    0.65    2.88
   1 -14   4   -2.48    3.61
  -1 -14   5   74.39   10.89
   1 -14   5   80.91   11.89
  -1 -14   6   97.92   12.60
   1 -14   6   84.57   12.62
   1 -14   7   -1.58    3.10
  -1 -14   7    1.53    3.62
  -1 -14   8   12.05    5.04
   1 -14   8    8.16    5.67
   1 -14   9   18.27    6.84
   1 -14  10   42.05    8.82
   1 -14  11    0.70    3.26
   1 -14  12   24.31    7.35
   1 -14  13   18.96    6.04
   1 -14  14   19.88    7.06
   1 -14  15   67.57   11.92
   1 -15   0    2.19    3.75
   1 -15   1    7.51    5.01
   1 -15   2   77.04   12.34
   1 -15   3   23.23    6.80
  -1 -15   4    9.72    5.09
   1 -15   4   16.92    6.70
   1 -15   5    1.92    3.82
   1 -15   6   40.58    9.43
   1 -15   7   35.99    9.28
   1 -15   8   33.88    9.31
   1 -15   9   10.07    4.90
   1 -15  10   38.12    8.86
   2   0   0  824.19   11.45
   2   0   0  792.49    9.26
  -2   0   1    1.46    0.95
   2   0  -1    0.25    0.82
   2   0  -1    0.10    0.89
  -2   0   1    1.15    1.31
  -2   0   2 6112.44   42.99
  -2   0   2 6127.16   34.98
   2   0  -2 6255.10   29.75
  -2   0   3    0.75    0.73
  -2   0   3   -0.58    1.17
   2   0  -3    2.15    1.08
  -2   0   4 3257.39   31.59
  -2   0   4 3313.08   25.45
  -2   0   4 3302.75   35.17
   2   0  -4 3314.58   35.13
   2   0  -5   -3.65    2.40
  -2   0   5   -2.13    1.83
  -2   0   5   -3.25    2.53
  -2   0   6  527.23   14.81
   2   0  -6  535.83   15.35
  -2   0   6  534.81   15.48
   2   0  -7    7.26    2.97
  -2   0   7    6.97    3.27
  -2   0   8 2221.92   34.19
   2   0  -8 2311.80   34.45
  -2   0   8 2233.44   34.17
  -2   0   9    9.40    4.10
   2   0  -9   17.84    4.55
  -2   0  10 5419.76   56.90
  -2   0  10 5312.69   58.37
   2   0 -11   39.29    6.57
  -2   0  11  162.19   14.45
  -2   0  12 1245.34   30.59
  -2   0  13   68.06   10.29
  -2   0 -14 1610.53   23.81
  -2   0  14 1708.99   38.78
  -2   0  15   49.28    9.56
  -2   0 -15    6.90    3.21
  -2   0  16  101.32   10.68
  -2   0 -16   89.63    6.27
  -2   0  17    6.00    4.13
  -2   0 -17   -0.55    1.45
  -2   0 -18  173.75    9.11
  -2   0  18  169.81   14.33
  -2   0 -19   -0.03    1.68
   2   0  19   -0.34    2.63
  -2   0  20   55.07    8.75
   2   0  20   66.05    8.65
  -2   0  21    2.71    3.03
   2   0  21    2.65    3.03
  -2   0  22   -2.26    4.27
   2   0  22   -1.95    3.56
  -2   0  23   -1.77    3.87
   2   0  23    1.02    3.18
   2   0  24   25.14    6.53
  -2   0  24   22.02    6.94
  -2   0  25    8.47    5.03
   2   0  25    1.16    3.16
   2   0  26   67.33   10.67
  -2   0  26   48.03    9.85
  -2   0  27   -0.90    3.18
   2   0  27    3.24    3.67
  -2   0  28    1.10    4.51
   2   0  28    1.79    3.80
   2   0  29    7.14    5.92
   2   0  30   18.30    6.35
   2  -1   0 8947.25   46.67
   2   1   0 8941.59   46.57
  -2  -1   0 8782.92   46.31
   2   1   1 7709.60   39.82
   2  -1   1 7555.22   44.59
   2  -1  -1 7643.46   42.42
  -2   1  -1 7247.87   44.93
  -2   1   1 7439.99   42.27
   2   1  -1 7252.63   40.78
  -2  -1  -1 7588.32   39.55
   2   1  -1 7631.24   46.45
  -2  -1   1 7424.09   45.63
   2  -1  -2   53.53    3.82
   2  -1   2   52.37    4.20
   2   1  -2   53.78    4.29
  -2   1   2   50.07    3.57
  -2  -1   2   55.91    3.92
  -2  -1  -2   63.40    3.63
   2   1  -2   52.28    3.89
  -2  -1   3 2906.20   32.10
  -2  -1   3 2953.72   29.45
   2  -1  -3 2941.26   27.63
   2   1  -3 2925.03   32.25
  -2   1   3 2904.46   27.62
   2   1  -3 2895.77   29.80
  -2  -1  -3 2890.70   19.68
   2  -1   4 2880.36   18.83
  -2   1   4 2861.53   28.57
   2   1  -4 2904.46   31.46
  -2  -1   4 2855.41   33.35
   2   1  -4 2952.47   33.85
  -2  -1   4 2825.87   30.99
   2  -1  -4 2856.49   28.48
  -2   1   5   12.33    2.35
  -2  -1   5   13.86    2.76
   2  -1   5   14.06    1.73
   2   1  -5   18.51    3.45
   2   1  -5   10.04    2.16
  -2  -1   6    9.14    2.46
   2   1  -6   13.95    2.74
  -2   1   6   10.01    2.22
   2   1  -6    4.48    1.68
  -2   1   6    5.90    2.13
   2  -1   6   10.28    1.71
  -2  -1   7  132.84    8.25
   2  -1   7  133.10    6.31
  -2   1   7  139.15    8.08
   2   1  -7  143.10    8.58
  -2  -1   8 1304.66   26.79
   2   1  -8 1279.73   26.37
  -2   1   8 1309.09   25.86
   2  -1   8 1276.59   20.71
  -2  -1   9   13.07    4.68
   2   1  -9   21.88    4.04
  -2   1   9    6.24    2.72
   2  -1   9   16.12    3.69
  -2  -1  10  755.92   22.20
   2   1 -10  763.23   21.69
  -2   1  10  732.74   20.65
   2  -1  10  725.41   18.10
  -2  -1  11   30.38    8.07
   2  -1  11   27.54    5.70
  -2   1  11   10.32    4.11
  -2  -1  12 2116.69   40.61
   2  -1  12 2089.31   34.24
  -2  -1 -12 2011.46   18.59
  -2   1  12 2060.77   37.03
  -2   1  13   23.02    5.57
  -2  -1 -13    8.96    2.00
  -2  -1  14 1055.67   30.63
   2  -1  14 1067.84   27.05
  -2   1  14 1034.96   27.77
  -2  -1 -14 1013.85   15.42
  -2  -1  15  529.26   22.87
   2  -1  15  494.65   19.71
   2  -1  16  129.26   10.59
  -2  -1  16  108.67   11.27
  -2  -1  17   77.91   11.14
   2  -1  17   79.26    9.60
  -2  -1  18 1292.98   38.76
  -2   1  18 1301.13   39.05
  -2   1 -18 1264.19   27.36
   2  -1  18 1294.20   35.24
   2  -1  19   32.38    7.83
  -2   1 -19   15.32    4.97
  -2  -1  19   37.19   10.10
  -2   1  19   43.26    8.95
   2  -1  20  115.27   11.57
  -2   1  20  117.13   12.86
  -2  -1  20  115.45   12.59
  -2  -1  21   95.51   12.45
  -2   1  21   95.69   11.80
   2  -1  21   91.15   10.63
   2  -1  22  294.42   19.20
  -2   1  22  276.98   20.40
  -2  -1  22  279.84   20.46
   2  -1  23   70.58   10.27
  -2   1  23   64.99   10.81
  -2  -1  23   78.20   11.97
   2   1  23   67.97   10.15
   2   1  24   20.80    6.23
   2  -1  24   22.51    6.59
  -2   1  24   27.88    7.14
  -2  -1  24   35.54    8.58
   2   1  25  150.37   15.27
  -2   1  25  140.97   16.19
   2  -1  25  153.71   15.66
  -2  -1  25  139.38   16.31
  -2   1  26  374.03   26.39
   2   1  26  395.18   25.24
   2  -1  26  389.64   24.79
  -2  -1  26  417.02   28.02
  -2  -1  27   80.58   13.80
   2  -1  27   60.43   10.92
  -2   1  27   69.58   12.97
   2   1  27   65.21   11.56
   2  -1  28  350.93   25.22
   2   1  28  341.15   24.98
  -2   1  28  405.38   28.76
  -2  -1  28  352.94   26.89
   2   1  29  170.57   18.40
   2  -1  29  166.01   17.72
   2  -1  30   16.94    6.61
  -2   2   0 1595.30   23.11
   2  -2   0 1427.97   21.94
   2  -2   1  264.32    9.69
  -2   2  -1  268.60    9.91
   2  -2  -1  262.11    9.45
  -2   2   1  262.01    9.65
   2   2  -2    3.81    1.68
  -2   2   2    4.82    1.56
  -2   2  -2    3.15    2.15
   2  -2  -2   -0.31    2.01
   2  -2   2    0.15    1.59
   2   2   3 3721.88   25.16
  -2   2  -3 3776.65   23.44
   2  -2  -3 3804.59   36.85
   2   2  -3 3798.67   37.78
   2  -2   3 3737.46   38.61
  -2   2   3 3720.79   36.63
  -2  -2   4 2751.01   33.66
   2   2  -4 2800.25   33.77
  -2   2  -4 2818.16   22.03
  -2   2   4 2890.92   32.86
   2  -2  -4 2853.37   32.87
   2  -2   4 2725.02   34.56
   2   2   4 2738.81   19.02
   2  -2   5 1864.10   20.06
   2   2  -5 1850.27   28.68
   2   2  -5 1883.63   29.84
  -2   2   5 1841.07   27.40
  -2   2  -5 1843.77   19.84
  -2  -2   5 1855.28   28.87
  -2   2   6  518.39   15.24
   2  -2   6  536.66   11.82
   2   2  -6  553.47   16.45
  -2  -2   6  551.34   16.39
   2   2  -6  543.97   16.84
  -2   2  -6  542.32   11.81
   2   2  -7  702.66   19.94
  -2  -2   7  716.88   19.65
  -2   2   7  690.42   18.23
   2  -2   7  669.43   14.41
   2   2  -7  700.35   19.46
   2  -2   8    2.55    1.28
   2   2  -8    0.91    1.34
  -2   2   8    0.99    1.42
  -2  -2   8    4.53    2.48
  -2   2   9   22.83    3.35
   2  -2   9   30.66    3.64
   2   2  -9   34.38    5.16
  -2  -2   9   28.08    4.43
  -2   2  10   11.29    2.94
   2  -2  10   14.35    2.94
  -2  -2  10    9.13    2.91
   2  -2  11  574.04   17.39
  -2   2  11  580.53   19.03
  -2  -2  11  586.38   20.87
  -2  -2  12   18.27    5.96
   2  -2  12   19.29    4.94
   2  -2  13 1957.53   35.07
  -2  -2  13 1953.19   40.78
  -2   2  13 1879.98   36.14
  -2  -2  14   16.46    7.74
  -2   2  14   24.37    5.25
   2  -2  14   30.93    6.69
   2  -2  15   44.49    6.19
  -2  -2  15   42.22    6.89
  -2   2  15   54.35    7.18
  -2   2  16  117.06   10.30
  -2  -2  16  108.49   10.71
   2  -2  16  108.30    9.55
   2  -2  17   -1.41    2.70
  -2  -2  17    0.05    3.49
   2  -2  18   39.00    6.33
  -2  -2  18   46.55    8.58
   2  -2  19   79.37    9.22
  -2  -2  19   68.99    9.81
  -2  -2  20    0.46    3.57
   2  -2  20    0.43    3.16
  -2  -2  21  130.10   14.01
   2  -2  21  110.06   11.61
   2  -2  22   65.88    9.34
  -2  -2  22   76.07   10.81
  -2  -2  23    2.61    4.10
   2  -2  23    3.10    2.64
  -2   2  23    2.61    3.92
  -2   2  24   11.79    4.98
  -2  -2  24    1.22    3.65
   2  -2  24    5.03    3.12
  -2   2  25    4.68    4.77
   2  -2  25    4.23    3.90
  -2  -2  25   -1.63    4.85
   2  -2  26   12.93    5.35
  -2  -2  26    8.30    3.95
  -2   2  26   12.93    5.84
  -2  -2  27   46.77   10.08
   2  -2  27   31.84    7.75
  -2   2  27   42.06    9.67
   2   2  27   38.27    8.60
  -2  -2  28    3.30    4.28
  -2   2  28   -0.05    5.18
   2   2  28    7.86    5.35
   2  -2  28    4.40    4.21
   2   2  29   50.32    9.70
   2  -2  29   47.42    9.38
   2  -2  30   -0.64    3.54
   2  -3   0 1157.81   22.47
   2   3   0 1110.27   14.93
  -2   3   0 1109.10   22.09
   2  -3  -1  580.02   15.94
  -2   3  -1  622.80   16.80
   2   3   1  585.78   11.81
   2   3  -1  572.22    9.70
   2  -3   1  566.84   15.85
  -2   3   1  611.00   16.41
   2  -3  -2   29.37    3.82
  -2   3  -2   20.33    3.11
  -2  -3   2   27.12    1.99
  -2   3   2   27.21    3.61
   2  -3   2   26.40    3.67
   2   3  -2   26.75    1.95
  -2   3  -3  124.37    7.90
   2   3  -3  108.36    7.28
   2  -3   3  110.18    7.34
  -2  -3   3  114.43    4.01
  -2   3   3  118.39    7.45
   2   3  -3  121.47    4.14
   2  -3  -3  113.65    7.34
   2  -3   4   43.11    4.81
   2   3  -4   26.78    3.75
  -2   3   4   28.73    3.86
   2  -3  -4   28.22    4.08
  -2  -3   4   27.08    2.15
  -2   3  -4   31.61    3.00
  -2  -3   5  213.55    6.20
   2  -3  -5  209.30   10.44
  -2   3   5  196.62    9.93
   2   3  -5  205.87   10.55
  -2   3  -5  210.65    7.83
   2  -3   5  184.13   10.09
  -2   3  -6  349.91   10.65
   2  -3   6  326.90   13.92
   2   3  -6  352.65   13.95
  -2  -3   6  363.81    9.12
  -2   3   6  357.87   13.70
  -2   3  -7   21.60    2.80
   2  -3   7   25.55    4.55
  -2  -3   7   23.30    4.08
   2   3  -7   28.97    4.38
  -2   3   7   28.07    4.23
  -2   3   8  676.60   20.35
  -2   3  -8  705.89   17.01
   2  -3   8  707.87   16.99
  -2  -3   8  687.59   21.26
  -2   3  -9  363.36   12.83
   2  -3   9  382.18   13.21
  -2  -3   9  399.31   16.65
   2  -3  10  150.26    8.75
  -2  -3  10  164.23   11.11
   2  -3  11  443.59   15.61
  -2   3  11  451.25   17.09
  -2  -3  11  442.09   18.72
  -2  -3  12    5.79    3.25
   2  -3  12    8.11    2.58
   2  -3  13  115.96    8.80
  -2  -3  13  101.90    9.83
  -2   3  13   98.79    8.31
  -2  -3  14   10.38    3.97
  -2   3  14    4.30    2.32
   2  -3  14    7.96    2.89
   2  -3  15   98.39    8.80
  -2  -3  15   91.32    9.68
  -2   3  15   98.33    8.86
   2  -3  16    2.14    2.71
  -2   3  16   -0.83    2.45
  -2  -3  16    2.90    3.31
   2  -3  17  364.90   18.04
  -2  -3  17  345.53   20.17
  -2   3  17  352.11   17.54
   2  -3  18  143.56   12.18
  -2  -3  18  133.45   13.36
  -2   3  18  126.93   11.60
  -2   3  19  284.14   16.95
  -2  -3  19  267.28   18.65
   2  -3  19  287.98   17.38
  -2  -3  20   57.28    9.18
   2  -3  20   57.14    8.37
   2  -3  21    4.78    2.97
  -2  -3  21    9.99    5.71
  -2  -3  22   72.80   10.52
   2  -3  22   75.73   10.05
   2  -3  23   -0.12    3.19
  -2  -3  23   -5.33    4.45
  -2  -3  24   16.76    6.47
   2  -3  24   20.40    6.36
  -2  -3  25  223.39   20.29
   2  -3  25  208.49   17.66
  -2  -3  26    0.25    4.64
  -2   3  26    6.73    5.41
   2  -3  26    5.20    3.66
  -2   3  27    9.54    3.89
  -2  -3  27   12.83    5.82
   2  -3  27   17.42    5.88
   2  -3  28   44.68    9.23
   2   3  29  148.88   17.31
   2  -3  29  169.99   17.95
   2  -3  30   38.45    9.20
   2   4   0    5.76    1.49
   2  -4   0    2.07    1.77
  -2   4   0    9.27    2.33
   2  -4  -1    3.46    2.23
   2   4  -1    5.20    1.37
  -2   4   1    8.63    2.31
   2  -4   1    8.64    2.66
   2   4   1    6.52    1.49
  -2   4  -1    4.69    1.53
  -2  -4   2   96.65    4.85
   2  -4  -2   98.22    7.61
  -2   4  -2  108.81    7.81
   2   4   2   95.86    5.89
  -2   4   2  106.56    7.64
   2   4  -2   96.39    4.90
   2  -4   2   88.78    7.21
   2   4  -3  115.06    5.25
  -2  -4   3  116.47    5.21
   2  -4   3  115.13    8.08
   2   4   3  112.32    6.71
  -2   4   3  110.14    7.98
  -2   4  -3  123.04    8.55
   2  -4  -3  121.68    8.27
   2   4  -4  411.89   15.67
  -2   4  -4  429.79   16.14
   2  -4  -4  399.22   15.41
   2  -4   4  417.05   15.60
  -2   4   4  425.81   15.62
  -2  -4   4  391.67    9.63
  -2   4  -5   31.72    3.64
   2  -4  -5   34.97    5.15
  -2   4   5   29.88    4.23
  -2  -4   5   37.22    3.24
   2  -4   5   29.46    4.42
  -2   4  -6  703.22   16.98
  -2  -4   6  676.46   13.72
   2  -4   6  679.77   20.87
  -2   4   6  687.31   20.74
  -2   4  -7  359.96   12.63
  -2  -4   7  375.83   10.86
   2  -4   7  363.35   15.88
  -2  -4   8 1015.37   19.01
   2  -4   8 1050.58   27.51
  -2   4  -8 1001.72   22.02
  -2   4  -9  205.82   10.29
   2  -4   9  200.80   12.55
  -2  -4   9  195.08   12.33
  -2  -4   9  207.13    9.29
   2  -4  10  371.27   17.45
  -2   4 -10  367.39   14.41
  -2  -4  10  359.99   17.23
  -2  -4  11    0.76    2.82
   2  -4  11   -3.45    2.54
   2   4  11    1.68    0.52
  -2   4 -11    0.39    1.82
  -2  -4  12   22.36    5.03
   2  -4  12   16.48    3.29
  -2   4  13    3.11    2.49
   2  -4  13    8.36    3.37
  -2  -4  13    6.60    3.79
  -2   4  14  103.79    8.94
  -2  -4  14  119.19   11.27
   2  -4  14  108.12    9.18
   2  -4  15  358.61   17.19
  -2   4  15  318.38   16.15
  -2  -4  15  354.19   19.73
  -2  -4  16   76.42    9.77
   2  -4  16   75.79    8.39
  -2   4  16   59.93    7.32
   2  -4  17   -4.99    3.66
  -2  -4  17   -0.88    3.26
  -2   4  17    0.53    2.89
  -2  -4  18   13.21    4.83
   2  -4  18    8.67    3.50
  -2   4  18   11.72    4.25
  -2  -4  19   -0.92    3.75
  -2   4  19    3.31    3.86
   2  -4  19    2.48    3.91
   2  -4  20  147.38   13.04
  -2   4  20  139.10   11.92
  -2  -4  20  141.60   14.36
  -2  -4  21    8.37    5.51
   2  -4  21    1.64    2.88
  -2   4  21    9.77    4.91
  -2  -4  22   73.56   11.25
   2  -4  22   64.76    9.03
   2  -4  23   19.01    5.70
  -2  -4  23   19.01    6.48
   2  -4  24   19.65    5.85
  -2  -4  24   29.38    7.95
   2  -4  25   45.84    8.56
  -2  -4  25   46.48    9.47
  -2  -4  26   -6.82    5.93
   2  -4  26    0.67    3.34
  -2  -4  27   31.60    9.05
   2  -4  27   20.15    6.54
   2  -4  28   37.98    8.71
   2  -4  29   -3.21    3.51
   2  -5   0 4048.04   51.28
   2   5   0 4050.23   39.30
   2  -5   1   19.70    4.43
   2   5  -1   17.31    2.59
  -2  -5   1   19.98    3.03
   2  -5  -1   13.59    3.39
   2   5   1   22.77    3.27
   2   5   2  115.19    7.26
  -2  -5   2  117.74    6.31
   2  -5  -2  115.42    8.93
   2   5  -2  121.41    6.48
   2  -5   2  117.35    8.72
  -2  -5   3   83.67    5.38
   2   5   3   95.91    6.92
   2  -5  -3   90.96    8.05
   2   5  -3   80.29    5.31
   2  -5   3   79.80    7.50
   2   5  -4  100.90    5.89
   2   5   4  101.87    7.36
   2  -5  -4  106.95    8.80
  -2  -5   4   95.92    5.77
   2  -5   4   91.75    8.21
   2   5   5  403.50   15.19
   2  -5  -5  393.43   16.93
  -2  -5   5  388.88   11.66
   2  -5   5  369.41   16.15
   2  -5  -6   76.23    7.77
  -2   5  -6   66.50    5.95
   2  -5   6   65.14    6.71
  -2  -5   6   59.74    4.69
  -2   5  -7  506.48   16.54
  -2  -5   7  508.31   13.97
   2  -5   7  479.42   19.15
   2  -5   8 1598.71   35.70
  -2  -5   8 1625.03   25.96
  -2   5  -8 1617.92   30.14
  -2   5  -9    3.91    1.88
  -2  -5   9    4.07    1.71
   2  -5   9    3.65    3.11
  -2  -5  10  304.78   12.35
   2  -5  10  290.02   16.06
   2  -5  11   87.46    9.18
  -2  -5  11   90.72    7.15
  -2  -5  12   18.51    3.37
   2  -5  12   27.88    5.80
  -2  -5  13   85.09    7.69
   2   5  13   76.35    3.87
   2  -5  13   87.39   10.00
  -2  -5  13   94.69   10.72
   2   5  14  586.43   10.04
  -2  -5  14  604.09   20.99
   2  -5  14  603.42   25.93
  -2   5  15  185.86   12.49
  -2  -5  15  205.27   15.71
   2  -5  15  185.01   14.59
  -2   5  16   15.91    3.37
   2  -5  16   24.96    5.07
  -2  -5  16   19.86    5.69
   2  -5  17   15.28    4.26
  -2  -5  17   16.20    5.06
  -2   5  17   15.44    4.14
   2  -5  18  110.16   10.93
  -2  -5  18  117.10   12.77
  -2   5  18  100.54    9.77
  -2  -5  19  164.27   15.45
  -2   5  19  146.20   12.31
   2  -5  19  155.54   13.32
   2  -5  20   52.10    8.61
  -2  -5  20   70.71   10.92
  -2   5  20   49.76    7.47
  -2   5  21    9.53    4.12
  -2  -5  21   14.82    6.01
   2  -5  21   13.73    5.21
  -2  -5  22  177.29   17.38
   2  -5  22  180.79   15.69
  -2   5  22  184.96   14.52
  -2  -5  23    6.75    5.55
   2  -5  23    3.27    4.56
  -2  -5  24   34.55    8.74
   2  -5  24   47.30    8.46
  -2  -5  25    5.03    4.50
   2  -5  25   -0.62    3.44
  -2  -5  26   69.95   12.55
   2  -5  26   60.20   10.42
   2  -5  27   16.70    5.83
   2  -5  28   64.08   10.66
   2  -5  29    1.23    3.77
   2  -6   0  646.91   22.22
   2   6   0  658.27   18.02
  -2  -6   1   40.83    4.41
   2  -6   1   49.69    6.56
   2   6   1   46.87    4.94
   2  -6  -1   39.04    5.52
   2   6  -1   41.76    4.50
   2  -6   2   21.93    4.58
   2   6  -2   24.65    3.59
  -2  -6   2   26.04    3.58
   2  -6  -2   23.17    4.63
   2   6   2   25.30    3.81
   2   6  -3   47.48    4.61
   2  -6   3   40.79    5.71
  -2  -6   3   42.18    4.27
   2  -6  -3   45.30    6.49
   2   6   3   51.21    5.58
   2  -6  -4  259.77   14.66
  -2  -6   4  254.02   10.47
   2   6  -4  263.02   10.80
   2  -6   4  271.42   14.59
   2   6   4  270.14   13.07
   2  -6   5  153.56   11.27
   2  -6  -5  162.57   11.82
  -2  -6   5  159.72    8.39
   2   6  -5  157.70    8.61
  -2   6  -6   10.30    2.66
  -2  -6   6    9.74    2.22
   2  -6  -6   11.27    3.98
   2  -6   6    9.29    2.88
   2  -6   7  200.12   13.23
  -2  -6   7  208.67    9.98
  -2  -6   8    5.71    2.23
   2  -6   8    4.36    2.92
  -2  -6   9   19.30    3.25
   2  -6   9   14.69    4.36
  -2  -6  10   54.62    5.55
   2  -6  10   57.23    7.91
   2  -6  11  598.59   24.32
  -2  -6  11  615.59   19.26
  -2  -6  12  168.50   10.38
   2  -6  12  162.37   13.04
   2  -6  13  112.11   11.13
  -2  -6  13  121.96    9.18
  -2  -6  14  299.58   14.86
   2   6  14  298.24    9.11
   2  -6  14  307.71   18.65
  -2  -6  15  131.73   10.55
   2   6  15  125.20    5.63
   2  -6  15  132.95   12.76
  -2   6  16  183.86   13.28
  -2  -6  16  181.96   12.66
   2  -6  16  192.76   15.69
  -2  -6  17    5.46    3.75
   2  -6  17    1.14    3.75
  -2   6  17   -2.22    3.21
   2  -6  18   82.46   11.07
  -2  -6  18   89.99    9.35
  -2   6  18   69.31    8.16
  -2  -6  19   19.16    4.61
   2  -6  19   18.75    6.08
  -2   6  19   22.22    5.03
  -2  -6  20    0.50    3.50
  -2   6  20   -0.95    2.89
   2  -6  20   -0.17    3.47
  -2  -6  20    3.54    3.09
  -2  -6  21   22.52    7.58
   2  -6  21    2.68    3.62
  -2  -6  21   19.25    5.52
  -2   6  21   11.97    5.18
  -2  -6  22   85.74   12.34
   2  -6  22   85.71   12.45
  -2  -6  22   86.01   10.95
  -2  -6  23   25.13    7.29
  -2  -6  23   29.68    7.10
   2  -6  23   17.81    7.01
  -2  -6  24  136.87   16.48
  -2  -6  24  152.47   14.68
   2  -6  24  126.67   15.17
  -2  -6  25    5.08    3.81
   2  -6  25    4.55    5.35
  -2  -6  25   -0.29    3.38
   2  -6  26   38.55    9.00
  -2  -6  26   25.15    7.32
   2  -6  27   -6.86    7.27
   2  -7   0    2.45    2.51
   2   7   0   -0.14    1.86
   2   7   1  922.57   23.87
   2  -7   1  920.97   28.25
  -2  -7   1  870.00   22.34
   2  -7  -1  906.87   28.11
   2   7  -1  880.71   22.44
   2   7  -2  264.91   12.31
   2  -7  -2  282.34   15.81
  -2  -7   2  290.15   12.68
   2  -7   2  300.33   16.22
   2  -7  -3  764.22   26.55
   2   7  -3  777.84   20.84
  -2  -7   3  750.29   20.34
   2  -7   3  755.32   25.84
   2  -7   4  136.49   11.19
   2  -7  -4  138.69   11.59
  -2  -7   4  134.00    8.56
   2   7  -4  135.32    8.65
  -2  -7   5  221.01   11.01
   2  -7  -5  235.67   14.90
   2   7  -5  244.78   11.59
   2  -7   5  217.28   13.95
   2  -7  -6  280.62   16.73
  -2  -7   6  296.19   12.81
   2  -7   6  292.11   16.59
  -2  -7   7  890.45   22.52
   2  -7   7  870.08   28.84
   2  -7   8  142.48   12.02
  -2  -7   8  145.11    9.24
   2  -7   9  122.82   11.07
  -2  -7   9  110.72    8.21
  -2  -7  10   67.37    7.02
   2  -7  10   67.91    8.97
  -2  -7  11 2227.52   38.95
   2  -7  11 2366.38   50.21
  -2  -7  12  409.63   17.13
   2  -7  12  440.47   22.45
  -2  -7  13  154.43   10.83
   2  -7  13  156.81   13.43
  -2  -7  14  105.62    9.18
   2  -7  14  100.72   11.28
   2  -7  15    3.92    4.33
  -2  -7  15    5.48    3.05
  -2  -7  16  177.46   12.71
   2  -7  16  183.73   15.62
   2  -7  17  208.04   16.94
  -2  -7  17  169.35   12.79
  -2   7  17  198.29   14.42
  -2   7  18   66.46    8.45
   2  -7  18   77.62   10.91
  -2  -7  18   63.86    8.38
   2  -7  19   54.12    9.04
  -2   7  19   63.99    8.54
  -2  -7  19   64.59    8.63
  -2   7  20    4.15    3.23
   2  -7  20    9.82    5.61
  -2  -7  20    2.03    2.54
   2  -7  21  120.35   14.20
  -2  -7  21  136.83   12.78
   2  -7  22   -3.76    4.17
  -2  -7  22   -1.07    3.13
  -2  -7  23    0.81    2.67
   2  -7  23   -1.89    3.05
   2  -7  24    2.23    3.93
   2  -7  25  115.56   15.17
   2  -7  26    2.17    4.70
   2  -8   0   19.90    5.29
   2  -8   1    5.61    3.25
  -2  -8   1   14.48    3.82
   2  -8  -1   12.66    3.95
   2  -8  -2   27.96    5.62
  -2  -8   2   28.62    4.58
   2  -8   2   32.65    5.84
  -2  -8   3  161.39   10.40
   2  -8   3  155.97   12.53
   2  -8  -3  175.27   13.67
  -2  -8   4  240.76   12.63
   2  -8   4  252.52   16.05
   2  -8  -4  258.77   16.90
   2  -8  -5  228.26   16.20
  -2  -8   5  229.10   12.34
   2  -8   5  227.32   15.51
  -2  -8   6    0.78    1.74
   2  -8   6    6.79    3.47
   2  -8  -6    8.07    4.53
   2  -8   7   81.61    9.44
  -2  -8   7   80.94    7.38
   2  -8   8    1.11    3.18
  -2  -8   8   -1.19    2.46
   2  -8   9  103.88   11.23
  -2  -8   9   98.98    8.37
   2  -8  10   88.57   10.53
  -2  -8  10   81.56    7.76
  -2  -8  11    1.94    2.56
   2  -8  11   -1.40    3.22
  -2  -8  12   31.53    4.87
   2  -8  12   38.95    7.20
  -2  -8  13    2.97    2.18
   2  -8  13    4.27    3.41
  -2  -8  14   44.40    6.54
   2  -8  14   45.60    8.44
  -2  -8  15  308.69   17.00
   2  -8  15  316.70   20.82
  -2  -8  16    1.36    2.62
   2  -8  16    1.72    3.02
  -2  -8  17  101.75   10.24
   2  -8  17  100.74   12.75
  -2  -8  18   37.80    6.75
   2  -8  18   43.96    8.77
   2  -8  19   84.71   11.86
  -2   8  19   85.75   10.04
  -2  -8  19   91.55   10.29
   2  -8  20    8.50    5.63
  -2  -8  20    1.74    3.08
   2  -8  21  160.57   16.64
   2  -8  22    0.35    4.00
   2  -8  23   26.70    7.48
   2  -8  24   14.73    7.07
   2  -8  25  214.33   21.05
   2  -9   0   28.28    6.40
   2  -9  -1  210.00   15.55
   2  -9   1  220.09   15.60
  -2  -9   1  202.68   12.87
   2  -9   2   12.95    4.26
  -2  -9   2   17.60    4.18
   2  -9  -2   16.11    5.87
  -2  -9   3  488.50   19.47
   2  -9  -3  498.36   24.32
   2  -9   3  482.76   23.13
   2  -9   4  123.54   11.88
   2  -9  -4  129.78   12.61
  -2  -9   4  125.40   10.00
   2  -9   5   13.86    3.94
   2  -9  -5   10.87    4.70
  -2  -9   5   16.72    3.60
  -2  -9   6  308.67   15.50
   2  -9   6  305.57   18.96
   2  -9  -6  295.79   19.25
  -2  -9   7 1289.97   31.61
   2  -9   7 1358.62   39.71
  -2  -9   8  583.46   21.47
   2  -9   8  557.80   25.97
  -2  -9   9   34.52    5.62
   2  -9   9   23.06    5.93
  -2  -9  10  426.59   18.70
   2  -9  10  411.61   22.81
  -2  -9  11   83.74    8.63
   2  -9  11   91.01   10.88
  -2  -9  12   -0.84    2.74
   2  -9  12   -0.17    3.38
   2  -9  13  178.51   15.59
  -2  -9  13  205.33   13.64
  -2  -9  14   41.01    6.43
   2  -9  14   30.29    7.65
  -2  -9  15  137.35   11.81
   2  -9  15  159.10   15.56
  -2  -9  16   68.87    8.56
   2  -9  16   69.22   10.73
   2  -9  17  296.76   21.64
  -2  -9  17  309.46   18.39
  -2  -9  18   14.58    4.19
   2  -9  18   11.29    5.67
   2  -9  19   30.15    7.58
   2  -9  20   -2.17    4.48
   2  -9  21   49.91    9.91
   2  -9  22   71.58   11.92
   2  -9  23   16.04    6.61
   2  -9  24    0.42    3.70
   2 -10   0   81.73   10.45
  -2 -10   1   14.50    4.45
   2 -10  -1    9.77    4.62
   2 -10   1   14.01    4.96
   2 -10  -2    2.24    3.98
   2 -10   2   -0.17    3.41
  -2 -10   2   -4.24    3.45
   2 -10   3    5.60    3.71
  -2 -10   3   -1.80    2.85
   2 -10  -3    7.72    4.21
   2 -10   4   67.44    9.09
  -2 -10   4   86.56    8.88
   2 -10  -4   89.37   11.16
   2 -10   5   16.52    4.38
   2 -10  -5   22.21    7.17
  -2 -10   5   22.38    4.51
   2 -10  -6  123.07   13.19
  -2 -10   6  130.64   10.73
   2 -10   6  138.74   13.38
   2 -10   7   -3.17    3.85
  -2 -10   7    0.36    2.02
   2 -10   8   16.82    5.93
  -2 -10   8   11.99    3.69
   2 -10   9    0.36    3.26
  -2 -10   9   -0.58    2.50
  -2 -10  10   -1.14    2.70
   2 -10  10    1.33    3.59
  -2 -10  11  121.71   10.80
   2 -10  11  104.75   12.44
   2 -10  12   80.36   11.23
  -2 -10  12   71.36    8.48
  -2 -10  13    7.92    3.49
   2 -10  13    5.01    3.42
  -2 -10  14   31.32    5.85
   2 -10  14   33.21    7.76
  -2 -10  15   50.38    7.81
   2 -10  15   64.78   10.46
   2 -10  16   28.15    7.54
   2 -10  17   -3.67    3.90
   2 -10  18   53.09    9.98
   2 -10  19   46.36    9.36
   2 -10  20    2.67    3.59
   2 -10  21   15.57    6.27
   2 -10  22  107.83   15.08
   2 -11   0  321.41   21.18
   2 -11  -1   20.54    6.38
   2 -11   1   21.64    5.61
   2 -11   2    0.92    3.79
  -2 -11   2    3.37    2.39
   2 -11  -2    3.92    3.76
   2 -11  -3   12.19    5.46
  -2 -11   3    5.03    3.09
   2 -11   3    7.13    4.39
   2 -11  -4  711.50   32.22
  -2 -11   4  687.51   26.59
   2 -11   4  672.15   30.69
   2 -11   5   21.17    6.22
   2 -11  -5   23.49    7.38
  -2 -11   5   25.22    5.60
  -2 -11   6  138.74   11.80
   2 -11   6  141.20   14.31
   2 -11   7  225.74   17.89
  -2 -11   7  231.47   15.33
   2 -11   8   15.85    5.21
  -2 -11   8   18.53    4.75
  -2 -11   9   50.27    7.53
   2 -11   9   60.57   10.01
  -2 -11  10  292.52   17.33
   2 -11  10  316.91   22.08
  -2 -11  11    7.27    3.83
   2 -11  11    1.28    3.09
  -2 -11  12   54.79    7.82
   2 -11  12   60.86   10.06
   2 -11  13   33.34    7.69
   2 -11  14  111.33   13.62
   2 -11  15   11.21    4.69
   2 -11  16   44.23    9.36
   2 -11  17    0.66    4.15
   2 -11  18   45.29    9.43
   2 -11  19    0.87    3.98
   2 -11  20   11.69    4.95
   2 -11  21   10.95    6.11
   2 -12   0   72.61   10.98
   2 -12  -1   25.11    6.81
   2 -12   1   25.21    6.76
   2 -12  -2   21.27    7.15
   2 -12   2   20.94    6.48
  -2 -12   3   23.21    5.82
   2 -12  -3   24.25    7.35
   2 -12   3   18.64    6.23
   2 -12  -4   20.03    6.24
  -2 -12   4   21.45    5.64
   2 -12   4   15.47    5.62
  -2 -12   5    8.00    4.15
   2 -12   5    8.37    4.34
   2 -12   6   -3.11    4.88
  -2 -12   6    0.80    2.34
   2 -12   7    2.82    3.02
  -2 -12   7    5.39    3.46
   2 -12   8    8.27    4.85
  -2 -12   8   10.42    3.60
   2 -12   9   26.37    7.12
  -2 -12   9   30.90    6.24
   2 -12  10   -4.54    4.34
   2 -12  11   39.25    8.93
   2 -12  12   21.55    6.60
   2 -12  13    1.05    4.04
   2 -12  14    6.94    3.83
   2 -12  15   -1.61    4.22
   2 -12  16    2.09    3.50
   2 -12  17    4.87    4.34
   2 -12  18    6.68    4.79
   2 -13   0  264.36   21.36
   2 -13  -1   63.97   10.52
   2 -13   1   59.60   10.49
   2 -13  -2    7.14    5.13
   2 -13   2    2.55    3.65
   2 -13  -3   13.01    5.76
   2 -13   3   12.50    5.59
   2 -13  -4   40.70    8.86
  -2 -13   4   42.33    7.85
   2 -13   4   39.13    9.01
  -2 -13   5    3.96    2.94
   2 -13   5    3.31    4.24
  -2 -13   6   28.56    6.17
   2 -13   6   21.10    6.54
   2 -13   7  159.38   16.75
   2 -13   8    7.91    4.40
   2 -13   9   54.38   10.31
   2 -13  10   31.09    8.24
   2 -13  11   52.73   10.36
   2 -13  12   19.03    6.88
   2 -13  13   -1.07    3.40
   2 -13  14   -1.57    3.91
   2 -13  15   30.52    8.89
   2 -13  16    5.56    5.40
   2 -14   0   94.13   14.19
   2 -14  -1    4.08    4.96
   2 -14   1   -3.11    3.67
   2 -14   2    4.39    5.01
   2 -14  -2   17.02    7.19
   2 -14   3   44.53    9.99
   2 -14  -3   46.52    9.97
   2 -14   4   17.63    6.60
   2 -14   5    4.09    5.28
   2 -14   6    0.26    3.37
   2 -14   7   37.86    9.38
   2 -14   8   15.23    6.31
   2 -14   9    0.24    3.66
   2 -14  10   -6.52    5.05
   2 -14  11   -6.36    5.40
   2 -14  12   -1.01    5.02
   3   0   0    4.53    1.18
   3   0   0    4.20    1.56
   3   0   1   -0.38    1.04
  -3   0   1   -2.83    2.39
  -3   0   1   -0.78    0.90
   3   0   1    0.67    0.66
   3   0  -1    1.21    0.97
  -3   0   1    1.49    1.07
   3   0  -1    0.15    0.93
  -3   0   2  896.54   15.06
  -3   0   2  890.29   13.86
  -3   0   2  915.23   19.77
   3   0  -2  902.58   13.85
  -3   0   3    0.68    0.91
  -3   0   3    0.14    1.25
  -3   0   3   -1.22    1.94
   3   0  -3    1.04    0.95
   3   0  -4   50.71    3.50
  -3   0   4   46.05    4.29
  -3   0   4   47.03    5.02
  -3   0   4   47.88    3.41
  -3   0   5   -1.29    2.05
  -3   0   5    0.11    1.43
  -3   0   5    1.82    1.06
  -3   0   6   55.78    5.32
  -3   0   6   60.82    4.33
  -3   0   6   58.74    5.97
  -3   0   7   -1.46    1.96
  -3   0   7    0.40    2.68
  -3   0   7    1.11    1.25
  -3   0   8   12.44    2.78
  -3   0   8   13.47    2.46
  -3   0   8   16.96    3.98
  -3   0   9    5.66    2.93
  -3   0   9   -0.27    1.97
  -3   0  10  157.56   10.52
  -3   0  10  151.85   10.88
  -3   0  11    6.68    4.01
  -3   0  11    1.11    3.27
  -3   0  12   17.87    5.24
  -3   0  12   11.46    3.86
  -3   0  13   -4.02    3.15
  -3   0  14    0.29    3.58
  -3   0  15    1.73    3.45
  -3   0  16    6.61    3.53
  -3   0 -16    6.57    2.01
  -3   0  17    4.38    4.83
  -3   0 -17    2.88    1.92
  -3   0  18  643.92   28.18
  -3   0 -18  640.13   15.34
  -3   0  19   15.83    6.48
   3   0  19    6.67    3.88
  -3   0  20    0.52    3.37
   3   0  20   -2.92    3.11
  -3   0  21   -2.93    3.49
   3   0  21   -3.83    3.46
  -3   0  22    2.26    3.07
   3   0  22    4.26    3.15
  -3   0  23   -1.99    4.17
   3   0  23    0.49    3.16
  -3   0  24    6.92    5.40
   3   0  24    8.91    3.88
   3   0  25    0.10    3.35
  -3   0  25    0.32    5.31
   3   0  26   27.65    6.77
  -3   0  26   33.43    8.80
  -3   0  27   -0.88    4.38
   3   0  27   -3.16    3.55
   3   0  28   -1.70    3.43
   3   0  29   -0.18    3.00
   3   0  30   12.73    5.90
  -3   1   0    4.37    2.34
  -3   1   0    2.33    0.72
   3   1   0    1.10    1.15
   3   1   0    1.61    1.05
  -3  -1   0    1.11    1.66
   3  -1   0    1.61    1.26
  -3  -1   1  926.99   19.04
   3   1  -1  911.69   16.01
  -3   1   1  921.78   12.79
   3   1  -1  930.59   11.24
   3  -1   1  953.41   18.22
  -3   1   1  927.95   17.16
  -3  -1  -1  896.69   17.06
   3   1  -1  939.73   19.16
   3  -1  -1  910.30   16.98
  -3   1   2 1742.85   23.20
  -3   1   2 1764.80   20.24
   3   1  -2 1760.44   27.50
   3  -1   2 1734.21   25.53
  -3  -1  -2 1731.46   22.49
   3   1  -2 1711.01   13.74
   3  -1  -2 1787.22   23.42
   3   1  -2 1701.71   23.14
  -3  -1   2 1670.78   26.92
   3   1  -3 3714.76   36.45
   3   1  -3 3820.46   42.08
  -3  -1   3 3891.85   37.13
  -3  -1   3 3657.01   19.69
  -3  -1  -3 3757.41   31.40
   3  -1  -3 3797.57   34.54
   3  -1   3 3772.55   40.10
  -3  -1   3 3741.96   41.94
  -3   1   3 3871.86   34.99
  -3   1   4   12.28    2.19
   3   1  -4   15.75    2.78
  -3  -1   4   17.05    3.04
  -3  -1   4   13.01    1.37
   3   1  -4   16.26    3.11
  -3  -1  -4   11.68    1.91
  -3  -1   4   22.92    5.12
   3  -1  -4   15.26    2.54
   3   1  -5  574.76   16.12
  -3  -1   5  555.76    9.47
  -3   1   5  566.31   17.54
   3  -1  -5  585.22   14.38
  -3  -1  -5  560.65   10.46
   3   1  -5  582.75   17.84
  -3   1   5  567.65   14.22
   3  -1   5  546.61    8.11
  -3  -1   5  554.35   15.71
  -3  -1   5  594.08   18.24
  -3  -1   6 2237.37   33.15
   3   1  -6 2276.57   33.58
  -3  -1  -6 2214.55   18.99
  -3  -1   6 2220.51   36.23
  -3   1   6 2245.89   35.95
  -3  -1   6 2189.63   21.41
   3   1  -6 2337.43   36.75
  -3   1   6 2221.29   29.18
   3  -1   6 2239.79   19.87
   3  -1   7  328.04    8.83
  -3  -1   7  344.10   15.15
  -3  -1  -7  330.21    6.66
  -3  -1   7  337.81   13.71
  -3   1   7  329.76   11.79
  -3   1   7  323.13   13.88
   3   1  -7  346.54   14.71
  -3  -1   8  968.22   23.99
  -3   1   8  967.53   24.92
  -3   1   8  941.02   20.69
   3  -1   8  928.19   16.42
  -3  -1   9  414.71   16.53
   3  -1   9  379.66   11.58
  -3   1   9  366.61   13.72
  -3   1   9  390.85   16.45
  -3  -1  10 1042.02   27.21
   3  -1  10  986.50   19.92
  -3   1  10  941.91   22.79
  -3   1  10  977.23   26.60
  -3  -1  11   31.69    8.00
   3  -1  11   22.48    4.32
   3  -1  12 1776.20   30.44
  -3  -1  12 1861.71   39.58
  -3   1  12 1835.04   38.19
   3  -1  13  476.78   16.76
  -3  -1  13  491.28   21.38
  -3   1  13  467.32   20.08
  -3  -1  14   33.99    6.99
   3  -1  14   35.33    5.70
  -3   1  14   32.44    6.82
  -3   1  15  140.91   12.04
  -3   1  15  153.90   13.09
   3  -1  15  159.56   10.96
  -3  -1  15  176.84   14.32
   3  -1  16 1106.65   29.20
  -3   1  16 1153.33   35.20
  -3  -1  16 1183.81   35.81
  -3   1  17  199.06   15.96
  -3  -1  17  215.70   16.70
   3  -1  17  189.81   13.08
  -3  -1  18    6.71    4.47
   3  -1  18    4.80    3.04
  -3   1  18   12.00    4.99
   3  -1  19   24.89    5.93
  -3  -1  19   25.87    7.47
  -3   1  19   23.36    6.83
  -3  -1  20  447.14   25.09
   3  -1  20  411.97   20.74
  -3   1  20  438.92   24.59
  -3  -1  21   47.53   10.62
  -3   1  21   41.18    9.39
   3  -1  21   39.31    7.69
   3  -1  22  140.85   13.32
  -3  -1  22  161.02   16.37
  -3   1  22  163.08   16.47
  -3   1  23  323.48   23.45
  -3  -1  23  346.96   24.30
   3  -1  23  324.98   20.47
   3   1  23  332.38   21.09
  -3  -1  24  101.29   14.03
  -3   1  24   88.70   12.64
   3   1  24   90.96   11.76
   3  -1  24   88.59   11.50
   3   1  25    8.39    4.31
  -3  -1  25   10.22    5.68
  -3   1  25   11.52    6.37
   3  -1  25    5.37    3.48
  -3  -1  26  147.42   16.97
   3   1  26  135.92   14.57
   3  -1  26  154.26   15.54
  -3   1  26  158.26   17.75
  -3  -1  27   82.46   13.49
   3  -1  27   74.65   11.37
  -3   1  27   73.28   13.10
   3   1  27   54.45   10.44
   3  -1  28   24.20    6.61
   3   1  28   33.13    8.14
   3  -1  29    9.24    5.56
   3   1  29   11.45    5.35
   3   1  30   51.85   10.48
   3  -1  30   61.87   10.77
  -3   2   0    1.21    1.29
   3   2   0   -1.33    1.82
   3  -2   0   -0.02    1.64
  -3   2   1    1.58    1.37
   3   2  -1    0.72    1.20
  -3   2  -1    3.79    1.82
   3   2  -1    6.74    1.89
   3  -2   1    3.21    1.74
   3  -2  -1    0.64    1.50
   3   2   1    1.54    1.16
   3  -2   2  244.06   10.62
   3   2   2  238.11    8.69
   3   2  -2  243.64    9.93
   3  -2  -2  240.54    9.96
   3   2  -2  240.44   10.54
  -3   2  -2  256.81   10.93
  -3   2   2  228.78    9.75
   3  -2   3  581.49   16.72
   3   2   3  541.15   12.09
   3  -2  -3  569.75   15.44
   3   2  -3  594.76   17.17
  -3   2   3  558.29   15.27
   3   2  -3  556.11   15.52
   3   2  -4  781.80   19.08
   3  -2   4  780.29   20.03
   3  -2  -4  775.24   18.43
  -3   2   4  818.91   18.82
   3   2  -4  802.13   20.83
   3  -2  -5  374.67   13.13
  -3  -2   5  380.21   14.04
  -3   2   5  382.29   13.13
   3  -2   5  382.52   14.89
   3   2  -5  385.48   15.02
   3   2  -5  393.70   14.20
  -3  -2   6    0.22    2.09
   3   2  -6    0.99    1.25
   3   2  -6    2.93    2.04
  -3   2   6    3.95    1.95
  -3  -2   7  271.04   12.64
  -3   2   7  261.52   11.50
   3   2  -7  282.76   12.97
   3  -2   7  252.72    7.89
   3  -2   8  414.70   11.06
  -3   2   8  394.14   16.22
  -3   2   8  433.66   15.34
  -3  -2   8  404.44   16.18
  -3  -2   9    3.55    2.67
   3  -2   9    2.86    1.12
  -3   2   9    8.83    2.80
  -3  -2  10    0.32    2.28
   3  -2  10   -0.01    1.33
  -3   2  10    1.05    2.05
  -3  -2  11   34.96    5.47
   3  -2  11   34.07    4.12
  -3   2  11   28.61    4.64
  -3  -2  12   84.22    8.51
  -3   2  12   87.67    8.43
   3  -2  12   82.63    6.62
   3  -2  13   53.04    5.53
  -3  -2  13   47.35    7.12
  -3   2  13   47.42    6.42
  -3  -2  14  101.80   10.24
   3  -2  14   96.66    8.04
  -3   2  14   97.73    9.44
  -3  -2  15   91.23   10.34
   3  -2  15   91.42    8.22
  -3   2  15   99.76    9.95
  -3  -2  16  151.35   13.26
   3  -2  16  157.80   11.18
  -3   2  16  163.33   13.01
  -3   2  17   89.86   10.32
   3  -2  17   82.09    8.58
  -3  -2  17   88.15   11.11
  -3  -2  18  134.93   13.25
  -3   2  18  124.54   11.86
   3  -2  18  114.47   10.60
  -3  -2  19    0.96    3.03
   3  -2  19    0.83    2.97
  -3  -2  20   42.76    7.89
   3  -2  20   33.48    6.18
  -3  -2  21   62.93   10.41
   3  -2  21   63.83    8.74
  -3   2  21   64.18   10.17
  -3  -2  22   19.01    6.67
   3  -2  22   19.87    5.63
  -3   2  22   18.26    5.49
   3  -2  23   -0.20    3.25
  -3   2  23   -4.58    4.94
  -3  -2  23   -0.81    3.53
  -3   2  24   -3.50    4.49
   3  -2  24    4.08    3.49
  -3  -2  24   -6.27    5.39
  -3  -2  25    6.88    5.42
  -3   2  25   13.59    5.43
   3  -2  25    5.24    3.29
   3  -2  26   -0.35    3.56
  -3  -2  26    2.27    3.65
  -3   2  26    2.09    4.71
  -3  -2  27   27.92    8.04
   3  -2  27   31.80    7.20
  -3   2  27   34.29    9.75
   3   2  27   24.49    6.52
   3  -2  28   -1.03    2.80
   3   2  28    8.19    4.39
   3  -2  29    7.11    4.43
   3   2  29    3.18    3.38
   3  -2  30    3.46    3.23
   3  -3   0    0.31    1.84
  -3   3   0   -1.15    1.66
   3   3   0    1.66    2.28
   3  -3   1  103.26    7.54
  -3   3   1  108.50    7.43
  -3   3  -1  101.61    7.40
   3   3  -1  108.19    7.46
   3   3  -1   98.24    3.53
   3   3   1  107.60    6.98
   3  -3  -1   94.47    7.11
  -3   3   2  976.79   22.31
  -3   3  -2  945.68   22.89
   3   3  -2  957.13   22.21
   3  -3   2  929.45   22.51
   3  -3  -2  939.19   21.99
   3   3  -2  984.72   21.96
   3   3   2  928.86   18.35
   3   3  -3  174.20   10.06
   3  -3   3  162.81    9.58
   3  -3  -3  155.43    9.10
   3   3  -3  177.22    9.68
  -3   3  -3  166.79    9.76
  -3   3   3  155.41    9.13
   3   3   3  160.97    7.32
  -3   3  -4  522.54   10.28
   3   3  -4  546.96   18.23
   3   3  -4  537.96   17.29
   3  -3  -4  547.94   17.33
   3  -3   4  520.59   17.82
  -3   3   4  537.89   17.06
   3   3   4  528.77   12.12
   3   3  -5 3750.38   46.81
   3   3  -5 3675.50   48.05
  -3   3  -5 3621.11   28.34
   3  -3  -5 3561.77   45.10
   3  -3   5 3744.99   48.19
   3   3   5 3693.77   28.89
  -3   3   5 3638.78   44.99
  -3   3  -6  830.45   14.58
  -3  -3   6  826.91   10.05
   3  -3  -6  890.95   22.79
   3   3   6  837.08   12.31
   3  -3   6  879.17   24.14
  -3   3   6  924.07   23.13
   3   3  -6  897.32   23.56
  -3   3  -7   91.78    5.16
   3  -3   7   89.82    8.33
  -3  -3   7   98.28    4.23
  -3  -3   7   94.55    8.20
  -3   3   7   96.70    7.68
  -3  -3   8  418.55   17.45
   3  -3   8  425.05   18.10
   3  -3   9 1336.63   22.81
  -3  -3   9 1411.39   32.55
  -3  -3  10  217.70   13.37
   3  -3  10  223.06    9.92
   3  -3  11   45.98    4.82
  -3   3  11   37.16    5.34
  -3  -3  11   42.96    6.15
  -3  -3  12   -0.40    2.25
   3  -3  12    1.39    1.86
   3  -3  13  515.04   17.62
  -3  -3  13  512.44   22.34
  -3   3  13  505.05   20.78
  -3  -3  14    4.26    4.66
   3  -3  14    2.72    2.34
  -3   3  14   -4.73    3.76
   3  -3  15  370.78   16.30
  -3   3  15  368.07   18.67
  -3  -3  15  364.90   20.18
  -3  -3  16   12.48    6.12
   3  -3  16    5.21    3.57
  -3   3  16    3.35    3.98
   3  -3  17  429.57   18.94
  -3  -3  17  461.48   23.81
  -3   3  17  427.51   21.08
   3  -3  18  152.77   12.10
  -3  -3  18  161.91   15.08
  -3   3  18  138.87   12.32
  -3  -3  19  170.55   15.45
   3  -3  19  175.40   13.28
  -3   3  19  172.60   14.40
   3  -3  20   13.26    4.82
  -3   3  20   19.89    6.17
  -3  -3  20   12.37    6.37
  -3  -3  21   52.30    9.21
   3  -3  21   66.19    8.94
  -3  -3  22   27.98    7.67
   3  -3  22   14.16    4.80
  -3  -3  23  156.01   16.51
   3  -3  23  140.75   13.39
  -3   3  24    1.72    3.81
  -3  -3  24    0.55    3.50
   3  -3  24    4.71    3.35
   3  -3  25    6.09    3.45
  -3   3  25    3.27    3.77
  -3   3  26   35.65    8.17
  -3  -3  26   46.45   10.42
   3  -3  26   34.22    7.93
   3  -3  27   72.60   11.01
  -3   3  27   64.80   11.66
  -3  -3  27   75.57   12.99
   3  -3  28   25.99    7.38
   3   3  29   20.13    7.04
   3  -3  29   22.23    6.75
   3  -4   0   -2.36    2.64
   3   4   0    1.90    0.93
  -3   4   0   -1.08    1.56
  -3   4  -1  384.76   15.47
   3   4   1  365.51   10.45
   3  -4  -1  361.43   14.97
  -3   4   1  403.10   15.74
   3   4  -1  365.39    8.65
   3  -4   1  350.18   14.85
  -3   4   2   -0.22    2.01
   3  -4   2    0.08    2.16
   3   4  -2    1.37    0.70
   3  -4  -2   -2.41    2.95
   3   4  -3   69.98    6.49
   3  -4   3   72.19    7.36
   3   4  -3   73.30    3.30
   3  -4  -3   78.56    7.34
  -3   4   3   80.72    7.20
   3  -4   4 1210.07   28.73
   3  -4  -4 1241.60   28.40
  -3   4  -5   36.75    3.51
  -3  -4   5   37.00    2.30
   3  -4  -5   35.54    5.59
   3  -4   5   33.62    5.15
  -3   4  -6  203.25    8.29
   3  -4   6  232.50   13.15
   3  -4  -6  220.96   12.38
  -3  -4   6  197.49    5.81
   3   4   7  133.13    5.55
  -3   4  -7  137.66    7.21
   3  -4   7  156.87   11.16
  -3  -4   7  138.74    5.36
  -3   4  -8   59.71    5.01
  -3  -4   8   64.61    4.07
   3  -4   8   66.43    7.73
   3   4   8   62.44    3.27
  -3   4  -9  849.22   19.61
   3  -4   9  852.86   27.38
  -3  -4   9  871.97   16.21
  -3  -4  10    1.89    2.26
  -3  -4  10    3.01    1.45
  -3   4 -10    0.65    1.61
  -3  -4  11   -2.36    3.95
   3  -4  11   -2.21    3.35
  -3  -4  12   19.72    4.68
   3  -4  12   20.93    5.11
  -3   4  13    5.37    2.35
  -3  -4  13   12.14    4.23
   3  -4  13    8.61    2.24
  -3   4  14   -6.28    5.18
   3  -4  14    0.99    1.99
  -3  -4  14   -0.55    4.81
  -3  -4  15   -1.13    4.45
   3  -4  15    2.65    2.45
  -3   4  15   -1.90    4.01
  -3  -4  16   29.03    6.17
   3  -4  16   33.06    5.54
  -3   4  16   21.91    4.87
   3  -4  17   11.92    3.61
  -3   4  17    6.16    3.60
  -3  -4  17    7.69    3.49
  -3   4  18   -0.49    3.57
  -3  -4  18   -3.41    3.80
   3  -4  18    1.03    2.39
   3  -4  19    5.12    3.21
  -3  -4  19    8.30    4.22
  -3   4  19    4.13    3.60
   3  -4  20   62.46    8.34
  -3  -4  20   73.34   10.75
  -3   4  20   65.79    9.30
  -3  -4  21   15.08    5.39
  -3   4  21   12.20    4.70
   3  -4  21   15.17    4.59
  -3   4  22    3.70    4.50
   3  -4  22   -1.13    3.05
  -3  -4  22   -0.33    3.45
  -3  -4  23    6.87    5.24
   3  -4  23   -0.68    3.09
   3  -4  24   -1.11    2.86
  -3  -4  24    5.21    4.96
   3  -4  25   -4.10    4.06
  -3  -4  25   -1.36    4.13
   3  -4  26   13.60    5.06
  -3  -4  26    9.77    5.11
   3  -4  27   -0.10    3.38
   3  -4  28    2.39    2.90
   3  -5   0   -0.47    2.33
   3   5   0   -0.86    1.13
   3   5   1  364.71   11.83
   3  -5  -1  383.21   16.73
   3  -5   1  372.02   16.48
   3   5  -1  369.75   10.59
   3   5   2  676.67   17.00
   3  -5  -2  677.33   22.38
   3  -5   2  703.68   22.64
   3   5  -2  676.20   13.50
   3  -5   3   34.38    5.44
   3   5  -3   29.23    2.83
   3   5   3   34.13    4.19
   3  -5  -3   26.90    4.92
   3   5  -4   16.98    2.16
  -3  -5   4   17.48    2.14
   3  -5   4   14.85    3.92
   3  -5  -4   19.62    4.48
   3  -5   5  385.78   17.70
   3  -5  -5  393.94   17.64
  -3  -5   5  371.35    9.40
  -3   5  -5  381.77   12.95
  -3   5  -6  349.64   12.55
   3  -5   6  336.72   16.64
   3  -5  -6  346.02   16.83
  -3  -5   6  348.42    9.35
  -3   5  -7  149.99    8.43
   3  -5   7  144.48   11.61
   3  -5  -7  165.34   11.86
  -3  -5   7  143.97    6.30
  -3   5  -8  399.52   14.09
   3  -5   8  383.30   18.63
  -3  -5   8  386.15   10.83
  -3   5  -9    2.83    2.13
   3  -5   9    0.76    3.33
  -3  -5   9    0.24    1.08
   3  -5  10   26.15    5.91
  -3   5 -10   24.27    3.88
  -3  -5  10   24.12    3.26
  -3   5 -11  541.83   18.17
  -3  -5  11  551.67   15.69
   3  -5  11  576.29   24.02
   3  -5  12   35.86    6.78
  -3  -5  12   34.71    4.36
   3  -5  13   43.21    7.76
  -3  -5  13   45.95    5.32
   3  -5  14   19.33    5.46
  -3  -5  14   14.91    3.47
  -3  -5  14   13.28    4.95
  -3  -5  15   79.62   11.01
  -3   5  15   51.17    7.20
   3  -5  15   61.86    9.65
  -3  -5  15   66.37    6.78
   3  -5  16  402.94   23.09
  -3  -5  16  410.17   23.32
  -3   5  16  384.70   19.86
  -3  -5  17  171.58   15.52
  -3   5  17  156.28   13.12
   3  -5  17  161.20   15.18
  -3  -5  18   25.43    6.46
   3  -5  18   16.25    4.65
   3  -5  18   19.64    6.67
  -3   5  18   12.19    3.50
   3  -5  19   29.75    6.07
  -3   5  19   29.72    6.49
  -3  -5  19   21.53    5.85
  -3  -5  20  105.73   13.57
   3  -5  20   97.56   10.73
  -3   5  20   87.90   10.63
   3  -5  21  122.52   12.38
  -3  -5  21  130.73   15.18
  -3   5  21  112.54   11.97
  -3  -5  22  100.96   13.61
   3  -5  22  122.75   12.73
  -3   5  22  100.60   11.84
   3  -5  23   12.64    5.64
  -3  -5  23   11.01    5.81
  -3   5  23   13.71    5.53
   3  -5  24  276.90   20.01
  -3  -5  24  254.10   22.13
   3  -5  25    6.00    4.45
  -3  -5  25   -1.07    4.05
   3  -5  26   61.20    9.97
   3  -5  27   37.49    8.38
   3  -6   0   -0.04    2.11
   3   6   0   -0.05    0.95
   3   6  -1   11.63    2.35
   3  -6  -1   12.64    3.84
   3  -6   1   12.95    3.37
   3   6   1   11.47    2.48
   3  -6  -2  440.65   19.42
   3   6  -2  440.32   12.96
   3   6   2  455.40   15.15
   3  -6   2  449.26   19.57
   3   6   3   48.39    5.31
   3   6  -3   37.47    3.72
   3  -6   3   36.45    5.83
   3  -6  -3   37.86    5.88
   3  -6   4   40.86    6.35
  -3  -6   4   47.76    4.13
   3   6  -4   51.48    4.32
   3   6   4   50.98    5.66
   3  -6  -4   48.24    6.82
  -3  -6   5   59.57    4.58
   3  -6   5   55.27    7.14
   3  -6  -5   51.07    6.78
   3  -6   6  128.04   10.95
  -3   6  -6  134.32    8.86
   3  -6  -6  130.55   11.30
  -3  -6   6  129.30    6.58
  -3  -6   7    1.73    1.47
  -3   6  -7    1.30    1.27
   3  -6  -7    2.72    2.74
   3  -6   7    0.03    3.10
  -3   6  -8   71.14    6.48
  -3  -6   8   71.19    5.26
   3  -6   8   69.94    8.47
  -3   6  -9   20.17    3.49
  -3  -6   9   18.70    2.91
   3  -6   9   11.89    4.33
  -3  -6  10   10.07    2.32
   3  -6  10   11.53    4.20
   3  -6  11   10.56    4.81
  -3  -6  11    7.99    2.23
   3  -6  12    1.95    3.53
  -3  -6  12    1.18    1.89
  -3  -6  13   50.99    5.68
   3  -6  13   37.79    7.14
  -3  -6  14   83.26    7.27
   3  -6  14   79.64   10.15
  -3  -6  15    8.11    2.39
   3  -6  15    8.15    4.26
  -3   6  16   -1.48    3.92
  -3  -6  16    0.13    2.25
   3  -6  16   -1.07    4.26
   3  -6  17   12.46    6.24
  -3   6  17   10.70    4.03
  -3  -6  17   17.96    4.33
   3  -6  18   15.31    5.56
  -3  -6  18   10.85    3.43
  -3   6  18    8.49    3.49
   3  -6  19   10.77    5.42
  -3  -6  19    6.73    2.86
  -3   6  19   -0.82    4.56
  -3  -6  20   19.18    4.79
   3  -6  20   11.40    4.81
  -3   6  20   13.56    4.31
  -3   6  21   -0.01    2.82
  -3  -6  21    0.14    3.23
   3  -6  21   -0.38    3.65
   3  -6  22    2.46    3.75
  -3   6  22   -1.13    2.88
  -3  -6  22    0.08    3.31
   3  -6  23    8.09    5.48
  -3  -6  23    4.22    4.33
   3  -6  24   12.74    5.65
  -3  -6  24   11.88    6.29
  -3  -6  25   -0.94    4.81
   3  -6  25   -2.97    3.39
   3  -7   0   -3.07    3.56
   3   7   0   -0.11    1.24
   3  -7  -1  610.96   24.11
   3  -7   1  577.74   23.36
   3   7   1  595.24   18.28
   3   7  -1  601.80   17.38
   3   7  -2   27.00    3.79
   3   7   2   24.69    3.96
   3  -7   2   20.57    5.22
   3  -7  -2   26.82    5.55
   3   7  -3  789.54   19.11
   3  -7  -3  818.88   28.10
   3  -7   3  759.46   27.38
   3   7  -4 1137.52   22.57
  -3  -7   4 1088.00   22.13
   3  -7  -4 1113.38   33.47
   3  -7   4 1146.25   33.66
   3  -7  -5 1135.60   33.74
  -3  -7   5 1045.54   21.45
   3   7  -5 1066.60   21.83
   3  -7   5 1051.78   32.52
   3  -7   6  183.02   14.12
   3  -7  -6  169.74   13.51
  -3  -7   6  167.70    8.56
   3  -7   7   -0.14    3.48
   3  -7  -7   -0.47    3.91
  -3  -7   7   -1.62    2.39
   3  -7   8  309.03   18.40
  -3  -7   8  326.50   12.32
   3  -7   9  604.78   26.16
  -3  -7   9  634.10   17.64
   3  -7  10   66.06    9.08
  -3  -7  10   65.29    5.92
  -3  -7  11    1.08    2.03
   3  -7  11   -3.54    4.48
  -3  -7  12  105.91    7.97
   3  -7  12  111.08   12.51
  -3  -7  13  868.29   23.54
   3  -7  13  900.90   33.78
   3  -7  14   24.95    6.33
  -3  -7  14   22.88    4.14
   3  -7  15   15.04    4.88
  -3  -7  15    7.08    2.80
   3  -7  16   35.01    8.94
  -3  -7  16   31.92    5.22
  -3  -7  17  368.55   17.70
  -3   7  17  367.29   21.06
   3  -7  17  402.65   24.20
  -3  -7  18   11.28    3.92
   3  -7  18    4.84    5.09
  -3   7  18    6.96    2.97
   3  -7  19  252.82   20.48
  -3   7  19  238.00   17.16
   3  -7  20   42.64    9.34
  -3   7  20   30.09    6.85
   3  -7  21   62.92   10.93
  -3   7  21   62.97    9.39
   3  -7  22   27.22    8.48
   3  -7  23  257.53   22.19
   3  -7  24   10.77    5.99
   3  -7  25   38.97    9.21
   3  -8   0   -0.18    3.71
   3  -8   1    5.65    3.47
   3   8  -1   14.62    3.32
   3  -8  -1   16.43    4.70
   3   8  -2   -0.40    1.47
   3  -8   2    0.87    3.28
   3  -8  -2   -2.01    3.77
   3   8  -3  141.61    9.18
   3  -8  -3  139.91   12.85
   3  -8   3  143.27   12.65
   3  -8   4   58.13    8.68
   3   8  -4   63.49    6.09
  -3  -8   4   62.82    6.28
   3  -8  -4   50.38    8.19
  -3  -8   5   54.76    5.80
   3  -8  -5   57.88    9.22
   3   8  -5   54.27    5.83
   3  -8   5   40.19    7.32
   3  -8   6   74.81    9.53
  -3  -8   6   58.95    5.92
   3  -8  -6   73.50    9.59
   3  -8  -7   14.12    4.99
   3  -8   7    9.60    4.48
  -3  -8   7   17.91    3.12
   3  -8   8   96.55   10.97
  -3  -8   8  102.71    7.70
   3  -8   9  160.34   13.97
  -3  -8   9  169.99   10.15
  -3  -8  10   30.23    4.33
   3  -8  10   24.09    5.24
  -3  -8  11    7.59    2.51
   3  -8  11    6.14    3.84
  -3  -8  12   20.74    3.73
   3  -8  12   15.94    4.52
  -3  -8  13    5.26    2.47
   3  -8  13    2.04    3.57
  -3  -8  14   -2.61    2.20
   3  -8  14   -1.47    4.21
   3  -8  15   65.75   10.23
  -3  -8  15   76.18    7.71
  -3  -8  16    2.22    2.42
   3  -8  16   -4.78    4.28
   3  -8  17   77.12   11.25
  -3   8  18    3.66    2.86
   3  -8  18   15.24    6.37
   3  -8  19    6.13    4.24
  -3   8  19   -2.77    4.08
   3  -8  20   22.55    7.32
  -3   8  20   18.10    5.50
   3  -8  21   -1.92    4.33
   3  -8  22    8.13    5.72
   3  -8  23    3.13    4.26
   3  -9   0   -0.93    3.15
   3  -9  -1  752.51   30.32
   3  -9   1  805.97   31.01
   3  -9   2   73.26    9.97
   3  -9  -2   80.42   10.33
   3  -9   3   -2.08    3.97
   3  -9  -3    0.43    4.83
  -3  -9   4  213.84   11.88
   3  -9  -4  215.04   16.57
   3  -9   4  209.92   16.18
  -3  -9   5 1052.60   26.37
   3  -9  -5 1129.86   37.84
   3  -9   5 1090.50   37.10
   3  -9  -6  223.70   17.55
  -3  -9   6  220.73   12.11
   3  -9   6  235.63   17.54
   3  -9  -7  182.28   15.58
  -3  -9   7  178.68   10.76
   3  -9   7  192.34   15.66
  -3  -9   8  146.25    9.87
   3  -9   8  149.44   14.36
  -3  -9   9  445.60   17.37
   3  -9   9  470.92   25.18
   3  -9  10  223.24   17.62
  -3  -9  10  197.48   11.73
   3  -9  11   73.21   10.67
  -3  -9  11   70.67    7.18
  -3  -9  12    4.61    2.45
   3  -9  12    3.30    3.01
   3  -9  13  139.36   14.37
  -3  -9  13  143.48   10.59
   3  -9  14   62.56   10.29
   3  -9  15    2.37    4.51
   3  -9  16  278.51   21.47
   3  -9  17  235.36   20.22
   3  -9  18    9.02    5.48
   3  -9  19  151.62   16.75
  -3   9  19  159.91   15.35
   3  -9  20   92.88   13.11
   3  -9  21   75.77   12.60
   3  -9  22    1.20    3.86
   3 -10   0    2.68    4.71
   3 -10  -1    5.80    3.36
   3 -10   1    3.53    4.03
   3 -10   2   -1.71    3.95
   3 -10  -2    6.27    3.73
   3 -10   3   17.44    5.74
   3 -10  -3   16.09    5.92
   3 -10   4   11.90    4.62
  -3 -10   4    6.63    2.19
   3 -10  -4   13.37    5.92
  -3 -10   5   -0.30    2.45
   3 -10  -5    3.76    3.17
   3 -10   6   14.22    5.73
  -3 -10   6    9.99    3.58
   3 -10  -6    7.38    5.46
  -3 -10   7   55.26    6.67
   3 -10   7   51.84    9.07
  -3 -10   8  164.63   11.31
   3 -10   8  151.00   14.78
   3 -10   9   89.69   11.62
  -3 -10   9   72.34    7.52
   3 -10  10   61.79    9.68
  -3 -10  10   56.78    6.89
   3 -10  11   -2.57    4.17
   3 -10  12   -3.99    3.71
   3 -10  13    2.36    3.31
   3 -10  14   26.89    7.35
   3 -10  15    1.93    5.04
   3 -10  16   23.70    7.16
   3 -10  17   29.27    7.60
   3 -10  18   58.09   11.11
   3 -10  19    8.07    5.22
   3 -10  20   17.48    6.77
   3 -10  21    8.77    5.12
   3 -11   0   -1.67    5.03
   3 -11  -1   32.00    8.06
   3 -11   1   43.83    8.57
   3 -11   2  218.89   18.41
   3 -11  -2  196.81   17.41
   3 -11   3   34.95    7.63
   3 -11  -3   34.90    7.99
   3 -11  -4   52.50    9.55
   3 -11   4   47.31    8.57
   3 -11   5   34.83    7.96
  -3 -11   5   55.41    7.39
   3 -11  -5   49.31    9.04
  -3 -11   6  108.14    9.91
   3 -11  -6  113.32   13.99
   3 -11   6   98.46   12.88
   3 -11   7   -0.75    2.96
  -3 -11   7    6.57    3.22
   3 -11   8    4.84    4.97
   3 -11   9    7.69    3.87
   3 -11  10   13.05    6.01
   3 -11  11    1.62    3.57
   3 -11  12  328.00   23.48
   3 -11  13   23.89    7.39
   3 -11  14   41.02    8.19
   3 -11  15   21.81    6.88
   3 -11  16   20.44    7.09
   3 -11  17    3.53    4.87
   3 -11  18   -2.41    4.16
   3 -11  19   34.48    9.66
   3 -12   0   -1.17    4.47
   3 -12  -1   23.88    6.62
   3 -12   1   22.21    6.50
   3 -12  -2   19.13    7.00
   3 -12   2   20.90    6.61
   3 -12  -3    6.72    5.47
   3 -12   3    3.19    3.70
   3 -12  -4    6.80    5.68
   3 -12   4   -3.61    3.48
   3 -12   5   -2.12    3.64
   3 -12  -5    2.41    4.33
   3 -12   6   12.91    5.10
   3 -12   7    8.57    4.65
   3 -12   8    2.25    3.53
   3 -12   9   21.16    6.28
   3 -12  10   14.72    5.97
   3 -12  11    1.90    3.41
   3 -12  12   25.32    7.29
   3 -12  13   -5.67    5.05
   3 -12  14   12.79    5.23
   3 -12  15    2.32    4.12
   3 -12  16    3.70    5.78
   3 -13   0    4.83    5.77
   3 -13  -1  186.37   19.03
   3 -13   1  177.95   18.14
   3 -13  -2  195.51   19.24
   3 -13   2  202.23   19.56
   3 -13  -3    2.31    4.06
   3 -13   3   -3.44    5.70
   3 -13  -4   53.93   10.30
   3 -13   4   56.02   10.60
   3 -13  -5  105.66   14.14
   3 -13   5   92.23   13.04
   3 -13   6   -1.86    5.04
   3 -13   7    6.59    3.53
   3 -13   8   42.77    9.36
   3 -13   9   91.60   13.39
   3 -13  10    6.34    6.42
   3 -13  11   65.02   11.99
   3 -13  12   14.89    6.59
   3 -13  13  172.62   18.76
   3 -14   0   12.36    7.67
   3 -14  -1   44.58   10.29
   3 -14   1   37.94    9.60
   3 -14  -2   12.12    6.65
   3 -14   2   15.98    7.14
   3 -14  -3   -6.35    5.15
   3 -14   3    1.35    3.91
   3 -14  -4   -5.49    5.92
   3 -14   4    2.90    5.06
   3 -14   5    2.34    4.97
   3 -14   6   42.56    9.73
   3 -14   7   17.23    7.39
   3 -14   8   12.72    5.90
   4   0   0 7517.00   40.03
   4   0   0 7562.01   49.85
  -4   0   0 7574.74   61.32
   4   0   1    0.57    1.49
  -4   0   1    1.09    2.52
   4   0   1    0.21    0.92
   4   0  -1    1.40    1.28
   4   0  -1    0.74    1.43
   4   0   2  586.52    9.05
  -4   0   2  573.82   13.32
  -4   0   2  564.74   17.64
  -4   0   2  592.31   13.18
   4   0   2  600.26   15.51
   4   0  -2  548.02   12.69
   4   0   3    0.92    0.60
  -4   0   3   -2.69    2.44
  -4   0   3    0.56    1.24
   4   0  -3   -0.71    1.07
  -4   0   3    0.20    0.90
  -4   0   4  546.90   14.99
   4   0  -4  559.24   12.59
  -4   0   4  543.91   18.58
  -4   0   4  542.86   12.47
  -4   0   5    0.59    0.99
  -4   0   5    2.94    1.96
  -4   0   6   87.95    7.02
  -4   0   6   83.27    7.63
  -4   0   6   79.38    5.15
  -4   0   7    4.39    1.36
  -4   0   7    2.33    2.36
  -4   0   7    1.71    3.08
  -4   0   8  424.62   12.72
  -4   0   8  409.32   18.04
  -4   0   8  402.88   16.20
  -4   0   9    0.76    2.34
  -4   0   9   -2.08    1.49
  -4   0   9   -3.23    2.40
  -4   0  10  281.97   14.63
  -4   0  10  275.20   11.47
  -4   0  10  281.05   15.73
  -4   0  11    9.02    3.91
  -4   0  11    1.56    2.09
  -4   0  11   14.79    5.52
  -4   0  12  219.29   13.88
  -4   0  12  223.58   11.32
  -4   0  12  249.05   15.96
  -4   0  13   29.50    8.79
  -4   0  13    3.60    2.42
  -4   0  13   30.25    8.72
  -4   0  14 2174.68   46.85
  -4   0  15   40.89   10.30
  -4   0  16  413.27   22.02
  -4   0  17    4.25    3.59
   4   0  18   66.04    7.58
  -4   0  18   62.06    9.05
  -4   0  19    6.02    4.16
   4   0  19    0.00    2.17
  -4   0  20   66.83    9.86
   4   0  20   61.66    8.09
   4   0  21    0.39    2.55
  -4   0  21    4.53    4.66
   4   0  22   92.40   10.51
  -4   0  22   88.76   12.42
  -4   0  23    6.57    5.21
   4   0  23   -1.58    3.12
  -4   0  24    7.61    5.83
   4   0  24    9.72    4.05
  -4   0  25    4.17    5.21
   4   0  25   -2.70    3.72
  -4   0  26    3.91    5.29
   4   0  26   -5.08    3.81
   4   0  27    1.71    3.75
   4   0  28   56.50   10.12
   4  -1   0  219.58    9.60
   4   1   0  217.00    7.43
   4   1   0  217.74    8.12
  -4  -1   0  213.81   10.31
  -4   1   0  217.11    9.62
  -4   1   0  219.67    5.91
   4   1   1  485.56   11.65
   4  -1   1  467.16   14.18
   4   1  -1  478.46   12.62
   4   1  -1  489.50   10.21
  -4   1   1  477.30   13.81
  -4  -1  -1  483.31   14.65
  -4   1   1  492.25   10.34
  -4  -1   1  490.53   16.08
   4   1   1  486.95   12.11
   4  -1  -1  478.84   13.80
  -4   1   2  322.70    9.44
   4   1  -2  312.47   10.78
  -4   1   2  314.43   10.99
   4  -1   2  316.54   12.30
  -4  -1  -2  299.17   11.19
   4   1  -2  294.60    7.52
   4  -1  -2  287.00   10.64
  -4  -1   2  312.02   13.28
  -4  -1   3  108.81    6.96
  -4   1   3  111.89    6.30
  -4   1   3  111.02    6.54
   4  -1  -3  109.63    6.57
   4   1  -3  110.16    4.36
   4  -1   3  125.18    8.05
  -4  -1  -3  108.45    6.89
   4   1  -3  106.28    6.74
  -4  -1   3  117.89    8.83
   4   1  -4 2415.10   33.48
  -4   1   4 2364.58   30.42
  -4  -1   4 2343.53   32.92
  -4  -1   4 2367.15   19.92
  -4   1   4 2358.75   30.48
   4  -1  -4 2309.57   30.04
  -4  -1  -4 2324.19   28.53
   4  -1   4 2368.39   35.91
  -4  -1   4 2367.88   38.72
  -4   1   5  292.85   11.53
   4   1  -5  281.48   11.90
  -4  -1   5  276.03    7.12
  -4   1   5  274.93   13.76
  -4  -1   5  284.39   12.01
  -4  -1  -5  272.79    9.37
  -4   1   5  275.12   10.58
   4  -1  -5  271.21   10.58
  -4  -1   5  275.69   14.05
   4  -1   6   26.23    1.74
  -4   1   6   30.17    3.58
  -4  -1   6   29.57    4.35
  -4   1   6   24.81    4.16
  -4  -1  -6   24.40    2.78
  -4   1   6   27.60    4.17
   4   1  -6   27.61    3.92
  -4  -1   6   28.00    2.49
  -4  -1   7  151.77   11.03
   4  -1   7  133.89    4.81
  -4   1   7  148.09    9.39
  -4  -1  -7  141.56    6.11
  -4   1   7  133.78   10.03
  -4  -1   7  151.88    9.75
  -4  -1   7  140.20    5.92
  -4   1   7  144.41    8.12
   4  -1   8  927.20   14.61
  -4   1   8  941.07   21.18
  -4   1   8  968.27   24.45
  -4  -1  -8  904.28   14.22
  -4  -1   8  948.21   16.50
  -4   1   8  947.29   27.14
  -4  -1   8  920.85   24.79
  -4  -1   8  957.36   27.70
  -4  -1  -9   10.05    1.61
  -4  -1   9   13.32    3.66
  -4  -1   9   19.25    5.25
   4  -1   9   14.45    2.41
  -4   1   9   14.65    4.26
  -4  -1   9   13.10    2.29
  -4   1   9   11.52    2.28
  -4   1   9    9.17    3.82
  -4  -1  10  231.11   13.47
  -4   1  10  236.71   13.37
   4  -1  10  234.53    9.05
  -4  -1 -10  221.81    5.99
  -4  -1  10  236.81    9.63
  -4   1  10  237.75   11.60
  -4   1  10  233.05   14.03
  -4  -1  11  171.18   12.21
   4  -1  11  160.96    8.18
  -4   1  11  160.06   11.75
  -4   1  11  156.50    9.75
  -4  -1  11  156.96    8.49
  -4  -1 -11  131.67    4.11
  -4   1  11  160.78   12.21
   4  -1  12  207.59   10.02
  -4  -1  12  198.55   13.66
  -4   1  12  202.13   13.40
  -4   1  12  181.71   13.31
   4  -1  13  103.57    7.70
  -4   1  13  112.67   10.71
  -4  -1  13  100.12   10.40
  -4   1  13   96.07   10.18
  -4  -1  14  564.90   24.43
  -4   1  14  543.94   24.00
   4  -1  14  555.16   18.31
  -4   1  14  555.32   24.14
  -4  -1  15 1545.39   41.28
   4  -1  15 1558.04   32.13
  -4   1  15 1568.55   40.89
  -4   1  15 1504.98   40.22
  -4  -1  16  350.36   20.62
   4  -1  16  311.81   15.35
  -4   1  16  328.45   20.06
  -4   1  16  306.94   18.87
   4  -1  17   44.60    6.55
  -4  -1  17   43.46    8.52
  -4   1  17   42.54    8.53
  -4  -1  18  442.59   24.09
   4  -1  18  385.78   18.20
  -4   1  18  416.78   23.26
  -4  -1  19    7.95    5.29
   4  -1  19    1.54    3.32
  -4   1  19    1.90    3.77
  -4   1  20   25.62    6.69
  -4  -1  20   27.76    7.11
   4  -1  20   29.32    5.86
   4  -1  21   82.69    9.61
  -4  -1  21   91.22   12.53
  -4   1  21   87.97   12.60
  -4  -1  22  336.17   23.41
  -4   1  22  352.62   24.05
   4  -1  22  348.14   19.84
  -4   1  23    6.91    6.08
  -4  -1  23    9.58    6.34
   4  -1  23   10.53    4.95
   4   1  23    4.89    4.64
  -4  -1  24   14.05    6.04
  -4   1  24   10.42    5.51
   4  -1  24   18.01    5.88
   4   1  24   15.65    5.72
   4  -1  25  123.66   13.12
  -4   1  25  125.33   15.68
  -4  -1  25  126.10   16.05
   4   1  25  112.60   12.82
  -4  -1  26  235.68   21.84
   4  -1  26  229.47   18.25
  -4   1  26  240.73   22.20
   4   1  26  233.71   18.75
   4  -1  27    8.73    4.52
   4   1  27    5.56    3.84
   4   1  28   83.65   12.20
  -4  -2   0  507.74   15.80
   4   2   0  520.52   16.14
  -4   2   0  511.68   16.23
   4   2   0  528.45   14.70
   4  -2   0  503.71   15.81
  -4   2   1    8.94    2.04
   4  -2  -1    9.92    2.33
   4   2  -1    8.15    1.97
  -4   2  -1   10.39    3.00
   4   2  -1    8.44    2.47
  -4   2  -1    7.66    0.95
   4   2   1    8.53    2.33
   4  -2   1   13.04    3.11
   4   2  -1   11.22    1.38
   4   2  -2  525.44   15.49
   4  -2   2  494.46   16.33
  -4   2   2  547.48   16.36
   4   2  -2  529.67   17.34
  -4  -2  -2  503.41   14.65
   4  -2  -2  503.54   15.73
   4   2  -3 1157.60   23.62
  -4   2   3 1147.98   23.86
   4  -2   3 1174.86   25.92
   4   2  -3 1143.44   26.36
   4  -2  -3 1104.29   23.36
   4   2  -4 2017.42   32.61
   4  -2   4 2008.58   35.25
   4  -2  -4 1970.52   31.42
   4   2  -4 2036.12   36.16
  -4   2   4 2057.05   31.81
  -4  -2   5  122.13    8.52
   4   2  -5  125.21    8.55
   4  -2  -5  103.95    7.38
   4  -2   5  121.34    9.03
  -4   2   5  120.57    7.82
   4   2  -6  239.74   12.23
  -4   2   6  240.64   11.24
   4  -2  -6  235.19   11.23
   4  -2   6  231.66   13.04
  -4  -2   6  229.78   12.13
  -4  -2   7  824.23   23.66
  -4  -2   7  782.68   10.69
  -4   2   7  810.18   21.20
   4  -2   7  825.41   24.76
   4  -2   8  156.17    5.89
  -4  -2   8  161.47   10.79
  -4  -2   8  151.36    5.59
  -4   2   8  168.60    9.90
  -4   2   8  144.00   10.95
   4  -2   9   13.24    2.03
  -4  -2   9   16.56    3.70
  -4  -2   9   13.85    2.11
  -4   2   9   14.06    2.93
   4  -2  10   12.28    2.24
  -4   2  10    5.50    2.98
  -4  -2  10   15.46    4.23
   4  -2  11   70.94    5.43
  -4  -2  11   67.92    8.02
  -4   2  11   58.11    7.35
  -4  -2  12  128.45   10.97
   4  -2  12  134.64    7.88
  -4   2  12  141.41   11.79
  -4  -2  13   92.04    9.61
  -4   2  13   99.77   10.26
   4  -2  13  106.24    7.46
   4  -2  14   62.63    6.17
  -4   2  14   74.02    9.40
  -4  -2  14   65.31    8.27
  -4  -2  15  146.99   12.85
   4  -2  15  142.02    9.47
  -4   2  15  161.53   13.56
   4  -2  16   77.66    7.50
  -4  -2  16   79.79   10.24
  -4   2  16   98.62   11.23
   4  -2  17   76.13    7.85
  -4   2  17   82.87   10.50
  -4  -2  17   96.71   11.55
  -4   2  17   96.92   11.20
  -4   2  18  198.16   15.95
  -4  -2  18  214.72   17.40
   4  -2  18  201.35   13.00
  -4   2  18  216.20   16.69
  -4  -2  19   11.32    5.99
   4  -2  19   12.27    4.01
  -4   2  19    5.90    3.77
  -4   2  19    4.66    4.25
   4  -2  20    3.40    2.56
  -4   2  20    3.09    2.70
  -4  -2  20    3.05    4.99
  -4  -2  21   37.26    8.39
  -4   2  21   36.45    7.83
   4  -2  21   24.27    5.37
  -4  -2  22    4.73    4.09
   4  -2  22    4.64    3.40
  -4   2  22    4.79    3.48
  -4  -2  23   15.36    6.07
   4  -2  23   12.94    4.16
  -4   2  23   13.43    5.26
  -4  -2  24    6.19    5.51
   4  -2  24    1.46    2.43
  -4   2  24   -0.90    3.56
  -4  -2  25   -2.21    4.74
   4  -2  25    0.46    2.44
  -4   2  25   -2.89    5.03
   4  -2  26   32.17    6.83
  -4  -2  26   39.65    9.36
  -4   2  26   33.72    8.65
   4   2  26   36.05    7.91
   4   2  27    3.38    3.39
   4   2  28   -4.32    4.01
   4   2  29   24.83    7.36
  -4   3   0 1619.97   31.20
   4   3   0 1595.37   29.04
   4  -3   0 1583.92   30.83
   4   3  -1   20.49    3.45
   4   3  -1   20.23    3.82
   4  -3  -1   15.67    3.41
   4  -3   1   20.52    4.01
  -4   3  -1   26.98    4.26
  -4   3   1   21.34    3.74
   4   3   1   22.34    3.43
  -4   3   2   54.08    5.63
   4  -3   2   62.49    6.69
   4   3   2   53.15    4.86
   4  -3  -2   55.23    6.03
   4   3  -2   79.32    7.23
  -4   3  -2   56.37    6.29
   4   3  -2   72.71    6.55
   4   3  -3  534.04   17.55
   4  -3   3  498.96   18.17
  -4   3  -3  496.81    7.70
   4   3   3  539.77   14.89
   4  -3  -3  545.70   18.12
  -4   3   3  544.68   17.91
   4   3  -3  535.87   18.77
   4   3   4    3.83    1.36
   4   3  -4    5.18    2.17
  -4   3  -4    5.03    0.82
  -4   3   4    3.36    2.05
   4  -3  -4    3.10    2.16
   4  -3   4   -1.33    3.22
   4  -3   5  278.22   14.36
   4  -3  -5  303.14   13.88
  -4   3   5  294.92   13.56
   4  -3   6 1029.30   27.70
   4  -3  -6 1048.24   26.09
  -4   3   6 1108.12   26.36
   4  -3  -7  119.24    9.29
   4  -3   7  127.56   10.15
  -4  -3   8  137.34    4.23
   4  -3   8  134.86   10.96
  -4  -3   8  130.09    4.27
  -4  -3   8  153.77   11.19
  -4  -3   9  150.39   11.45
   4  -3   9  157.48   12.22
  -4  -3  10   51.06    7.02
   4  -3  10   52.15    7.83
  -4   3  10   31.61    5.41
  -4   3  11  250.57   15.37
   4  -3  11  286.31   10.94
  -4  -3  11  280.61   16.31
  -4  -3  12   33.62    6.24
   4  -3  12   41.12    4.68
  -4   3  12   33.20    5.18
   4  -3  13   14.40    2.92
  -4  -3  13    9.29    3.38
  -4   3  13    4.78    3.88
   4  -3  14    5.50    2.12
  -4  -3  14    2.45    3.56
  -4   3  14    3.86    3.74
   4  -3  15  115.32    8.68
  -4   3  15  100.63   10.65
  -4  -3  15  111.37   11.51
  -4  -3  16   -2.81    3.78
  -4   3  16   -0.64    3.42
   4  -3  16    0.61    1.86
  -4  -3  17  181.59   15.70
   4  -3  17  199.90   12.53
  -4   3  17  177.85   14.53
   4  -3  18  104.50    9.79
  -4  -3  18  119.39   13.30
  -4   3  18   98.64   11.64
  -4  -3  19  117.32   13.68
   4  -3  19  129.00   10.93
  -4   3  19  134.22   13.34
  -4   3  20   93.41   11.65
  -4  -3  20   92.03   12.94
   4  -3  20   75.26    8.89
  -4  -3  21  614.25   31.65
   4  -3  21  573.91   24.55
  -4   3  21  567.15   28.18
  -4  -3  22   14.58    8.06
  -4   3  22    7.87    6.30
   4  -3  22    6.82    3.54
   4  -3  23   53.56    8.17
  -4  -3  23   60.53   10.80
  -4   3  23   52.54   10.05
  -4  -3  24   -2.98    4.21
   4  -3  24    1.26    2.79
  -4   3  24   -7.72    6.35
   4  -3  25   70.33    9.75
  -4  -3  25   73.61   12.18
  -4   3  25   70.34   11.82
  -4  -3  26   31.43    8.27
  -4   3  26   19.02    7.19
   4   3  29  110.68   14.70
   4   4   0   25.40    2.45
   4  -4   0   24.79    4.48
   4   4   0   26.72    4.45
   4  -4   1   20.00    4.22
   4   4   1   25.74    4.20
   4  -4  -1   32.53    5.15
   4   4  -1   22.41    1.95
   4   4  -1   28.35    4.69
   4  -4   2  162.45   11.11
   4  -4  -2  169.39   10.97
   4   4   2  149.54    8.92
   4  -4   3   65.61    7.52
   4   4   3   61.96    5.56
   4  -4  -3   52.61    6.40
  -4   4  -4  175.42    6.43
   4  -4  -4  174.99   11.49
   4  -4   4  178.26   11.92
   4   4   4  171.91    8.55
  -4   4  -5  994.26   15.43
   4  -4   5  990.03   28.17
   4  -4  -5  969.31   26.94
   4   4   5  972.60   19.13
   4  -4   6  177.72   12.23
   4  -4  -6  166.30   11.33
  -4   4  -6  160.01    6.50
   4   4   6  167.06    7.29
   4  -4   7  281.92   15.85
  -4   4  -7  263.53    8.83
   4   4   7  279.59    8.57
   4  -4  -7  270.39   14.62
   4  -4   8   13.30    3.97
   4  -4   9    3.02    2.59
  -4  -4   9    0.03    0.62
   4  -4  10   63.51    8.19
  -4  -4  10   55.42    3.65
  -4  -4  11   20.70    5.07
  -4  -4  11   21.97    2.82
   4  -4  11   20.45    4.86
  -4  -4  12    1.00    3.74
   4  -4  12    5.85    4.31
  -4   4  12   -2.71    4.73
  -4  -4  13    5.09    3.33
  -4   4  13   11.37    3.62
   4  -4  13   10.69    4.55
  -4  -4  14  120.91   12.15
  -4   4  14  109.83   10.98
   4  -4  14  128.87   13.14
  -4  -4  15   50.58    8.73
   4  -4  15   37.56    5.22
  -4   4  15   36.15    6.34
  -4  -4  16   25.56    5.71
  -4   4  16   29.44    5.92
   4  -4  16   36.61    5.42
   4  -4  17   25.12    4.62
  -4  -4  17   22.81    6.74
  -4   4  17   16.72    4.48
  -4  -4  18   57.51   10.03
   4  -4  18   54.39    7.08
  -4   4  18   60.64    9.15
   4  -4  19  158.76   12.44
  -4  -4  19  187.90   16.97
  -4   4  19  164.19   14.86
  -4   4  20    6.07    4.76
   4  -4  20    2.31    3.09
  -4  -4  20    9.33    5.03
  -4  -4  21   14.42    5.43
   4  -4  21   12.95    3.62
  -4   4  21   11.06    5.33
   4  -4  22   45.00    7.64
  -4  -4  22   47.28   10.05
  -4   4  22   38.88    8.50
   4  -4  23    0.03    2.16
  -4  -4  23    0.52    3.16
   4  -4  24   -1.64    2.50
  -4  -4  24    4.73    4.57
  -4  -4  25    1.82    4.53
  -4   4  25   -0.83    4.43
   4   5   0  374.04   10.39
   4  -5   0  358.42   17.23
   4  -5  -1    1.37    2.58
   4   5  -1    0.58    0.76
   4  -5   1    0.36    2.05
   4   5   1   -0.47    0.97
   4   5  -2  192.47    6.05
   4   5   2  198.12    8.98
   4  -5  -2  195.07   12.62
   4  -5   2  191.32   12.70
   4   5   3  287.08   12.70
   4   5  -3  270.05    6.13
   4  -5   3  284.15   15.82
   4  -5   4  109.89   10.07
   4   5   4  127.33    8.27
   4  -5  -4  122.83   10.23
  -4   5  -5  117.32    6.60
   4  -5   5  125.49   10.74
   4  -5  -5  117.59   10.20
   4   5   5  119.35    7.60
   4   5   6   20.04    3.19
  -4   5  -6   17.40    2.70
   4  -5  -6   14.73    3.73
   4  -5   6   12.40    3.62
  -4   5  -7    6.11    1.72
   4  -5  -7    3.94    3.25
   4   5   7    7.85    2.01
   4  -5   7    4.68    3.15
  -4   5  -8  275.43   10.80
   4  -5   8  254.90   15.99
  -4  -5   8  239.82    5.70
   4   5   8  255.83    8.60
  -4   5  -9  209.51    9.70
   4  -5   9  200.97   14.66
   4   5   9  198.09    6.54
  -4  -5   9  180.02    5.92
  -4   5 -10  418.18   14.27
   4  -5  10  419.40   21.29
  -4  -5  10  392.34    9.89
  -4  -5  11   41.24    3.58
   4  -5  11   56.03    7.95
  -4  -5  12  127.32    6.79
   4  -5  12  122.44   12.25
  -4  -5  13   30.39    3.74
   4  -5  13   31.32    7.33
  -4   5  14  602.27   26.07
  -4  -5  14  633.50   17.52
   4  -5  14  620.38   28.27
   4  -5  15    4.91    5.02
  -4   5  15    4.04    3.50
  -4  -5  15    7.95    3.04
  -4  -5  16  203.46   17.42
  -4   5  16  174.88   14.66
   4  -5  16  190.41   16.52
  -4  -5  16  183.74   10.72
   4  -5  17   82.95   12.11
  -4  -5  17   88.80   11.85
  -4   5  17   69.16    9.56
  -4   5  18  129.25   12.86
   4  -5  18  136.73   14.45
  -4  -5  18  120.29   13.91
  -4   5  19    0.01    3.33
  -4  -5  19   -8.79    5.47
   4  -5  19    4.11    3.97
  -4  -5  20   94.20   12.65
  -4   5  20   86.17   10.89
   4  -5  20  113.46   14.09
  -4  -5  21   15.09    6.60
   4  -5  21   19.59    8.17
  -4   5  21   13.95    5.24
  -4  -5  22  197.26   19.16
   4  -5  22  187.39   19.09
  -4   5  22  197.11   17.23
   4  -5  23   35.89    9.77
  -4  -5  23   58.18   11.97
  -4   5  23   39.00    9.36
  -4  -5  24   80.24   13.39
  -4   5  24   79.76   11.82
   4  -5  24   79.83   13.23
  -4  -5  25   38.29    9.77
   4  -5  25   31.03    9.33
   4   6   0  274.57   10.20
   4  -6   0  250.22   15.46
   4  -6  -1   39.91    6.66
   4  -6   1   42.04    6.46
   4   6   1   44.54    4.36
   4   6  -1   47.83    3.96
   4   6  -2  161.56    6.94
   4   6   2  171.21    9.11
   4  -6  -2  171.96   12.69
   4  -6   2  167.21   12.81
   4   6  -3    3.83    1.30
   4  -6   3    0.97    3.07
   4   6   3    5.82    2.31
   4  -6  -3   -0.57    2.87
   4   6   4  288.63   13.00
   4  -6  -4  255.86   15.84
   4  -6   4  275.75   16.64
   4  -6   5   38.99    6.37
   4  -6  -5   37.13    6.59
   4  -6   6  222.96   15.17
   4  -6  -6  262.04   16.27
  -4   6  -6  255.34   11.23
  -4   6  -7   41.99    4.63
  -4  -6   7   38.77    2.78
   4  -6  -7   46.58    7.37
   4  -6   7   32.86    6.00
  -4   6  -8   -0.70    1.30
   4  -6  -8   -1.08    3.76
   4   6   8    4.02    2.43
  -4  -6   8    1.66    0.98
   4  -6   8    0.44    4.32
  -4  -6   9   10.98    1.71
   4   6   9   16.86    2.77
  -4   6  -9   16.87    3.38
   4  -6   9   14.24    4.58
  -4   6 -10   46.91    5.34
  -4  -6  10   43.95    3.61
   4   6  10   43.27    3.43
   4  -6  10   45.75    7.74
  -4   6 -11   30.25    4.46
   4   6  11   25.39    2.04
  -4  -6  11   30.40    3.14
   4  -6  11   26.10    6.22
  -4  -6  12  231.22    9.37
   4  -6  12  247.88   17.73
   4  -6  13    0.62    3.59
  -4  -6  13    0.58    1.37
   4  -6  14   35.40    7.90
  -4  -6  14   19.03    3.34
  -4  -6  15  444.79   15.50
   4  -6  15  428.78   24.87
   4  -6  16    3.60    4.64
  -4   6  16   -1.99    3.78
   4  -6  17   33.87    7.98
  -4   6  17   29.25    6.32
   4  -6  18   48.20    9.80
  -4   6  18   51.98    8.47
   4  -6  19   20.43    7.48
  -4   6  19   14.77    4.37
  -4   6  20    5.85    3.75
   4  -6  20    7.61    5.58
   4  -6  21   83.15   12.72
  -4   6  21   79.84   11.00
   4  -6  22   29.42    8.49
  -4   6  22   20.63    5.95
   4  -6  23   12.27    5.52
  -4   6  23   14.46    5.18
   4  -6  24    9.17    5.65
   4  -7   0   71.95    8.90
   4   7   0   68.61    5.79
   4  -7  -1  162.75   13.31
   4   7   1  162.20    9.27
   4  -7   1  163.02   13.28
   4   7  -1  158.65    8.31
   4  -7   2   38.24    7.20
   4   7  -2   29.97    3.42
   4  -7  -2   26.65    6.24
   4   7   2   27.12    4.10
   4   7  -3 1758.77   25.14
   4   7   3 1710.28   32.45
   4  -7  -3 1841.23   44.21
   4  -7   3 1752.30   43.15
   4  -7  -4  528.59   24.24
   4   7  -4  526.27   13.33
   4  -7   4  538.75   24.28
   4  -7   5   56.97    8.05
   4  -7  -5   73.19    9.00
  -4   7  -6  119.92    8.62
   4  -7   6  108.94   10.66
   4  -7  -6  113.69   11.05
   4  -7   7  327.33   19.58
  -4   7  -7  316.82   14.06
  -4  -7   7  321.62    9.74
   4  -7  -7  294.35   18.37
  -4   7  -8   -2.39    2.36
   4  -7  -8   -0.28    3.94
   4  -7   8   -5.97    5.38
  -4  -7   8    1.50    1.53
   4  -7   9   -1.77    4.67
  -4  -7   9    6.89    1.61
  -4  -7  10   19.23    2.75
   4  -7  10   22.17    6.09
   4  -7  11  492.21   25.09
  -4  -7  11  513.21   14.01
  -4  -7  12    9.13    2.20
   4  -7  12    4.49    3.42
   4  -7  13  334.36   21.49
   4  -7  14   56.74   10.33
   4  -7  15  400.28   24.79
   4  -7  16   28.14    6.81
   4  -7  17   19.92    6.61
  -4   7  17   18.11    5.17
   4  -7  18   50.38    9.93
  -4   7  18   37.89    6.89
   4  -7  19   65.71   11.46
  -4   7  19   35.92    7.44
   4  -7  20    9.27    5.89
  -4   7  20    8.66    4.64
   4  -7  21  231.87   21.04
  -4   7  21  241.35   19.31
   4  -7  22   29.44    8.36
  -4   7  22   20.32    6.10
   4  -7  23   32.59    9.19
   4  -8   0  255.06   17.43
   4   8   0  233.03   11.53
   4   8   1   12.28    3.01
   4   8  -1    7.44    1.99
   4  -8   1    8.43    4.88
   4  -8  -1    3.05    4.09
   4  -8   2    6.31    4.39
   4   8  -2    0.21    1.40
   4  -8  -2   -0.27    4.02
   4   8  -3  304.45   11.99
   4  -8  -3  348.98   20.49
   4  -8   3  298.30   19.24
   4  -8  -4   94.92   11.14
   4  -8   4  104.61   11.73
   4  -8   5    1.96    3.36
   4  -8  -5   -0.40    3.62
   4  -8   6   77.87   10.08
   4  -8  -6   72.32    9.88
  -4  -8   7  182.86    8.51
   4  -8  -7  188.21   15.49
   4  -8   7  184.63   15.37
   4  -8   8  137.05   13.55
   4  -8  -8  138.95   13.38
  -4  -8   8  142.58    7.62
   4  -8   9   18.19    4.34
  -4  -8   9   27.64    3.60
   4  -8  10    5.14    3.23
   4  -8  11   35.58    6.96
   4  -8  12   16.15    5.12
   4  -8  13   17.96    5.27
   4  -8  14    7.52    4.29
   4  -8  15   28.66    7.20
   4  -8  16   18.37    6.53
   4  -8  17  106.78   13.61
  -4   8  18   12.91    4.72
   4  -8  18   17.62    7.20
  -4   8  19   13.61    4.62
   4  -8  19   21.61    6.22
  -4   8  20   -1.63    4.08
   4  -8  20   -1.34    3.97
   4  -8  21  126.95   16.16
  -4   8  21  100.71   12.89
   4  -8  22    8.95    6.38
   4  -9   0  697.16   30.18
   4  -9  -1  298.02   19.94
   4  -9   1  296.24   19.93
   4  -9  -2  265.78   18.57
   4  -9   2  272.11   19.10
   4  -9  -3  506.86   25.96
   4  -9   3  488.62   25.70
   4  -9  -4  527.03   26.79
   4  -9   4  545.02   26.95
   4  -9   5   -4.52    4.55
   4  -9  -5    0.64    3.77
   4  -9  -6  200.23   16.70
   4  -9   6  197.96   16.67
   4  -9  -7  715.86   31.90
   4  -9   7  703.71   31.43
   4  -9   8   64.89   10.20
   4  -9  -8   72.66   10.98
   4  -9   9   73.16   10.27
   4  -9  10   16.47    5.78
   4  -9  11   90.56   11.90
   4  -9  12   15.57    5.14
   4  -9  13   23.85    7.59
   4  -9  14   73.43   11.11
   4  -9  15  117.49   14.45
   4  -9  16    4.51    3.14
   4  -9  17  111.47   14.77
   4  -9  18   51.22   10.08
  -4   9  19   -9.09    4.80
   4  -9  19    0.87    3.71
  -4   9  20    3.43    3.74
   4  -9  20    0.16    4.49
   4  -9  21   99.25   14.66
   4 -10   0   33.04    7.04
   4 -10  -1    6.48    4.27
   4 -10   1    4.42    2.81
   4 -10   2   17.85    6.52
   4 -10  -2    6.78    4.17
   4 -10   3   -3.55    4.59
   4 -10  -3   -1.56    3.47
   4 -10   4    2.22    4.21
   4 -10  -4    4.57    4.91
   4 -10   5   -0.09    3.61
   4 -10  -5    5.62    4.28
   4 -10  -6  206.33   18.06
   4 -10   6  156.87   15.56
   4 -10   7    4.00    5.01
   4 -10  -7   -3.17    3.29
   4 -10   8  187.79   17.14
   4 -10   9   -1.57    5.08
   4 -10  10    2.63    4.75
   4 -10  11  104.79   13.37
   4 -10  12    9.82    5.23
   4 -10  13    9.59    5.23
   4 -10  14    8.02    5.82
   4 -10  15    9.03    5.32
   4 -10  16   25.78    7.72
   4 -10  17   12.05    5.67
   4 -10  18   34.63    9.18
   4 -10  19   20.09    7.31
   4 -11   0  347.43   23.73
   4 -11  -1   37.45    8.62
   4 -11   1   40.09    8.55
   4 -11  -2    5.39    4.28
   4 -11   2   -0.17    4.17
   4 -11   3   46.37    8.63
   4 -11  -3   50.57    9.69
   4 -11  -4  465.35   27.94
   4 -11   4  438.51   26.72
   4 -11   5  105.06   13.79
   4 -11  -5  101.04   13.43
   4 -11  -6  318.60   23.14
   4 -11   6  361.81   24.48
   4 -11   7   18.40    6.66
   4 -11  -7    9.50    6.17
   4 -11   8    6.58    3.96
   4 -11   9   28.23    7.57
   4 -11  10  266.07   21.66
   4 -11  11   -3.86    4.21
   4 -11  12   28.36    7.67
   4 -11  13   20.38    6.95
   4 -11  14  103.35   14.13
   4 -11  15   -7.39    6.39
   4 -11  16   -0.97    3.62
   4 -11  17   -3.07    4.44
   4 -12   0   52.51   10.20
   4 -12  -1   -3.14    4.68
   4 -12   1   -8.09    5.60
   4 -12  -2   12.07    5.40
   4 -12   2   10.10    6.01
   4 -12  -3   69.63   11.77
   4 -12   3   70.02   11.50
   4 -12   4   -1.61    5.33
   4 -12  -4    3.77    4.70
   4 -12   5   -9.42    5.83
   4 -12  -5    2.55    4.69
   4 -12   6   34.08    8.65
   4 -12  -6   37.86    9.32
   4 -12   7    8.13    5.45
   4 -12   8   25.15    6.90
   4 -12   9   19.87    6.79
   4 -12  10   21.89    7.09
   4 -12  11   28.87    8.40
   4 -12  12    2.38    3.65
   4 -12  13    6.15    4.51
   4 -12  14   25.82    7.45
   4 -13   0   32.11    8.59
   4 -13  -1   52.26   10.94
   4 -13   1   46.06    9.85
   4 -13  -2   11.89    6.50
   4 -13   2   15.56    6.99
   4 -13  -3  187.91   19.96
   4 -13   3  207.37   20.15
   4 -13  -4    9.14    6.39
   4 -13   4    0.87    4.48
   4 -13  -5    9.53    4.66
   4 -13   5    7.13    5.44
   4 -13   6    1.81    3.76
   4 -13  -6    0.58    3.56
   4 -13   7   86.58   13.33
   4 -13   8   85.66   13.17
   4 -13   9   10.58    5.99
   4 -13  10    1.17    4.62
  -5   0   0   -4.73    2.75
   5   0   0    0.65    1.68
  -5   0  -1   -3.84    2.20
  -5   0   1   -4.66    3.29
   5   0  -1   -1.16    1.61
   5   0   1    0.43    0.92
   5   0   1    1.42    1.66
  -5   0   2 1198.20   20.85
   5   0   2 1171.21   14.25
  -5   0  -2 1185.85   26.03
   5   0   2 1179.00   23.76
  -5   0   2 1158.01   28.31
   5   0  -2 1159.11   20.84
   5   0  -3    5.99    2.02
   5   0   3   11.23    3.94
  -5   0   3    8.95    3.02
  -5   0   3    2.45    2.23
  -5   0   3   13.13    4.71
  -5   0   4 1740.90   24.74
   5   0   4 1680.46   14.92
   5   0  -4 1803.80   25.01
  -5   0   4 1794.63   37.00
   5   0   4 1769.18   31.79
  -5   0   4 1732.24   28.42
  -5   0   5   -1.82    2.46
  -5   0   5    1.64    2.15
   5   0  -5   -0.55    1.39
  -5   0   5   -2.23    1.88
  -5   0   6 1386.78   22.43
  -5   0   6 1409.62   28.47
  -5   0   6 1414.24   34.35
  -5   0   7    0.00    2.22
  -5   0   7   -2.38    3.96
  -5   0   7    0.13    0.96
  -5   0   8  375.39   16.12
  -5   0   8  369.10   18.56
  -5   0   8  348.98   12.06
  -5   0   9    0.35    1.24
  -5   0   9    1.53    2.53
  -5   0   9    1.76    4.32
  -5   0  10  167.10   11.84
  -5   0  10  155.80    8.65
  -5   0  10  158.78   13.26
  -5   0  11    3.61    3.68
  -5   0  11    5.96    4.15
  -5   0  11   -1.65    1.65
  -5   0  12  648.30   24.87
  -5   0  12  623.70   18.77
  -5   0  12  687.26   27.61
  -5   0  13    5.10    4.12
  -5   0  13    9.30    5.70
  -5   0  13    2.57    2.05
  -5   0  14  145.71   12.82
  -5   0  14  179.75   15.47
  -5   0  15   14.32    6.68
  -5   0  16  805.95   31.40
  -5   0  17    4.38    5.25
   5   0  17   -0.34    2.26
  -5   0  18   49.17    8.92
   5   0  18   46.87    6.35
  -5   0  19    8.46    5.11
   5   0  19    3.86    3.39
   5   0  20  130.37   11.24
  -5   0  20  160.75   16.03
  -5   0  21   -2.61    4.16
   5   0  21   -1.96    2.15
  -5   0  22   40.23    8.50
   5   0  22   35.27    6.60
  -5   0  23    5.85    5.82
   5   0  23    3.36    4.20
  -5   0  24  393.50   27.56
  -5   0  25    4.32    4.87
  -5  -1   0   -2.62    2.63
   5   1   0   -0.24    1.07
   5  -1   0    0.64    1.95
   5   1   0    0.20    1.34
   5   1  -1  139.87    6.47
   5   1   1  152.18    6.96
   5  -1   1  133.60    8.38
  -5   1   1  147.09    6.17
   5   1   1  151.05    7.62
  -5  -1  -1  150.54    9.43
  -5  -1   1  150.12    9.92
  -5   1   1  153.67    8.68
   5   1  -1  163.20    7.94
   5  -1  -1  142.25    8.39
  -5   1   2    3.81    1.70
   5   1   2    3.80    1.05
   5   1  -2    4.64    1.40
  -5   1   2    3.60    1.37
   5   1   2    5.91    1.97
   5   1  -2    2.89    1.15
   5  -1  -2    5.32    2.15
  -5  -1   2    1.74    2.71
   5  -1   2    1.13    1.76
  -5  -1  -2    4.79    2.06
   5  -1  -3   21.09    3.31
  -5   1   3   24.21    3.10
   5   1   3   24.74    2.71
  -5   1   3   17.56    3.31
   5   1  -3   23.32    3.55
  -5   1   3   24.12    3.48
   5  -1   3   23.08    3.80
  -5  -1   3   18.68    3.97
  -5  -1  -3   22.33    3.68
   5   1  -3   23.05    2.39
   5  -1   4    9.63    3.05
  -5   1   4    6.77    2.63
  -5   1   4   17.58    2.99
  -5  -1   4   14.45    2.74
   5   1  -4   15.57    2.86
   5   1  -4   14.23    1.95
  -5  -1  -4   16.11    3.10
   5  -1  -4    8.49    2.34
  -5   1   4   16.00    2.91
  -5  -1   4   27.16    4.84
  -5  -1   5   11.66    1.72
  -5  -1   5   20.83    5.68
  -5  -1   5   11.12    2.66
  -5   1   5    1.99    3.90
  -5   1   5   17.41    3.12
   5  -1   5   12.07    3.43
   5   1  -5    8.92    2.45
  -5  -1  -5   12.21    2.76
  -5   1   5   14.62    2.77
   5  -1  -5   13.53    2.94
  -5   1   6  428.00   14.19
  -5  -1   6  424.14   16.21
  -5   1   6  411.98   15.18
  -5  -1   6  420.89   10.03
   5  -1  -6  425.22   14.37
  -5   1   6  414.22   18.97
  -5  -1  -6  424.66   13.27
   5  -1   6  417.11   17.34
  -5  -1   6  437.32   19.63
  -5  -1   7   46.15    3.61
  -5   1   7   50.62    5.95
  -5  -1   7   45.90    5.84
  -5  -1  -7   44.39    4.22
  -5   1   7   42.02    6.55
  -5  -1   7   45.59    6.99
  -5   1   7   38.51    4.49
  -5   1   8   24.53    3.66
  -5  -1   8   24.48    6.16
  -5  -1   8   21.89    4.46
  -5   1   8   21.51    4.03
  -5  -1  -8   23.38    2.77
   5  -1   8   20.25    1.75
  -5   1   8   19.72    4.43
  -5  -1   8   25.36    2.89
   5  -1   9   73.58    4.05
  -5  -1   9   73.09    7.70
  -5   1   9   83.11    8.03
  -5  -1   9   96.86   10.55
  -5  -1  -9   76.21    4.90
  -5  -1   9   74.71    5.06
  -5   1   9   67.26    6.23
  -5   1   9   69.14    8.38
  -5  -1  10  678.22   23.86
  -5  -1  10  656.00   26.21
  -5   1  10  611.87   22.49
  -5  -1 -10  629.49   13.19
  -5  -1  10  637.31   15.39
  -5   1  10  648.97   19.46
  -5   1  10  620.22   25.16
   5  -1  10  620.59   13.12
   5  -1  11   41.72    3.93
  -5  -1  11   39.38    6.32
  -5   1  11   48.17    7.16
  -5   1  11   48.92    7.27
  -5  -1  11   42.86    4.32
  -5  -1 -11   35.90    2.94
  -5   1  11   42.73    5.23
   5  -1  12  255.88   10.24
  -5   1  12  282.58   16.42
  -5  -1  12  263.77   11.13
  -5  -1 -12  249.42    6.91
  -5   1  12  254.23   16.97
  -5  -1  12  259.93   16.02
   5  -1  13  412.66   13.89
  -5   1  13  435.18   21.05
  -5  -1  13  401.64   14.61
  -5  -1  13  413.87   20.88
  -5   1  13  456.62   22.80
   5  -1  14  172.28    9.70
  -5   1  14  178.81   13.95
  -5  -1  14  165.28    9.84
  -5  -1  14  177.94   14.03
  -5   1  14  162.29   14.28
   5  -1  15   14.27    3.28
  -5   1  15   13.58    4.73
  -5  -1  15   11.02    4.60
  -5   1  15   26.66    7.35
  -5   1  16  230.60   17.50
  -5  -1  16  217.10   16.48
   5  -1  16  217.29   12.10
  -5   1  16  238.67   17.41
   5  -1  17   37.60    5.44
  -5   1  17   29.00    6.61
  -5   1  17   48.31    9.21
  -5  -1  17   38.33    7.66
  -5  -1  18   35.93    7.45
   5  -1  18   24.83    4.61
  -5   1  18   25.55    5.87
  -5  -1  19   25.01    7.09
   5  -1  19   20.24    4.58
  -5   1  19   16.70    6.41
  -5  -1  20  123.32   14.17
   5  -1  20  124.73   10.72
  -5   1  20  116.14   13.62
  -5  -1  21   60.30   10.14
   5  -1  21   54.68    7.50
  -5   1  21   70.92   11.27
  -5  -1  22    1.48    4.77
   5  -1  22    4.20    3.08
  -5   1  22    0.44    3.01
   5   1  22    2.17    3.30
  -5   1  23  117.98   14.85
  -5  -1  23  113.84   14.83
   5   1  23  120.37   12.31
  -5  -1  24  193.18   19.58
  -5   1  24  170.60   18.14
   5   1  24  160.97   14.57
  -5  -1  25   14.83    7.21
  -5   1  25   20.55    6.91
  -5   2   0    0.76    1.57
  -5   2   0    0.83    0.68
   5   2   0    1.50    1.11
   5  -2   0   -0.04    1.94
   5   2   0   -0.40    1.10
  -5  -2  -1  103.03    8.15
   5  -2   1  107.16    8.09
   5   2   1  117.78    7.23
  -5  -2   1  112.13    8.99
   5   2  -1  108.05    7.31
   5   2  -1  100.24    4.63
  -5   2   1  103.84    5.02
  -5   2   1  104.08    7.76
   5   2   1  107.08    6.03
   5  -2  -1  102.13    7.77
  -5  -2  -2  111.44    8.22
   5   2  -2  105.33    7.43
  -5  -2   2  133.55   10.44
  -5   2   2  106.11    7.74
  -5   2   2  111.83    5.96
   5  -2  -2  108.17    7.96
   5   2  -2  103.11    4.08
   5  -2   2  105.72    8.21
  -5  -2  -3 1109.54   23.67
   5   2  -3 1199.40   25.72
  -5  -2   3 1065.60   28.45
  -5   2   3 1141.76   20.73
   5  -2   3 1072.72   27.16
  -5   2   3 1180.38   25.86
   5  -2  -3 1113.48   25.21
  -5  -2  -4  787.73   19.28
   5   2  -4  775.87   21.35
  -5   2   4  796.10   21.18
  -5   2   4  788.51   18.49
  -5  -2   4  807.24   25.31
   5  -2   4  768.92   23.39
   5  -2  -4  773.09   20.95
  -5  -2  -5  825.75   18.83
  -5   2   5  850.23   22.02
  -5   2   5  832.71   20.48
   5  -2   5  831.62   24.70
   5  -2  -5  797.97   21.64
  -5  -2  -6  721.49   16.77
  -5  -2   6  750.35   22.61
   5  -2  -6  740.58   21.00
   5  -2   6  693.93   23.61
  -5   2   6  721.14   20.04
  -5   2   6  724.31   20.59
  -5   2   7  109.92    8.37
  -5   2   7  103.86    9.79
   5  -2  -7   95.04    7.70
   5  -2   7   98.89    9.28
  -5   2   7  102.12    7.86
  -5  -2   7  107.08    9.14
  -5  -2   8    0.20    2.36
  -5   2   8    5.92    2.25
   5  -2   8    4.73    4.45
  -5   2   8    6.39    3.35
  -5  -2   8    3.48    0.94
  -5  -2   9  593.58   22.37
  -5   2   9  587.91   20.87
   5  -2   9  559.10   22.58
  -5   2   9  573.00   23.48
  -5  -2   9  562.76   10.89
   5  -2  10  181.02    6.60
  -5   2  10  188.51   12.68
  -5   2  10  169.15   13.22
  -5  -2  10  190.49    7.11
  -5  -2  10  196.64   13.31
   5  -2  11   60.42    4.39
  -5  -2  11   77.33    8.82
  -5   2  11   62.49    7.76
  -5  -2  11   58.90    4.41
  -5   2  11   65.48    8.68
   5  -2  12  170.50    7.96
  -5  -2  12  183.22   13.97
  -5   2  12  166.11   12.89
  -5  -2  12  163.79    7.97
  -5   2  12  163.77   13.71
  -5  -2  13  753.19   28.50
   5  -2  13  703.73   17.53
  -5   2  13  752.20   27.39
  -5  -2  13  696.63   17.55
  -5   2  13  701.80   28.33
   5  -2  14   47.59    5.00
  -5  -2  14   63.71    9.46
  -5   2  14   44.92    7.61
  -5   2  14   43.04    7.26
  -5  -2  15  199.74   15.73
   5  -2  15  200.79   10.58
  -5   2  15  233.39   16.24
  -5   2  15  210.15   16.17
  -5   2  16  123.11   12.57
  -5  -2  16  148.90   14.32
   5  -2  16  135.95    9.35
  -5   2  16  142.45   14.11
  -5  -2  17  216.97   17.24
   5  -2  17  215.06   12.26
  -5   2  17  212.10   16.81
  -5   2  17  208.44   17.02
  -5  -2  18  170.99   15.85
  -5   2  18  170.67   15.53
   5  -2  18  168.19   11.27
  -5   2  18  147.68   14.78
  -5  -2  19   42.83    8.71
   5  -2  19   45.90    6.41
  -5   2  19   37.72    8.42
  -5   2  19   55.53    9.75
  -5  -2  20  202.40   17.84
   5  -2  20  214.24   13.82
  -5   2  20  229.00   18.95
  -5   2  20  213.57   18.26
  -5  -2  21   41.24    8.99
   5  -2  21   40.52    6.75
  -5   2  21   38.87    8.07
  -5  -2  22   31.25    8.00
  -5   2  22   27.81    6.97
  -5  -2  23   26.21    7.61
  -5   2  23   18.15    6.36
  -5  -2  24   13.52    6.66
  -5   2  24   18.39    6.74
  -5  -2  25   15.22    7.32
  -5   2  25   -1.68    4.88
   5   3   0    1.44    1.56
   5  -3   0   -2.59    2.50
   5   3   0   -0.58    2.55
   5   3   1    7.58    2.37
   5  -3  -1    9.01    3.20
   5   3  -1   11.09    2.60
   5  -3   1    8.07    2.69
   5   3  -1    8.85    1.24
   5   3  -2  285.69   13.09
   5  -3   2  286.68   14.62
   5  -3  -2  285.23   14.12
   5  -3  -3   -2.44    2.63
   5  -3   3   -0.99    2.64
   5  -3   4   -2.59    3.39
   5  -3  -4   -3.57    2.78
   5  -3   5  349.98   17.04
   5  -3  -5  352.35   15.74
   5  -3   6   53.16    7.44
   5  -3  -6   53.51    6.34
   5  -3  -7  271.24   13.97
   5  -3   7  262.24   15.45
   5  -3   8   15.77    4.47
  -5  -3   9   34.85    5.88
   5  -3   9   33.49    6.19
  -5  -3  10   11.71    3.14
  -5   3  10   15.33    4.58
   5  -3  10    7.37    4.02
  -5  -3  10   12.75    1.47
  -5  -3  11    1.13    3.36
   5  -3  11    4.63    3.32
  -5  -3  11    3.57    1.03
   5  -3  12    5.79    4.40
  -5  -3  12    1.51    3.34
  -5  -3  12    4.80    1.43
  -5  -3  13  214.89   15.53
  -5   3  13  202.26   15.41
   5  -3  14    0.15    1.76
  -5  -3  14   -3.28    3.83
  -5   3  14   -2.53    3.81
  -5  -3  15  224.93   16.75
  -5   3  15  208.03   16.47
   5  -3  15  208.94   10.89
   5  -3  16   34.25    4.81
  -5  -3  16   31.85    7.21
  -5   3  16   39.28    7.64
   5  -3  17    5.40    2.19
  -5  -3  17    4.70    3.60
  -5   3  17    1.16    3.43
   5  -3  18    0.68    1.69
  -5  -3  18   -1.34    4.47
  -5   3  18   -0.73    3.16
   5  -3  19   30.88    5.16
  -5  -3  19   31.17    7.54
  -5   3  19   50.98    9.43
  -5   3  19   45.45    8.68
  -5  -3  20   16.00    5.79
  -5   3  20   19.28    6.22
  -5   3  20   30.37    8.16
  -5  -3  21   20.13    7.01
  -5   3  21   12.55    5.83
  -5   3  21   21.18    7.05
  -5  -3  22    7.21    4.69
  -5   3  22   23.40    7.70
  -5   3  22   12.95    5.43
  -5  -3  23   15.49    6.26
  -5   3  23   21.86    7.04
  -5  -3  24  114.42   15.50
  -5   3  24   99.67   14.20
  -5  -3  25   19.94    7.13
  -5   3  25   14.64    5.97
   5  -4   0   -3.72    3.05
   5   4  -1  285.90    6.14
   5   4   1  327.48   14.60
   5  -4  -1  335.95   16.31
   5  -4   1  325.14   16.36
   5  -4  -2    3.46    3.34
   5  -4   2    3.10    2.91
   5   4   2    3.75    1.66
   5  -4  -3    2.86    2.33
  -5   4  -3    5.03    1.07
   5   4   3    2.02    1.62
   5  -4   4   78.40    8.53
   5   4   4   88.29    6.85
   5  -4  -4   77.22    7.95
  -5   4  -4   78.51    3.18
  -5   4  -5   32.12    1.98
   5  -4   5   40.81    6.84
   5  -4  -5   39.54    6.08
   5  -4   6  554.90   23.07
   5  -4  -6  558.50   21.42
   5  -4   7  480.76   21.85
   5  -4  -7  488.55   20.49
   5  -4  -8  133.73   10.85
   5  -4   8  121.67   11.27
   5  -4   9   69.49    8.83
   5  -4  10   -0.37    4.41
   5  -4  11    6.52    3.29
  -5   4  12  189.45   14.94
  -5  -4  12  187.07    6.24
   5  -4  12  191.87   15.66
  -5  -4  13   18.50    5.65
   5  -4  13   22.35    6.02
  -5  -4  13   20.73    2.59
  -5   4  13   12.78    3.33
  -5  -4  14   53.66    8.48
   5  -4  14   60.23    9.23
  -5   4  14   39.34    6.62
  -5  -4  15   19.76    6.73
   5  -4  15   23.15    7.40
  -5   4  15   10.49    3.68
  -5  -4  16  280.79   19.99
  -5   4  16  262.48   19.03
   5  -4  16  266.99   19.90
  -5  -4  17  160.18   15.71
  -5   4  17  132.12   13.66
   5  -4  17  136.75   15.19
  -5  -4  18    2.05    4.19
   5  -4  18    3.92    4.30
  -5   4  18    8.60    5.02
  -5  -4  19   61.81   10.19
  -5   4  19   65.21    9.99
  -5   4  20   15.46    6.19
  -5  -4  20   13.81    6.53
  -5  -4  21   15.51    5.48
  -5   4  21   18.55    6.82
  -5   4  22    7.73    6.32
  -5  -4  22    2.46    4.95
  -5   4  22   -1.10    3.71
  -5   4  23  411.96   26.35
  -5   4  23  459.82   29.24
  -5  -4  23  418.08   28.68
  -5  -4  24    3.58    4.56
  -5   4  24   -6.31    4.05
  -5   4  25    0.98    3.68
   5  -5   0    1.05    3.11
   5   5   0    1.02    0.71
   5   5   1  478.61   12.55
   5  -5  -1  493.79   21.15
   5   5  -1  450.77    9.00
   5  -5   1  487.38   21.09
   5  -5  -2  250.27   15.10
   5  -5   2  234.52   15.01
   5   5   3    8.13    2.57
   5  -5   3    7.15    3.53
   5  -5  -3   10.69    3.70
   5   5   4   38.22    4.74
  -5   5  -4   35.30    3.19
   5  -5   4   35.68    5.86
   5  -5  -4   31.92    5.55
  -5   5  -5   92.36    4.95
   5  -5  -5   93.99    9.64
   5   5   5   86.73    6.88
   5  -5   5   95.86    9.90
  -5   5  -6  263.78    8.39
   5  -5   6  284.49   17.12
   5  -5  -6  281.42   16.50
   5   5   6  276.01   11.34
   5  -5   7  230.67   15.90
  -5   5  -7  226.21    7.93
   5   5   7  231.48    9.78
   5  -5  -7  245.38   15.31
   5  -5   8  121.12   11.86
   5  -5  -8  125.82   11.37
   5  -5   9    3.71    3.15
   5  -5  10    9.60    3.63
   5  -5  11   65.80    9.54
   5  -5  12  298.81   19.56
   5  -5  13    2.80    3.44
  -5   5  13   -0.96    3.64
   5  -5  14    4.35    4.12
  -5   5  14   -0.29    4.50
   5  -5  15   11.16    4.92
  -5   5  15    4.87    3.80
   5  -5  16   36.92    8.15
  -5   5  16   34.68    7.10
   5  -5  17   -1.14    4.99
  -5   5  17   -1.37    3.65
   5  -5  18   16.70    6.07
  -5  -5  18    9.59    3.77
  -5   5  18    9.12    3.61
  -5  -5  19    3.23    4.56
  -5   5  19   -4.15    4.95
   5  -5  19    4.05    4.80
  -5  -5  20   -4.19    4.91
  -5   5  20   -4.80    4.78
   5  -5  20   -2.43    4.05
  -5  -5  21   92.90   13.15
   5  -5  21  105.25   14.56
  -5   5  21  104.87   13.17
  -5  -5  22   15.12    6.96
   5  -5  22   11.71    6.52
  -5   5  22   15.99    6.43
  -5  -5  23   50.73   11.06
   5  -5  23   52.12   11.46
  -5   5  23   38.36    9.02
  -5   5  24   90.53   13.35
  -5   5  25    7.42    5.31
   5   6   0   -0.10    0.91
   5  -6   0    2.17    3.39
   5   6   1  607.84   15.29
   5  -6  -1  598.63   25.06
   5  -6   1  587.49   24.69
   5   6  -1  599.49   12.26
   5   6  -2  266.04    6.91
   5   6   2  298.60   11.66
   5  -6   2  290.88   17.89
   5   6   3  358.18   13.60
   5  -6  -3  339.01   18.81
   5  -6   3  334.31   19.10
   5   6   4  117.73    8.23
   5  -6  -4  108.54   10.69
   5   6   4  126.51    9.14
   5  -6   4  118.39   11.05
   5  -6   5  163.75   13.63
  -5   6  -5  172.78    8.32
   5  -6  -5  176.82   13.88
   5   6   5  178.30   10.44
  -5   6  -6   15.06    2.49
   5   6   6   18.35    3.41
   5  -6   6   14.87    4.68
   5  -6  -6   21.03    5.21
  -5   6  -7   25.06    3.35
   5  -6  -7   21.29    5.32
   5  -6   7   21.35    5.33
   5   6   7   28.87    3.91
   5   6   8   58.61    4.96
   5  -6  -8   58.05    7.94
   5  -6   8   54.39    8.22
   5  -6   9  320.73   19.96
   5   6   9  323.76   10.56
   5  -6  10    2.14    4.18
   5  -6  11   62.11   10.13
   5  -6  12  228.63   17.91
   5  -6  13   71.16   10.05
   5  -6  14    7.14    4.02
   5  -6  15  219.97   18.47
  -5   6  15  211.84   17.46
   5  -6  16   -0.36    3.77
  -5   6  16   -5.71    5.06
   5  -6  17   -0.75    3.91
  -5   6  17   -3.06    4.79
   5  -6  18   -4.02    4.88
  -5   6  18    1.77    3.76
   5  -6  19   15.57    6.42
  -5   6  19   19.45    5.91
   5  -6  20  271.62   22.54
  -5   6  20  276.46   21.44
   5  -6  21    9.26    6.50
  -5   6  21    0.07    3.70
   5  -6  22  213.76   21.68
  -5   6  22  221.31   19.31
  -5   6  23   21.79    7.06
   5  -6  23   24.66    8.82
  -5   6  24   54.00   10.55
   5  -7   0   -1.93    4.31
   5   7   0   -0.10    1.09
   5  -7   1   51.46    8.22
   5  -7  -1   49.16    7.68
   5   7   1   59.58    5.33
   5   7  -1   55.71    4.42
   5   7  -2  581.09   12.79
   5   7   2  616.73   17.78
   5  -7  -2  633.47   26.97
   5  -7   2  624.26   27.06
   5   7   3  213.85   11.19
   5  -7  -3  254.78   17.52
   5   7  -3  214.62    6.90
   5  -7   3  231.08   16.76
   5  -7  -4  199.92   15.59
   5  -7   4  176.66   14.69
   5  -7   5   54.75    8.45
   5  -7  -5   60.67    9.09
   5   7   6    2.55    2.96
   5  -7   6   -3.94    4.60
   5  -7  -6   -0.23    3.96
   5  -7   7   -6.89    5.54
   5  -7  -7    0.72    3.55
   5   7   7   -0.91    1.82
   5  -7   8   68.49    9.71
   5  -7  -8   76.96   10.00
   5  -7   9  250.92   18.45
   5  -7  10    2.97    3.72
   5  -7  11   75.71   10.44
   5  -7  12   25.68    6.51
   5  -7  13  111.68   13.20
   5  -7  14   85.61   12.24
   5  -7  15   22.54    6.90
  -5   7  16   13.84    4.90
   5  -7  16   20.93    6.82
   5  -7  17   -2.71    4.85
  -5   7  17   -3.96    4.66
   5  -7  18    0.52    4.21
  -5   7  18   -1.77    5.24
   5  -7  19    8.55    5.21
  -5   7  19   -0.27    4.86
   5  -7  20   -3.76    4.44
  -5   7  20   -4.35    4.39
  -5   7  21   -0.41    4.45
   5  -7  21    1.83    4.56
   5  -7  22    7.18    5.50
  -5   7  22   -1.23    4.63
  -5   7  23    5.34    4.03
   5  -8   0    1.32    4.29
   5  -8  -1  844.12   32.44
   5  -8   1  847.30   33.17
   5  -8  -2  146.53   13.92
   5  -8   2  151.45   14.28
   5  -8   3    8.38    4.13
   5  -8  -3    8.28    4.48
   5  -8   4   50.40    9.26
   5  -8  -4   44.15    8.35
   5  -8  -5 1532.59   44.81
   5  -8   5 1414.66   43.43
   5  -8   6   42.90    8.79
   5  -8  -6   42.98    8.55
   5  -8   7   -0.51    4.51
   5  -8  -7    0.13    3.24
   5  -8   8   36.95    7.86
   5  -8  -8   33.01    7.73
   5  -8   9  710.32   32.24
   5  -8  10  108.40   13.15
   5  -8  11   37.97    7.37
   5  -8  12   50.78    9.54
   5  -8  13  279.61   21.37
   5  -8  14    4.81    4.72
   5  -8  15   11.52    5.42
   5  -8  16    4.44    4.72
   5  -8  17  192.49   18.84
  -5   8  17  188.62   17.78
  -5   8  18    3.81    3.85
   5  -8  18    9.32    5.94
   5  -8  19  141.60   16.86
  -5   8  19  150.63   16.06
  -5   8  20    5.94    4.49
   5  -8  20   15.55    8.03
  -5   8  21   33.59    8.05
  -5   8  22    5.54    4.73
   5  -9   0   -4.39    4.28
   5  -9  -1  347.23   22.12
   5  -9   1  336.45   21.83
   5  -9   2   14.55    5.14
   5  -9  -2    9.37    5.27
   5  -9   3   10.53    4.47
   5  -9  -3    6.67    3.78
   5  -9   4   33.73    7.18
   5  -9  -4   48.69    8.81
   5  -9   5   78.33   11.37
   5  -9  -5   75.74   11.07
   5  -9  -6  178.55   16.47
   5  -9   6  183.89   16.77
   5  -9   7   -3.23    5.34
   5  -9  -7    1.62    4.03
   5  -9   8   16.07    5.98
   5  -9  -8   20.90    6.63
   5  -9   9   36.51    7.34
   5  -9  10    9.83    3.35
   5  -9  11   30.05    7.49
   5  -9  12  108.50   13.89
   5  -9  13    0.43    4.31
   5  -9  14    4.18    4.11
   5  -9  15   57.77   10.84
   5  -9  16   40.23    9.35
   5  -9  17   10.98    4.24
  -5   9  18    0.51    3.64
   5  -9  18   -7.02    6.40
  -5   9  19   -2.49    4.08
   5  -9  19    5.67    4.15
  -5   9  20   20.50    6.15
  -5   9  21    3.50    3.51
   5 -10   0    4.40    3.43
   5 -10   1   69.88   10.73
   5 -10  -1   77.74   10.80
   5 -10  -2  197.56   17.99
   5 -10   2  195.88   17.85
   5 -10  -3  177.30   17.20
   5 -10   3  197.54   17.80
   5 -10  -4  408.30   25.62
   5 -10   4  398.55   25.36
   5 -10  -5  371.69   24.87
   5 -10   5  369.94   24.47
   5 -10  -6  239.37   19.77
   5 -10   6  254.27   20.59
   5 -10   7   10.66    4.80
   5 -10  -7   16.47    6.28
   5 -10   8   20.87    6.39
   5 -10  -8   19.33    5.75
   5 -10   9   -1.08    4.06
   5 -10  10    9.80    5.89
   5 -10  11   58.19   10.34
   5 -10  12   29.90    8.16
   5 -10  13   78.53   12.40
   5 -10  14   -2.29    5.32
   5 -10  15    3.78    4.02
   5 -10  16   79.52   13.10
   5 -10  17   12.52    6.84
  -5  10  19    3.57    3.57
  -5  10  20   53.79   10.43
   5 -11   0   -3.23    4.56
   5 -11  -1   -3.88    5.14
   5 -11   1   -2.63    4.14
   5 -11   2  107.16   13.88
   5 -11  -2  104.22   13.58
   5 -11   3   21.12    6.63
   5 -11  -3   24.11    7.41
   5 -11   4    5.27    4.24
   5 -11  -4    0.23    3.81
   5 -11   5   10.67    5.30
   5 -11  -5    8.04    5.22
   5 -11   6   -0.12    4.08
   5 -11  -6    4.70    5.12
   5 -11   7   72.43   11.45
   5 -11  -7   59.35   10.63
   5 -11   8   30.89    8.09
   5 -11   9   66.46   11.22
   5 -11  10   62.20   11.98
   5 -11  11   76.49   13.08
   5 -11  12   82.03   13.09
   5 -11  13   16.73    7.44
   5 -11  14   -4.78    4.66
   5 -12   0    5.07    5.04
   5 -12  -1   45.89    9.82
   5 -12   1   49.40   10.51
   5 -12  -2   34.98    8.48
   5 -12   2   36.30    8.26
   5 -12  -3    8.58    6.50
   5 -12   3    1.08    4.14
   5 -12   4   11.38    4.51
   5 -12  -4   13.44    5.76
   5 -12   5   48.22    9.52
   5 -12  -5   59.37   10.81
   5 -12   6   13.47    5.08
   5 -12  -6   18.17    7.62
   5 -12   7    0.83    3.87
   5 -12  -7   -2.30    4.48
   5 -12   8   39.22    9.60
   5 -12   9    2.20    4.99
   5 -12  10   32.56    8.37
   5 -12  11    0.60    4.92
   5 -13   0    5.24    5.78
   5 -13  -1   39.53    9.98
   5 -13   1   48.76   10.61
   5 -13  -2   10.53    5.85
   5 -13   2   13.75    6.47
   5 -13  -3   19.67    7.41
   5 -13   3   21.36    7.46
   5 -13   4   13.27    6.07
   6   0   0 5662.83   53.10
  -6   0   0 5739.35   66.21
   6   0  -1    8.65    3.21
  -6   0  -1    9.36    6.27
  -6   0   1   23.55    6.93
   6   0   1   13.77    4.69
   6   0   2  213.17   11.04
  -6   0  -2  203.32   12.16
  -6   0   2  213.02   13.62
   6   0  -2  202.44    9.50
   6   0  -3    3.24    2.00
   6   0   3    3.24    2.76
  -6   0  -3   12.52    4.42
  -6   0   3    5.36    4.12
  -6   0  -4 1107.31   26.75
   6   0  -4 1108.43   21.49
   6   0   4 1044.97   26.50
  -6   0   4 1071.22   23.91
  -6   0   4 1091.75   31.53
  -6   0   4 1127.25   21.70
  -6   0   5   -1.18    2.64
  -6   0   5    1.01    1.11
  -6   0   5    1.29    2.23
   6   0   5    2.11    2.94
  -6   0  -5   -0.62    2.45
   6   0  -5    1.04    1.31
  -6   0   6  306.03   14.16
  -6   0   6  329.28   11.64
  -6   0   6  318.36   17.98
   6   0   6  333.48   16.01
  -6   0   7   20.75    5.55
  -6   0   7   22.16    6.61
  -6   0   7    4.91    2.52
  -6   0   8 2115.47   39.79
  -6   0   8 2085.38   30.30
  -6   0   8 2089.56   47.00
  -6   0   9   11.75    5.68
  -6   0   9    3.85    2.22
  -6   0   9   12.44    6.62
  -6   0  10 2323.12   44.89
  -6   0  10 2362.27   52.53
  -6   0  10 2256.23   33.53
  -6   0  11    4.93    2.84
  -6   0  11   19.09    6.43
  -6   0  11   25.18    9.11
  -6   0  12   61.82    8.70
  -6   0  12   67.95   10.81
  -6   0  13   24.26    7.38
  -6   0  13   29.68    9.38
  -6   0  14 1083.70   38.51
  -6   0  14 1085.36   35.58
   6   0  14 1053.74   23.17
  -6   0  15   14.91    6.45
   6   0  15    7.72    3.01
  -6   0  16   31.25    7.31
   6   0  16   23.66    4.13
  -6   0  17   -2.76    4.27
   6   0  17   -0.09    1.98
  -6   0  18   76.99   10.53
  -6   0  19   -5.93    4.17
  -6   0  20    6.43    3.43
  -6   0  21    0.43    3.54
  -6   0  22  135.18   15.47
  -6   0  23   -2.90    5.11
  -6   0  24   59.87   11.27
   6   1   0   44.32    4.51
   6   1   0   45.81    4.40
  -6  -1   0   37.34    5.52
   6  -1   0   49.35    5.60
   6  -1   1   73.31    6.86
   6   1   1   71.51    5.05
   6   1  -1   68.52    5.56
  -6  -1  -1   56.30    6.57
   6   1   1   66.77    5.56
  -6  -1   1   66.38    7.27
   6  -1  -1   64.71    6.26
   6   1  -1   73.31    5.28
   6   1   2   -1.51    2.01
  -6  -1  -2   -2.33    2.45
   6  -1  -2   -2.24    2.53
   6   1  -2    0.31    1.16
  -6   1   2    0.64    1.57
   6   1   2    1.91    1.16
   6   1  -2   -0.28    1.27
  -6  -1   2   -0.96    3.35
   6  -1   2   -0.88    2.85
   6  -1  -3    8.62    2.40
  -6  -1  -3    2.71    2.03
   6   1   3    5.79    2.12
  -6   1   3    5.04    2.26
  -6   1   3    5.54    1.65
  -6   1   3    0.30    3.22
   6   1   3    5.20    1.33
   6   1  -3    5.06    2.02
  -6  -1   3    6.89    3.65
   6  -1   3    5.65    2.09
   6   1  -3    5.10    1.46
   6   1   4  338.23    9.85
  -6   1   4  333.56   12.72
   6  -1   4  319.60   15.14
  -6   1   4  335.10   17.54
   6   1  -4  324.60    9.69
  -6   1   4  321.14   13.04
   6  -1  -4  313.27   13.03
  -6  -1  -4  340.82   14.42
   6   1   4  337.55   14.44
  -6  -1   4  326.47   17.34
  -6   1   5    0.35    1.53
   6  -1   5    0.45    2.81
  -6  -1   5    8.77    5.22
  -6   1   5    3.56    2.42
   6  -1  -5    1.00    1.64
  -6  -1  -5    3.05    2.48
  -6  -1   6  244.65   13.07
   6  -1  -6  242.52   11.61
  -6   1   6  249.59   11.52
  -6   1   6  241.15   12.11
  -6   1   6  231.90   15.37
   6  -1   6  228.07   13.83
  -6  -1  -6  239.32   11.50
  -6  -1   6  266.94   16.57
  -6   1   7   44.45    5.20
  -6  -1   7   42.47    5.82
   6  -1   7   44.79    6.34
  -6   1   7   48.60    5.99
  -6  -1   7   47.23    3.69
  -6  -1   7   56.67    9.04
  -6   1   7   40.28    6.59
  -6  -1  -7   43.39    4.92
  -6  -1   8    9.03    2.85
   6  -1   8   22.12    5.30
  -6   1   8   19.41    4.48
  -6   1   8   21.85    3.77
  -6  -1  -8   21.38    3.48
  -6   1   8    8.56    3.53
  -6  -1   8   18.52    2.38
  -6  -1   8   17.78    5.86
  -6   1   9   17.00    4.82
  -6  -1   9   15.74    4.00
  -6   1   9   19.41    4.77
  -6   1   9   19.04    3.67
  -6  -1   9   23.74    6.35
  -6  -1   9   18.97    2.64
  -6  -1  -9   18.45    3.13
  -6   1  10   -2.70    4.36
   6  -1  10    0.11    0.43
  -6  -1  10   -2.83    3.45
  -6   1  10    3.06    1.83
  -6   1  10    2.56    2.27
  -6  -1  10   -0.65    1.00
  -6  -1 -10   -2.04    1.92
  -6  -1 -11    1.34    1.41
  -6  -1  11   -1.81    3.18
   6  -1  11    2.10    0.81
  -6  -1  11    4.20    1.80
  -6   1  11    0.54    2.65
  -6   1  11   -2.85    4.77
   6  -1  12   54.50    4.12
  -6  -1  12   61.30    8.36
  -6   1  12   63.47    8.72
  -6  -1 -12   61.53    4.40
  -6   1  12   51.08    8.52
  -6  -1  13  485.40   23.35
   6  -1  13  475.18   13.09
  -6   1  13  483.69   22.87
  -6  -1 -13  457.11   10.59
  -6   1  13  492.26   25.61
  -6   1  14  404.48   21.64
   6  -1  14  383.51   12.85
  -6   1  14  393.75   23.57
  -6  -1  14  452.26   23.21
   6  -1  15  123.23    7.94
  -6   1  15  119.21   12.34
  -6  -1  15  125.95   12.79
  -6   1  15  122.51   13.94
  -6   1  16   13.56    6.87
  -6  -1  16    5.42    4.37
   6  -1  16    1.90    2.00
  -6   1  16    1.14    3.79
  -6   1  17   51.89   10.22
  -6  -1  17   54.89    9.48
  -6   1  17   47.45    8.38
  -6  -1  18   21.84    7.52
  -6   1  18   22.86    6.86
  -6   1  18   27.30    8.46
  -6  -1  19  196.09   17.82
  -6   1  19  203.98   17.88
  -6  -1  20    7.50    6.29
  -6   1  20    3.46    5.26
  -6  -1  21  138.19   15.64
  -6   1  21  129.92   15.16
  -6  -1  22    1.56    4.08
  -6   1  22   -3.34    4.05
  -6  -1  23   -3.60    4.41
  -6   1  23   -1.59    3.93
  -6  -1  24    9.43    4.45
  -6   1  24   10.06    6.51
  -6  -2   0  333.10   16.04
   6   2   0  315.91   12.49
   6   2   0  313.99   10.29
   6  -2   0  314.68   14.67
   6  -2   1  184.88   11.72
  -6  -2  -1  213.77   12.60
  -6  -2   1  195.10   12.92
  -6   2   1  191.03    7.13
   6   2   1  204.63    9.97
   6   2   1  201.25    8.89
   6   2  -1  195.40   10.19
   6  -2  -1  194.81   11.47
   6   2  -1  197.67    7.45
  -6  -2  -2   27.93    5.53
   6   2  -2   14.95    1.98
   6  -2  -2   15.31    3.61
   6   2   2   17.25    3.31
   6   2   2   13.32    2.57
  -6   2   2   17.79    2.86
   6   2  -2   18.02    3.39
   6  -2   2   26.51    5.28
  -6  -2   2   31.25    6.56
   6   2   3  609.78   16.61
  -6  -2   3  618.56   23.69
  -6   2   3  590.67   15.57
   6   2  -3  629.40   19.52
   6  -2   3  598.59   21.18
   6   2  -3  570.56    9.89
   6  -2  -3  596.56   19.61
  -6  -2  -3  602.00   19.94
  -6  -2   4 1057.48   31.46
  -6   2   4 1093.61   22.70
   6  -2   4 1081.89   29.24
   6  -2  -4 1070.13   26.36
  -6  -2  -4 1079.83   25.58
  -6  -2   5  119.58   12.10
  -6   2   5  101.16    7.53
   6  -2   5  102.86    9.56
  -6   2   5   92.16    9.69
   6  -2  -5  104.35    8.17
  -6  -2  -5  113.16    8.33
  -6  -2  -6  498.57   16.14
  -6   2   6  480.28   17.12
   6  -2   6  478.55   20.46
  -6   2   6  470.58   22.17
   6  -2  -6  471.35   17.67
  -6   2   7  743.36   22.56
   6  -2  -7  760.33   22.66
  -6   2   7  698.07   27.40
   6  -2   7  753.80   26.34
  -6  -2  -7  783.45   19.27
  -6  -2   8   81.46    8.62
  -6   2   8   71.88    7.88
   6  -2   8   66.58    8.69
  -6   2   8   56.01    8.00
  -6  -2   9    4.97    1.02
  -6  -2   9    2.73    2.83
   6  -2   9    3.75    3.66
  -6   2   9    4.84    2.51
  -6   2   9   -3.54    4.83
  -6  -2  10  160.84   12.87
  -6  -2  10  143.51    5.41
  -6   2  10  159.50   12.38
  -6   2  10  148.18   13.58
   6  -2  10  171.97   14.26
  -6  -2  11  922.64   30.91
  -6   2  11  930.78   29.44
  -6   2  11  905.84   33.39
   6  -2  11  961.41   32.87
  -6  -2  12   81.87   10.08
  -6   2  12   90.73   10.93
  -6   2  12  116.70   11.08
   6  -2  12   90.93   11.18
   6  -2  13  564.53   13.05
  -6   2  13  599.32   25.40
  -6  -2  13  576.74   25.85
  -6   2  13  581.54   27.34
   6  -2  14   31.02    3.52
  -6  -2  14   29.17    6.73
  -6   2  14   32.13    6.49
  -6   2  14   34.19    7.56
  -6  -2  15   11.84    4.84
  -6   2  15    8.77    3.90
  -6   2  15   19.45    6.56
  -6   2  16   65.89   10.40
  -6  -2  16   67.59    9.91
  -6   2  16   58.10    9.05
  -6  -2  17   83.94   11.66
  -6   2  17   76.35   10.85
  -6   2  17   90.37   12.34
  -6  -2  18  120.40   13.84
  -6   2  18  125.14   13.98
  -6   2  18  131.68   14.97
  -6  -2  19   81.96   11.74
  -6   2  19   84.70   12.23
  -6   2  19   85.36   12.34
  -6  -2  20    1.40    3.90
  -6   2  20   -1.11    4.14
  -6   2  20    6.77    6.72
  -6  -2  21  106.84   14.26
  -6   2  21   95.42   13.26
  -6  -2  22   49.31    9.84
  -6   2  22   39.44    8.80
  -6  -2  23    7.77    4.57
  -6   2  23    5.24    4.39
  -6  -2  24    9.24    5.52
  -6   2  24    0.81    4.00
   6   3   0    1.70    1.75
   6  -3   0   -1.91    2.28
  -6   3   0    1.78    0.95
   6   3   0    0.19    0.86
   6   3  -1   39.21    2.77
   6  -3  -1   41.29    5.77
   6   3   1   48.98    5.45
  -6   3   1   44.07    3.52
   6  -3   1   43.83    6.13
   6   3   1   46.19    4.04
   6   3   2   10.96    2.84
   6  -3  -2    7.58    3.30
  -6   3   2   10.52    2.07
   6  -3   2   12.42    3.73
  -6   3   3    1.85    1.68
   6  -3  -3   -0.74    2.60
   6  -3   4  691.37   24.75
  -6   3   4  714.26   18.56
   6  -3  -4  677.81   22.95
  -6   3   5   81.65    6.90
   6  -3   5   83.73    9.15
   6  -3  -5   77.71    8.13
  -6   3   6    9.56    3.25
   6  -3  -6    3.80    3.03
   6  -3   6    8.82    4.21
  -6   3   7  307.08   14.49
   6  -3   7  294.03   17.20
   6  -3  -7  279.41   15.03
  -6   3   8  164.31   11.08
  -6   3   8  140.56   12.76
   6  -3   8  150.65   12.70
   6  -3   9   -3.15    3.36
  -6   3   9   -8.24    6.70
  -6   3   9   -1.50    2.44
  -6   3  10  161.39   11.92
  -6   3  10  134.18   12.35
   6  -3  10  145.54   13.02
  -6  -3  11    1.19    4.14
   6  -3  11   -1.44    4.20
  -6   3  11   -7.99    7.33
  -6   3  11    4.92    2.64
  -6  -3  12  251.89   16.80
  -6   3  12  229.56   15.27
  -6   3  12  237.66   17.59
   6  -3  12  255.55   18.07
  -6  -3  13   13.66    4.42
   6  -3  13   30.76    7.18
  -6   3  13   27.73    5.85
  -6   3  13   18.53    4.91
  -6   3  14   34.34    7.40
  -6  -3  14   33.05    7.43
   6  -3  14   33.98    7.63
  -6   3  14   30.20    5.99
  -6   3  15   21.78    6.13
  -6  -3  15   34.03    7.71
   6  -3  15   41.77    9.53
  -6   3  15   21.22    5.68
  -6  -3  16  308.77   21.13
  -6   3  16  307.70   19.99
   6  -3  16  314.38   21.72
  -6   3  16  262.91   19.94
  -6   3  17   17.59    6.12
  -6  -3  17    9.31    5.22
  -6   3  17   13.80    6.43
  -6  -3  18  203.46   18.19
  -6   3  18  187.56   16.76
  -6   3  18  202.14   18.03
  -6  -3  19  166.03   16.75
  -6   3  19  150.17   15.48
  -6   3  19  173.28   17.22
  -6  -3  20   26.87    8.05
  -6   3  20   19.71    6.38
  -6   3  20   26.36    7.73
  -6  -3  21    4.00    3.95
  -6   3  21    3.17    3.23
  -6   3  21    8.31    6.47
  -6  -3  22   67.98   11.58
  -6   3  22   71.89   11.96
  -6   3  22   83.85   13.19
  -6  -3  23   15.47    6.24
  -6   3  23   14.20    6.39
  -6  -3  24   10.91    4.90
  -6   3  24   12.45    5.86
   6   4   0  135.94    5.61
   6  -4   0  120.84   10.64
  -6   4  -1  134.74    4.90
   6  -4  -1  133.31   11.09
   6  -4   1  133.33   11.14
   6  -4  -2    4.51    2.26
   6  -4   2    7.00    2.94
   6  -4   3   84.74    9.29
   6  -4  -3   85.51    8.82
   6  -4   4   23.07    5.19
   6  -4  -4   15.25    4.21
   6  -4   5   11.65    4.07
   6  -4  -5   13.16    3.82
   6  -4  -6    6.00    3.35
   6  -4   6    1.71    3.20
   6  -4   7  360.01   19.90
   6  -4  -7  360.29   18.37
   6  -4   8  701.13   28.10
   6  -4  -8  762.71   26.67
   6  -4   9  157.60   13.72
   6  -4  10  289.07   18.83
   6  -4  11   19.94    6.08
  -6   4  11    6.80    3.09
   6  -4  12   21.87    5.96
  -6   4  12   11.68    3.77
   6  -4  13   30.22    6.74
  -6   4  13   27.54    6.04
   6  -4  14   47.33    9.04
  -6   4  14   35.32    7.18
  -6  -4  15  265.16   19.47
   6  -4  15  235.17   18.89
  -6  -4  16   61.97   10.02
   6  -4  16   55.84    9.70
  -6   4  16   42.19    7.63
  -6   4  17   68.62   10.69
  -6   4  17   81.65   11.43
  -6  -4  17   70.09   10.93
   6  -4  17   80.95   12.13
  -6  -4  18  144.42   15.58
  -6   4  18  156.12   15.39
   6  -4  18  158.61   16.73
  -6   4  18  129.49   14.73
  -6  -4  19   46.64    9.44
   6  -4  19   41.11    8.98
  -6   4  19   31.18    7.72
  -6   4  19   32.35    7.87
  -6   4  20   -1.75    3.39
  -6  -4  20    3.94    5.01
   6  -4  20    1.67    3.78
  -6   4  20    1.28    3.76
  -6  -4  21   50.80   10.45
   6  -4  21   45.98   10.25
  -6   4  21   49.07    9.65
  -6   4  21   34.95    8.69
  -6   4  22   68.81   11.92
  -6  -4  22   67.27   11.55
   6  -4  22   65.18   12.26
  -6   4  22   75.82   12.33
  -6   4  23   50.29   10.33
  -6  -4  23   46.48   10.03
   6  -4  23   61.03   12.34
  -6   4  23   36.58    8.92
  -6   4  24    0.86    3.84
   6  -5   0   10.78    4.71
   6   5   0    2.62    1.00
   6   5   1  263.34    9.09
   6  -5  -1  263.61   16.33
   6  -5   1  289.94   17.36
   6  -5  -2   45.10    6.43
   6  -5   2   37.36    6.35
  -6   5  -3    1.33    0.72
   6  -5   3   -1.59    3.60
   6  -5  -3   -5.74    4.18
   6  -5   4   -1.06    2.89
   6  -5  -4   -3.12    3.01
   6  -5   5  257.20   16.92
   6  -5  -5  250.11   16.26
   6  -5   6  126.13   12.25
   6  -5  -6  138.25   12.09
   6  -5   7  187.20   14.90
   6  -5  -7  168.69   13.43
   6  -5  -8   20.93    5.30
   6  -5   8   17.46    4.78
   6  -5   9  170.68   14.76
   6  -5  10   15.47    5.26
   6  -5  11   15.23    5.41
   6  -5  12   29.97    6.75
  -6   5  12   32.01    6.51
   6  -5  13  190.54   16.57
  -6   5  13  181.82   16.12
   6  -5  14   51.85    9.59
  -6   5  14   35.33    6.66
   6  -5  15   28.73    7.35
  -6   5  15   14.01    4.51
   6  -5  16   16.87    6.33
  -6   5  16    8.65    3.66
   6  -5  17    2.60    4.00
  -6   5  17  -12.68    6.83
   6  -5  18  168.41   17.61
  -6   5  18  174.47   17.13
   6  -5  19   47.80    9.54
  -6   5  19   52.92    9.99
   6  -5  20    2.34    4.15
  -6   5  20    1.22    4.49
   6  -5  21   42.28    9.51
  -6   5  21   43.03    9.36
  -6   5  21   41.39    8.85
   6  -5  22    1.62    3.73
  -6   5  22    6.25    5.63
  -6   5  22   -1.55    4.23
  -6   5  23    6.71    5.06
  -6   5  23   14.25    7.03
  -6   5  24   64.10   11.83
  -6   5  25   14.31    7.14
   6  -6   0    5.96    4.95
   6  -6  -1  197.52   14.88
   6  -6   1  164.70   14.08
   6  -6  -2   19.19    4.89
   6  -6   2   17.34    4.44
   6  -6   3   21.17    5.73
   6  -6  -3   21.34    5.21
   6  -6  -4  869.84   31.20
   6  -6   4  859.11   31.72
   6  -6  -5   93.04   10.82
   6  -6   5   83.50   10.47
   6   6   6   35.75    4.80
   6  -6   6   23.59    6.20
   6  -6  -6   26.12    6.22
   6  -6   7  253.44   17.91
   6  -6  -7  257.23   17.27
   6  -6  -8   13.36    5.31
   6  -6   8   17.94    5.71
   6  -6   9    7.45    4.00
   6  -6  10   59.27    9.54
   6  -6  11  272.18   19.90
   6  -6  12  127.25   13.88
   6  -6  13   27.48    7.72
   6  -6  14  437.84   26.26
  -6   6  14  427.12   25.89
   6  -6  15  141.25   15.89
  -6   6  15  121.64   14.24
   6  -6  16   40.53    9.19
  -6   6  16   34.14    7.45
   6  -6  17   31.15    8.16
  -6   6  17   10.16    3.91
   6  -6  18   82.24   12.63
  -6   6  18   89.07   12.62
   6  -6  19   16.26    6.14
  -6   6  19   14.38    5.36
   6  -6  20   17.78    7.44
  -6   6  20   14.50    5.89
   6  -6  21   20.33    6.61
  -6   6  21   22.52    6.22
  -6   6  22   76.35   12.64
  -6   6  23   42.81    9.60
  -6   6  24   71.13   12.37
   6  -7   0  202.31   15.88
   6  -7  -1  126.81   12.91
   6  -7   1  126.29   12.92
   6  -7  -2  295.74   19.22
   6  -7   2  281.18   19.48
   6  -7  -3  121.65   12.50
   6  -7   3  114.75   12.46
   6  -7   4    1.20    2.74
   6  -7  -4   -2.42    3.65
   6  -7   5   21.63    5.32
   6  -7  -5   34.63    7.21
   6  -7   6   -0.55    4.27
   6  -7  -6   -0.64    3.71
   6  -7   7   -3.47    5.06
   6  -7  -7   -1.07    3.40
   6  -7   8   -0.77    4.19
   6  -7  -8    0.14    3.14
   6  -7  -9    6.43    3.44
   6  -7   9    3.59    3.32
   6  -7  10   69.46   10.92
   6  -7  11    0.52    3.21
   6  -7  12   17.28    5.01
   6  -7  13   15.55    5.46
   6  -7  14   46.77    8.90
  -6   7  15   15.56    5.44
   6  -7  15   14.21    6.51
  -6   7  16    5.95    4.63
   6  -7  16   -0.56    4.55
  -6   7  17    4.16    3.59
   6  -7  17   19.29    6.95
  -6   7  18   29.25    7.47
   6  -7  18   20.49    6.51
   6  -7  19    2.14    3.78
  -6   7  19    1.60    3.45
   6  -7  20   10.09    5.73
  -6   7  20    0.43    4.45
  -6   7  21    1.79    3.96
  -6   7  22   28.33    8.10
  -6   7  23  -14.32    7.36
   6  -8   0    8.90    4.44
   6  -8  -1    4.66    4.21
   6  -8   1    9.92    4.62
   6  -8   2   40.90    8.43
   6  -8  -2   33.66    7.32
   6  -8  -3  226.36   18.01
   6  -8   3  262.83   19.44
   6  -8   4   76.10   11.28
   6  -8  -4   65.18   10.15
   6  -8  -5  222.38   17.95
   6  -8   5  242.31   18.99
   6  -8   6    1.09    3.49
   6  -8  -6    3.31    3.70
   6  -8  -7  482.16   26.17
   6  -8   7  451.16   26.07
   6  -8   8    2.71    3.84
   6  -8  -8    9.36    4.27
   6  -8   9   20.74    5.83
   6  -8  10   10.28    4.13
   6  -8  11  228.76   19.63
   6  -8  12   13.00    6.39
   6  -8  13    6.32    3.89
   6  -8  14   20.16    8.39
   6  -8  15  421.19   27.80
   6  -8  16   10.75    6.67
   6  -8  17  188.05   19.35
  -6   8  17  141.78   16.45
  -6   8  18   -1.25    5.71
   6  -8  18    2.07    4.11
  -6   8  19   90.65   13.30
  -6   8  20   12.41    6.31
  -6   8  21  133.32   16.73
  -6   8  22   17.30    6.90
   6  -9   0   98.79   12.27
   6  -9   1    3.20    2.98
   6  -9  -1    6.71    3.84
   6  -9   2   -2.78    4.66
   6  -9  -2   -2.19    5.04
   6  -9   3    0.03    4.04
   6  -9  -3    6.61    4.49
   6  -9   4    5.16    4.18
   6  -9  -4    2.50    3.67
   6  -9  -5  196.17   17.83
   6  -9   5  189.27   17.54
   6  -9   6   49.91   10.06
   6  -9  -6   53.96   10.68
   6  -9   7   -2.11    3.61
   6  -9  -7    1.64    3.71
   6  -9   8   22.62    6.18
   6  -9  -8   41.34    8.61
   6  -9   9    9.57    3.87
   6  -9  10    6.43    3.40
   6  -9  11    9.45    5.79
   6  -9  12   10.45    5.38
   6  -9  13   16.57    6.22
   6  -9  14   38.38    9.55
   6  -9  15    6.65    5.49
   6  -9  16    5.66    5.54
  -6   9  18   -5.59    5.84
  -6   9  19   -6.19    6.37
  -6   9  20   10.77    4.81
   6 -10   0  116.59   13.88
   6 -10   1   10.26    4.45
   6 -10  -1   15.42    5.71
   6 -10   2    4.28    4.64
   6 -10  -2    5.03    3.53
   6 -10   3   55.89    9.87
   6 -10  -3   43.82    9.29
   6 -10  -4  168.98   17.27
   6 -10   4  173.09   17.44
   6 -10   5    0.86    4.02
   6 -10  -5    0.91    4.58
   6 -10   6   50.61    9.91
   6 -10  -6   56.03   10.20
   6 -10   7   15.65    6.23
   6 -10  -7   18.55    7.41
   6 -10  -8  168.93   17.39
   6 -10   8  155.92   17.04
   6 -10   9   -0.39    4.21
   6 -10  10   49.42   10.05
   6 -10  11  122.94   16.20
   6 -10  12   93.42   13.98
   6 -10  13   -6.32    4.37
   6 -10  14  154.79   17.96
   6 -11   0   16.12    6.26
   6 -11  -1   39.69    8.77
   6 -11   1   19.87    6.72
   6 -11  -2   38.87    9.14
   6 -11   2   30.91    8.10
   6 -11   3   52.79    9.81
   6 -11  -3   97.89   13.88
   6 -11   4    4.62    4.07
   6 -11  -4    4.56    5.12
   6 -11   5    2.50    3.54
   6 -11  -5   -0.03    3.51
   6 -11   6   13.75    6.66
   6 -11  -6   -0.82    3.57
   6 -11   7    4.04    4.54
   6 -11  -7   13.43    6.89
   6 -11   8    3.14    3.90
   6 -11  -8    8.16    6.46
   6 -11   9   21.28    7.57
   6 -11  10   -1.40    4.82
   6 -11  11    1.29    3.90
   6 -12   0   15.40    5.44
   6 -12  -1   17.96    5.66
   6 -12   1   35.08    9.34
   6 -12  -2   63.87   12.14
   6 -12   2   62.30   11.25
   6 -12  -3   58.22   11.05
   6 -12   3   58.44   11.14
   6 -12   4   25.51    7.28
   6 -12  -4   34.39    8.85
   6 -12   5   24.61    7.62
   6 -12  -5   17.18    7.00
   6 -12   6   -1.37    4.52
   6 -12  -6    0.72    3.69
   7   0   0    0.86    1.85
  -7   0   0   -2.05    3.89
   7   0  -1    1.97    1.65
  -7   0  -1   -1.16    2.90
   7   0   1    3.45    2.74
  -7   0   1   -0.70    2.78
   7   0   2 1040.86   26.10
  -7   0  -2 1041.91   29.86
  -7   0   2 1085.90   32.96
   7   0  -2 1045.14   23.52
  -7   0   3    1.73    4.12
  -7   0  -3   -0.19    2.86
   7   0   3    0.66    2.12
   7   0  -3   -1.12    2.18
   7   0   4  610.71   21.53
  -7   0  -4  646.89   22.56
   7   0  -4  604.71   17.39
  -7   0   4  648.25   26.36
  -7   0   5    4.25    3.25
   7   0   5    4.54    3.22
  -7   0   5    6.56    5.34
  -7   0  -5    3.62    3.11
   7   0  -5    0.67    1.88
  -7   0   6  177.99   11.25
  -7   0  -6  153.86   10.59
   7   0   6  181.71   12.59
  -7   0   6  167.84    8.91
  -7   0   6  171.82   14.49
  -7   0   7    3.80    2.68
   7   0   7   -1.55    2.43
  -7   0  -7   -5.49    3.35
  -7   0   7   -2.36    3.10
  -7   0   8  609.66   22.24
  -7   0  -8  614.26   20.46
   7   0   8  638.82   24.93
  -7   0   8  615.93   27.52
  -7   0   9   -0.48    4.49
  -7   0  -9   -0.38    2.48
  -7   0   9    3.62    3.12
   7   0   9    8.50    4.99
  -7   0  10   83.39    9.04
  -7   0 -10   84.77    7.26
  -7   0  10   95.96   11.82
  -7   0 -11   -1.04    1.60
  -7   0  11   -0.92    2.85
  -7   0  12  144.69   12.82
  -7   0 -12  154.55    9.20
  -7   0  13   27.09    7.86
  -7   0  13   29.49    9.11
  -7   0  14  995.79   34.73
  -7   0  14  961.04   38.67
  -7   0  15   13.11    6.96
  -7   0  15   37.01   10.38
  -7   0  16  664.61   30.37
  -7   0  17   24.37    7.45
  -7   0  18   82.07   11.54
  -7   0  19    6.24    5.76
  -7   0  20  137.33   15.35
  -7   0  21    6.10    5.40
  -7   0  22   48.89    9.99
  -7   0  23    6.55    6.34
   7  -1   0   -0.25    2.46
   7   1   0   -1.42    1.59
   7   1   0   -0.64    1.71
  -7  -1   0   -0.87    3.05
   7   1   1  265.81   11.98
   7   1   1  275.40   10.51
  -7   1  -1  266.24   15.81
  -7   1   1  262.26   16.16
  -7  -1  -1  269.04   15.36
   7  -1  -1  288.16   14.07
  -7  -1   1  274.70   16.39
   7   1  -1  267.71   10.97
   7  -1   1  263.07   13.96
   7  -1   2  459.00   18.51
   7   1   2  448.75   12.69
   7   1   2  461.95   16.48
  -7   1   2  471.42   21.92
   7   1  -2  438.09   13.55
   7  -1  -2  447.60   17.10
  -7  -1  -2  466.57   19.81
  -7  -1   2  493.22   21.97
   7   1   3  185.38    7.67
   7  -1   3  172.24   11.52
   7   1   3  171.03   10.42
  -7   1   3  164.09   13.20
   7   1  -3  194.12    8.56
   7  -1  -3  184.82   10.78
  -7  -1  -3  175.86   12.13
  -7  -1   3  200.83   14.60
  -7   1   4  112.94    7.82
   7   1   4  117.05    5.83
   7  -1   4  112.00    9.62
   7   1  -4  116.41    6.34
  -7   1   4   98.03   10.34
   7   1   4  114.79    8.92
   7  -1  -4  112.69    8.34
  -7  -1  -4  105.90    9.01
  -7   1   4  106.22    8.19
  -7  -1   4  119.62   11.69
  -7  -1  -5    2.96    3.04
  -7   1   5    3.99    2.22
   7   1   5    5.15    3.07
  -7   1   5    2.29    2.12
   7   1   5    0.63    1.02
  -7  -1   5   12.16    5.57
  -7   1   5   -7.11    5.49
   7  -1  -5    0.70    2.54
   7  -1   5    3.21    3.91
   7   1   6  401.86   10.31
  -7   1   6  414.41   16.66
   7  -1   6  373.77   18.74
   7  -1  -6  409.23   15.96
  -7   1   6  389.72   15.37
  -7   1   6  381.93   21.21
  -7  -1  -6  420.28   16.97
   7   1   6  414.91   18.33
  -7  -1   6  422.54   22.27
  -7   1   7   15.30    3.07
  -7  -1   7   16.76    4.08
   7  -1   7   10.69    3.47
  -7  -1  -7   20.56    4.28
  -7   1   7   20.54    4.09
  -7  -1   7   27.06    7.13
  -7   1   7   11.01    4.32
  -7  -1   8  350.43   21.20
  -7  -1   8  329.00   17.13
  -7   1   8  340.81   16.45
   7  -1   8  295.96   17.57
  -7   1   8  321.29   20.11
  -7  -1  -8  315.52   14.01
  -7  -1   9  250.86   15.62
  -7  -1   9  260.94   18.81
  -7   1   9  273.98   15.39
  -7   1   9  286.82   19.37
  -7  -1  -9  270.88   12.40
   7  -1   9  259.55   16.84
  -7  -1  10   35.71    6.10
   7  -1  10   30.49    6.68
  -7  -1 -10   35.70    4.47
  -7   1  10   45.78    7.22
  -7  -1  10   44.74   10.07
  -7   1  10   34.37    7.51
  -7  -1  11  293.87   18.00
  -7   1  11  282.86   17.20
  -7  -1 -11  301.63   12.10
  -7   1  11  279.29   20.12
   7  -1  11  320.20   19.92
  -7  -1  12  568.55   25.20
  -7   1  12  607.36   25.44
  -7   1  12  586.06   28.97
  -7   1  13   17.88    6.92
  -7  -1  13   21.06    5.82
  -7   1  13   15.82    5.16
  -7  -1  14   94.36   11.18
  -7   1  14  106.07   11.38
  -7   1  14  113.57   13.64
  -7  -1  15    1.12    3.04
  -7   1  15    0.63    3.46
  -7   1  15    5.14    6.00
  -7  -1  16   -1.89    3.83
  -7   1  16    0.33    3.11
  -7   1  16    8.39    6.16
  -7  -1  17   11.10    5.82
  -7   1  17   14.57    7.51
  -7   1  17    9.93    5.15
  -7   1  18   21.71    8.64
  -7  -1  18    7.39    4.67
  -7   1  18   11.11    4.83
  -7  -1  19    0.77    3.33
  -7   1  19    5.02    4.42
  -7  -1  20    5.34    4.38
  -7   1  20    3.33    4.00
  -7  -1  21   -3.57    4.52
  -7   1  21   -1.06    3.47
  -7  -1  22    0.68    3.30
  -7   1  22    0.82    3.85
  -7  -1  23   -2.03    4.15
  -7   1  23   -4.58    5.13
   7  -2   0   -4.93    3.35
   7   2   0   -0.29    2.00
   7   2   0   -1.24    1.73
  -7  -2  -1  508.22   20.99
  -7  -2   1  537.21   22.50
   7   2   1  486.79   15.87
   7   2  -1  503.90   17.17
   7   2   1  480.83   15.00
   7  -2  -1  480.16   19.27
   7   2  -1  494.74   12.94
   7  -2   1  471.30   19.68
  -7  -2  -2  129.93   10.90
   7  -2   2  114.90   10.22
  -7   2   2  115.15    6.56
  -7  -2   2  131.39   12.32
   7   2   2  114.88    7.57
   7   2   2  109.88    7.63
   7   2  -2  111.87    5.70
   7  -2  -2  101.56    8.78
  -7  -2  -3   97.67    9.28
  -7   2   3   94.51    6.47
   7   2   3   94.22    6.69
   7  -2   3   92.30    9.46
  -7  -2   3  120.56   11.90
  -7   2   3   85.04    9.55
   7   2  -3   91.57    4.56
   7   2   3   89.07    7.22
   7  -2  -3   97.34    8.48
  -7   2   4    1.95    4.19
  -7  -2  -4   15.16    4.93
   7   2   4    1.23    1.54
   7   2   4    5.99    3.73
  -7   2   4    5.37    2.41
   7  -2   4    2.74    2.98
   7  -2  -4    3.74    2.69
  -7  -2   4   20.65    6.71
  -7  -2  -5 1282.53   30.22
   7   2   5 1304.60   24.06
  -7   2   5 1264.67   26.83
  -7  -2   5 1326.58   38.33
   7  -2   5 1305.42   34.82
  -7   2   5 1217.48   37.92
   7  -2  -5 1249.02   30.62
  -7  -2  -6   66.11    7.37
  -7   2   6   53.38    6.28
  -7   2   6   43.64    7.31
   7  -2  -6   66.11    7.33
   7  -2   6   65.97    8.71
  -7  -2  -7  241.41   12.34
  -7   2   7  242.73   13.33
   7  -2   7  233.96   15.57
   7  -2  -7  251.40   13.74
  -7   2   7  225.04   16.59
   7  -2   8   44.46    7.12
  -7   2   8   53.56    6.66
  -7   2   8   47.25    7.80
   7  -2   9   -3.37    4.28
  -7   2   9    4.38    3.02
  -7   2   9   -2.26    5.16
  -7  -2  10  347.78   19.31
  -7   2  10  393.93   19.09
   7  -2  10  371.28   20.83
  -7   2  10  362.33   22.22
  -7   2  11   69.52   10.13
  -7  -2  11   93.68   10.42
  -7   2  11   91.15    9.83
   7  -2  11   89.10   11.30
  -7   2  12   22.79    6.67
  -7  -2  12   24.55    5.87
   7  -2  12   38.46    7.90
  -7   2  12   36.82    7.11
  -7  -2  13  242.12   17.64
  -7   2  13  250.43   16.94
  -7   2  13  241.05   18.75
   7  -2  13  245.85   18.71
  -7  -2  14   -2.37    3.42
   7  -2  14   10.69    5.99
  -7   2  14    4.82    3.53
  -7   2  14   -3.77    5.38
  -7  -2  15   60.77    9.46
   7  -2  15   67.45   10.82
  -7   2  15   67.55    9.49
  -7   2  15   68.20   11.00
  -7  -2  16  167.61   15.72
  -7   2  16  169.58   15.58
   7  -2  16  157.30   16.40
  -7   2  16  171.37   17.47
  -7  -2  17   47.03    9.21
  -7   2  17   44.47    8.47
  -7   2  17   53.44   10.69
  -7   2  18   11.01    7.05
  -7  -2  18    6.06    5.63
  -7   2  18    1.82    4.33
  -7  -2  19  270.27   21.85
  -7   2  19  292.67   23.28
  -7   2  19  268.04   20.80
  -7  -2  20  196.43   18.88
  -7   2  20  232.59   21.51
  -7   2  20  203.81   18.99
  -7  -2  21   16.43    6.77
  -7   2  21    9.95    6.32
  -7  -2  22    5.24    4.84
  -7   2  22   11.87    6.60
  -7  -2  23  138.74   16.81
  -7   2  23  143.74   17.06
   7  -3   0    0.39    2.28
   7   3   0    0.75    0.91
  -7   3   1   46.10    3.43
   7  -3  -1   48.45    6.75
   7   3   1   47.99    4.36
   7  -3   1   56.29    7.08
   7   3  -1   41.88    3.13
   7  -3  -2   26.60    5.28
   7   3   2   31.35    4.05
   7   3   2   26.76    4.16
  -7   3   2   28.21    3.20
   7  -3   2   26.09    5.29
   7  -3  -3    8.38    2.58
   7   3   3    7.95    2.45
   7   3   3   12.19    3.06
  -7   3   3   11.21    2.41
   7  -3   3    6.25    3.17
   7  -3   4   74.53    9.20
  -7   3   4   54.76    5.37
   7   3   4   61.53    6.19
   7  -3  -4   57.54    6.97
  -7   3   5  707.27   20.19
   7  -3   5  729.10   27.21
   7  -3  -5  738.84   25.20
  -7   3   6    7.12    3.11
   7  -3  -6   13.54    4.64
   7  -3   6    9.27    4.58
  -7   3   7  124.13    9.57
   7  -3   7  115.01   11.60
  -7   3   7  122.38   12.69
   7  -3  -7  137.28   11.09
  -7   3   8   92.79    8.74
  -7   3   8   76.94   10.17
   7  -3   8   84.55   10.20
   7  -3  -8   99.68    9.58
  -7   3   9  119.81   10.37
  -7   3   9  106.09   11.66
   7  -3   9  123.65   12.36
  -7   3  10    6.86    3.41
   7  -3  10    1.35    3.15
  -7   3  11  242.76   15.49
   7  -3  11  226.74   17.31
  -7   3  11  228.87   18.18
  -7   3  12  123.63   11.69
   7  -3  12  120.27   13.11
  -7   3  12  124.69   13.65
   7  -3  13   35.39    7.58
  -7   3  13   29.30    5.81
  -7   3  13   34.55    8.03
  -7  -3  14    1.82    3.01
  -7   3  14   -1.69    5.25
   7  -3  14    3.50    3.85
  -7   3  14    0.11    3.12
  -7  -3  15   44.21    8.30
   7  -3  15   40.89    8.76
  -7   3  15   35.76    8.15
  -7   3  15   53.68    8.35
  -7  -3  16    7.21    4.10
   7  -3  16   10.51    6.79
  -7   3  16    2.57    3.37
  -7   3  16    2.61    4.30
  -7  -3  17   14.84    5.77
   7  -3  17   24.94    7.51
  -7   3  17   12.57    4.79
  -7   3  17    9.00    4.43
  -7   3  18    2.12    5.22
  -7  -3  18   -3.34    4.51
   7  -3  18   -0.77    3.34
  -7   3  18    3.43    4.20
  -7  -3  19   -3.11    5.18
   7  -3  19   12.40    7.22
  -7   3  19   -1.68    4.21
  -7   3  19    6.12    4.90
  -7  -3  20   10.06    5.60
   7  -3  20   -1.82    4.38
  -7   3  20    4.52    3.87
  -7   3  20   10.17    6.66
  -7  -3  21    0.22    3.61
   7  -3  21   -0.98    4.00
  -7   3  21   -2.72    4.87
  -7  -3  22    4.99    3.93
   7  -3  22    0.58    4.41
  -7   3  22    3.76    3.51
  -7   3  23    7.19    5.77
  -7   4   0   -0.05    0.55
   7   4   0    0.46    0.69
  -7   4   1  179.53    7.25
   7   4   1  179.51    7.72
   7  -4  -1  172.75   13.13
   7  -4   1  161.51   13.05
  -7   4   2  604.56   14.91
   7  -4  -2  579.79   23.89
   7   4   2  592.35   15.83
   7  -4   2  586.03   24.80
  -7   4   3   16.63    3.12
   7  -4   3   17.57    5.20
   7  -4  -3   20.69    5.05
   7  -4   4  746.72   28.80
  -7   4   4  724.91   19.61
   7  -4  -4  732.67   26.96
   7  -4   5  161.78   14.04
  -7   4   5  161.31   10.04
   7  -4  -5  157.01   12.83
   7  -4   6   91.00   10.48
  -7   4   6  103.73    8.56
   7  -4  -6   93.26   10.27
  -7   4   7   43.04    5.92
   7  -4  -7   30.49    5.60
   7  -4   7   31.68    6.69
  -7   4   8  163.96   11.55
   7  -4   8  149.87   13.81
   7  -4  -8  166.75   13.00
  -7   4   9  220.94   13.99
   7  -4   9  197.32   16.38
  -7   4   9  219.49   17.22
  -7   4  10    7.15    3.14
   7  -4  10    9.62    3.99
   7  -4  11   -2.08    4.65
  -7   4  11   -5.17    6.70
  -7   4  11   -1.73    3.35
   7  -4  12   13.41    6.03
  -7   4  12    4.83    2.97
  -7   4  12    9.43    3.35
  -7   4  13  206.28   15.36
   7  -4  13  197.73   17.39
  -7   4  13  220.87   18.86
   7  -4  14   -2.71    3.49
  -7   4  14   11.32    4.94
  -7   4  14   -4.91    6.64
   7  -4  15    7.96    5.55
  -7   4  15   15.94    4.63
  -7   4  15    4.03    3.79
  -7   4  16   94.15   13.05
   7  -4  16  101.72   13.25
  -7   4  16   96.14   11.75
   7  -4  17   75.40   12.30
  -7   4  17   66.35   10.90
  -7   4  17   64.14   10.06
   7  -4  18   99.26   13.94
  -7   4  18   90.33   11.96
  -7   4  18   95.18   13.41
  -7  -4  19   46.10    9.92
   7  -4  19   51.50   10.73
  -7   4  19   54.76   10.16
  -7   4  19   47.01   10.02
  -7  -4  20  109.48   15.00
  -7   4  20  104.93   14.05
  -7   4  20  108.10   14.72
   7  -4  20  124.13   15.70
  -7  -4  21    3.28    4.47
   7  -4  21    9.95    6.62
  -7   4  21   10.09    6.23
  -7   4  21   19.06    8.00
  -7   4  22    3.21    4.63
  -7  -4  22   -0.30    5.11
  -7   4  22    5.06    4.42
  -7   4  23   15.26    7.77
  -7   4  23    6.18    3.42
   7  -5   0   -5.64    4.60
  -7   5   0   -0.76    0.99
   7  -5  -1   -3.09    3.21
   7  -5   1    5.76    4.14
   7   5   1    6.10    1.74
   7  -5  -2   14.84    4.40
   7  -5   2    6.96    3.08
   7  -5   3   50.36    7.75
   7  -5  -3   51.13    7.74
   7  -5   4   23.03    5.64
   7  -5  -4   16.00    4.72
   7  -5   5   11.33    4.82
   7  -5  -5   14.16    4.41
   7  -5   6   97.59   11.48
   7  -5  -6  103.18   10.96
   7  -5   7  115.45   12.36
   7  -5  -7  127.00   11.89
   7  -5  -8   -3.07    4.40
   7  -5   8    1.20    3.01
   7  -5   9   -0.32    2.87
   7  -5  10    0.03    2.78
  -7   5  11   39.39    7.63
   7  -5  11   35.93    7.47
  -7   5  12   16.12    4.99
   7  -5  12   25.74    6.61
  -7   5  13   -3.70    5.11
   7  -5  13   -3.01    4.69
   7  -5  14    7.17    4.36
  -7   5  14    6.66    3.82
   7  -5  15   15.40    6.01
  -7   5  15   15.77    5.69
   7  -5  16   21.70    6.74
  -7   5  16   31.46    7.05
  -7   5  16   28.79    7.11
   7  -5  17    5.10    3.96
  -7   5  17    6.43    3.23
  -7   5  17    5.74    4.08
   7  -5  18   -0.77    4.82
  -7   5  18    3.45    3.87
  -7   5  18    0.83    3.67
   7  -5  19    6.16    4.72
  -7   5  19    7.40    3.00
   7  -5  20    6.23    4.92
  -7   5  20    0.90    4.11
  -7   5  20   10.94    6.38
  -7   5  21   -0.97    4.06
  -7   5  21    4.87    4.31
  -7   5  22   24.40    8.32
  -7   5  22   33.13    8.38
   7  -6   0    2.93    4.65
   7  -6  -1  385.01   21.97
   7  -6   1  422.41   23.04
   7  -6  -2  415.67   22.70
   7  -6   2  413.07   23.10
   7  -6   3    2.15    3.55
   7  -6  -3    1.92    3.36
   7  -6   4   -2.51    3.80
   7  -6  -4    3.64    3.54
   7  -6  -5  445.44   23.76
   7  -6   5  431.67   23.98
   7  -6   6   -2.90    3.37
   7  -6  -6    3.89    3.79
   7  -6  -7  112.70   12.14
   7  -6   7  104.27   11.96
   7  -6   8   20.96    6.13
   7  -6  -8   21.19    6.01
   7  -6  -9   62.52    9.30
   7  -6   9   51.35    9.31
   7  -6  10  173.62   16.19
   7  -6  11   30.25    7.85
   7  -6  12  389.07   25.01
   7  -6  13  128.01   15.05
  -7   6  13  115.73   14.32
  -7   6  14   -5.53    5.67
   7  -6  14    2.47    4.72
  -7   6  15    2.35    4.52
   7  -6  15    8.76    6.09
  -7   6  16   89.41   12.76
   7  -6  16   91.86   13.24
   7  -6  17   25.00    7.76
  -7   6  17   20.53    6.35
   7  -6  18   14.55    6.64
  -7   6  18    8.31    3.49
   7  -6  19   25.18    7.68
  -7   6  19   17.38    5.92
  -7   6  20   76.43   12.40
  -7   6  20   47.58    9.68
  -7   6  21    4.00    4.27
  -7   6  21    7.16    5.53
   7  -7   0   -1.64    3.92
   7  -7  -1   10.38    5.81
   7  -7   1    6.53    4.99
   7  -7   2   72.72   10.25
   7  -7  -2   61.54    9.64
   7  -7  -3  113.48   12.99
   7  -7   3  127.19   13.67
   7  -7   4    1.54    3.81
   7  -7  -4   11.65    5.87
   7  -7   5   30.76    6.91
   7  -7  -5   41.73    7.98
   7  -7   6    1.17    4.27
   7  -7  -6   -2.11    4.03
   7  -7   7    3.40    3.29
   7  -7  -7    6.02    3.33
   7  -7   8   -1.64    3.47
   7  -7  -8   -0.13    3.90
   7  -7  -9   74.15   10.69
   7  -7   9   85.68   12.41
   7  -7  10   17.42    6.64
   7  -7  11   25.19    7.66
   7  -7  12   18.13    7.08
   7  -7  13  240.61   20.87
  -7   7  14   45.89    9.59
   7  -7  14   34.21    8.59
  -7   7  15   -5.33    6.68
   7  -7  15   -2.26    5.94
  -7   7  16   12.36    4.06
   7  -7  16   29.73    7.95
  -7   7  17    6.34    3.80
   7  -7  17   20.21    6.62
  -7   7  18   -5.44    5.57
   7  -7  18    5.11    3.61
  -7   7  19   56.38   11.08
  -7   7  20   69.73   13.32
   7  -8   0    3.87    4.80
   7  -8  -1  439.63   25.78
   7  -8   1  462.57   26.47
   7  -8   2   49.24    9.40
   7  -8  -2   40.82    8.84
   7  -8   3   57.64   10.31
   7  -8  -3   46.42    8.58
   7  -8   4   23.24    6.84
   7  -8  -4   18.48    5.47
   7  -8   5   55.01    9.79
   7  -8  -5   68.29   10.27
   7  -8   6    4.31    3.95
   7  -8  -6   -5.65    4.62
   7  -8   7   66.52   10.94
   7  -8  -7   85.39   11.58
   7  -8   8    3.22    4.69
   7  -8  -8    0.64    3.32
   7  -8  -9  304.57   22.06
   7  -8   9  299.63   22.68
   7  -8  10    8.07    5.49
   7  -8  11    4.28    4.24
   7  -8  12   15.21    5.98
   7  -8  13   46.75   10.02
   7  -8  14   25.99    8.28
  -7   8  15  102.41   14.55
   7  -8  15  105.79   15.06
  -7   8  16    3.36    4.19
   7  -8  16   10.34    6.45
  -7   8  17   76.85   12.72
  -7   8  18   16.50    7.26
   7  -9   0   -4.56    5.13
   7  -9   1    0.34    4.10
   7  -9  -1   -0.75    4.22
   7  -9   2   -1.74    5.18
   7  -9  -2    0.29    4.30
   7  -9   3   -4.07    5.01
   7  -9  -3    0.48    3.88
   7  -9   4   12.30    4.72
   7  -9  -4   21.52    7.08
   7  -9  -5  124.00   14.55
   7  -9   5  102.62   13.82
   7  -9   6   10.88    5.47
   7  -9  -6    6.70    4.47
   7  -9   7   66.54   11.55
   7  -9  -7   61.08   10.63
   7  -9   8   17.05    6.34
   7  -9  -8   30.96    7.98
   7  -9   9   29.39    8.14
   7  -9  10    2.05    3.84
   7  -9  11   57.26   10.50
   7  -9  12   -2.35    3.90
   7  -9  13   72.13   12.43
   7  -9  14   -0.51    5.54
  -7   9  16   -2.90    3.67
   7 -10   0   -8.56    5.40
   7 -10  -1   -2.92    5.13
   7 -10   1    0.66    3.16
   7 -10   2   88.88   13.20
   7 -10  -2  108.75   14.29
   7 -10   3   37.34    8.57
   7 -10  -3   38.08    8.73
   7 -10   4    0.79    3.94
   7 -10  -4    1.92    3.83
   7 -10   5    3.72    3.96
   7 -10  -5    9.54    5.30
   7 -10   6   71.44   12.16
   7 -10  -6   75.41   11.85
   7 -10   7   51.11   10.54
   7 -10  -7   71.31   12.09
   7 -10   8   61.94   11.71
   7 -10  -8   79.21   12.67
   7 -10   9   68.96   12.17
   7 -10  10  113.73   15.71
   7 -10  11   -2.68    4.65
   7 -11   0    4.45    4.63
   7 -11  -1    1.03    4.45
   7 -11   1    7.70    5.28
   7 -11  -2   18.05    6.46
   7 -11   2   15.44    5.11
   7 -11   3    8.97    5.68
   7 -11  -3    8.61    5.84
   7 -11   4   15.82    6.60
   7 -11  -4   15.95    6.79
   7 -11   5   22.30    7.00
   7 -11  -5   18.35    6.86
   7 -11   6    1.32    4.19
   7 -11  -6   -2.22    3.67
   7 -11  -7    5.76    5.94
   7 -11  -8    5.06    6.11
  -8   0   0  855.01   30.58
   8   0   0  877.39   24.26
  -8   0   1    2.12    3.54
   8   0  -1   -1.10    2.30
   8   0   1   -0.69    2.30
  -8   0  -1   -1.02    2.81
   8   0   2  111.27    9.24
  -8   0   2   96.60   10.54
  -8   0  -2  116.36   10.95
   8   0  -2  125.72    8.71
  -8   0   3   -0.12    3.60
  -8   0  -3   -3.39    3.69
   8   0   3   -3.46    2.95
   8   0  -3    1.18    1.70
   8   0   4  104.73    9.51
  -8   0   4   83.33   10.37
   8   0  -4   93.30    7.38
  -8   0  -4   79.05    8.77
  -8   0   5   -5.88    4.58
  -8   0  -5   -2.37    3.16
   8   0  -5   -1.19    1.44
   8   0   5   -0.07    2.52
   8   0   6   99.23    9.84
  -8   0  -6  103.00    9.50
  -8   0   6  111.87   12.42
  -8   0   7   -1.41    2.18
   8   0   7    3.87    3.14
  -8   0  -7   -4.83    3.66
  -8   0   7    1.17    3.67
  -8   0   8   24.20    6.48
   8   0   8   21.48    4.77
  -8   0   8   22.97    5.18
  -8   0  -8   18.38    3.90
   8   0   9    3.75    4.12
  -8   0   9    6.20    4.07
  -8   0   9    3.75    5.73
  -8   0  -9    2.82    2.23
  -8   0  10  636.07   25.55
  -8   0 -10  659.99   22.19
   8   0  10  613.79   27.35
  -8   0  10  670.17   31.81
  -8   0  11    3.06    3.15
   8   0  11    8.52    5.25
  -8   0  11   16.43    7.81
  -8   0  12    7.11    3.47
   8   0  12   11.22    4.78
  -8   0  13    3.50    3.02
  -8   0  13   15.99    7.68
  -8   0  14  199.20   16.14
  -8   0  14  239.27   21.07
  -8   0  15    0.55    3.40
  -8   0  16   44.42    8.66
  -8   0  17   -1.62    3.21
  -8   0  18   45.74    8.93
  -8   0  19   -1.64    3.58
  -8   0  20   54.07   10.70
  -8   0  21   -3.28    4.10
  -8   0  22   45.35    9.55
  -8   1   0  500.86   23.79
   8  -1   0  460.06   18.97
  -8  -1   0  480.41   22.65
   8   1   0  485.37   16.56
   8   1   1  369.31   15.09
  -8   1  -1  391.79   20.59
  -8   1   1  390.33   21.25
   8  -1  -1  369.38   16.65
   8   1  -1  376.06   13.97
  -8  -1  -1  383.19   20.04
  -8  -1   1  381.40   20.64
   8  -1   1  385.96   17.74
   8   1  -2    1.33    2.00
   8  -1  -2   -0.91    2.73
  -8  -1   2    3.73    4.60
  -8   1  -2   -4.78    4.46
   8  -1   2   -2.37    2.95
  -8   1   2   -2.99    4.02
   8   1   2   -1.68    2.67
  -8  -1  -2    5.35    4.50
  -8  -1   3   44.35    8.49
  -8   1  -3   32.74    6.19
   8   1  -3   45.22    4.48
   8  -1   3   34.02    6.35
  -8   1   3   35.15    6.24
  -8  -1  -3   38.94    6.55
   8   1   3   40.31    5.66
   8  -1  -3   36.37    5.15
   8  -1   4  329.74   17.37
   8   1   4  318.83   15.76
  -8   1  -4  304.54   17.68
   8   1  -4  327.89   11.47
   8  -1  -4  301.05   14.49
  -8   1   4  305.61   19.95
  -8  -1  -4  306.61   16.71
  -8  -1   4  370.25   21.43
   8   1   5    3.17    2.48
  -8   1  -5    3.86    2.47
  -8  -1   5   10.37    5.93
  -8  -1  -5    7.88    3.45
   8  -1  -5    3.12    1.81
   8  -1   5    5.96    3.69
  -8   1   5   -1.67    3.55
  -8   1   6  134.84    9.82
   8  -1   6  142.11   12.10
  -8   1  -6  123.38   10.86
   8  -1  -6  143.69   10.01
   8   1   6  133.77   11.02
  -8   1   6  136.64   13.87
  -8  -1  -6  138.64   11.07
  -8  -1   6  132.17   13.95
  -8   1   7   95.44    8.80
  -8   1   7   88.45   11.32
   8  -1   7   96.87   10.30
   8   1   7  105.78   10.20
  -8  -1  -7   98.55    9.05
  -8  -1   7   96.01   12.11
  -8  -1   8   95.53   12.23
   8  -1   8   81.62    9.52
  -8   1   8  104.84    9.62
  -8   1   8  108.70   12.40
   8   1   8  103.73   10.60
  -8  -1  -8   93.40    8.54
  -8  -1   9   40.77    8.58
   8  -1   9   32.04    6.63
  -8   1   9   39.56    6.33
   8   1   9   37.68    6.81
  -8   1   9   25.91    6.18
  -8  -1  -9   40.68    5.70
  -8  -1  10   33.94    6.39
   8  -1  10   35.73    6.76
  -8   1  10   32.22    5.86
  -8   1  10   37.20    8.12
  -8  -1  10   34.43    8.23
   8  -1  11   23.56    6.97
  -8  -1  11   12.77    5.24
  -8   1  11   24.82    5.60
  -8   1  11   37.23    9.31
  -8  -1  11   40.80    9.92
  -8  -1  12  372.23   21.15
  -8   1  12  360.33   20.23
   8  -1  12  359.39   22.50
  -8   1  12  361.91   24.70
  -8  -1  13   11.05    5.67
   8  -1  13   12.99    5.59
  -8   1  13   11.38    4.89
  -8   1  13   20.47    7.70
  -8  -1  14   95.12   11.66
  -8   1  14   97.00   11.44
   8  -1  14  110.47   13.20
  -8   1  14  113.51   14.74
  -8  -1  15  131.50   13.94
  -8   1  15  142.63   14.35
   8  -1  15  137.62   15.06
  -8   1  15  129.34   15.86
  -8  -1  16   65.14   10.43
  -8   1  16   57.80    9.71
   8  -1  16   55.48   10.18
  -8   1  16   75.39   13.30
  -8  -1  17   70.34   11.21
  -8   1  17   62.78   10.53
  -8   1  17   80.71   13.50
  -8  -1  18  461.52   27.93
  -8   1  18  507.85   28.25
  -8  -1  19   15.36    6.80
  -8   1  19   18.36    7.19
  -8  -1  20    2.87    4.51
  -8   1  20    4.28    5.17
  -8  -1  21   49.88   10.17
  -8   1  21   42.36    9.46
  -8  -1  22  120.40   15.77
  -8   1  22  119.92   15.68
  -8  -2   0   70.83    9.71
   8  -2   0   61.39    7.68
   8   2   0   74.40    5.77
   8   2   1  124.01    7.94
  -8  -2  -1  156.51   13.08
  -8  -2   1  140.16   12.84
  -8   2   1  131.68   12.71
   8   2  -1  131.70    7.17
   8  -2  -1  121.31   10.22
   8  -2   1  118.41   10.59
   8  -2  -2   15.96    3.54
  -8   2   2   14.40    4.59
   8  -2   2   13.77    3.45
  -8  -2   2   17.89    5.64
   8   2   2   12.73    2.84
   8   2  -2   18.50    2.55
   8  -2   3  342.32   18.38
  -8  -2  -3  359.67   18.38
  -8  -2   3  334.30   20.34
   8   2   3  343.55   14.89
  -8   2   3  359.28   21.34
   8  -2  -3  350.18   16.98
   8   2   4   26.16    4.71
  -8   2   4   22.78    3.67
  -8   2   4   14.48    4.46
   8  -2   4   21.88    5.21
  -8  -2  -4   35.04    6.80
   8  -2  -4   24.37    4.55
  -8  -2  -5   39.45    6.94
   8   2   5   31.20    5.04
  -8   2   5   29.80    4.47
  -8   2   5   20.64    5.49
   8  -2   5   29.27    5.88
   8  -2  -5   28.16    4.77
  -8   2   6   87.89    7.87
  -8  -2  -6   97.75    9.37
   8  -2   6   84.45    9.82
   8  -2  -6   89.95    9.00
  -8   2   6   92.71   11.57
   8   2   6   89.72    9.26
  -8   2   7  533.20   20.07
   8  -2   7  537.55   24.79
   8  -2  -7  554.19   21.35
  -8   2   7  515.47   27.20
   8   2   7  538.81   22.36
  -8   2   8   19.65    4.86
  -8   2   8    7.77    4.23
   8  -2   8   13.74    4.76
   8  -2   9    5.56    2.74
  -8   2   9    5.18    4.28
   8  -2  10    1.62    2.84
  -8   2  10   -2.04    5.29
  -8   2  10    6.72    4.06
  -8   2  11  147.13   12.37
   8  -2  11  138.65   13.92
  -8   2  11  125.49   14.39
   8  -2  12   69.40   10.34
  -8   2  12   48.18    7.95
  -8   2  12   58.60    9.86
  -8  -2  13   34.30    7.42
   8  -2  13   24.54    6.56
  -8   2  13   39.62    7.30
  -8   2  13   34.40    8.88
   8  -2  14   30.24    7.64
  -8  -2  14   27.04    6.56
  -8   2  14   26.90    6.74
  -8   2  14   33.57    8.46
  -8   2  15    6.92    5.79
  -8  -2  15   -2.53    4.26
   8  -2  15    6.11    4.33
  -8   2  15    9.47    4.13
  -8  -2  16    3.02    3.77
   8  -2  16   10.52    5.49
  -8   2  16    9.46    4.66
  -8   2  16   12.15    6.57
  -8  -2  17   -3.64    3.51
   8  -2  17    4.65    5.82
  -8   2  17    0.05    3.03
  -8   2  17   12.22    6.33
  -8  -2  18    0.37    3.48
   8  -2  18   11.05    6.67
  -8   2  18   15.73    7.34
  -8   2  18    5.90    4.50
  -8   2  19   77.68   13.46
  -8  -2  19   52.58   10.04
   8  -2  19   66.81   11.91
  -8   2  19   62.44   10.49
  -8  -2  20   34.98    9.10
   8  -2  20   41.29   10.08
  -8   2  20   19.45    6.61
  -8  -2  21  179.79   18.96
  -8   2  21  161.17   17.38
  -8   2  22   14.72    7.25
   8  -3   0   53.60    7.54
   8   3   1   55.22    4.83
   8  -3  -1   57.18    7.75
   8  -3   1   52.61    7.40
   8  -3  -2   13.40    3.98
   8  -3   2   21.05    5.01
   8   3   2   19.67    3.19
   8   3   3  149.68    9.38
   8  -3  -3  152.87   12.32
   8  -3   3  147.04   12.53
   8  -3   4  109.42   10.96
  -8   3   4  105.14    7.28
  -8   3   4  100.56   11.83
   8  -3  -4  102.33   10.21
   8   3   4  108.23    8.45
  -8   3   5   27.99    6.63
   8   3   5   32.31    5.39
  -8   3   5   26.35    4.25
   8  -3   5   31.71    6.69
   8  -3  -5   28.45    5.56
  -8   3   6  376.42   15.69
   8  -3   6  383.58   21.09
  -8   3   6  350.30   22.37
   8  -3  -6  354.96   18.34
   8   3   6  382.21   17.39
  -8   3   7  148.43   10.51
   8  -3   7  162.62   14.18
   8  -3  -7  161.70   12.45
  -8   3   7  161.24   15.18
  -8   3   8  161.43   11.60
   8  -3   8  163.96   14.42
  -8   3   8  141.36   14.43
  -8   3   9    0.85    2.78
  -8   3   9   -6.83    6.75
   8  -3   9   -0.25    3.17
  -8   3  10    6.10    2.92
   8  -3  10    5.54    3.72
  -8   3  11  143.50   12.27
   8  -3  11  140.11   14.16
  -8   3  11  135.07   14.87
   8  -3  12    4.92    4.00
  -8   3  12    1.99    2.72
  -8   3  12   -2.28    5.22
   8  -3  13   13.45    5.52
  -8   3  13    9.98    4.96
  -8   3  13   16.25    5.02
   8  -3  14   18.45    6.21
  -8   3  14   16.51    5.44
  -8   3  14   19.09    5.68
   8  -3  15   56.07    9.87
  -8   3  15   60.35    9.30
  -8   3  15   50.87    9.90
   8  -3  16   38.83    8.73
  -8   3  16   40.84    7.95
  -8   3  16   27.80    7.73
  -8   3  17  114.62   13.39
   8  -3  17  126.03   15.31
  -8   3  17  124.49   16.00
  -8  -3  18    3.92    4.97
   8  -3  18   16.48    7.54
  -8   3  18   17.88    7.87
  -8   3  18    9.48    5.48
  -8  -3  19  150.77   16.79
  -8   3  19  180.35   17.63
   8  -3  19  165.46   18.40
  -8   3  19  163.24   19.04
  -8  -3  20    2.93    4.51
   8  -3  20    9.66    6.43
  -8   3  20   14.92    7.83
  -8   3  20   11.78    6.67
  -8   3  21  129.32   15.90
  -8  -3  21   89.32   13.60
  -8   3  22   41.53    9.90
   8  -4   0   23.87    5.58
   8  -4  -1   58.62    8.44
   8  -4   1   55.88    8.41
   8  -4  -2  204.34   15.01
   8  -4   2  203.69   15.45
   8   4   3    2.34    2.11
   8  -4   3    3.16    3.29
   8  -4  -3    0.93    2.66
   8   4   4   35.88    5.09
   8  -4   4   31.73    6.47
   8  -4  -4   47.66    7.71
   8  -4   5  247.71   17.74
   8  -4  -5  285.22   17.80
  -8   4   6   70.89    7.10
   8  -4   6   62.96    9.35
   8  -4  -6   70.29    8.72
  -8   4   7   73.88    7.56
  -8   4   7   76.88   11.14
   8  -4  -7   87.07    9.96
   8  -4   7   70.50    9.72
  -8   4   8  157.14   11.56
   8  -4   8  144.43   14.05
  -8   4   8  151.75   15.45
   8  -4  -8  154.47   13.05
  -8   4   9   30.38    7.32
  -8   4   9   38.40    6.27
   8  -4   9   32.86    7.32
  -8   4  10   49.06    7.03
  -8   4  10   29.80    6.74
   8  -4  10   30.40    6.83
  -8   4  11   32.85    6.35
  -8   4  11   22.84    6.68
   8  -4  11   31.95    7.09
  -8   4  12    9.19    3.16
  -8   4  12   -1.18    5.41
   8  -4  12   -1.96    4.31
   8  -4  13   -3.11    4.51
  -8   4  13    9.39    4.16
  -8   4  13   -6.80    5.51
   8  -4  14    5.18    4.65
  -8   4  14   17.29    5.00
  -8   4  14    2.17    4.35
   8  -4  15   30.10    6.77
  -8   4  15   35.46    8.55
  -8   4  15   27.48    6.80
   8  -4  16    3.64    4.27
  -8   4  16   -5.10    4.32
  -8   4  16    1.73    2.51
   8  -4  17   32.38    8.52
  -8   4  17   39.61    8.07
  -8   4  17   33.28    9.23
   8  -4  18   68.45   12.05
  -8   4  18   62.23   10.24
  -8   4  18   67.08   11.97
  -8   4  19   46.31   10.52
   8  -4  19   52.82   10.86
  -8   4  19   38.80    8.67
  -8   4  20   22.53    6.86
  -8   4  21   -4.06    5.15
  -8   4  22    8.06    5.37
   8  -5   0 1255.86   39.03
   8  -5  -1   58.96   10.02
   8  -5   1   59.65    9.42
   8  -5  -2    9.05    4.96
   8  -5   2    3.04    3.38
   8  -5  -3  114.02   11.71
   8  -5   3  101.86   11.72
   8  -5   4   84.62   10.57
   8  -5  -4   93.91   10.66
   8  -5   5   73.04   10.23
   8  -5  -5   92.53   10.74
   8  -5   6  157.83   14.97
   8  -5  -6  156.26   13.87
  -8   5   7   94.91    8.92
   8  -5  -7   92.99   10.98
   8  -5   7   68.12   10.07
  -8   5   8   72.76    8.04
   8  -5  -8   70.96    9.75
   8  -5   8   68.98   10.13
  -8   5   9   24.49    6.20
  -8   5   9   34.49    6.01
   8  -5   9   29.81    6.98
   8  -5  10   87.91   12.08
  -8   5  10   89.80    9.63
  -8   5  10   79.90   11.75
  -8   5  11   31.47    7.48
  -8   5  11   33.32    6.30
   8  -5  11   33.39    7.99
  -8   5  12   -2.55    4.86
  -8   5  12    1.99    3.52
   8  -5  12    5.52    4.49
  -8   5  13   17.22    5.19
  -8   5  13    7.15    4.56
   8  -5  13    8.84    5.34
  -8   5  14   68.61    9.91
  -8   5  14   54.05    9.69
   8  -5  14   39.86    8.20
  -8   5  15   -1.00    3.16
  -8   5  15   -3.38    3.60
   8  -5  15    2.08    4.31
  -8   5  16   -2.36    3.97
  -8   5  16   -0.93    4.97
   8  -5  16   -1.97    5.26
   8  -5  17   16.52    7.14
  -8   5  17    4.43    4.53
  -8   5  17   10.81    4.67
   8  -5  18   95.62   14.34
  -8   5  18   84.58   13.38
  -8   5  18   91.00   12.51
  -8   5  19   -3.18    4.23
  -8   5  20   15.02    5.47
  -8   5  21    9.04    5.59
   8  -6   0    1.99    3.87
   8  -6  -1    4.96    3.86
   8  -6   1    5.91    5.93
   8  -6  -2  536.49   26.81
   8  -6   2  538.08   27.50
   8  -6  -3  149.99   14.36
   8  -6   3  164.92   15.46
   8  -6   4    2.12    4.15
   8  -6  -4    6.82    3.86
   8  -6   5    2.96    3.04
   8  -6  -5   -3.64    3.96
   8  -6   6    0.65    3.05
   8  -6  -6   -3.67    3.85
   8  -6   7   -0.18    3.15
   8  -6  -7   15.37    6.27
   8  -6   8   -1.31    4.05
   8  -6  -8    1.19    3.64
   8  -6   9   -0.50    4.50
   8  -6  10   19.99    6.55
  -8   6  11   23.34    7.34
  -8   6  11   28.28    6.14
   8  -6  11   30.63    7.83
  -8   6  12   47.09   10.19
  -8   6  12   46.12    7.75
   8  -6  12   40.92    9.15
  -8   6  13    0.40    3.59
  -8   6  13    3.42    3.30
   8  -6  13    0.82    3.47
  -8   6  14   42.00    9.28
  -8   6  14   58.54    9.78
   8  -6  14   40.12    8.84
  -8   6  15    7.16    4.03
   8  -6  15    0.34    3.49
  -8   6  16   -5.99    4.25
  -8   6  16   -5.61    5.81
   8  -6  16   -4.52    5.48
  -8   6  17   25.44    6.92
  -8   6  17   13.70    5.29
   8  -6  17   24.34    7.72
  -8   6  18   42.32    8.77
  -8   6  19   -2.50    3.96
  -8   6  20    5.25    3.55
   8  -7   0   31.58    8.62
   8  -7  -1  254.23   19.49
   8  -7   1  243.66   19.83
   8  -7   2   16.38    6.33
   8  -7  -2   12.59    6.19
   8  -7  -3  416.36   25.05
   8  -7   3  383.16   24.45
   8  -7   4   36.02    8.73
   8  -7  -4   39.15    8.40
   8  -7   5   -2.79    4.70
   8  -7  -5   -4.93    4.83
   8  -7   6    3.01    4.05
   8  -7  -6   -2.67    4.09
   8  -7   7   90.80   12.28
   8  -7  -7  108.22   13.14
   8  -7   8   78.01   12.07
   8  -7  -8   79.77   11.39
   8  -7  -9   20.65    5.84
   8  -7   9    3.64    4.18
   8  -7  10   83.24   12.84
   8  -7  11  252.92   21.63
   8  -7  12   -1.29    3.33
  -8   7  13   25.74    7.69
   8  -7  13   18.02    6.12
  -8   7  14    6.84    3.47
   8  -7  14    5.74    4.38
  -8   7  15    8.76    4.79
   8  -7  15   26.24    7.94
  -8   7  16   -6.26    6.09
  -8   7  17   50.21    9.51
  -8   7  18    3.32    3.92
  -8   7  19   62.70   11.37
  -8   7  20   -1.02    2.92
   8  -8   0  193.25   17.99
   8  -8   1   54.77   10.28
   8  -8  -1   57.09   10.59
   8  -8   2    5.43    5.13
   8  -8  -2    2.75    4.23
   8  -8   3   14.20    5.43
   8  -8  -3   26.23    7.06
   8  -8   4    5.57    4.38
   8  -8  -4    1.13    4.19
   8  -8   5   63.67   11.14
   8  -8  -5   66.12   10.48
   8  -8   6   43.14    9.59
   8  -8  -6   33.59    7.79
   8  -8   7   64.81   10.92
   8  -8  -7   92.66   12.60
   8  -8   8   -1.30    3.88
   8  -8  -8    3.33    4.26
   8  -8   9    6.35    4.81
   8  -8  10   -3.21    5.29
   8  -8  11  105.08   14.84
   8  -8  12   11.88    5.94
   8  -8  13    4.57    5.44
   8  -9   0  126.52   15.56
   8  -9   1   70.04   11.36
   8  -9  -1   52.48   10.05
   8  -9   2   28.81    7.95
   8  -9  -2   29.35    7.64
   8  -9   3   54.03    9.98
   8  -9  -3   65.15   11.07
   8  -9   4    1.27    4.07
   8  -9  -4    1.43    3.74
   8  -9   5   28.31    8.13
   8  -9  -5   30.30    7.82
   8  -9   6   17.27    6.82
   8  -9  -6   23.39    7.68
   8  -9  -7  326.10   24.27
   8  -9   7  294.34   23.95
   8  -9   8   89.00   13.82
   8  -9  -8  105.81   14.39
   8  -9   9    1.03    3.87
   8  -9  10   17.81    7.68
   8 -10   0   11.33    4.98
   8 -10  -1   18.26    6.20
   8 -10   1   13.65    6.24
   8 -10   2    0.70    4.19
   8 -10  -2    1.35    4.06
   8 -10   3    9.32    5.18
   8 -10  -3    1.33    4.07
   8 -10   4   72.35   12.44
   8 -10  -4   71.15   12.55
   8 -10   5    3.07    4.10
   8 -10  -5    9.23    6.07
   8 -10   6    1.83    3.80
   8 -10  -6    0.77    4.08
   8 -10  -7   12.98    5.57
   8 -10  -8   24.15    8.03
   9   0   0   -3.07    2.50
  -9   0   0   -1.86    3.97
   9   0  -1   -0.73    2.59
  -9   0  -1    0.72    2.91
   9   0   1    0.72    2.44
  -9   0   1   -3.78    4.19
   9   0   2    9.04    2.63
  -9   0   2   15.17    5.20
   9   0  -2   15.97    3.53
  -9   0  -3   -5.27    4.43
   9   0   3   -4.34    3.72
  -9   0   3   -6.88    4.71
  -9   0  -4   10.58    3.29
   9   0   4   10.11    3.36
  -9   0   4   12.97    4.66
  -9   0  -5   -5.49    4.11
   9   0   5   -2.70    2.32
   9   0   6  101.41   10.37
  -9   0  -6   84.35    9.43
  -9   0   6   73.26   10.88
  -9   0   7    8.16    5.15
   9   0   7    1.03    2.99
  -9   0  -7    1.41    2.27
   9   0   8   22.88    5.10
  -9   0   8   35.88    9.01
  -9   0  -8   27.77    5.57
   9   0   9    1.87    2.62
  -9   0   9    7.25    5.51
  -9   0  10   14.30    4.68
   9   0  10    3.47    2.83
   9   0  11   -1.88    3.45
  -9   0  11   -2.46    2.69
  -9   0  11   -1.64    4.37
   9   0  12    6.27    3.75
  -9   0  12   11.02    3.81
  -9   0  13    3.31    3.68
   9   0  13   -0.39    2.94
  -9   0  14   49.53    8.99
   9   0  14   49.57    9.05
  -9   0  14   69.13   12.54
  -9   0  15    3.20    3.70
   9   0  15   -1.05    3.50
  -9   0  16   16.59    5.31
   9   0  16   16.03    6.46
  -9   0  17   -0.34    3.38
   9   0  17    4.57    4.34
  -9   0  18   85.12   12.56
   9   0  18   96.71   13.71
  -9   0  19    0.20    4.26
   9   0  19    5.96    4.94
  -9   0  20   50.38   10.06
  -9   0  21   -2.01    4.52
   9  -1   0   -0.79    2.11
  -9  -1   0    6.08    4.72
  -9   1   0    0.85    3.48
  -9   1  -1  226.57   17.24
  -9   1   1  209.37   16.91
   9  -1  -1  224.66   13.95
   9  -1   1  221.25   14.39
   9   1   1  214.58   12.15
  -9  -1  -1  214.63   16.53
  -9  -1   1  240.34   17.90
  -9   1  -2  704.01   29.38
   9  -1  -2  737.44   24.36
  -9   1   2  720.39   31.44
  -9  -1  -2  740.83   29.36
   9  -1   2  738.34   26.35
  -9  -1   2  719.27   31.07
   9   1   2  731.84   23.14
  -9  -1  -3   10.63    5.82
   9  -1   3    5.12    3.27
  -9   1  -3    0.12    3.83
  -9  -1   3   23.04    7.42
   9   1   3    7.74    3.10
   9  -1  -3    4.57    2.67
  -9   1   3   16.80    6.81
   9  -1   4  231.27   15.55
   9   1   4  219.43   13.54
  -9   1  -4  230.45   16.45
   9  -1  -4  237.64   13.46
  -9   1   4  223.64   18.26
  -9  -1  -4  220.40   15.73
  -9  -1   4  223.02   18.12
   9  -1   5   65.60    8.90
  -9   1   5   65.58   10.46
   9   1   5   72.01    8.35
  -9   1  -5   65.21    8.89
   9  -1  -5   54.66    6.50
  -9  -1  -5   72.91    9.75
  -9  -1   5   74.81   11.42
  -9  -1   6  191.28   17.56
   9  -1   6  129.96   12.08
   9   1   6  153.20   12.18
  -9   1  -6  166.42   13.47
  -9   1   6  140.58   14.90
  -9  -1  -6  158.25   12.80
   9   1   7    7.17    3.98
  -9  -1  -7   13.68    4.54
  -9   1  -7   -2.17    3.76
  -9   1   7    7.71    4.57
  -9  -1   7   15.02    7.12
   9  -1   7    6.72    4.29
  -9   1   8  264.56   15.32
  -9  -1   8  260.29   20.95
   9  -1   8  296.61   19.17
  -9   1  -8  264.25   16.62
   9   1   8  253.92   16.69
  -9   1   8  253.13   20.61
  -9   1   9  154.07   12.54
  -9  -1   9  163.94   17.47
   9  -1   9  154.32   14.58
  -9   1  -9  155.32   12.86
   9   1   9  165.41   14.17
  -9   1   9  157.30   16.57
  -9   1  10  200.22   14.53
  -9  -1  10  226.74   20.31
   9  -1  10  205.87   16.66
   9   1  10  227.31   16.81
  -9   1  10  207.99   19.56
   9  -1  11   23.07    6.42
  -9   1  11   17.45    7.39
  -9   1  11   28.92    6.06
   9   1  11   13.28    5.37
  -9   1  12  201.86   15.54
   9  -1  12  158.94   15.45
   9   1  12  172.40   15.73
  -9   1  12  212.42   20.03
  -9  -1  13   82.97   10.93
  -9   1  13   88.93   11.03
   9  -1  13   68.02   10.65
   9   1  13   83.77   11.12
  -9   1  13   79.99   13.37
  -9   1  14   11.08    7.14
   9  -1  14    8.53    4.85
  -9  -1  14    9.14    4.73
  -9   1  14   12.90    4.99
   9   1  14    4.21    3.99
   9  -1  15   10.82    5.51
  -9  -1  15    1.84    3.78
  -9   1  15   10.83    4.81
  -9   1  15    8.22    6.09
  -9  -1  16  147.80   15.48
  -9   1  16  131.47   14.13
  -9   1  16  151.49   17.95
   9  -1  16  145.13   16.44
  -9   1  17   36.15   10.41
  -9  -1  17   24.66    6.69
   9  -1  17   33.06    8.33
  -9   1  17   41.37    9.09
  -9  -1  18   11.89    5.20
  -9   1  18   14.50    6.19
   9  -1  18   20.03    6.93
  -9  -1  19   12.00    6.32
  -9   1  19    5.66    5.07
   9  -1  19    9.62    5.33
  -9  -1  20   65.58   11.37
  -9   1  20   69.62   11.48
  -9   1  21   -4.01    3.58
   9  -2   0   -6.23    4.21
  -9   2   0   -7.74    5.47
  -9  -2   0    7.76    4.57
   9  -2  -1    0.33    2.27
  -9   2  -1   -1.47    4.82
   9  -2   1    2.47    2.18
  -9  -2  -1    6.73    3.90
  -9   2   1   -5.01    5.57
   9  -2  -2    3.90    2.92
  -9  -2  -2   -0.22    2.93
  -9   2  -2    1.04    4.41
   9  -2   2    2.77    2.43
  -9   2   2   -0.17    4.85
  -9  -2  -3    8.95    4.69
   9  -2   3    0.08    2.43
  -9   2  -3   -8.20    5.29
  -9   2   3   -6.58    5.73
   9  -2  -3    6.12    2.78
  -9   2  -4   -3.59    4.20
   9  -2   4    5.77    2.67
  -9   2   4   -1.17    5.01
  -9  -2  -4   16.93    5.10
   9  -2  -4   10.33    3.35
   9   2   4    4.93    2.16
   9   2   5   67.84    7.61
   9  -2  -5   80.30    8.60
   9  -2   5   69.91    9.23
  -9   2   5   57.89    9.61
   9   2   6    8.17    2.66
   9  -2  -6   13.28    3.88
   9  -2   6   13.79    4.60
  -9   2   6    4.83    4.19
   9   2   7   44.16    6.67
   9  -2  -7   45.25    6.58
   9  -2   7   38.53    7.06
  -9   2   7   39.65    8.57
   9   2   8    4.75    3.09
   9  -2   8    2.51    3.16
  -9   2   9   44.41    8.87
   9   2   9   43.23    7.01
   9  -2   9   31.99    7.37
   9   2  10   20.92    4.77
  -9   2  10   12.93    5.58
   9  -2  10    9.68    4.45
   9  -2  11    2.39    2.87
  -9   2  11    2.34    3.31
   9   2  11    0.01    3.27
  -9   2  11   -0.67    4.84
   9  -2  12    0.17    3.78
  -9   2  12   -0.55    2.76
  -9   2  12   10.17    6.10
   9  -2  13    3.67    3.56
  -9   2  13   -1.18    2.44
  -9   2  13    6.13    5.85
   9  -2  14    7.78    4.76
  -9   2  14    4.16    5.06
  -9   2  14    8.30    4.12
  -9   2  15  103.98   12.04
  -9   2  15  126.95   16.45
   9  -2  15  111.89   13.92
   9  -2  16    4.92    5.13
  -9   2  16    3.39    3.57
  -9   2  16    2.30    5.01
  -9  -2  17   85.18   11.99
   9  -2  17   82.17   12.72
  -9   2  17   96.97   15.10
  -9   2  17   76.46   11.29
  -9  -2  18    3.58    3.04
   9  -2  18   -2.83    3.14
  -9   2  18    4.91    4.26
  -9  -2  19    5.80    4.44
  -9   2  19   12.76    5.62
  -9  -2  20   -7.59    6.26
  -9   2  20    1.12    3.83
  -9   2  21    3.89    4.04
   9  -3   0   -1.77    3.53
  -9   3   1  245.78   18.87
   9  -3  -1  250.59   16.45
   9  -3   1  268.90   17.48
   9  -3  -2    3.77    3.37
  -9   3   2    0.76    3.92
   9  -3   2    1.86    2.49
  -9   3   3   60.41    9.72
   9  -3   3   63.78    8.93
   9  -3  -3   66.50    8.85
  -9   3   4   14.62    5.32
   9  -3   4   10.27    3.34
   9  -3  -4   15.19    4.54
   9  -3   5  238.00   17.43
  -9   3   5  228.16   19.03
   9  -3  -5  234.23   15.77
  -9   3   6   -4.92    5.76
   9  -3   6    2.30    4.00
   9  -3  -6    0.27    2.87
   9   3   7    6.43    3.36
  -9   3   7    0.02    5.58
   9  -3  -7    8.95    3.77
   9  -3   7    7.77    3.75
   9   3   8   12.02    4.12
  -9   3   8    4.82    4.83
   9  -3   8   10.21    5.00
   9  -3   9  328.98   21.71
  -9   3   9  292.59   22.61
   9   3   9  338.69   19.12
   9  -3  10   35.50    7.62
  -9   3  10   34.72    8.62
  -9   3  11   17.32    6.86
   9  -3  11    8.92    4.03
  -9   3  12    8.21    3.38
   9  -3  12   12.11    5.36
  -9   3  13   37.38    7.35
  -9   3  13   41.31    9.09
   9  -3  13   47.57    9.22
   9  -3  14    8.88    5.24
  -9   3  14   16.34    5.31
  -9   3  14   -0.84    4.43
  -9   3  15  164.69   15.24
   9  -3  15  139.64   15.97
  -9   3  15  147.04   17.84
  -9   3  16   11.10    6.01
   9  -3  16    4.86    5.06
  -9   3  16    8.18    5.14
   9  -3  17    0.58    4.19
  -9   3  17    1.79    3.22
   9  -3  18   18.98    7.67
  -9   3  18   26.36    7.50
  -9   3  19  123.88   15.02
  -9   3  20   56.87   10.55
  -9   3  21   28.19    8.04
   9  -4   0   -0.31    2.62
   9  -4  -1    7.39    3.41
   9  -4   1    7.10    3.40
   9  -4   2   28.38    6.41
   9  -4  -2   22.14    5.16
   9  -4   3    0.05    3.14
   9  -4  -3    1.35    2.96
   9  -4   4    2.31    2.64
   9  -4  -4   -1.08    3.67
  -9   4   5   20.37    6.06
   9  -4   5   35.16    6.80
   9  -4  -5   41.55    7.40
  -9   4   6   16.15    6.04
   9  -4   6   22.65    6.07
   9  -4  -6   26.25    6.09
  -9   4   7    2.69    4.89
   9  -4   7   21.87    6.52
   9  -4  -7   19.45    5.71
   9  -4   8  171.93   16.00
   9  -4  -8  169.84   14.18
  -9   4   8  138.73   15.61
  -9   4   9    4.68    4.19
   9  -4   9   12.16    4.23
  -9   4  10    5.55    4.33
   9  -4  10   12.05    4.61
  -9   4  11   -9.00    6.71
   9  -4  11   -1.34    4.43
  -9   4  12    8.30    6.36
   9  -4  12    4.71    3.22
  -9   4  13   -2.57    5.25
   9  -4  13   -5.73    5.02
  -9   4  14   10.24    5.11
   9  -4  14   15.57    5.77
  -9   4  15   -0.32    3.84
   9  -4  15    1.27    3.95
   9  -4  16   -0.35    3.96
   9  -4  17   -0.30    3.77
  -9   4  18   12.62    5.28
  -9   4  19   10.82    5.14
  -9   4  20   20.19    7.00
   9  -5   0    4.61    3.33
   9  -5  -1   -2.31    3.35
   9  -5   1   -0.16    2.73
   9  -5  -2  158.04   14.92
   9  -5   2  143.69   14.48
   9  -5   3   13.21    5.11
   9  -5  -3   14.82    5.01
   9  -5   4   -0.94    3.00
   9  -5  -4   -1.01    3.38
   9  -5   5    0.04    2.96
   9  -5  -5    6.93    3.71
   9  -5   6   69.71   10.25
   9  -5  -6   68.73    9.82
  -9   5   7   -5.14    6.43
   9  -5   7    2.39    3.05
   9  -5  -7    0.94    3.08
   9  -5   8  149.91   15.72
  -9   5   8  140.32   16.15
   9  -5  -8  158.11   14.58
  -9   5   9   16.90    7.11
   9  -5   9   18.45    6.96
   9  -5  10   97.92   13.31
  -9   5  10  111.83   14.66
  -9   5  11   25.67    6.54
   9  -5  11   29.03    7.91
   9  -5  12  138.74   15.98
  -9   5  12  131.17   16.30
  -9   5  13   46.53   10.41
   9  -5  13   47.15    9.83
  -9   5  14   48.72   10.99
   9  -5  14   34.40    8.25
   9  -5  15   31.88    9.08
   9  -5  16  214.09   20.97
   9  -6   0   -0.89    3.92
   9  -6  -1   16.40    5.48
   9  -6   1   18.44    6.10
   9  -6   2   11.36    4.87
   9  -6  -2   18.46    6.56
   9  -6   3   28.19    7.17
   9  -6  -3   24.80    6.71
   9  -6   4    3.59    3.82
   9  -6  -4    1.40    3.07
   9  -6   5   -5.24    5.21
   9  -6  -5    5.73    3.57
   9  -6   6    1.26    3.21
   9  -6  -6   -2.26    2.97
   9  -6   7   -2.54    3.70
   9  -6  -7    4.27    4.04
   9  -6   8   16.11    5.96
   9  -6  -8   24.69    6.55
  -9   6   9    2.77    5.57
   9  -6   9    6.49    3.66
  -9   6  10   -0.91    4.18
   9  -6  10   -6.12    5.59
  -9   6  11   -0.21    6.24
   9  -6  11   -0.96    4.09
  -9   6  12   -8.66    6.92
   9  -6  12   -3.73    3.89
  -9   6  13    1.30    6.10
   9  -6  13   10.13    5.84
   9  -6  14    3.02    4.48
   9  -7   0    4.97    4.01
   9  -7   1   18.05    5.70
   9  -7  -1   30.65    7.78
   9  -7   2   49.67    9.41
   9  -7  -2   52.40    9.69
   9  -7  -3  175.88   16.85
   9  -7   3  177.48   17.38
   9  -7   4   -8.38    4.60
   9  -7  -4    2.84    4.90
   9  -7  -5  130.90   14.64
   9  -7   5  125.31   15.36
   9  -7   6   29.39    8.23
   9  -7  -6   23.52    6.52
   9  -7   7   11.72    5.18
   9  -7  -7    7.00    4.27
   9  -7   8    5.43    5.40
   9  -7  -8   -0.02    2.88
   9  -7   9  136.28   16.46
   9  -7  10   43.08    9.40
  -9   7  11    4.37    4.30
   9  -7  11    3.88    3.81
   9  -7  12   38.24    9.88
   9  -8   0   -1.74    4.36
   9  -8   1    2.52    3.21
   9  -8  -1   11.54    5.93
   9  -8   2    4.94    5.20
   9  -8  -2    9.09    4.88
   9  -8   3   29.08    8.31
   9  -8  -3   14.50    6.63
   9  -8   4    3.32    3.75
   9  -8  -4    4.41    3.41
   9  -8   5   57.54   10.79
   9  -8  -5   41.34    8.72
   9  -8   6   16.54    6.67
   9  -8  -6   18.01    7.54
   9  -8   7    5.77    4.61
   9  -8  -7    5.31    3.89
   9  -8   8   11.46    6.05
   9  -8  -8   10.71    5.46
   9  -8   9   15.70    6.66
   9  -9   0   -2.44    4.44
   9  -9  -1   73.86   12.07
   9  -9   1   50.72   10.23
   9  -9   2   16.17    6.40
   9  -9  -2   20.59    6.83
   9  -9   3   15.46    6.04
   9  -9  -3   12.64    4.19
   9  -9   4    0.62    3.36
   9  -9  -4   -5.85    4.29
   9  -9   5   13.49    6.26
   9  -9  -5    9.60    5.76
   9  -9  -6  151.79   17.12
   9  -9   6  157.72   18.16
   9  -9  -7   23.26    7.61
   9  -9  -8   25.88    7.61
 -10   0   0  192.56   16.82
 -10   0  -1   11.06    5.95
 -10   0   1   10.49    7.12
 -10   0  -2   79.60   10.57
 -10   0   2   97.80   12.84
 -10   0  -3   -3.78    3.19
 -10   0   3   10.48    6.20
 -10   0   4   55.42    9.91
 -10   0  -4   47.18    8.06
 -10   0   5   -2.40    4.66
 -10   0  -5   -1.57    4.06
  10   0   5    4.87    3.18
 -10   0   6   10.59    6.25
 -10   0  -6    1.57    2.50
  10   0   6    4.03    2.64
 -10   0   7    5.03    6.46
  10   0   7   -0.87    3.02
  10   0   8   95.36   10.94
 -10   0   8   83.36   12.91
 -10   0   9    1.72    5.42
  10   0   9   -5.96    4.05
 -10   0  10   17.54    6.31
  10   0  10    6.51    3.90
  10   0  11    8.42    4.59
 -10   0  11   14.63    6.78
 -10   0  12   73.13   12.68
  10   0  12   73.36   10.86
  10   0  13   -1.05    3.20
  10   0  14   41.40    8.17
  10   0  15   -0.86    2.97
  10   0  16    6.08    3.84
  10   0  17   -1.44    4.01
 -10   1   0   11.47    4.83
 -10  -1   0    9.17    5.41
 -10   1   1   10.26    4.13
 -10  -1  -1   10.49    5.63
 -10  -1   1   21.29    6.98
 -10   1  -1    9.75    3.79
 -10  -1   2    5.14    5.12
 -10   1   2    1.38    2.95
  10  -1   2    4.14    3.12
 -10  -1  -2    6.25    5.13
 -10   1  -2    0.92    3.25
 -10   1   3   14.89    6.02
 -10  -1   3   36.79    8.77
  10  -1   3   20.96    4.98
 -10  -1  -3   31.72    7.22
 -10   1  -3   27.28    6.71
 -10  -1   4  139.44   15.77
 -10   1  -4  131.68   13.33
 -10   1   4  136.85   15.17
  10  -1   4  122.83   11.81
 -10  -1  -4  144.24   13.79
 -10   1   5   23.58    7.34
  10  -1   5   25.98    6.05
 -10  -1  -5   42.48    7.88
 -10   1  -5   33.00    7.36
 -10  -1   5   44.26    9.93
 -10  -1   6   42.53    9.93
  10  -1   6   36.25    7.08
 -10   1   6   41.35    9.20
 -10   1  -6   39.27    7.16
  10  -1   7   81.72   10.42
 -10   1  -7   76.55    9.82
 -10   1   7   88.62   12.94
 -10  -1   7   88.18   13.34
 -10  -1   8  128.43   15.80
  10  -1   8  122.50   12.89
 -10   1   8  136.93   16.08
  10   1   9   24.11    5.91
 -10   1   9   23.63    8.44
  10  -1   9   23.13    6.03
  10   1  10   67.45    9.52
 -10   1  10   62.50   11.63
  10  -1  10   61.81    9.77
  10  -1  11  124.99   13.79
  10   1  11  134.54   13.70
 -10   1  11  129.84   16.49
  10  -1  12   11.99    4.85
  10   1  12    3.63    3.75
  10  -1  13   22.26    6.58
  10   1  13   16.78    5.72
 -10   1  13   28.76    9.29
  10  -1  14   22.46    6.76
  10   1  14   32.56    7.79
  10  -1  15   20.28    6.22
  10   1  15   33.56    8.10
  10  -1  16   10.39    5.40
  10   1  16    7.58    4.30
  10  -1  17    3.11    3.37
  10   1  17    8.45    5.03
  10   1  18   71.24   11.95
 -10  -1  19    1.16    5.15
  10  -2   0    0.80    2.23
 -10   2   0   -4.34    5.07
  10  -2   1   -0.93    2.35
 -10   2  -1   -6.17    5.52
 -10   2   1  -11.19    5.38
  10  -2   2    3.93    2.49
 -10   2  -2    0.15    4.49
 -10   2   2   -3.38    4.85
  10  -2   3    2.36    2.29
 -10   2  -3   -5.25    4.70
 -10   2   3    0.24    4.41
 -10   2  -4   48.54    8.43
  10  -2   4   68.30    9.46
 -10   2   4   55.57    9.90
 -10   2  -5    1.33    3.24
  10  -2   5    3.31    3.12
 -10   2   5    7.38    5.03
 -10   2  -6    8.41    3.39
  10  -2   6    1.20    2.66
 -10   2   7    2.30    3.60
 -10   2  -7    6.03    3.87
  10  -2   7   14.58    5.10
 -10   2  -8   40.65    7.44
 -10   2   8   46.63    9.59
  10  -2   8   42.61    8.28
 -10   2   9   -4.18    4.93
  10  -2   9   -3.32    3.88
 -10   2  10   54.88   10.92
  10  -2  10   69.07   10.47
 -10   2  11   45.25   10.14
  10  -2  11   37.08    8.06
 -10   2  12   18.69    7.36
  10  -2  12   12.57    5.11
 -10   2  13   10.34    6.53
  10   2  13    4.36    3.19
  10  -2  13   13.84    5.89
  10  -2  14   16.73    5.91
  10   2  14   26.20    7.18
  10  -2  15    4.79    4.00
  10   2  15   -0.53    2.87
  10  -2  16    6.05    4.78
  10   2  16    2.22    3.50
  10   2  17   14.72    5.69
  10  -3   0    4.99    2.98
 -10   3   0   -4.16    5.14
  10  -3  -1    3.04    2.07
  10  -3   1    4.61    3.57
 -10   3  -1   -0.69    3.95
 -10   3   1   -1.02    4.69
 -10   3  -2    2.03    3.06
  10  -3   2    2.50    3.47
 -10   3   2   -0.16    4.59
  10  -3  -2    6.42    3.79
 -10   3  -3  167.52   16.07
 -10   3   3  160.70   16.74
  10  -3  -3  155.43   13.51
  10  -3   3  175.66   15.21
  10  -3   4    8.98    4.55
 -10   3  -4   11.02    5.24
 -10   3   4    9.24    4.08
  10  -3   5   49.38    8.59
 -10   3   5   57.01   10.79
  10  -3   6   24.85    6.75
 -10   3   6   28.88    8.10
  10  -3   7  347.07   22.48
 -10   3   7  353.96   25.91
  10  -3   8   43.34    8.94
 -10   3   8   43.62    9.64
 -10   3   9    9.76    6.02
  10  -3   9   19.84    5.94
 -10   3  10   -3.04    6.67
  10  -3  10   -0.51    2.75
 -10   3  11   47.02   10.20
  10  -3  11   39.46    8.34
 -10   3  12    6.38    5.88
  10  -3  12   -1.54    4.11
  10  -3  13   53.96    9.90
  10  -3  14    0.52    4.20
  10  -3  15   59.39   10.83
  10  -4   0   20.40    5.69
  10  -4  -1   62.10    9.16
  10  -4   1   45.65    8.13
 -10   4   1   43.39    9.06
 -10   4   2   -5.88    4.77
  10  -4   2   -0.34    2.71
  10  -4  -2    6.01    3.89
 -10   4   3   -5.41    5.02
  10  -4   3   -1.75    3.65
  10  -4  -3    4.08    3.50
 -10   4   4   -2.29    5.41
  10  -4   4    2.87    2.87
  10  -4  -4    8.92    4.09
  10  -4   5    7.53    4.30
  10  -4  -5    0.02    2.63
 -10   4   6    0.64    6.40
  10  -4   6   -0.93    3.72
 -10   4   7   85.17   12.96
  10  -4   7  102.75   12.78
  10  -4   8    1.78    3.14
 -10   4   8   -7.61    6.21
  10  -4   9    9.72    5.12
 -10   4   9    0.05    6.07
  10  -4  10   -1.91    4.04
 -10   4  10   -7.58    6.58
  10  -4  11   -0.14    2.93
 -10   4  11   -8.52    5.89
  10  -4  12   16.27    6.08
  10  -4  13   59.43   11.34
  10  -4  14    1.09    3.92
  10  -5   0   93.30   11.95
  10  -5  -1  100.46   12.09
  10  -5   1   82.88   11.55
  10  -5   2   19.06    5.64
  10  -5  -2   12.53    4.94
  10  -5   3   21.77    6.25
  10  -5  -3   17.61    5.39
 -10   5   4  109.30   14.45
  10  -5  -4  110.22   12.54
  10  -5   4  100.73   12.91
 -10   5   5   -0.24    4.81
  10  -5   5    9.47    4.14
  10  -5  -5    5.38    4.06
 -10   5   6   -3.24    5.91
  10  -5   6    6.23    3.86
  10  -5  -6    0.18    2.66
 -10   5   7   -3.60    4.95
  10  -5   7    7.38    4.69
  10  -5  -7   -3.25    3.17
 -10   5   8   46.96    9.80
  10  -5   8   40.81    8.70
 -10   5   9   25.70    7.90
  10  -5   9   35.77    8.32
  10  -5  10  146.40   16.59
  10  -5  11   23.04    7.72
  10  -5  12    3.69    4.62
  10  -5  13   -5.18    4.73
  10  -6   0  121.78   14.46
  10  -6   1    7.73    4.21
  10  -6  -1    7.56    4.74
  10  -6   2   10.81    5.76
  10  -6  -2    4.58    3.63
  10  -6   3    4.39    3.83
  10  -6  -3    3.33    3.34
  10  -6   4   56.04   10.26
  10  -6  -4   51.06    9.21
  10  -6   5   15.21    6.07
  10  -6  -5    5.51    3.80
  10  -6   6    3.17    3.30
  10  -6  -6    5.45    3.63
  10  -6   7    1.80    3.65
 -10   6   7   -0.51    3.97
  10  -6  -7    2.49    3.58
  10  -6   8   12.04    5.64
  10  -6  -8   18.63    6.02
  10  -6   9    9.19    4.56
  10  -6  10  137.31   16.41
  10  -6  11    3.04    4.60
  10  -7   0   29.75    8.31
  10  -7  -1  125.90   15.28
  10  -7   1  151.22   16.90
  10  -7   2   19.82    6.61
  10  -7  -2   30.84    8.32
  10  -7   3   74.40   12.10
  10  -7  -3   65.55   11.26
  10  -7   4   16.84    5.81
  10  -7  -4   14.30    5.82
  10  -7   5   -3.03    4.01
  10  -7  -5   -5.18    4.82
  10  -7   6    2.60    3.34
  10  -7  -6    8.35    4.68
  10  -7   7   46.52    9.74
  10  -7  -7   44.20    9.01
  10  -7   8   -6.35    5.56
  10  -7  -8    1.99    4.52
  10  -8   0   38.35    9.14
  10  -8  -1   10.01    5.86
  10  -8   1   13.41    6.03
  10  -8   2    7.53    3.41
  10  -8  -2    4.31    3.37
  10  -8   3   -0.57    3.23
  10  -8  -3    4.67    4.66
  10  -8   4   -0.82    3.65
  10  -8  -4   -1.90    3.71
  10  -8  -5    4.11    4.24
  10  -8  -6    7.32    4.86
  10  -8  -7   98.04   13.93
  10  -8  -8   13.50    6.44
 -11   0   0    7.24    5.07
 -11   0  -1    9.51    5.66
 -11   0   1   16.86    7.86
 -11   0  -2  129.85   14.79
 -11   0   2  127.68   15.18
 -11   0  -3    6.46    5.69
 -11   0   3   16.15    6.96
 -11   0   4   39.92    9.36
 -11   0   5    2.52    4.54
 -11   0   6   38.61    9.78
 -11   0   7    4.67    5.75
 -11   0   8   27.08    9.83
 -11   0   9   28.15   10.00
 -11  -1   0    8.14    6.19
 -11   1   0   -5.07    4.02
 -11  -1   1    2.71    5.52
 -11   1  -1   -3.30    3.99
 -11   1   1   -3.84    4.21
 -11  -1  -1   10.94    5.35
 -11   1  -2   16.59    6.71
 -11  -1   2   25.67    8.02
 -11   1   2   14.60    6.41
 -11  -1  -2   24.95    6.93
 -11   1  -3    0.23    3.12
 -11   1   3    6.42    4.62
 -11   1  -4   10.91    4.53
 -11  -1   4   13.78    6.75
 -11   1   4    5.08    5.27
 -11  -1   5   10.83    6.37
 -11   1   5    1.71    3.43
 -11   1   6   44.78   10.18
 -11   1   7    8.15    5.75
 -11   1   8   11.29    6.89
  11  -1  13   33.61    8.22
  11  -1  14   21.52    6.96
  11  -1  15   -1.31    3.52
 -11   2   0   -3.15    4.44
 -11   2  -1   42.83    8.73
 -11   2   1   38.81    8.65
 -11   2   2   84.98   13.03
 -11   2  -2   96.82   13.33
 -11   2   3   -5.73    4.99
 -11   2  -3   -5.00    5.37
 -11   2   4   34.05    8.51
 -11   2  -4   19.52    6.21
 -11   2   5   24.94    7.81
 -11   2  -5   25.67    6.95
 -11   2   6    0.47    3.31
 -11   2   7    7.30    5.00
 -11   2   8   20.16    7.29
  11  -2   9   37.76    8.42
  11  -2  10   41.89    8.60
  11  -2  11   67.79   11.07
  11  -2  12    4.81    3.73
  11  -2  13   29.90    7.79
  11  -2  14   -4.40    4.83
 -11   3   0   -6.22    5.46
 -11   3  -1    2.51    4.41
 -11   3   1   -0.98    5.18
 -11   3  -2    2.19    3.25
 -11   3   2   -2.27    3.41
 -11   3  -3   -6.47    5.11
 -11   3   3    4.70    4.34
 -11   3  -4   -1.12    4.66
 -11   3   4   -4.72    4.58
  11  -3   5   53.99    9.12
 -11   3  -5   41.79    8.37
 -11   3   5   38.68    9.54
 -11   3   6    9.70    5.48
 -11   3  -6    4.17    3.26
  11  -3   6   15.31    5.47
 -11   3   7    5.23    3.96
  11  -3   7   -3.42    3.40
  11  -3   8   -1.91    3.38
  11  -3   9    0.97    2.90
  11  -3  10   15.39    6.04
  11  -3  11   -4.40    4.62
  11  -3  12   -2.74    4.34
  11  -3  13   43.03    9.54
 -11   4   0    2.48    3.98
 -11   4  -1  100.37   13.86
 -11   4   1   76.32   12.14
 -11   4  -2    4.16    3.67
 -11   4   2   16.17    6.30
  11  -4   3    4.47    2.68
 -11   4  -3    5.66    4.58
  11  -4   4    2.40    2.65
 -11   4  -4    5.29    3.14
 -11   4   4    1.35    5.56
  11  -4   5   -2.16    3.88
 -11   4  -5   -4.25    3.82
 -11   4   5   -3.40    4.89
  11  -4   6    0.49    2.98
  11  -4   7    4.33    3.04
  11  -4   8   16.39    5.35
  11  -4   9   15.11    5.82
  11  -4  10   84.19   12.83
  11  -4  11   -0.02    3.00
 -11   5   0    6.65    4.90
  11  -5   0   -1.68    3.30
  11  -5   1   40.40    8.85
 -11   5   1   50.50   10.82
 -11   5   2  114.31   15.57
  11  -5   2  108.89   13.46
  11  -5   3    2.03    2.91
  11  -5   4   17.62    5.71
  11  -5   5    4.69    4.45
  11  -5   6   38.66    8.84
  11  -5   7   -2.86    4.39
  11  -5   8    1.89    3.32
  11  -5   9    2.10    3.24
  11  -6   0    1.61    3.35
  11  -6   1   57.02   10.46
  11  -6  -1   51.14    9.93
  11  -6  -2  108.67   13.67
  11  -6   2  107.84   14.39
  11  -6   3    9.53    4.99
  11  -6   4   12.77    6.13
  11  -6   5   -1.94    4.13
  11  -6   6   23.22    7.41
  11  -6   7    2.45    4.41
  11  -7   0    5.06    5.26
  11  -7  -1   54.26   10.41
  11  -7   1   44.18    9.65
  11  -7   2   30.25    8.02
  11  -7  -2   36.75    8.67
  11  -7   3    0.44    3.77
  11  -7  -3   13.46    5.59
 -12   0   0   17.92    6.62
 -12   0   1   -2.15    3.75
 -12   0   2   11.75    6.81
 -12   0   3    7.67    6.32
 -12   1   0    3.26    4.96
 -12   1   1   24.65    7.81
 -12   1  -1   16.18    6.22
 -12   1   2    3.75    4.31
 -12   1   3    4.27    4.56
 -12   2   0   -0.80    3.27
 -12   2  -1    0.29    3.51
 -12   2   1    8.23    5.41
 -12   2  -2    0.18    3.98
 -12   3  -1    5.95    5.17
 -12   3  -2   16.99    6.46
 -12   3  -3   -2.17    3.92
   0   0   0    0.00    0.00
  
TITL smz_f2_230 in Pbca
REM Pbca (#61 in standard setting)
CELL 0.71073   9.107372  11.619345  22.845585  90.0000  90.0000  90.0000
ZERR    6.00   0.000324   0.000549   0.000877   0.0000   0.0000   0.0000
LATT  1
SYMM -x+1/2,-y, z+1/2
SYMM -x, y+1/2,-z+1/2
SYMM  x+1/2,-y+1/2,-z
SFAC C H N O S
UNIT 90.00 90.00 24.00 12.00 6.00
TREF
HKLF 4
END
_computing_structure_solution     'SHELXT 2014/5 (Sheldrick, 2014)'
;
_shelx_hkl_checksum              68460
loop_
_space_group_symop_operation_xyz
'x, y, z'
'-x+1/2, -y, z+1/2'
'-x, y+1/2, -z+1/2'
'x+1/2, -y+1/2, -z'
'-x, -y, -z'
'x-1/2, y, -z-1/2'
'x, -y-1/2, z-1/2'
'-x-1/2, y-1/2, z'
loop_
_atom_site_label
_atom_site_type_symbol
_atom_site_fract_x
_atom_site_fract_y
_atom_site_fract_z
_atom_site_U_iso_or_equiv
_atom_site_adp_type
_atom_site_occupancy
_atom_site_site_symmetry_order
_atom_site_calc_flag
_atom_site_refinement_flags_posn
_atom_site_refinement_flags_adp
_atom_site_refinement_flags_occupancy
_atom_site_disorder_assembly
_atom_site_disorder_group
S1 S 0.66764(5) 0.34635(4) 0.38969(2) 0.02799(15) Uani 1 1 d . . . . .
O1 O 0.80253(14) 0.39718(13) 0.40966(6) 0.0348(4) Uani 1 1 d . . . . .
O2 O 0.65789(17) 0.22400(12) 0.38633(7) 0.0380(4) Uani 1 1 d . . . . .
N1 N 0.5443(2) 0.5327(2) 0.15495(9) 0.0454(5) Uani 1 1 d D . . . .
N2 N 0.54881(18) 0.39490(15) 0.43742(8) 0.0303(4) Uani 1 1 d D . . . .
N3 N 0.33381(17) 0.42621(15) 0.48533(7) 0.0310(4) Uani 1 1 d . . . . .
N4 N 0.34448(18) 0.28554(14) 0.40902(8) 0.0325(4) Uani 1 1 d . . . . .
C1 C 0.6245(2) 0.40399(17) 0.32166(9) 0.0287(4) Uani 1 1 d . . . . .
C2 C 0.6678(2) 0.51514(18) 0.30789(9) 0.0317(5) Uani 1 1 d . . . . .
H2 H 0.7151 0.5602 0.3358 0.041 Uiso 1 1 calc R U . . .
C3 C 0.6406(2) 0.55881(18) 0.25285(10) 0.0350(5) Uani 1 1 d . . . . .
H3 H 0.6712 0.6330 0.2437 0.045 Uiso 1 1 calc R U . . .
C4 C 0.5673(2) 0.49300(18) 0.21035(9) 0.0335(5) Uani 1 1 d . . . . .
C5 C 0.5223(3) 0.38173(19) 0.22582(10) 0.0409(5) Uani 1 1 d . . . . .
H5 H 0.4719 0.3369 0.1987 0.053 Uiso 1 1 calc R U . . .
C6 C 0.5515(2) 0.3379(2) 0.28045(10) 0.0383(5) Uani 1 1 d . . . . .
H6 H 0.5222 0.2635 0.2898 0.050 Uiso 1 1 calc R U . . .
C7 C 0.4017(2) 0.36620(17) 0.44328(8) 0.0275(4) Uani 1 1 d . . . . .
C8 C 0.1918(2) 0.4009(2) 0.49278(10) 0.0367(5) Uani 1 1 d . . . . .
H8 H 0.1391 0.4405 0.5212 0.048 Uiso 1 1 calc R U . . .
C9 C 0.1211(2) 0.3194(2) 0.46034(10) 0.0388(5) Uani 1 1 d . . . . .
H9 H 0.0222 0.3033 0.4664 0.050 Uiso 1 1 calc R U . . .
C10 C 0.2007(2) 0.26164(19) 0.41823(10) 0.0347(5) Uani 1 1 d . . . . .
C11 C 0.1337(3) 0.1692(2) 0.38158(12) 0.0515(7) Uani 1 1 d . . . . .
H11A H 0.1482 0.1869 0.3409 0.067 Uiso 1 1 calc R U . . .
H11B H 0.0305 0.1645 0.3897 0.067 Uiso 1 1 calc R U . . .
H11C H 0.1794 0.0969 0.3905 0.067 Uiso 1 1 calc R U . . .
H1N1 H 0.552(3) 0.6055(16) 0.1466(12) 0.064(9) Uiso 1 1 d D . . . .
H2N1 H 0.482(2) 0.493(2) 0.1339(11) 0.056(8) Uiso 1 1 d D . . . .
H1N2 H 0.584(3) 0.4471(17) 0.4603(10) 0.044(7) Uiso 1 1 d D . . . .
loop_
_atom_site_aniso_label
_atom_site_aniso_U_11
_atom_site_aniso_U_22
_atom_site_aniso_U_33
_atom_site_aniso_U_23
_atom_site_aniso_U_13
_atom_site_aniso_U_12
S1 0.0284(3) 0.0304(3) 0.0252(2) -0.0024(2) 0.00037(18) 0.0036(2)
O1 0.0259(7) 0.0484(9) 0.0300(8) -0.0020(7) 0.0000(6) 0.0029(7)
O2 0.0497(9) 0.0281(8) 0.0363(8) -0.0021(6) 0.0005(7) 0.0069(7)
N1 0.0600(13) 0.0407(12) 0.0354(11) 0.0047(9) -0.0150(9) -0.0027(11)
N2 0.0274(8) 0.0340(10) 0.0296(9) -0.0100(8) 0.0029(7) -0.0035(8)
N3 0.0279(8) 0.0365(10) 0.0286(9) -0.0027(8) 0.0026(7) -0.0017(8)
N4 0.0335(9) 0.0327(10) 0.0312(9) -0.0014(7) -0.0035(7) -0.0045(8)
C1 0.0302(9) 0.0295(10) 0.0264(10) -0.0007(8) -0.0004(8) 0.0012(9)
C2 0.0347(10) 0.0289(11) 0.0315(10) -0.0063(9) -0.0065(8) 0.0013(9)
C3 0.0424(11) 0.0253(11) 0.0373(11) 0.0014(9) -0.0053(9) -0.0006(9)
C4 0.0361(10) 0.0339(11) 0.0304(11) -0.0003(9) -0.0062(9) 0.0054(9)
C5 0.0507(13) 0.0369(12) 0.0350(12) -0.0027(10) -0.0145(10) -0.0076(11)
C6 0.0468(12) 0.0324(12) 0.0356(12) 0.0008(10) -0.0066(10) -0.0087(10)
C7 0.0281(9) 0.0296(11) 0.0247(9) 0.0034(8) 0.0007(8) -0.0005(9)
C8 0.0299(10) 0.0474(14) 0.0327(11) 0.0026(10) 0.0044(8) -0.0006(10)
C9 0.0281(10) 0.0494(14) 0.0389(12) 0.0091(11) -0.0016(9) -0.0076(10)
C10 0.0352(10) 0.0342(11) 0.0347(11) 0.0084(10) -0.0097(9) -0.0079(10)
C11 0.0475(13) 0.0497(15) 0.0572(16) -0.0044(13) -0.0115(12) -0.0140(12)
loop_
_atom_type_symbol
_atom_type_description
_atom_type_scat_dispersion_real
_atom_type_scat_dispersion_imag
_atom_type_scat_source
C C 0.0033 0.0016 'International Tables Vol C Tables 4.2.6.8 and 6.1.1.4'
H H 0.0000 0.0000 'International Tables Vol C Tables 4.2.6.8 and 6.1.1.4'
N N 0.0061 0.0033 'International Tables Vol C Tables 4.2.6.8 and 6.1.1.4'
O O 0.0106 0.0060 'International Tables Vol C Tables 4.2.6.8 and 6.1.1.4'
S S 0.1246 0.1234 'International Tables Vol C Tables 4.2.6.8 and 6.1.1.4'
loop_
_geom_angle_atom_site_label_1
_geom_angle_atom_site_label_2
_geom_angle_atom_site_label_3
_geom_angle
_geom_angle_site_symmetry_1
_geom_angle_site_symmetry_3
O2 S1 O1 118.67(9) . .
O2 S1 N2 109.77(9) . .
O1 S1 N2 102.25(9) . .
O2 S1 C1 108.78(9) . .
O1 S1 C1 108.59(9) . .
N2 S1 C1 108.27(9) . .
C4 N1 H1N1 121.3(19) . .
C4 N1 H2N1 115.4(18) . .
H1N1 N1 H2N1 116(3) . .
C7 N2 S1 128.33(14) . .
C7 N2 H1N2 118.1(16) . .
S1 N2 H1N2 113.5(17) . .
C8 N3 C7 115.06(18) . .
C7 N4 C10 115.62(18) . .
C6 C1 C2 119.92(19) . .
C6 C1 S1 120.19(16) . .
C2 C1 S1 119.85(15) . .
C3 C2 C1 119.92(19) . .
C3 C2 H2 120.0 . .
C1 C2 H2 120.0 . .
C2 C3 C4 121.05(19) . .
C2 C3 H3 119.5 . .
C4 C3 H3 119.5 . .
N1 C4 C5 120.1(2) . .
N1 C4 C3 122.1(2) . .
C5 C4 C3 117.83(19) . .
C6 C5 C4 120.9(2) . .
C6 C5 H5 119.5 . .
C4 C5 H5 119.5 . .
C5 C6 C1 120.3(2) . .
C5 C6 H6 119.8 . .
C1 C6 H6 119.8 . .
N4 C7 N3 127.57(18) . .
N4 C7 N2 119.46(18) . .
N3 C7 N2 112.96(17) . .
N3 C8 C9 122.7(2) . .
N3 C8 H8 118.7 . .
C9 C8 H8 118.7 . .
C8 C9 C10 117.9(2) . .
C8 C9 H9 121.0 . .
C10 C9 H9 121.0 . .
N4 C10 C9 121.1(2) . .
N4 C10 C11 117.1(2) . .
C9 C10 C11 121.8(2) . .
C10 C11 H11A 109.5 . .
C10 C11 H11B 109.5 . .
H11A C11 H11B 109.5 . .
C10 C11 H11C 109.5 . .
H11A C11 H11C 109.5 . .
H11B C11 H11C 109.5 . .
loop_
_geom_bond_atom_site_label_1
_geom_bond_atom_site_label_2
_geom_bond_distance
_geom_bond_site_symmetry_2
S1 O2 1.4265(15) .
S1 O1 1.4374(14) .
S1 N2 1.6366(17) .
S1 C1 1.737(2) .
N1 C4 1.363(3) .
N1 H1N1 0.870(17) .
N1 H2N1 0.875(17) .
N2 C7 1.387(2) .
N2 H1N2 0.863(16) .
N3 C8 1.337(2) .
N3 C7 1.338(2) .
N4 C7 1.327(2) .
N4 C10 1.355(3) .
C1 C6 1.385(3) .
C1 C2 1.386(3) .
C2 C3 1.378(3) .
C2 H2 0.9300 .
C3 C4 1.404(3) .
C3 H3 0.9300 .
C4 C5 1.402(3) .
C5 C6 1.374(3) .
C5 H5 0.9300 .
C6 H6 0.9300 .
C8 C9 1.364(3) .
C8 H8 0.9300 .
C9 C10 1.379(3) .
C9 H9 0.9300 .
C10 C11 1.492(3) .
C11 H11A 0.9600 .
C11 H11B 0.9600 .
C11 H11C 0.9600 .
loop_
_geom_torsion_atom_site_label_1
_geom_torsion_atom_site_label_2
_geom_torsion_atom_site_label_3
_geom_torsion_atom_site_label_4
_geom_torsion
_geom_torsion_site_symmetry_1
_geom_torsion_site_symmetry_2
_geom_torsion_site_symmetry_3
_geom_torsion_site_symmetry_4
O2 S1 N2 C7 -46.9(2) . . . .
O1 S1 N2 C7 -173.78(18) . . . .
C1 S1 N2 C7 71.7(2) . . . .
O2 S1 C1 C6 17.3(2) . . . .
O1 S1 C1 C6 147.81(17) . . . .
N2 S1 C1 C6 -101.90(18) . . . .
O2 S1 C1 C2 -160.40(16) . . . .
O1 S1 C1 C2 -29.92(19) . . . .
N2 S1 C1 C2 80.36(18) . . . .
C6 C1 C2 C3 -1.2(3) . . . .
S1 C1 C2 C3 176.52(16) . . . .
C1 C2 C3 C4 0.9(3) . . . .
C2 C3 C4 N1 -177.4(2) . . . .
C2 C3 C4 C5 0.3(3) . . . .
N1 C4 C5 C6 176.5(2) . . . .
C3 C4 C5 C6 -1.2(3) . . . .
C4 C5 C6 C1 1.0(4) . . . .
C2 C1 C6 C5 0.3(3) . . . .
S1 C1 C6 C5 -177.47(18) . . . .
C10 N4 C7 N3 -0.2(3) . . . .
C10 N4 C7 N2 179.05(18) . . . .
C8 N3 C7 N4 -0.3(3) . . . .
C8 N3 C7 N2 -179.63(18) . . . .
S1 N2 C7 N4 3.6(3) . . . .
S1 N2 C7 N3 -176.96(15) . . . .
C7 N3 C8 C9 0.5(3) . . . .
N3 C8 C9 C10 -0.1(3) . . . .
C7 N4 C10 C9 0.6(3) . . . .
C7 N4 C10 C11 -178.44(19) . . . .
C8 C9 C10 N4 -0.4(3) . . . .
C8 C9 C10 C11 178.6(2) . . . .
