#------------------------------------------------------------------------------
#$Date: 2017-11-07 03:21:18 +0200 (Tue, 07 Nov 2017) $
#$Revision: 202825 $
#$URL: file:///home/coder/svn-repositories/cod/cif/1/54/75/1547527.cif $
#------------------------------------------------------------------------------
#
# This file is available in the Crystallography Open Database (COD),
# http://www.crystallography.net/
#
# All data on this site have been placed in the public domain by the
# contributors.
#
data_1547527
loop_
_publ_author_name
'Li, Hanyuan'
'Luo, Jiesi'
'Li, Bojuan'
'Yi, Xizhen'
'He, Zhengjie'
_publ_section_title
;
 Enantioselective [4 + 1]-Annulation of \a,\b-Unsaturated Imines with
 Allylic Carbonates Catalyzed by a Hybrid P-Chiral Phosphine
 Oxide-Phosphine.
;
_journal_issue                   20
_journal_name_full               'Organic letters'
_journal_page_first              5637
_journal_page_last               5640
_journal_paper_doi               10.1021/acs.orglett.7b02800
_journal_volume                  19
_journal_year                    2017
_chemical_absolute_configuration ad
_chemical_formula_moiety         'C31 H30 Br F N2 O8 S'
_chemical_formula_sum            'C31 H30 Br F N2 O8 S'
_chemical_formula_weight         689.54
_space_group_crystal_system      monoclinic
_space_group_IT_number           4
_space_group_name_Hall           'P 2yb'
_space_group_name_H-M_alt        'P 1 21 1'
_symmetry_space_group_name_Hall  'P 2yb'
_symmetry_space_group_name_H-M   'P 1 21 1'
_atom_sites_solution_hydrogens   geom
_atom_sites_solution_primary     direct
_atom_sites_solution_secondary   difmap
_audit_creation_method           SHELXL-2014/7
_cell_angle_alpha                90
_cell_angle_beta                 99.751(4)
_cell_angle_gamma                90
_cell_formula_units_Z            2
_cell_length_a                   13.794(2)
_cell_length_b                   7.4068(13)
_cell_length_c                   15.014(2)
_cell_measurement_reflns_used    5227
_cell_measurement_temperature    113(2)
_cell_measurement_theta_max      27.50
_cell_measurement_theta_min      3.10
_cell_volume                     1511.8(4)
_computing_cell_refinement       'CrystalClear-SM Expert 2.1 b42'
_computing_data_collection
'CrystalClear-SM Expert 2.1 b42 (Rigaku, 2015)'
_computing_data_reduction        'CrystalClear-SM Expert 2.1 b42'
_computing_molecular_graphics    'CrystalStructure 4.1'
_computing_publication_material  'CrystalStructure 4.1 (Rigaku, 2014)'
_computing_structure_refinement  'SHELXL-2014/7 (Sheldrick, 2014)'
_computing_structure_solution    'SIR2011 (Burla, et al., 2012)'
_diffrn_ambient_temperature      113(2)
_diffrn_detector_area_resol_mean 5.814
_diffrn_measured_fraction_theta_full 0.997
_diffrn_measured_fraction_theta_max 0.996
_diffrn_measurement_device_type  'Rigaku XtaLAB P200'
_diffrn_measurement_method       \w
_diffrn_radiation_type           MoK\a
_diffrn_radiation_wavelength     0.71075
_diffrn_reflns_av_R_equivalents  0.0227
_diffrn_reflns_av_unetI/netI     0.0473
_diffrn_reflns_Laue_measured_fraction_full 0.997
_diffrn_reflns_Laue_measured_fraction_max 0.996
_diffrn_reflns_limit_h_max       17
_diffrn_reflns_limit_h_min       -17
_diffrn_reflns_limit_k_max       9
_diffrn_reflns_limit_k_min       -9
_diffrn_reflns_limit_l_max       19
_diffrn_reflns_limit_l_min       -19
_diffrn_reflns_number            19629
_diffrn_reflns_point_group_measured_fraction_full 0.977
_diffrn_reflns_point_group_measured_fraction_max 0.962
_diffrn_reflns_theta_full        25.242
_diffrn_reflns_theta_max         27.524
_diffrn_reflns_theta_min         3.076
_exptl_absorpt_coefficient_mu    1.489
_exptl_absorpt_correction_T_max  0.836
_exptl_absorpt_correction_T_min  0.724
_exptl_absorpt_correction_type   multi-scan
_exptl_absorpt_process_details   'REQAB (Rigaku, 1998)'
_exptl_crystal_colour            colorless
_exptl_crystal_density_diffrn    1.515
_exptl_crystal_density_method    'not measured'
_exptl_crystal_description       prism
_exptl_crystal_F_000             708
_exptl_crystal_size_max          0.240
_exptl_crystal_size_mid          0.200
_exptl_crystal_size_min          0.120
_refine_diff_density_max         0.306
_refine_diff_density_min         -0.327
_refine_diff_density_rms         0.040
_refine_ls_abs_structure_details
; 
 Flack x determined using 2250 quotients [(I+)-(I-)]/[(I+)+(I-)] 
 (Parsons, Flack and Wagner, Acta Cryst. B69 (2013) 249-259). 
;
_refine_ls_abs_structure_Flack   -0.001(2)
_refine_ls_extinction_method     none
_refine_ls_goodness_of_fit_ref   0.873
_refine_ls_hydrogen_treatment    constr
_refine_ls_matrix_type           full
_refine_ls_number_parameters     400
_refine_ls_number_reflns         6698
_refine_ls_number_restraints     1
_refine_ls_restrained_S_all      0.873
_refine_ls_R_factor_all          0.0259
_refine_ls_R_factor_gt           0.0215
_refine_ls_shift/su_max          0.001
_refine_ls_shift/su_mean         0.000
_refine_ls_structure_factor_coef Fsqd
_refine_ls_weighting_details
'w=1/[\s^2^(Fo^2^)+(0.0113P)^2^] where P=(Fo^2^+2Fc^2^)/3'
_refine_ls_weighting_scheme      calc
_refine_ls_wR_factor_gt          0.0407
_refine_ls_wR_factor_ref         0.0411
_reflns_Friedel_coverage         0.791
_reflns_Friedel_fraction_full    0.952
_reflns_Friedel_fraction_max     0.921
_reflns_number_gt                5806
_reflns_number_total             6698
_reflns_threshold_expression     'I > 2\s(I)'
_cod_data_source_file            ol7b02800_si_003.cif
_cod_data_source_block           shelxl
_cod_depositor_comments
'Adding full bibliography for 1547527--1547529.cif.'
_cod_database_code               1547527
_shelx_shelxl_version_number     2014/7
_shelx_space_group_comment
; 
The symmetry employed for this shelxl refinement is uniquely defined 
by the following loop, which should always be used as a source of 
symmetry information in preference to the above space-group names. 
They are only intended as comments. 
;
_shelx_estimated_absorpt_t_min   0.716
_shelx_estimated_absorpt_t_max   0.842
_shelx_res_file
; 
  
    shelxl.res created by SHELXL-2014/7 
  
TITL m20150602h 
CELL  0.71075 13.79400 7.40680 15.01400 90.00000 99.75100 90.00000 
ZERR  2 0.00200 0.00130 0.00200 0.00000 0.00400 0.00000 
LATT -1 
SYMM    -X, .50+Y,    -Z 
SFAC C H N O F S BR 
UNIT 62 60 4 16 2 2 2 
L.S. 5 
FMAP 2 
PLAN -5 
WPDB -2 
HTAB 
BOND $H 
CONF 
LIST 4 
TEMP -160.0 
ACTA 
SIZE 0.240 0.200 0.120 
WGHT    0.011300 
FVAR       0.60896 
BR1   7    0.869571    0.075449    0.098213    11.00000    0.01651    0.03603 = 
         0.04886   -0.00844    0.01350   -0.00332 
S1    6    0.394310    0.417143    0.174658    11.00000    0.01941    0.01210 = 
         0.01940   -0.00046    0.00442   -0.00206 
F1    5    0.134402    0.006772    0.487000    11.00000    0.03449    0.05883 = 
         0.02173    0.00696    0.01432    0.00605 
O1    4    0.070082    0.126840    0.036222    11.00000    0.01767    0.06970 = 
         0.02638    0.00399    0.00419   -0.00583 
O2    4    0.089574    0.090920   -0.107932    11.00000    0.02139    0.04370 = 
         0.02145    0.00117   -0.00294   -0.00679 
O3    4    0.489514    0.478291    0.162977    11.00000    0.02417    0.01741 = 
         0.02684   -0.00239    0.00843   -0.00729 
O4    4    0.309900    0.529685    0.149481    11.00000    0.02677    0.01236 = 
         0.02487    0.00209    0.00333    0.00227 
O5    4    0.338612    0.231736    0.595619    11.00000    0.03352    0.05316 = 
         0.02724    0.00658    0.01131    0.00472 
O6    4    0.496971    0.214843    0.611505    11.00000    0.03029    0.04312 = 
         0.02623    0.00580   -0.00652   -0.00215 
O7    4    0.716577    0.173518    0.402651    11.00000    0.02120    0.04669 = 
         0.02706   -0.00471    0.00782    0.00198 
O8    4    0.869135    0.143435    0.370218    11.00000    0.02361    0.03588 = 
         0.03135    0.00221    0.01190    0.00382 
N1    3    0.371599    0.227917    0.116440    11.00000    0.01507    0.01084 = 
         0.01723    0.00018    0.00468   -0.00215 
N2    3    0.415983    0.240927    0.566086    11.00000    0.02990    0.01887 = 
         0.02300   -0.00154    0.00351   -0.00241 
C1    1    0.268412    0.158847    0.102318    11.00000    0.01312    0.01498 = 
         0.01949   -0.00117    0.00584   -0.00127 
AFIX  13 
H1    2    0.224691    0.245271    0.127938    11.00000   -1.20000 
AFIX   0 
C2    1    0.274850   -0.023584    0.154539    11.00000    0.01713    0.01389 = 
         0.01984    0.00014    0.00588   -0.00418 
AFIX  13 
H2    2    0.235773   -0.116060    0.115248    11.00000   -1.20000 
AFIX   0 
C3    1    0.382634   -0.067258    0.161056    11.00000    0.01770    0.01569 = 
         0.01834    0.00102    0.00531    0.00240 
AFIX  43 
H3    2    0.410194   -0.182413    0.177740    11.00000   -1.20000 
AFIX   0 
C4    1    0.434483    0.072565    0.140964    11.00000    0.01720    0.01370 = 
         0.01273   -0.00082    0.00348    0.00165 
C5    1    0.232021    0.131135    0.001956    11.00000    0.01923    0.01383 = 
         0.01852    0.00060    0.00141   -0.00043 
C6    1    0.288590    0.118472   -0.060157    11.00000    0.02257    0.02350 = 
         0.01963    0.00093    0.00052   -0.00205 
AFIX  93 
H6A   2    0.260060    0.098578   -0.121517    11.00000   -1.20000 
H6B   2    0.357933    0.129228   -0.043610    11.00000   -1.20000 
AFIX   0 
C7    1    0.123117    0.115318   -0.020235    11.00000    0.02181    0.02816 = 
         0.02193    0.00361    0.00019   -0.00367 
C8    1   -0.017662    0.094224   -0.133324    11.00000    0.02460    0.07698 = 
         0.03432    0.00001   -0.00209   -0.01736 
AFIX  23 
H8A   2   -0.044596    0.207404   -0.112304    11.00000   -1.20000 
H8B   2   -0.047254   -0.009192   -0.105879    11.00000   -1.20000 
AFIX   0 
C9    1   -0.039728    0.082573   -0.233597    11.00000    0.03688    0.07546 = 
         0.04363    0.00220   -0.01046   -0.01320 
AFIX 137 
H9A   2   -0.006779    0.181672   -0.259780    11.00000   -1.20000 
H9B   2   -0.110928    0.091479   -0.253888    11.00000   -1.20000 
H9C   2   -0.016019   -0.033111   -0.253203    11.00000   -1.20000 
AFIX   0 
C10   1    0.237487   -0.016119    0.244714    11.00000    0.01792    0.01551 = 
         0.02043    0.00160    0.00683   -0.00481 
C11   1    0.292827   -0.085203    0.323303    11.00000    0.01770    0.02330 = 
         0.02542    0.00396    0.00750   -0.00056 
AFIX  43 
H11   2    0.355413   -0.136905    0.321140    11.00000   -1.20000 
AFIX   0 
C12   1    0.258209   -0.079998    0.405090    11.00000    0.02477    0.03117 = 
         0.02193    0.00889    0.00460    0.00112 
AFIX  43 
H12   2    0.295828   -0.129123    0.458441    11.00000   -1.20000 
AFIX   0 
C13   1    0.168461   -0.002166    0.406617    11.00000    0.02371    0.03122 = 
         0.02112   -0.00009    0.01138   -0.00492 
C14   1    0.110645    0.067479    0.330692    11.00000    0.01793    0.02796 = 
         0.02576    0.00382    0.00821    0.00248 
AFIX  43 
H14   2    0.048455    0.120020    0.333695    11.00000   -1.20000 
AFIX   0 
C15   1    0.146018    0.058577    0.249585    11.00000    0.01770    0.02299 = 
         0.02093    0.00316    0.00370   -0.00159 
AFIX  43 
H15   2    0.106891    0.104516    0.196222    11.00000   -1.20000 
AFIX   0 
C16   1    0.539870    0.078269    0.133252    11.00000    0.01800    0.01299 = 
         0.01556   -0.00395    0.00551   -0.00076 
C17   1    0.607503   -0.022285    0.191981    11.00000    0.02155    0.01830 = 
         0.01626   -0.00123    0.00582   -0.00091 
AFIX  43 
H17   2    0.586247   -0.089709    0.238941    11.00000   -1.20000 
AFIX   0 
C18   1    0.706183   -0.025359    0.182780    11.00000    0.02053    0.02194 = 
         0.02321   -0.00389    0.00119    0.00396 
AFIX  43 
H18   2    0.752513   -0.093601    0.223312    11.00000   -1.20000 
AFIX   0 
C19   1    0.735756    0.072816    0.113483    11.00000    0.01453    0.02097 = 
         0.02886   -0.00844    0.00855   -0.00219 
C20   1    0.669463    0.171728    0.053758    11.00000    0.02195    0.02095 = 
         0.02027   -0.00442    0.00955   -0.00667 
AFIX  43 
H20   2    0.690582    0.236043    0.005749    11.00000   -1.20000 
AFIX   0 
C21   1    0.571972    0.176362    0.064444    11.00000    0.02048    0.01873 = 
         0.01718   -0.00104    0.00387   -0.00114 
AFIX  43 
H21   2    0.526315    0.247085    0.024518    11.00000   -1.20000 
AFIX   0 
C22   1    0.401049    0.362352    0.290849    11.00000    0.01977    0.01233 = 
         0.01625   -0.00198    0.00225   -0.00158 
C23   1    0.486576    0.285506    0.338059    11.00000    0.01658    0.01849 = 
         0.02395   -0.00449    0.00475   -0.00054 
AFIX  43 
H23   2    0.540674    0.260583    0.308358    11.00000   -1.20000 
AFIX   0 
C24   1    0.491894    0.245773    0.428905    11.00000    0.01557    0.01988 = 
         0.02374   -0.00260   -0.00260    0.00194 
AFIX  43 
H24   2    0.549538    0.193552    0.462685    11.00000   -1.20000 
AFIX   0 
C25   1    0.411255    0.283969    0.469230    11.00000    0.02271    0.01743 = 
         0.01622   -0.00388    0.00124   -0.00044 
C26   1    0.326525    0.361152    0.424178    11.00000    0.02015    0.02526 = 
         0.02500   -0.00462    0.00729    0.00128 
AFIX  43 
H26   2    0.272855    0.386310    0.454401    11.00000   -1.20000 
AFIX   0 
C27   1    0.321403    0.401495    0.333123    11.00000    0.01753    0.02132 = 
         0.02047   -0.00047    0.00135    0.00342 
AFIX  43 
H27   2    0.263882    0.455429    0.300028    11.00000   -1.20000 
AFIX   0 
C28   1    0.781494    0.225296    0.363891    11.00000    0.02958    0.03390 = 
         0.02030   -0.00700    0.00424    0.00386 
C29   1    0.775615    0.387121    0.302949    11.00000    0.04733    0.03781 = 
         0.02866    0.00061    0.00731    0.00871 
AFIX 137 
H29A  2    0.818630    0.368985    0.258034    11.00000   -1.20000 
H29B  2    0.796720    0.494845    0.338961    11.00000   -1.20000 
H29C  2    0.707658    0.403135    0.272083    11.00000   -1.20000 
AFIX   0 
C30   1    0.882895   -0.016871    0.427029    11.00000    0.02568    0.03009 = 
         0.03713    0.00294    0.01277    0.00287 
AFIX  23 
H30A  2    0.933439   -0.095217    0.407335    11.00000   -1.20000 
H30B  2    0.820524   -0.085669    0.419880    11.00000   -1.20000 
AFIX   0 
C31   1    0.914375    0.032079    0.524920    11.00000    0.02833    0.03892 = 
         0.03884    0.00509    0.00762    0.00026 
AFIX 137 
H31A  2    0.861590    0.099578    0.546157    11.00000   -1.20000 
H31B  2    0.973784    0.106830    0.531547    11.00000   -1.20000 
H31C  2    0.928253   -0.078289    0.560814    11.00000   -1.20000 
AFIX   0 
HKLF 4 
  
REM  m20150602h 
REM R1 =  0.0215 for    5806 Fo > 4sig(Fo)  and  0.0259 for all    6698 data 
REM    400 parameters refined using      1 restraints 
  
END 
  
WGHT      0.0113      0.0000 
  
REM Instructions for potential hydrogen bonds 
EQIV $1 x, y-1, z 
HTAB C3 S1_$1 
HTAB C3 O4_$1 
EQIV $2 -x+1, y-1/2, -z+1 
HTAB C12 O7_$2 
EQIV $3 x-1, y, z 
HTAB C14 O8_$3 
HTAB C24 O7 
EQIV $4 -x+1, y+1/2, -z+1 
HTAB C29 F1_$4 
HTAB C30 O5_$2 
EQIV $5 x+1, y, z 
HTAB C31 F1_$5 
  
REM Highest difference peak  0.306,  deepest hole -0.327,  1-sigma level  0.040 
Q1    1   0.8828  0.0329  0.1557  11.00000  0.05    0.31 
Q2    1   0.0038 -0.0318 -0.1498  11.00000  0.05    0.29 
Q3    1  -0.0575  0.1543 -0.1740  11.00000  0.05    0.28 
Q4    1   0.3985  0.3862  0.2424  11.00000  0.05    0.23 
Q5    1   0.4880  0.0712  0.1304  11.00000  0.05    0.22 
;
_shelx_res_checksum              62044
_shelx_hkl_file
; 
   0   0   3 1878.30   62.94 
   0   0  -3 1822.12   59.89 
   0   0   3 1885.78   57.31 
   0   0  -3 1851.07   59.17 
   0   0   3 1778.20   56.73 
   0   0   4 7732.73  216.04 
   0   0  -4 7472.50  192.28 
   0   0   4 8177.90  396.25 
   0   0  -4 7247.44  180.61 
   0   0   5  162.14   15.37 
   0   0  -5  158.09   12.83 
   0   0   5  165.46   13.25 
   0   0  -5  159.38   14.13 
   0   0   6   96.87   12.23 
   0   0  -6   93.18    9.91 
   0   0   6   97.44   10.13 
   0   0  -6   90.07   10.88 
   0   0   7  445.05   31.90 
   0   0  -7  439.64   30.56 
   0   0  -7  388.20   32.25 
   0   0  -7  430.40   29.46 
   0   0   8   49.27   10.21 
   0   0  -8   52.19    9.75 
   0   0  -8   49.10    8.06 
   0   0  -8   49.54    9.02 
   0   0   8   44.88    8.11 
   0   0   9    8.82    8.54 
   0   0  -9    9.93    6.88 
   0   0  -9   11.74    5.85 
   0   0  -9    9.95    6.32 
   0   0   9   10.43    5.76 
   0   0  10  261.89   18.87 
   0   0 -10  254.43   16.35 
   0   0 -10  230.82   16.32 
   0   0 -10  258.58   15.10 
   0   0 -10  252.90   16.91 
   0   0  10  239.81   15.06 
   0   0  11    3.38    8.77 
   0   0 -11    3.32    6.83 
   0   0 -11    1.38    6.18 
   0   0 -11    2.98    6.74 
   0   0  12  461.30   25.93 
   0   0 -12  424.23   22.93 
   0   0 -12  471.17   21.76 
   0   0 -12  428.04   22.57 
   0   0  13   22.77   11.09 
   0   0 -13   25.23    8.61 
   0   0 -13   25.94    9.20 
   0   0  14  332.66   21.88 
   0   0 -14  341.02   17.86 
   0   0 -14  333.05   19.62 
   0   0  15  111.53   15.81 
   0   0 -15  108.01   11.53 
   0   0 -15  111.35   14.50 
   0   0  16   14.64   12.55 
   0   0 -16   12.81    9.03 
   0   0 -16   13.58   11.29 
   0   0  17   85.32   16.80 
   0   0 -17   80.85   11.78 
   0   0 -17   82.01   14.65 
   0   0  18    3.00   15.80 
   0   0 -18   10.38    8.80 
   0   0 -18    6.75   13.97 
   0   0  19   21.92   16.42 
   0   0 -19   19.84   10.67 
   0   0 -19   18.14   14.06 
   0   1  -1 3328.22   90.93 
   0   1  -1 3286.06  100.55 
   0   1   1 3474.60   95.30 
   0   1   1 3106.41   88.95 
   0   1   1 3261.88   90.95 
   0   1   1 3346.74  104.79 
   0   1  -1 3418.97   94.67 
   0  -1   1 3106.78   99.77 
   0   1   2  569.63   28.50 
   0   1  -2  566.07   31.94 
   0   1   2  621.65   30.69 
   0   1  -2  604.70   29.81 
   0   1   2  559.10   29.19 
   0   1  -2  607.47   29.67 
   0  -1   2  537.92   31.86 
   0  -1   2  504.71   26.15 
   0   1  -3 3322.56   90.92 
   0   1  -3 3129.85  105.86 
   0   1   3 3277.70   90.63 
   0   1   3 3116.71   86.86 
   0   1  -3 3336.74   91.38 
   0   1   3 3031.86   90.90 
   0  -1  -3 3319.53   90.69 
   0  -1  -3 3135.97   90.06 
   0  -1   3 3119.52   85.18 
   0  -1   3 3191.26  101.65 
   0  -1   3 2913.37   81.44 
   0   1  -4 1428.99   48.04 
   0   1  -4 1418.22   51.25 
   0   1   4 1430.15   49.20 
   0   1  -4 1396.60   46.55 
   0   1   4 1374.95   45.40 
   0   1   4 1409.00   48.05 
   0  -1  -4 1276.90   42.58 
   0  -1   4 1181.38   40.90 
   0  -1  -4 1262.92   45.37 
   0  -1   4 1292.23   50.77 
   0  -1   4 1223.91   42.68 
   0   1   5  112.82   11.87 
   0   1  -5  113.04   12.33 
   0   1   5  112.90   11.61 
   0   1  -5  113.59   11.42 
   0  -1   5  118.19   13.37 
   0  -1  -5  106.17   11.66 
   0  -1   5  118.71   11.30 
   0  -1  -5  114.21   10.72 
   0  -1   5  113.80   11.11 
   0   1   6  170.72   15.56 
   0   1  -6  169.81   16.43 
   0   1   6  168.44   15.94 
   0   1  -6  164.27   15.47 
   0  -1  -6  100.99   11.41 
   0  -1  -6  104.04   11.06 
   0  -1   6   95.59   10.39 
   0  -1  -6  100.69   12.05 
   0  -1  -6  100.29   12.34 
   0  -1   6  105.42   13.71 
   0  -1   6   99.87   11.13 
   0   1  -7 1244.58   41.58 
   0   1  -7 1171.65   42.99 
   0   1   7 1251.04   43.09 
   0   1  -7 1265.84   39.52 
   0   1  -7 1244.95   43.12 
   0   1   7 1192.84   38.53 
   0  -1  -7 1385.94   46.63 
   0  -1  -7 1421.11   44.46 
   0  -1  -7 1379.64   48.02 
   0  -1   7 1404.95   50.82 
   0  -1  -7 1440.83   43.63 
   0  -1   7 1365.29   41.54 
   0   1  -8  775.18   35.36 
   0   1   8  753.16   36.61 
   0   1  -8  727.08   34.18 
   0   1  -8  758.21   33.37 
   0   1  -8  732.69   35.00 
   0   1   8  732.35   32.76 
   0  -1  -8  697.27   33.99 
   0  -1  -8  689.41   31.91 
   0  -1  -8  694.06   33.31 
   0  -1   8  666.88   35.29 
   0  -1  -8  722.78   31.79 
   0  -1   8  710.91   32.16 
   0   1  -9   55.69    9.76 
   0   1   9   55.29   10.17 
   0   1  -9   59.32    8.85 
   0   1  -9   55.74    9.41 
   0  -1   9   76.29   12.07 
   0  -1  -9   71.48    8.93 
   0  -1  -9   68.76    9.41 
   0  -1  -9   67.98   10.49 
   0  -1  -9   69.88   10.39 
   0  -1   9   71.71    9.87 
   0   1 -10   82.94   10.95 
   0   1  10   74.34   11.31 
   0   1 -10   80.07    9.64 
   0   1 -10   71.13   10.09 
   0  -1  10   74.47   11.81 
   0  -1 -10   70.74    9.03 
   0  -1 -10   63.48    9.21 
   0  -1 -10   64.46    9.99 
   0  -1 -10   67.31   10.00 
   0  -1  10   68.39    9.14 
   0   1 -11   84.83   10.46 
   0   1  11   82.31   12.52 
   0   1 -11   81.25   11.00 
   0  -1 -11   92.17    9.96 
   0  -1  11   82.68   13.13 
   0  -1 -11   90.75   12.48 
   0  -1 -11   85.24   10.88 
   0   1 -12  189.42   14.41 
   0   1  12  196.33   16.93 
   0   1 -12  196.82   15.36 
   0  -1 -12  147.03   12.06 
   0  -1  12  150.55   16.06 
   0  -1 -12  150.81   14.19 
   0  -1 -12  141.48   13.44 
   0   1 -13  118.78   12.02 
   0   1  13  116.57   14.62 
   0   1 -13  122.07   14.34 
   0  -1 -13  130.20   11.45 
   0  -1  13  142.80   16.71 
   0  -1 -13  141.30   14.86 
   0  -1 -13  132.46   13.13 
   0   1  14   24.43   12.61 
   0   1 -14   26.93    8.13 
   0   1 -14   33.58   11.66 
   0  -1  14   21.10   13.96 
   0  -1 -14   15.53    7.91 
   0  -1 -14   13.41   10.60 
   0   1  15   -0.07   11.14 
   0   1 -15    1.27    8.01 
   0   1 -15   -0.11    8.94 
   0  -1  15    2.77   12.95 
   0  -1 -15    2.73    7.64 
   0  -1 -15    2.88   10.10 
   0   1  16   94.06   15.52 
   0   1 -16   99.52   11.69 
   0   1 -16   98.50   14.64 
   0  -1  16   87.68   15.38 
   0  -1 -16   80.09   11.18 
   0  -1 -16   84.86   15.82 
   0   1  17    7.98   12.87 
   0   1 -17    4.16    8.90 
   0   1 -17    4.18   12.08 
   0  -1  17    5.59   14.49 
   0  -1 -17   -0.26    7.85 
   0  -1 -17    6.71   11.79 
   0   1 -18   66.58   13.13 
   0   1  18   86.02   17.16 
   0   1 -18   70.52   11.46 
   0  -1 -18   86.27   14.76 
   0  -1  18   83.42   18.20 
   0   1 -19   88.61   16.66 
   0   1  19   82.80   18.42 
   0   1 -19   80.50   12.36 
   0  -1 -19   86.00   16.28 
   0  -1  19   99.79   18.76 
   0   2   0 8399.15  417.08 
   0   2   0 8002.55  203.50 
   0   2   0 7783.67  211.27 
   0   2   0 8466.15  413.55 
   0  -2   0 7927.21  211.33 
   0   2  -1 6645.59  184.56 
   0   2   1 6977.35  177.13 
   0   2  -1 6691.35  171.30 
   0   2   1 6528.33  170.11 
   0   2   1 6605.84  163.64 
   0   2  -1 6268.86  159.71 
   0   2  -1 6893.66  175.08 
   0   2  -1 6676.79  171.14 
   0   2   1 6682.17  171.51 
   0  -2  -1 6686.05  170.60 
   0   2  -2 4502.43  141.66 
   0   2   2 4706.45  129.11 
   0   2   2 4522.19  122.76 
   0   2   2 4213.58  113.97 
   0   2  -2 4539.01  119.10 
   0   2  -2 4405.34  117.60 
   0   2   2 4378.45  122.99 
   0  -2  -2 3991.19  108.93 
   0  -2  -2 4139.90  113.63 
   0  -2   2 4212.52  113.02 
   0   2  -3 4030.85  125.08 
   0   2   3 4066.43  110.86 
   0   2   3 4070.55  109.26 
   0   2  -3 4040.23  107.85 
   0   2  -3 4192.23  113.21 
   0  -2  -3 4174.77  110.82 
   0  -2   3 4219.53  111.98 
   0   2  -4  973.90   40.45 
   0   2   4  989.73   37.65 
   0   2   4 1020.25   38.11 
   0   2  -4 1001.82   36.82 
   0   2  -4 1003.20   36.72 
   0  -2  -4  889.00   34.57 
   0   2  -5 1220.06   42.39 
   0   2   5 1186.22   49.03 
   0   2  -5 1246.42   39.46 
   0   2  -5 1216.56   42.47 
   0   2  -5 1205.18   38.63 
   0   2   5 1209.33   39.38 
   0  -2  -5 1272.56   40.18 
   0  -2  -5 1316.50   40.20 
   0  -2  -5 1164.12   41.71 
   0  -2   5 1272.61   39.64 
   0   2   6 2286.53   63.19 
   0   2  -6 2228.77   64.32 
   0   2  -6 2229.03   62.71 
   0   2  -6 2221.04   58.39 
   0   2  -6 2086.72   59.00 
   0  -2   6 1863.21   59.45 
   0  -2  -6 2042.95   54.74 
   0  -2  -6 1952.06   53.87 
   0  -2   6 1950.26   53.09 
   0   2   7  340.61   20.66 
   0   2  -7  353.59   22.15 
   0   2   7  340.36   20.45 
   0   2  -7  341.80   20.77 
   0  -2   7  281.27   24.90 
   0  -2  -7  300.79   19.09 
   0  -2  -7  285.06   23.61 
   0  -2  -7  291.48   22.72 
   0  -2   7  289.70   22.00 
   0   2   8 1445.28   48.17 
   0   2  -8 1509.63   49.49 
   0   2   8 1462.75   46.04 
   0   2  -8 1476.41   47.96 
   0  -2   8 1427.53   53.17 
   0  -2  -8 1405.31   44.22 
   0  -2  -8 1342.19   48.77 
   0  -2  -8 1424.02   44.97 
   0  -2   8 1346.96   44.47 
   0   2  -9  412.66   22.16 
   0   2  -9  403.85   22.74 
   0   2   9  423.16   23.89 
   0   2  -9  375.64   20.22 
   0   2  -9  403.58   23.20 
   0   2   9  409.48   21.38 
   0  -2  -9  338.14   21.15 
   0  -2  -9  341.98   19.37 
   0  -2  -9  319.66   20.53 
   0  -2   9  332.27   23.47 
   0  -2  -9  325.33   18.46 
   0  -2   9  325.52   18.68 
   0   2 -10  114.03   11.42 
   0   2  10  113.17   13.16 
   0   2 -10  109.18   12.35 
   0  -2 -10   84.20    9.69 
   0  -2  10   81.81   13.52 
   0  -2 -10   83.15   12.34 
   0  -2 -10   81.97   10.68 
   0  -2  10   86.89   10.36 
   0   2 -11   10.56    7.08 
   0   2  11   12.86    9.51 
   0   2 -11   15.08    9.01 
   0  -2 -11   20.48    7.05 
   0  -2  11   19.75   10.96 
   0  -2 -11   17.71   10.20 
   0  -2 -11   17.59    7.47 
   0   2 -12  363.10   20.32 
   0   2  12  366.75   22.82 
   0   2 -12  377.16   22.30 
   0  -2 -12  419.44   21.15 
   0  -2  12  413.90   26.82 
   0  -2 -12  426.88   24.80 
   0  -2 -12  423.02   23.00 
   0   2 -13    5.82    8.22 
   0   2  13   10.98   10.05 
   0   2 -13    9.43    9.25 
   0  -2 -13    5.52    6.23 
   0  -2  13    8.77   12.69 
   0  -2 -13    3.32    9.66 
   0  -2 -13    4.10    6.63 
   0   2  14   55.48   13.06 
   0   2 -14   57.18    9.87 
   0   2 -14   62.73   11.16 
   0  -2  14   86.37   15.82 
   0  -2 -14   78.13   10.11 
   0  -2 -14   78.24   12.47 
   0   2  15   37.06   14.45 
   0   2 -15   36.55   10.20 
   0   2 -15   36.38   11.17 
   0  -2  15   63.31   15.37 
   0  -2 -15   63.32    9.76 
   0  -2 -15   63.31   13.52 
   0   2  16   15.12   11.96 
   0   2 -16   12.62    9.94 
   0   2 -16    9.21   11.59 
   0  -2  16   22.42   13.29 
   0  -2 -16   17.38    8.13 
   0  -2 -16   21.52   14.17 
   0   2 -17   30.90   13.45 
   0   2  17   30.97   14.51 
   0   2 -17   28.77   10.07 
   0  -2 -17   27.53   13.16 
   0  -2  17   39.10   15.92 
   0   2 -18   11.25   12.96 
   0   2  18    6.78   13.28 
   0   2 -18    8.57    9.88 
   0  -2 -18   11.70   13.21 
   0  -2  18    1.92   15.89 
   0   3   0    1.14    5.53 
   0   3   0    0.17    3.41 
   0   3   0   -0.06    4.78 
   0   3   0    0.85    3.49 
   0   3   0    0.53    4.37 
   0  -3   0    0.38    4.19 
   0   3   1  729.48   34.75 
   0   3   1  716.89   43.13 
   0   3  -1  721.49   47.06 
   0   3   1  690.85   42.08 
   0   3  -1  728.03   32.58 
   0   3   1  746.01   32.87 
   0   3   1  703.28   41.18 
   0   3  -1  708.80   41.56 
   0   3  -1  718.21   43.67 
   0   3  -1  725.09   33.83 
   0  -3  -1  819.34   35.19 
   0  -3   1  662.62   41.07 
   0   3  -2  560.49   29.01 
   0   3   2  553.00   25.84 
   0   3  -2  566.68   27.13 
   0   3   2  561.72   25.87 
   0   3   2  579.45   24.23 
   0   3  -2  546.37   25.95 
   0   3  -2  558.14   25.94 
   0   3   2  575.45   25.95 
   0   3  -2  558.30   25.33 
   0   3  -3  460.85   32.73 
   0   3   3  405.22   29.66 
   0   3  -3  462.40   29.84 
   0   3  -3  447.82   31.04 
   0   3   3  460.10   30.59 
   0   3   3  456.40   29.01 
   0   3   3  472.29   30.78 
   0   3  -3  471.18   30.72 
   0  -3  -3  339.40   24.44 
   0  -3  -3  309.76   24.94 
   0  -3   3  331.22   23.67 
   0   3  -4  337.07   25.90 
   0   3   4  356.69   25.05 
   0   3   4  354.45   24.93 
   0   3  -4  349.40   25.80 
   0   3  -4  353.27   24.59 
   0   3  -4  348.97   24.01 
   0  -3  -4  273.05   20.95 
   0  -3  -4  275.96   21.97 
   0  -3   4  266.86   20.39 
   0   3  -5  153.97   16.60 
   0   3   5  152.87   14.69 
   0   3   5  166.54   15.70 
   0   3  -5  150.33   16.03 
   0   3  -5  154.87   14.96 
   0   3  -5  154.22   14.78 
   0  -3  -5  148.28   14.53 
   0  -3  -5  148.09   15.18 
   0  -3   5  154.15   14.77 
   0   3  -6  170.84   17.43 
   0   3   6  160.49   15.18 
   0   3   6  164.69   16.02 
   0   3  -6  158.62   16.06 
   0   3  -6  165.99   15.58 
   0   3  -6  171.01   15.74 
   0  -3  -6  207.37   17.93 
   0  -3  -6  202.45   18.57 
   0  -3   6  222.21   18.54 
   0   3  -7  189.76   16.64 
   0   3   7  188.29   15.45 
   0   3   7  190.56   15.38 
   0   3  -7  185.23   16.36 
   0   3  -7  202.06   15.33 
   0   3  -7  184.53   14.76 
   0  -3  -7  173.54   14.22 
   0  -3  -7  162.60   15.40 
   0  -3   7  168.56   13.90 
   0   3   8   14.04    6.42 
   0   3  -8   15.55    6.95 
   0   3   8   11.70    7.26 
   0   3  -8   11.97    6.23 
   0  -3  -8   25.07    6.75 
   0  -3  -8   25.12    9.00 
   0  -3  -8   23.39    7.82 
   0  -3  -8   24.78    7.42 
   0  -3   8   24.38    6.92 
   0   3   9  376.59   19.84 
   0   3  -9  381.29   19.27 
   0   3  -9  324.74   17.49 
   0  -3  -9  401.70   19.49 
   0  -3  -9  380.12   18.43 
   0  -3  -9  345.91   20.68 
   0  -3  -9  392.45   20.46 
   0  -3   9  389.60   18.97 
   0   3  10   94.56   11.93 
   0   3 -10   94.06   11.46 
   0  -3 -10   90.36    9.91 
   0  -3 -10   87.22   10.68 
   0  -3  10   84.90   10.26 
   0   3 -11    8.07    8.15 
   0   3  11    7.55    8.62 
   0  -3 -11   10.32    6.33 
   0  -3 -11   10.80    5.91 
   0  -3  11   10.05    9.80 
   0   3 -12  182.79   15.76 
   0   3  12  186.47   16.35 
   0   3 -12  177.94   16.12 
   0  -3 -12  169.12   15.43 
   0  -3  12  168.15   19.27 
   0  -3 -12  173.46   14.86 
   0   3 -13  201.42   15.96 
   0   3  13  202.17   17.81 
   0   3 -13  207.14   15.63 
   0  -3 -13  226.19   14.66 
   0  -3  13  214.56   21.43 
   0   3 -14  112.94   12.23 
   0   3  14  104.39   14.65 
   0   3 -14  111.25   13.35 
   0  -3  14   82.81   15.71 
   0   3 -15   13.31    9.87 
   0   3  15   15.13   12.55 
   0   3 -15   13.61    9.53 
   0  -3 -15   10.95   11.02 
   0  -3  15   16.55   15.79 
   0   3 -16   11.28   11.39 
   0   3  16    8.66   12.25 
   0   3 -16    8.50   10.77 
   0  -3 -16    6.75   13.96 
   0  -3  16   13.73   15.36 
   0   3 -17   42.03   13.38 
   0   3  17   49.70   14.53 
   0   3 -17   41.55   11.55 
   0  -3 -17   26.84   14.53 
   0  -3  17   29.04   16.26 
   0   3 -18   22.84   11.88 
   0   3  18   16.20   13.91 
   0   3 -18   20.22   11.05 
   0  -3 -18    6.54   14.77 
   0  -3  18   11.85   16.81 
   0   4   0   68.74   11.71 
   0   4   0   70.22   10.42 
   0   4   0   73.49   10.93 
   0   4   0   70.20    9.51 
   0   4   0   73.26   10.37 
   0   4  -1 1647.39   62.96 
   0   4   1 1630.55   65.24 
   0   4  -1 1624.30   66.84 
   0   4   1 1640.11   62.72 
   0   4  -1 1531.91   60.31 
   0   4   1 1641.21   61.95 
   0   4   1 1632.03   59.66 
   0   4  -1 1589.59   57.91 
   0   4   1 1610.40   59.64 
   0   4  -1 1620.19   61.10 
   0  -4  -1 1485.19   58.10 
   0  -4   1 1463.32   62.25 
   0   4   2   81.09   11.85 
   0   4   2   87.63   11.13 
   0   4  -2   81.98   12.72 
   0   4   2   81.38   11.07 
   0   4  -2   83.25   11.42 
   0   4   2   85.06   11.07 
   0   4   2   87.37   10.15 
   0   4  -2   82.80   10.48 
   0   4  -2   84.83   11.30 
   0   4  -2   84.65   10.62 
   0  -4   2   89.41   13.59 
   0  -4  -2   88.65   11.94 
   0   4  -3  788.00   33.70 
   0   4  -3  788.89   34.73 
   0   4   3  824.15   33.05 
   0   4  -3  803.08   30.81 
   0   4  -3  792.44   32.44 
   0   4   3  769.42   31.77 
   0   4   3  790.56   29.03 
   0   4  -3  803.27   30.55 
   0   4   3  815.92   31.68 
   0  -4  -3  869.91   35.37 
   0  -4   3  890.17   40.14 
   0  -4  -3  875.16   33.58 
   0   4  -4   11.21    7.37 
   0   4  -4    6.89    7.71 
   0   4   4    8.97    6.12 
   0   4  -4   12.71    6.38 
   0   4  -4    7.61    5.04 
   0   4   4    8.27    5.01 
   0   4   4    8.49    4.58 
   0   4  -4    8.56    5.39 
   0   4   4    9.52    5.35 
   0  -4  -4   16.75    7.17 
   0  -4   4   15.85    8.42 
   0  -4  -4   16.11    6.90 
   0   4  -5 2120.02   66.60 
   0   4  -5 2385.02   54.39 
   0   4   5 2369.14   50.37 
   0   4   5 2250.75   82.14 
   0   4  -5 2349.53   46.80 
   0   4  -5 2336.42   47.45 
   0  -4  -5 2331.55   55.12 
   0  -4  -5 2396.49   48.22 
   0  -4   5 2318.43   60.58 
   0  -4   5 2264.63   68.21 
   0   4  -6  227.47   19.40 
   0   4  -6  236.57   19.77 
   0   4   6  231.89   18.36 
   0   4   6  234.23   18.22 
   0   4  -6  211.06   17.87 
   0   4  -6  243.08   15.46 
   0  -4  -6  259.10   18.99 
   0  -4  -6  248.32   16.24 
   0  -4   6  242.97   19.81 
   0  -4   6  243.14   16.02 
   0   4  -7   48.07    8.27 
   0   4   7   48.95    8.97 
   0   4  -7   47.76    9.16 
   0   4   7   44.64    8.82 
   0  -4   7   39.35   11.84 
   0  -4  -7   36.84    9.04 
   0  -4  -7   39.86    8.49 
   0  -4   7   39.67    7.91 
   0   4   8  458.71   21.60 
   0   4  -8  473.60   20.73 
   0   4  -8  480.70   21.19 
   0  -4   8  444.50   26.40 
   0  -4  -8  472.11   21.48 
   0  -4  -8  490.65   23.98 
   0  -4   8  470.61   20.81 
   0   4  -9  919.95   35.07 
   0   4   9  883.39   34.92 
   0   4  -9  948.99   34.98 
   0  -4  -9  937.82   38.45 
   0  -4   9  781.03   38.31 
   0  -4   9  924.56   34.07 
   0   4  10  116.56   12.40 
   0   4 -10  123.26   12.02 
   0   4 -10  119.88   12.57 
   0  -4 -10   75.97   12.36 
   0  -4  10   77.51   10.28 
   0   4  11   61.67   10.97 
   0   4 -11   55.62   10.67 
   0   4 -11   55.14   10.49 
   0  -4 -11   36.10   11.49 
   0  -4  11   33.55    8.12 
   0   4  12   39.95   11.26 
   0   4 -12   35.12    8.79 
   0  -4 -12   34.38   11.51 
   0   4  13   11.24    9.57 
   0   4 -13    5.74    9.14 
   0  -4 -13    6.24   11.44 
   0   4  14   13.32   12.65 
   0   4 -14   23.42   10.69 
   0   4 -14   16.17    9.09 
   0  -4 -14   14.28   12.90 
   0   4  15   15.99   12.54 
   0   4 -15   13.52   10.92 
   0   4 -15   14.10    9.54 
   0  -4 -15    4.06   13.02 
   0   4  16   36.54   13.73 
   0   4 -16   38.15   10.57 
   0  -4 -16   41.21   16.02 
   0   4 -17   52.13   12.21 
   0   4  17   50.04   13.88 
   0  -4  17   55.67   17.30 
   0   5   0   -1.42    6.95 
   0   5   0   -0.26    6.51 
   0   5   0   -0.57    5.50 
   0   5   0    0.29    5.02 
   0   5   0   -0.48    4.93 
   0  -5   0    1.48    5.51 
   0   5   1    2.40    6.47 
   0   5  -1    2.39    6.26 
   0   5   1    4.59    7.16 
   0   5  -1    1.92    5.59 
   0   5  -1    4.31    6.19 
   0   5   1    3.29    5.78 
   0   5   1    5.26    4.86 
   0   5  -1    6.15    6.00 
   0   5   1    5.97    5.56 
   0   5  -1    6.18    5.62 
   0   5  -1    5.05    5.64 
   0  -5  -1   19.63    7.14 
   0   5   2  498.60   27.07 
   0   5  -2  483.58   26.69 
   0   5   2  506.87   24.46 
   0   5  -2  493.81   24.56 
   0   5   2  500.87   24.15 
   0   5   2  492.16   21.79 
   0   5  -2  487.26   22.57 
   0   5   2  488.18   23.31 
   0   5  -2  488.23   24.10 
   0   5  -2  508.46   23.51 
   0  -5  -2  596.31   28.03 
   0   5   3  202.11   17.13 
   0   5   3  205.78   14.36 
   0   5  -3  208.31   16.85 
   0   5   3  198.51   14.51 
   0   5  -3  195.75   15.19 
   0   5   3  181.44   13.95 
   0   5   3  205.52   13.00 
   0   5  -3  200.70   13.92 
   0   5  -3  199.47   14.99 
   0   5  -3  198.59   13.99 
   0  -5   3  151.65   16.36 
   0  -5  -3  148.20   14.34 
   0   5  -4  232.98   17.11 
   0   5  -4  232.57   17.88 
   0   5   4  245.08   16.19 
   0   5  -4  250.17   15.39 
   0   5  -4  225.32   15.89 
   0   5   4  218.09   14.91 
   0   5   4  236.98   14.02 
   0   5  -4  242.28   14.85 
   0   5   4  235.80   15.16 
   0  -5  -4  253.22   17.58 
   0  -5   4  260.03   19.65 
   0  -5  -4  260.90   16.57 
   0   5  -5  120.63   11.89 
   0   5   5  117.16   11.70 
   0   5   5  118.90   11.28 
   0   5  -5  119.53   12.08 
   0   5  -5  117.24   10.89 
   0  -5   5  106.67   14.55 
   0  -5  -5  113.29   11.74 
   0  -5  -5  114.91   13.01 
   0   5  -6  267.75   16.00 
   0   5   6  273.05   16.89 
   0   5  -6  262.59   16.26 
   0   5   6  276.36   17.18 
   0  -5   6  265.00   20.70 
   0  -5  -6  263.37   18.75 
   0  -5  -6  261.25   16.87 
   0   5  -7  224.83   14.73 
   0   5   7  220.89   16.14 
   0   5  -7  236.30   15.86 
   0  -5  -7  197.86   16.22 
   0  -5   7  199.42   19.19 
   0  -5   7  191.06   14.13 
   0   5  -8  355.49   19.77 
   0   5   8  352.04   19.85 
   0   5  -8  364.30   20.10 
   0  -5  -8  395.86   23.53 
   0  -5   8  383.63   26.70 
   0  -5   8  369.35   20.57 
   0   5  -9   13.19    7.25 
   0   5   9   10.95    9.48 
   0   5  -9   11.59    8.19 
   0  -5  -9    9.88    9.46 
   0  -5   9   12.36   12.09 
   0  -5   9   10.38    6.62 
   0   5 -10   16.41    7.92 
   0   5  10   18.42    9.37 
   0   5 -10   19.01    8.77 
   0  -5 -10   15.23    9.60 
   0  -5  10   18.25   11.65 
   0  -5  10   16.06    7.45 
   0   5 -11    9.49    7.69 
   0   5  11   11.16    9.94 
   0   5 -11   14.88    9.63 
   0  -5 -11    8.76   11.34 
   0  -5  11   12.18   13.09 
   0   5 -12   83.30   11.67 
   0   5  12   90.31   13.99 
   0  -5  12  109.33   17.72 
   0  -5 -12  121.86   15.77 
   0   5 -13   45.81   12.35 
   0   5  13   50.13   13.21 
   0  -5  13   62.23   17.51 
   0  -5 -13   54.29   13.20 
   0   5  14   22.83   13.06 
   0  -5  14   14.92   17.90 
   0  -5 -14   19.11   12.22 
   0   5  15   58.49   13.51 
   0  -5  15   50.18   16.87 
   0  -5 -15   53.29   14.81 
   0   5 -16   77.72   13.13 
   0   5  16   87.08   15.37 
   0  -5  16   79.73   20.41 
   0  -5 -16   84.44   17.47 
   0   6   0  792.14   44.26 
   0   6   0  868.88   32.30 
   0   6   0  850.14   29.19 
   0   6   0  858.02   31.07 
   0   6   0  862.30   31.48 
   0   6   1  285.22   18.71 
   0   6  -1  292.52   19.16 
   0   6  -1  296.29   19.08 
   0   6   1  302.59   19.10 
   0   6   1  298.15   16.87 
   0   6  -1  300.40   17.75 
   0   6   1  281.38   18.69 
   0   6  -1  294.86   18.61 
   0   6  -1  302.65   18.80 
   0  -6  -1  232.54   16.81 
   0   6   2   13.56    7.78 
   0   6  -2   12.77    8.99 
   0   6  -2   18.02    7.22 
   0   6   2   14.56    6.25 
   0   6  -2   14.57    6.81 
   0   6  -2   16.44    6.89 
   0   6   2   14.32    6.74 
   0  -6  -2   11.97    7.51 
   0   6   3   67.27    8.46 
   0   6   3   66.69   10.44 
   0   6  -3   70.39    9.38 
   0   6  -3   74.81   10.62 
   0   6   3   71.05   10.11 
   0  -6   3   66.90   12.62 
   0  -6  -3   61.49   10.71 
   0   6   4  537.03   25.15 
   0   6   4  545.28   25.51 
   0   6  -4  526.62   24.47 
   0   6  -4  541.72   24.84 
   0  -6   4  556.96   30.52 
   0  -6  -4  561.58   28.26 
   0   6  -5  296.64   17.37 
   0   6   5  310.68   19.33 
   0   6  -5  299.59   18.71 
   0  -6  -5  352.72   21.73 
   0  -6   5  334.89   23.74 
   0   6  -6  102.59   12.21 
   0   6   6   92.35   11.67 
   0  -6   6  146.83   18.14 
   0  -6  -6  147.13   16.30 
   0   6  -7   23.89    8.50 
   0   6   7   26.37    9.88 
   0  -6   7   15.66   12.16 
   0  -6  -7   16.86    8.99 
   0   6  -8   28.88    9.60 
   0   6   8   26.45    9.99 
   0  -6   8   25.30   12.17 
   0  -6  -8   25.14   10.44 
   0   6  -9  229.05   16.29 
   0   6   9  217.97   16.30 
   0  -6   9  215.23   21.19 
   0  -6  -9  207.80   18.07 
   0   6 -10   55.86   12.27 
   0   6  10   63.29   11.73 
   0  -6  10   68.59   15.57 
   0  -6 -10   84.70   14.48 
   0   6 -11  116.51   13.89 
   0   6  11  114.12   12.96 
   0  -6  11   87.34   16.98 
   0  -6 -11   81.87   14.53 
   0   6 -12   59.38   12.69 
   0   6  12   70.53   13.62 
   0  -6  12   55.02   17.18 
   0  -6 -12   50.85   13.03 
   0   6 -13   16.43   10.55 
   0   6  13   15.41   10.69 
   0  -6  13   22.27   15.97 
   0  -6 -13    9.66   12.55 
   0   6 -14   90.67   14.29 
   0   6  14   98.40   14.56 
   0  -6  14   81.41   19.08 
   0  -6 -14   71.88   15.63 
   0   6 -15   31.09   12.53 
   0   6  15   31.38   14.29 
   0  -6  15   27.82   17.44 
   0  -6 -15   31.37   16.22 
   0   7   0    1.50    8.47 
   0   7   0   -1.64    6.65 
   0   7   1   91.44   12.63 
   0   7  -1   86.31   13.04 
   0   7   1   80.21    9.93 
   0   7  -1   81.78   10.37 
   0   7   1   83.29   10.85 
   0   7   2  217.86   16.02 
   0   7  -2  228.15   17.06 
   0   7  -2  216.46   14.65 
   0  -7  -2  196.59   15.87 
   0   7   3  100.32   12.99 
   0   7  -3   98.76   13.06 
   0   7  -3   99.68   11.48 
   0  -7  -3  150.01   14.79 
   0   7  -4  270.87   16.42 
   0   7   4  270.69   17.14 
   0  -7   4  343.03   23.22 
   0  -7  -4  314.71   19.34 
   0   7  -5   63.07   11.50 
   0   7   5   66.27   11.78 
   0  -7   5   67.99   13.37 
   0  -7  -5   62.80   12.37 
   0   7  -6  242.93   16.99 
   0   7   6  248.01   17.29 
   0  -7   6  228.40   20.55 
   0  -7  -6  229.79   18.32 
   0   7  -7  208.31   15.75 
   0   7   7  204.86   15.64 
   0  -7   7  252.53   21.83 
   0  -7  -7  250.71   18.69 
   0   7  -8   33.57   10.01 
   0   7   8   28.62   10.65 
   0  -7   8   35.52   15.03 
   0  -7  -8   34.73   12.92 
   0   7  -9    5.83    9.47 
   0   7   9    8.88    9.63 
   0  -7   9    0.35   12.85 
   0  -7  -9    1.95   10.25 
   0   7 -10   84.53   13.28 
   0   7  10   89.38   12.07 
   0  -7  10   67.43   17.03 
   0  -7 -10   81.64   14.33 
   0   7 -11    5.67   10.21 
   0   7  11   11.94    9.59 
   0  -7  11   16.92   14.47 
   0  -7 -11   10.18   12.54 
   0   7 -12   23.06   11.81 
   0   7  12   28.37   11.21 
   0  -7  12   15.64   17.26 
   0  -7 -12   10.53   12.53 
   0   7 -13   31.52   12.05 
   0  -7  13   12.04   16.13 
   0  -7 -13   10.33   12.95 
   0   8   0   50.72   11.78 
   0   8   1  178.36   15.85 
   0   8  -1  165.81   15.19 
   0   8   2   21.86   10.87 
   0   8  -2   13.00   11.34 
   0   8  -2   16.40    8.49 
   0   8   3   77.10   11.86 
   0   8  -3   72.78   12.14 
   0   8  -3   69.72   10.52 
   0  -8  -3   68.81   12.32 
   0   8   4  152.72   14.85 
   0   8  -4  153.69   15.90 
   0   8  -4  149.90   13.69 
   0  -8  -4  161.79   15.67 
   0   8   5   90.81   12.07 
   0   8  -5   83.32   13.12 
   0   8  -5   84.39   12.67 
   0  -8  -5  106.74   14.12 
   0   8  -6  176.51   15.09 
   0   8   6  181.46   15.45 
   0  -8   6  158.36   20.28 
   0  -8  -6  152.52   16.02 
   0   8  -7   23.69   11.38 
   0   8   7   24.28   10.12 
   0  -8   7   39.41   14.27 
   0  -8  -7   31.23   10.52 
   0   8  -8   29.11   12.15 
   0   8   8   30.34   10.31 
   0  -8   8   31.97   15.35 
   0  -8  -8   31.10   12.55 
   0   8  -9   39.82   12.59 
   0  -8   9   29.99   15.45 
   0  -8  -9   28.19   12.04 
   0   8 -10   28.76   12.17 
   0  -8  10   13.47   14.81 
   0  -8 -10   11.62   13.40 
   0   9   0   -1.51    9.63 
   0   9   1  171.76   15.67 
   0   9  -1  177.09   15.87 
   0   9   2  263.72   19.01 
   0   9  -2  269.07   19.70 
   0   9   3   71.22   12.41 
   0   9  -3   72.56   14.31 
   0   9  -4   37.18   12.52 
   0   9  -5   16.21   11.76 
   0   9  -6    5.95   12.67 
   0   9  -6    6.18   10.44 
  -1   0  19   50.49   14.78 
   1   0 -19   45.92   10.93 
   1   0 -19   55.12   13.94 
  -1   0  18   30.14   15.96 
   1   0 -18   34.54   11.20 
   1   0 -18   39.75   13.67 
  -1   0  17   71.29   15.71 
   1   0 -17   71.68   10.70 
   1   0 -17   58.85   12.68 
  -1   0  16   25.43   12.94 
   1   0 -16   28.06    8.39 
   1   0 -16   26.69   12.06 
  -1   0  15   37.93   13.95 
   1   0 -15   32.37    8.63 
   1   0 -15   36.93   12.23 
  -1   0  14   75.50   13.96 
   1   0 -14   65.26   10.53 
   1   0 -14   75.99   12.67 
  -1   0  13   15.06    9.67 
   1   0 -13   14.67    7.79 
   1   0 -13   13.88   10.13 
  -1   0  12  380.94   23.93 
   1   0 -12  359.37   20.99 
   1   0 -12  387.42   19.58 
   1   0 -12  388.15   21.33 
  -1   0  11  113.03   13.76 
   1   0 -11  112.65   11.90 
   1   0 -11  115.99   11.47 
   1   0 -11  108.61   12.13 
  -1   0  10  455.50   26.49 
   1   0 -10  433.28   24.19 
   1   0 -10  430.62   21.53 
   1   0 -10  436.19   23.56 
  -1   0  10  408.29   21.21 
  -1   0   9 2846.00  139.91 
   1   0  -9 2640.09   74.06 
   1   0  -9 2721.18   71.67 
   1   0  -9 2782.24  132.10 
  -1   0   8 2443.09   99.63 
   1   0  -8 2233.62   78.49 
   1   0  -8 2338.80   84.02 
   1   0  -8 2460.82   94.06 
   1   0  -8 2355.73   83.45 
  -1   0   7   30.04    7.82 
   1   0  -7   29.06    7.80 
   1   0  -7   24.95    7.35 
   1   0  -7   28.16    6.33 
   1   0  -7   27.30    7.25 
  -1   0   6 2882.44   87.83 
   1   0  -6 2914.14   84.23 
   1   0  -6 2867.37   86.24 
   1   0  -6 2918.44   82.43 
   1   0  -6 2802.67   80.86 
  -1   0   5 3201.10   96.67 
   1   0  -5 3180.76   89.91 
   1   0  -5 3223.62   93.28 
   1   0  -5 3127.89   86.52 
   1   0  -5 3403.67   94.23 
  -1   0   5 2917.15   81.35 
  -1   0   4  103.79   11.92 
   1   0  -4  103.95   11.51 
  -1   0   4  100.57   11.95 
   1   0  -4   88.92   11.25 
   1   0  -4   95.94   10.36 
  -1   0   4   99.62   10.50 
  -1   0   3  632.48   32.74 
   1   0  -3  586.66   30.29 
  -1   0   3  626.54   33.22 
   1   0  -3  630.87   30.91 
  -1   0   3  568.42   28.51 
   1   0   2 1340.20   50.95 
   1   0   2 1226.70   40.58 
  -1   0  -2 1354.37   46.98 
   1   0   3 4930.99  133.92 
   1   0   3 5019.88  127.80 
  -1   0  -3 4981.29  134.66 
   1   0   4 3437.41  102.20 
  -1   0  -4 2950.84   81.66 
   1   0   4 3359.06  105.56 
  -1   0  -4 3234.82   92.93 
   1   0   5  540.96   31.43 
  -1   0  -5  548.42   27.42 
   1   0   5  523.92   26.38 
  -1   0  -5  512.76   28.58 
   1   0   6   65.46   10.02 
  -1   0  -6   64.80    8.66 
   1   0   6   67.84    8.81 
  -1   0  -6   66.91    9.95 
   1   0   6   62.12    9.45 
   1   0   7 3597.78   97.29 
  -1   0  -7 3659.56  204.01 
  -1   0  -7 3520.64   86.36 
   1   0   7 3549.86   81.40 
  -1   0  -7 3498.23   91.17 
   1   0   7 3434.12   86.16 
   1   0   8  292.16   25.04 
  -1   0  -8  288.95   23.49 
  -1   0  -8  295.06   18.62 
   1   0   8  300.37   18.77 
  -1   0  -8  288.06   23.32 
   1   0   8  293.49   19.47 
   1   0   9   17.92    9.23 
  -1   0  -9   16.53    7.66 
  -1   0  -9   19.65    6.63 
   1   0   9   18.70    5.53 
  -1   0  -9   21.75    7.79 
   1   0   9   22.55    6.67 
   1   0  10  193.89   16.82 
  -1   0 -10  191.40   14.32 
  -1   0 -10  192.79   13.76 
   1   0  10  192.82   13.40 
  -1   0 -10  185.33   14.90 
   1   0  10  186.18   13.30 
   1   0  11  431.58   24.21 
  -1   0 -11  403.68   21.56 
  -1   0 -11  424.81   19.27 
  -1   0 -11  411.52   21.37 
   1   0  12  164.94   16.65 
  -1   0 -12  147.54   14.05 
  -1   0 -12  158.83   13.01 
  -1   0 -12  162.36   14.87 
   1   0  13  196.20   17.39 
  -1   0 -13  204.41   14.58 
  -1   0 -13  208.92   17.23 
   1   0  14    5.78   12.46 
  -1   0 -14    2.32    8.07 
  -1   0 -14    5.33    8.29 
   1   0  15  125.51   16.25 
  -1   0 -15  135.01   12.48 
  -1   0 -15  126.63   16.24 
   1   0  16   48.95   13.87 
  -1   0 -16   48.24   10.60 
  -1   0 -16   51.18   13.02 
   1   0  17   19.39   15.96 
  -1   0 -17   19.99    9.16 
  -1   0 -17   28.02   11.54 
   1   0  18   43.46   17.12 
  -1   0 -18   40.42   10.04 
  -1   0 -18   39.98   14.15 
  -1   0 -19   -1.87   13.57 
   1   1 -19    6.33   12.71 
  -1   1  19   -1.72   15.62 
   1   1 -19    7.13   10.01 
   1  -1 -19   12.40   14.39 
  -1  -1  19    8.70   14.60 
  -1   1  18  125.52   18.02 
   1   1 -18  123.58   14.10 
   1   1 -18  127.15   17.30 
  -1  -1  18  113.48   17.83 
   1  -1 -18  108.31   12.34 
   1  -1 -18  114.69   16.35 
  -1   1  17   70.02   16.70 
   1   1 -17   71.31   10.92 
   1   1 -17   69.91   14.32 
  -1  -1  17   65.54   17.38 
   1  -1 -17   62.57   10.87 
   1  -1 -17   63.83   14.50 
  -1   1  16  105.57   16.69 
   1   1 -16  109.83   12.59 
   1   1 -16  120.06   15.95 
  -1  -1  16  135.55   16.98 
   1  -1 -16  133.53   12.42 
   1  -1 -16  141.07   16.16 
  -1   1  15   52.65   14.23 
   1   1 -15   48.82    9.60 
   1   1 -15   49.91   12.46 
  -1  -1  15   48.83   14.50 
   1  -1 -15   37.07    8.44 
   1  -1 -15   44.27   12.37 
   1   1 -14   82.84   11.66 
  -1   1  14   78.70   13.83 
   1   1 -14   86.05   12.63 
   1  -1 -14   75.29   10.05 
  -1  -1  14   82.08   14.12 
   1  -1 -14   73.56   12.35 
   1  -1 -14   72.14   10.02 
   1   1 -13  205.51   14.21 
  -1   1  13  202.74   16.94 
   1   1 -13  217.57   16.23 
   1  -1 -13  191.35   13.71 
  -1  -1  13  197.60   18.77 
   1  -1 -13  191.81   15.97 
   1  -1 -13  181.08   14.74 
   1   1 -12   50.27    8.89 
  -1   1  12   47.30   11.40 
   1   1 -12   49.51   11.09 
   1  -1 -12   79.69    9.35 
  -1  -1  12   79.35   13.77 
   1  -1 -12   79.94   12.64 
   1  -1 -12   70.91   10.61 
   1   1 -11  281.79   17.91 
  -1   1  11  302.87   19.56 
   1   1 -11  294.83   18.05 
   1   1 -11  309.46   16.79 
  -1  -1  11  325.14   21.70 
   1  -1 -11  335.55   17.05 
   1  -1 -11  315.91   19.41 
   1  -1 -11  311.73   18.89 
   1   1 -10   20.36    8.23 
  -1   1  10   21.93    7.97 
   1   1 -10   22.23    6.98 
   1   1 -10   17.97    8.12 
  -1  -1  10   25.18    8.54 
   1  -1 -10   29.77    7.04 
   1  -1 -10   25.55    8.11 
   1  -1 -10   27.63    7.31 
   1  -1 -10   25.63    7.42 
  -1  -1  10   24.81    7.54 
   1   1  -9  196.95   15.87 
  -1   1   9  194.22   16.83 
   1   1  -9  199.10   16.30 
   1   1  -9  201.25   15.15 
   1   1  -9  197.77   16.77 
  -1   1   9  199.36   15.27 
   1  -1  -9  191.52   16.36 
   1  -1  -9  188.00   15.54 
   1  -1  -9  206.09   16.87 
  -1  -1   9  194.76   17.78 
   1  -1  -9  194.90   14.86 
  -1  -1   9  182.45   14.35 
  -1   1   8  169.51   15.96 
   1   1  -8  183.59   17.35 
  -1   1   8  183.36   17.51 
   1   1  -8  168.16   16.72 
   1   1  -8  186.55   17.26 
   1   1  -8  173.31   15.83 
   1  -1  -8  234.89   19.10 
   1  -1  -8  233.06   20.33 
   1  -1  -8  223.29   20.02 
  -1  -1   8  217.54   20.91 
  -1  -1   8  231.73   19.25 
   1   1  -7  974.77   36.62 
   1   1  -7  948.85   35.84 
   1   1  -7  972.23   35.02 
  -1  -1   7  782.45   35.29 
   1  -1  -7  820.47   30.03 
   1  -1  -7  768.59   32.03 
  -1  -1   7  780.17   29.59 
   1   1  -6  169.40   15.34 
  -1   1   6  162.91   15.26 
  -1  -1   6  297.46   24.29 
  -1   1   5  151.02   13.15 
   1   1  -5  154.57   14.43 
  -1   1   5  145.00   13.17 
   1   1  -5  152.62   12.96 
  -1  -1   5   91.10   12.54 
   1  -1  -5   90.90   11.03 
   1  -1  -5  106.06   10.27 
   1  -1  -5   94.69   11.22 
  -1  -1   5   97.03   10.23 
   1   1  -4 1061.80   41.63 
  -1   1   4 1064.55   38.84 
  -1   1   4 1130.14   43.65 
   1   1  -4  962.60   39.20 
  -1   1   4 1013.79   38.24 
   1   1  -4 1008.36   36.53 
   1   1  -4 1072.30   38.57 
   1  -1  -4 1032.75   39.69 
   1   1  -3  405.82   25.06 
  -1   1   3  396.49   22.70 
  -1   1   3  385.30   23.43 
   1   1  -3  390.01   24.53 
  -1   1   3  419.98   25.43 
   1   1  -3  388.48   21.99 
  -1  -1   3  310.62   21.75 
   1  -1  -3  304.28   20.56 
   1   1  -2  952.09   39.22 
  -1   1   2  916.45   35.02 
   1   1  -2 1009.19   37.18 
   1   1  -2  986.51   39.39 
  -1   1   2  980.20   37.53 
   1  -1  -2 1124.80   40.42 
   1  -1  -2 1100.13   39.65 
   1   1  -1 1291.89   49.87 
  -1   1   1 1339.34   46.51 
   1   1  -1 1308.44   45.69 
   1   1  -1 1323.33   47.06 
  -1   1   1 1304.44   43.55 
  -1   1   1 1188.52   43.47 
  -1  -1   1 1485.31   52.27 
  -1   1   0  178.79   16.42 
   1   1   0  174.30   16.80 
   1   1   0  175.33   14.65 
  -1   1   0  177.71   13.30 
   1   1   0  166.07   14.67 
  -1   1   0  158.79   13.48 
  -1   1  -1   99.58    9.78 
  -1   1  -1  100.90   12.98 
   1   1   1   97.89   10.72 
   1   1   1   90.23   10.66 
  -1   1  -1   94.21   11.19 
   1   1   1   98.61   11.22 
  -1  -1  -1   78.31   10.13 
   1  -1   1   70.32    8.44 
   1  -1   1   79.69   11.45 
   1  -1   1   62.16    7.79 
   1   1   2  164.99   14.17 
  -1   1  -2  162.02   15.73 
   1   1   2  165.37   13.60 
   1   1   2  158.76   13.45 
  -1   1  -2  156.41   12.61 
  -1   1  -2  164.49   15.48 
  -1  -1  -2  164.12   13.40 
   1  -1   2  190.93   13.88 
  -1  -1  -2  201.15   15.84 
   1  -1   2  200.60   17.86 
  -1  -1  -2  199.22   16.03 
   1  -1   2  195.03   16.19 
   1   1   3 2328.07   69.30 
  -1   1  -3 2375.55   79.04 
   1   1   3 2450.58   74.30 
   1   1   3 2407.98   67.81 
  -1   1  -3 2471.20   70.47 
  -1   1  -3 2326.76   71.20 
  -1  -1  -3 2564.88   74.84 
   1  -1   3 2644.65   75.03 
  -1  -1  -3 2670.26   74.98 
   1  -1   3 2743.43   89.88 
  -1  -1  -3 2687.88   79.70 
   1  -1   3 2548.58   74.98 
   1   1   4 2015.26   61.42 
  -1   1  -4 2077.98   68.82 
   1   1   4 2212.59   70.06 
   1   1   4 2196.49   63.49 
  -1   1  -4 1874.75   58.33 
  -1   1  -4 2180.81   67.73 
  -1  -1  -4 2068.63   64.83 
   1  -1   4 2156.19   63.19 
  -1  -1  -4 2146.02   62.76 
   1  -1   4 2100.96   69.34 
  -1  -1  -4 2087.74   65.97 
   1  -1   4 2075.39   63.47 
  -1   1  -5   99.75   11.22 
  -1   1  -5   95.21   11.81 
   1   1   5  109.78   12.09 
   1   1   5  109.06   10.38 
   1   1   5  112.11   11.43 
  -1  -1  -5   57.36    8.62 
   1  -1   5   59.40    8.03 
  -1  -1  -5   58.66    8.86 
  -1  -1  -5   57.90    7.80 
   1  -1   5   61.72   10.06 
   1  -1   5   53.11    8.21 
   1   1   6  828.91   29.65 
   1   1   6  836.81   34.83 
   1   1   6  786.09   30.02 
  -1   1  -6  865.34   34.18 
  -1  -1  -6  804.15   31.20 
   1  -1   6  798.07   28.79 
  -1  -1  -6  836.41   33.54 
  -1  -1  -6  786.97   28.97 
   1  -1   6  804.38   35.11 
   1  -1   6  813.17   30.39 
   1   1   7   55.99    8.64 
   1   1   7   68.11   10.35 
  -1   1  -7   74.94    9.96 
   1   1   7   66.91    8.90 
  -1   1  -7   72.07   10.72 
  -1  -1  -7   58.55    8.74 
  -1  -1  -7   55.13    8.86 
  -1  -1  -7   55.44    9.68 
   1  -1   7   57.18    8.31 
   1  -1   7   50.93   10.46 
   1  -1   7   57.00    9.30 
  -1   1  -8  150.68   13.12 
   1   1   8  157.07   15.39 
  -1   1  -8  155.21   14.41 
   1   1   8  156.69   14.40 
  -1  -1  -8   92.74   11.86 
  -1  -1  -8   89.48   10.63 
   1  -1   8   94.88   11.12 
  -1  -1  -8   89.76   12.00 
   1  -1   8   90.54   13.17 
   1  -1   8   88.77   10.25 
  -1   1  -9  268.01   16.79 
   1   1   9  260.39   19.39 
  -1   1  -9  259.30   17.93 
   1   1   9  262.67   16.08 
  -1  -1  -9  324.59   19.41 
  -1  -1  -9  327.03   18.43 
   1  -1   9  304.49   17.35 
  -1  -1  -9  319.18   20.42 
   1  -1   9  317.72   22.42 
   1  -1   9  325.33   19.01 
  -1   1 -10  357.19   20.60 
   1   1  10  351.43   22.19 
  -1   1 -10  346.03   18.49 
  -1  -1 -10  383.09   20.61 
   1  -1  10  368.67   23.27 
  -1  -1 -10  360.34   21.28 
   1  -1  10  391.99   19.35 
  -1  -1 -10  377.84   21.70 
  -1  -1 -10  374.08   19.19 
   1  -1  10  389.35   19.84 
  -1   1 -11  510.82   23.01 
   1   1  11  530.44   27.66 
  -1   1 -11  506.19   24.18 
  -1  -1 -11  521.90   22.73 
   1  -1  11  527.51   28.38 
  -1  -1 -11  534.29   25.73 
  -1  -1 -11  513.67   24.70 
  -1   1 -12  136.26   12.90 
   1   1  12  144.37   16.02 
  -1   1 -12  140.00   14.03 
  -1  -1 -12  138.17   11.89 
   1  -1  12  143.33   16.98 
  -1  -1 -12  151.09   15.24 
  -1  -1 -12  136.98   13.40 
  -1   1 -13  449.46   20.44 
   1   1  13  432.43   24.74 
  -1   1 -13  404.90   21.27 
  -1  -1 -13  492.92   21.14 
   1  -1  13  466.59   25.85 
  -1  -1 -13  474.67   23.66 
  -1  -1 -13  476.14   22.64 
   1   1  14  132.11   15.24 
  -1   1 -14  134.52   13.24 
  -1   1 -14  129.54   14.16 
   1  -1  14  124.59   17.99 
  -1  -1 -14  118.15   12.13 
  -1  -1 -14  128.88   14.30 
   1   1  15   57.61   14.32 
  -1   1 -15   61.07   10.33 
  -1   1 -15   50.40   12.20 
   1  -1  15   60.05   14.97 
  -1  -1 -15   60.54   10.03 
  -1  -1 -15   63.07   12.31 
   1   1  16   63.18   13.96 
  -1   1 -16   67.66   11.25 
  -1   1 -16   74.06   13.54 
   1  -1  16   53.12   15.71 
  -1  -1 -16   60.59   10.43 
  -1  -1 -16   57.44   13.43 
   1   1  17   51.06   15.55 
  -1   1 -17   52.91   10.78 
  -1   1 -17   51.15   14.86 
   1  -1  17   58.20   17.65 
  -1  -1 -17   55.60   10.91 
  -1  -1 -17   58.84   14.44 
  -1   1 -18   38.50   13.33 
   1   1  18   25.19   14.28 
  -1   1 -18   29.61   11.04 
  -1  -1 -18   26.17   12.43 
   1  -1  18   35.97   16.25 
   1   2 -18    4.71   11.72 
  -1   2  18   -1.16   13.50 
   1   2 -18    5.20    9.39 
   1  -2 -18    9.59   13.07 
  -1  -2  18    9.87   14.87 
   1   2 -17   43.18   12.37 
  -1   2  17   42.77   14.27 
   1   2 -17   49.67   11.91 
   1  -2 -17   40.07   14.44 
  -1  -2  17   46.02   16.16 
  -1   2  16    5.33   12.91 
   1   2 -16    2.22    9.85 
   1   2 -16    7.22   11.30 
  -1  -2  16    4.46   13.64 
   1  -2 -16    1.59    6.83 
   1  -2 -16   -1.35   10.55 
  -1   2  15  210.57   18.78 
   1   2 -15  218.85   15.66 
   1   2 -15  205.23   16.38 
  -1  -2  15  175.00   19.27 
   1  -2 -15  163.36   12.91 
   1  -2 -15  176.39   17.79 
  -1   2  14  246.39   19.43 
   1   2 -14  243.27   15.47 
   1   2 -14  246.79   18.00 
  -1  -2  14  213.80   19.65 
   1  -2 -14  229.79   14.55 
   1  -2 -14  236.09   17.94 
   1   2 -13  206.48   14.60 
  -1   2  13  201.63   17.24 
   1   2 -13  196.67   16.14 
   1  -2 -13  180.91   15.00 
  -1  -2  13  175.21   19.00 
   1  -2 -13  172.89   17.10 
   1  -2 -13  170.75   15.62 
   1   2 -12  368.35   19.99 
  -1   2  12  358.56   22.69 
   1   2 -12  371.23   21.41 
   1  -2 -12  405.52   20.31 
  -1  -2  12  373.21   25.08 
   1  -2 -12  396.47   22.98 
   1  -2 -12  391.24   22.07 
   1   2 -11  704.21   27.04 
  -1   2  11  665.30   29.26 
   1   2 -11  665.72   27.64 
   1  -2 -11  651.04   25.04 
  -1  -2  11  584.62   30.55 
   1  -2 -11  582.42   26.83 
   1  -2 -11  614.08   26.97 
   1   2 -10  261.54   17.19 
  -1   2  10  272.00   18.39 
   1   2 -10  261.11   16.98 
   1  -2 -10  274.74   17.52 
  -1  -2  10  232.76   19.00 
   1  -2 -10  264.92   15.55 
  -1  -2  10  264.12   16.05 
   1   2  -9 1395.15   49.21 
  -1   2   9 1447.53   50.06 
   1   2  -9 1450.98   49.76 
   1   2  -9 1396.67   50.50 
  -1   2   9 1420.52   47.19 
   1  -2  -9 1489.72   52.07 
   1  -2  -9 1478.01   49.52 
   1  -2  -9 1520.45   49.29 
  -1  -2   9 1490.72   51.57 
   1   2  -8  894.52   35.01 
  -1   2   8  925.04   35.03 
   1   2  -8  897.70   34.00 
  -1   2   8  904.52   33.55 
   1  -2  -8 1080.55   36.69 
   1  -2  -8 1054.52   38.98 
   1  -2  -8 1055.69   37.24 
  -1  -2   8 1070.46   36.65 
   1   2  -7   21.35    6.71 
  -1   2   7   22.03    7.07 
   1   2  -7   21.09    6.78 
  -1   2   7   21.32    7.35 
   1  -2  -7   21.97    5.85 
   1  -2  -7   21.76    6.37 
   1  -2  -7   21.58    6.68 
  -1  -2   7   24.20    6.93 
   1   2  -6  494.65   35.14 
  -1   2   6  502.15   23.22 
   1   2  -6  474.21   30.25 
   1   2  -6  482.12   34.59 
   1   2  -6  492.76   33.42 
  -1   2   6  505.56   23.88 
   1  -2  -6  514.98   23.42 
   1  -2  -6  530.03   22.80 
   1  -2  -6  515.15   24.49 
  -1  -2   6  518.02   23.00 
   1   2  -5  459.24   31.38 
  -1   2   5  492.42   34.11 
   1   2  -5  511.26   22.96 
   1   2  -5  472.43   32.10 
   1   2  -5  510.29   22.65 
  -1   2   5  490.65   33.60 
   1  -2  -5  556.24   24.31 
   1  -2  -5  605.68   25.11 
   1  -2  -5  560.07   25.47 
  -1  -2   5  573.45   24.35 
   1   2  -4  637.62   33.47 
  -1   2   4  633.87   33.14 
   1   2  -4  642.96   33.78 
   1   2  -4  654.92   31.74 
   1   2  -4  668.13   31.90 
  -1   2   4  635.03   31.74 
   1  -2  -4  717.04   43.46 
   1  -2  -4  630.73   30.34 
  -1  -2   4  716.80   42.07 
   1   2  -3 3415.22  111.35 
  -1   2   3 3575.70   98.86 
   1   2  -3 3577.00  100.68 
  -1   2   3 3698.09  103.87 
   1   2  -3 3654.36   99.39 
   1   2  -3 3526.67  101.68 
  -1   2   3 3462.53   96.24 
   1  -2  -3 3114.61   89.00 
  -1   2   2  385.90   22.05 
   1   2  -2  402.75   26.13 
  -1   2   2  400.52   23.39 
   1   2  -2  400.46   24.84 
   1   2  -2  382.26   22.60 
  -1   2   2  414.59   24.07 
   1  -2  -2  336.27   21.43 
   1  -2  -2  319.52   19.84 
  -1  -2   2  297.11   23.21 
  -1  -2   2  334.08   20.84 
   1   2  -1  504.39   27.28 
   1   2  -1  523.70   31.28 
  -1   2   1  515.40   27.97 
   1   2  -1  523.30   29.07 
  -1   2   1  516.16   25.97 
   1   2  -1  500.57   27.97 
  -1   2   1  510.86   27.68 
   1  -2  -1  493.74   25.51 
   1  -2  -1  535.75   29.36 
  -1  -2   1  498.35   31.44 
  -1   2   0 7078.27  184.93 
   1   2   0 6647.03  184.64 
  -1   2   0 6918.74  176.83 
  -1   2   0 6947.17  169.95 
   1   2   0 7099.56  182.46 
   1   2   0 6746.26  170.32 
  -1   2   0 7194.56  180.62 
  -1  -2   0 7178.96  184.74 
   1  -2   0 7323.52  202.27 
  -1  -2   0 6879.63  174.62 
   1  -2   0 6982.43  173.27 
  -1   2  -1 5967.03  155.95 
   1   2   1 5793.47  153.44 
   1   2   1 6208.13  167.20 
  -1   2  -1 6107.92  157.19 
  -1   2  -1 6353.10  205.68 
  -1  -2  -1 5489.12  145.54 
  -1  -2  -1 5292.98  138.58 
  -1   2  -2 5272.42  156.62 
  -1   2  -2 5470.01  154.12 
   1   2   2 5407.92  139.20 
   1   2   2 5175.62  141.84 
  -1   2  -2 5259.36  136.36 
   1   2   2 5359.24  191.71 
   1  -2   2 5954.45  176.09 
  -1  -2  -2 6059.15  157.72 
  -1  -2  -2 6211.15  176.20 
   1  -2   2 5739.29  146.89 
  -1   2  -3 2351.55   69.10 
  -1   2  -3 2390.58   81.33 
   1   2   3 2352.73   69.86 
   1   2   3 2325.93   70.77 
  -1   2  -3 2343.85   69.03 
   1   2   3 2277.90   97.26 
   1  -2   3 2240.14   79.40 
  -1  -2  -3 2219.31   67.13 
  -1  -2  -3 2207.89   70.10 
   1  -2   3 2252.20   66.17 
  -1   2  -4  388.07   22.86 
  -1   2  -4  382.60   24.53 
   1   2   4  379.01   22.19 
   1   2   4  366.95   20.90 
   1   2   4  386.67   22.79 
  -1   2  -4  371.79   21.56 
  -1  -2  -4  355.91   21.18 
   1  -2   4  378.53   21.40 
  -1  -2  -4  361.05   22.58 
   1  -2   4  368.24   25.77 
   1  -2   4  340.37   20.30 
  -1   2  -5  476.31   31.08 
  -1   2  -5  466.56   32.33 
   1   2   5  464.35   30.46 
  -1   2  -5  431.65   28.68 
   1   2   5  445.25   29.15 
   1   2   5  459.76   28.82 
  -1  -2  -5  484.68   33.13 
   1  -2   5  501.61   22.03 
  -1  -2  -5  493.35   33.38 
   1  -2   5  491.27   37.07 
   1  -2   5  502.79   22.60 
  -1   2  -6 2459.72   62.94 
  -1   2  -6 2456.39   71.35 
   1   2   6 2434.46   67.10 
  -1   2  -6 2468.82   66.11 
   1   2   6 2372.15   65.51 
   1  -2   6 2796.38   80.13 
   1  -2   6 2762.86   88.63 
  -1  -2  -6 2690.17   68.76 
   1  -2   6 2681.24   66.58 
  -1   2  -7  465.61   25.31 
  -1   2  -7  469.80   26.02 
   1   2   7  481.54   26.22 
   1   2   7  450.50   23.10 
   1   2   7  489.81   25.57 
  -1  -2  -7  505.68   25.50 
   1  -2   7  476.28   23.68 
  -1  -2  -7  499.18   27.66 
  -1  -2  -7  527.01   25.84 
   1  -2   7  498.42   29.48 
   1  -2   7  522.46   25.84 
   1   2   8  222.53   16.30 
  -1   2  -8  232.67   17.86 
   1   2   8  234.64   18.23 
  -1   2  -8  218.11   16.91 
   1   2   8  233.15   16.21 
  -1  -2  -8  282.24   19.04 
   1  -2   8  288.06   18.28 
  -1  -2  -8  285.82   20.45 
  -1  -2  -8  297.83   20.74 
   1  -2   8  286.48   22.42 
   1  -2   8  280.21   18.69 
  -1   2  -9   36.18    8.82 
   1   2   9   36.45    8.68 
  -1   2  -9   35.37    7.98 
  -1  -2  -9   41.48    8.47 
   1  -2   9   40.92   11.00 
  -1  -2  -9   37.96    8.38 
   1  -2   9   40.96    7.92 
  -1  -2  -9   35.10    8.04 
  -1  -2  -9   38.12    7.24 
   1  -2   9   38.33    8.18 
   1   2  10  268.45   18.25 
  -1   2 -10  282.92   17.90 
  -1   2 -10  285.23   16.03 
   1  -2  10  314.12   22.05 
  -1  -2 -10  304.79   17.27 
  -1  -2 -10  281.25   17.04 
  -1  -2 -10  305.06   19.66 
  -1  -2 -10  309.34   18.78 
   1  -2  10  310.68   16.76 
  -1   2 -11  355.77   19.05 
   1   2  11  337.79   21.65 
  -1   2 -11  366.35   21.14 
  -1  -2 -11  338.05   18.43 
   1  -2  11  328.23   23.25 
  -1  -2 -11  331.58   21.00 
  -1  -2 -11  334.65   19.79 
  -1   2 -12  564.38   25.54 
   1   2  12  555.69   28.16 
  -1   2 -12  567.88   26.95 
  -1  -2 -12  617.91   26.71 
   1  -2  12  591.83   32.58 
  -1  -2 -12  602.02   29.78 
  -1  -2 -12  593.74   28.24 
  -1   2 -13  113.53   13.29 
   1   2  13  111.93   15.73 
  -1   2 -13  131.09   14.88 
  -1  -2 -13   82.93   11.01 
   1  -2  13   81.92   14.66 
  -1  -2 -13   78.64   13.69 
  -1  -2 -13   78.00   11.25 
   1   2  14  129.81   16.12 
  -1   2 -14  132.81   13.67 
  -1   2 -14  135.52   15.13 
   1  -2  14  135.92   18.31 
  -1  -2 -14  126.96   12.15 
  -1  -2 -14  136.03   16.02 
   1   2  15  192.84   18.20 
  -1   2 -15  187.08   15.16 
  -1   2 -15  180.84   15.61 
   1  -2  15  179.72   20.26 
  -1  -2 -15  178.89   13.94 
  -1  -2 -15  183.61   17.93 
   1   2  16  126.39   16.84 
  -1   2 -16  125.21   13.33 
  -1   2 -16  139.78   16.36 
   1  -2  16  122.90   18.09 
  -1  -2 -16  117.40   12.03 
  -1  -2 -16  109.27   15.11 
  -1   2 -17   10.75   11.28 
   1   2  17    9.79   14.87 
  -1   2 -17   16.87   10.40 
  -1  -2 -17   12.42   13.59 
   1  -2  17    4.67   15.55 
  -1   2 -18    5.62   11.90 
   1   2  18    7.08   13.90 
  -1   2 -18    6.30   10.23 
  -1  -2 -18    6.72   14.03 
   1  -2  18    7.58   15.82 
   1   3 -18   91.12   13.82 
  -1   3  18   82.99   17.23 
   1   3 -18   93.62   13.52 
   1  -3 -18   77.47   16.17 
  -1  -3  18   81.72   19.64 
   1   3 -17   65.03   12.41 
  -1   3  17   68.82   15.66 
   1   3 -17   70.42   12.65 
  -1  -3  17   70.14   17.41 
   1   3 -16   67.83   12.05 
  -1   3  16   65.27   14.81 
   1   3 -16   71.36   14.12 
  -1  -3  16   53.44   15.65 
  -1   3  15    0.60   10.68 
   1   3 -15    0.21   10.60 
   1   3 -15    1.97   10.35 
  -1   3  14   14.21   10.75 
   1   3 -14   14.55    9.43 
   1   3 -14   13.75    8.74 
   1  -3 -14   12.09    6.71 
  -1   3  13   89.92   13.20 
   1   3 -13   85.27   12.04 
   1   3 -13   81.11   11.29 
   1  -3 -13   81.62    9.89 
  -1   3  12   75.13   12.75 
   1   3 -12   79.16   11.56 
   1   3 -12   76.06   12.29 
   1  -3 -12   45.95    9.00 
   1  -3 -12   41.18    7.81 
  -1   3  11   -0.76    8.98 
   1   3 -11    1.22    7.75 
   1  -3 -11   17.92    7.00 
   1  -3 -11   16.38    9.54 
   1  -3 -11   16.94    6.46 
  -1   3  10  312.90   18.99 
   1   3 -10  299.88   17.71 
   1  -3 -10  317.46   18.76 
   1  -3 -10  319.59   20.57 
   1  -3 -10  325.14   17.47 
  -1  -3  10  306.78   17.54 
  -1   3   9  140.59   13.19 
   1   3  -9  140.04   12.69 
   1   3  -9  126.85   11.62 
   1  -3  -9  143.88   13.05 
   1  -3  -9  142.82   14.67 
   1  -3  -9  140.60   12.39 
  -1  -3   9  144.71   12.05 
   1   3  -8  199.46   17.96 
  -1   3   8  202.30   16.84 
   1   3  -8  199.24   16.26 
   1   3  -8  186.97   16.10 
  -1   3   8  202.56   17.09 
   1  -3  -8  208.06   18.42 
   1  -3  -8  204.43   16.94 
  -1  -3   8  204.34   16.29 
   1   3  -7   45.74    9.12 
   1   3  -7   44.83    9.37 
  -1   3   7   48.26    9.14 
  -1   3   7   44.76    8.17 
   1   3  -7   47.09    8.16 
   1   3  -7   48.05    8.84 
   1  -3  -7    8.65    6.51 
   1  -3  -7   10.08    6.58 
  -1  -3   7    8.07    8.74 
  -1  -3   7    8.13    5.83 
   1   3  -6  747.86   35.43 
   1   3  -6  793.39   36.63 
  -1   3   6  782.06   35.05 
  -1   3   6  740.12   35.01 
   1   3  -6  775.92   34.27 
   1   3  -6  767.11   34.12 
   1  -3  -6  744.11   35.82 
   1  -3  -6  729.54   33.25 
  -1  -3   6  706.19   37.79 
  -1  -3   6  706.22   31.69 
   1   3  -5  298.28   21.23 
   1   3  -5  293.39   20.64 
  -1   3   5  277.65   21.94 
  -1   3   5  271.72   21.74 
   1   3  -5  280.82   21.61 
   1   3  -5  317.18   18.91 
   1  -3  -5  290.51   23.66 
   1  -3  -5  287.35   22.43 
  -1  -3   5  287.21   25.59 
  -1  -3   5  285.94   22.22 
   1   3  -4   20.12    6.50 
   1   3  -4   23.88    7.56 
  -1   3   4   19.76    5.67 
  -1   3   4   21.96    6.46 
   1   3  -4   21.62    5.71 
   1   3  -4   22.10    5.81 
   1  -3  -4   23.97    7.06 
   1  -3  -4   24.20    6.66 
  -1  -3   4   23.80    7.81 
  -1  -3   4   24.73    6.41 
   1   3  -3   41.45    7.16 
   1   3  -3   43.00    9.27 
  -1   3   3   43.14    8.09 
  -1   3   3   42.15    8.31 
   1   3  -3   45.23    8.57 
   1   3  -3   43.95    7.69 
  -1   3   3   43.93    7.88 
   1  -3  -3   30.72    6.79 
   1  -3  -3   31.97    7.12 
  -1  -3   3   28.83    7.91 
  -1  -3   3   32.07    6.85 
  -1   3   2  474.21   31.00 
   1   3  -2  478.67   35.46 
  -1   3   2  475.93   31.43 
  -1   3   2  489.30   32.44 
   1   3  -2  495.30   35.10 
   1   3  -2  471.57   30.92 
   1   3  -2  470.03   31.34 
   1   3  -2  471.09   30.72 
   1  -3  -2  634.27   26.83 
   1  -3  -2  638.77   25.66 
  -1  -3   2  637.21   32.63 
  -1   3   1  762.75   33.69 
   1   3  -1  790.25   35.84 
  -1   3   1  747.84   30.42 
   1   3  -1  766.00   31.74 
  -1   3   1  764.51   29.92 
   1   3  -1  772.56   29.06 
   1   3  -1  767.14   31.39 
  -1   3   1  783.81   30.72 
   1   3  -1  753.10   30.96 
  -1   3   0  342.95   26.63 
   1   3   0  345.28   27.08 
   1   3   0  352.12   25.37 
  -1   3   0  351.92   25.22 
   1   3   0  351.69   25.52 
  -1   3   0  361.11   24.39 
   1   3   0  356.36   25.65 
   1   3   0  362.96   24.72 
  -1   3   0  355.55   25.46 
  -1  -3   0  286.49   22.34 
   1  -3   0  308.87   21.89 
   1  -3   0  298.44   23.05 
   1   3   1  947.98   37.99 
  -1   3  -1  927.85   38.45 
   1   3   1  924.57   34.68 
  -1   3  -1  911.35   31.79 
   1   3   1  940.56   34.82 
   1   3   1  955.79   35.48 
  -1   3  -1  932.30   35.78 
  -1   3  -1  908.65   38.44 
  -1  -3  -1 1006.94   39.47 
  -1  -3  -1 1036.12   38.23 
   1  -3   1  978.74   33.88 
  -1   3  -2  283.82   23.51 
   1   3   2  283.64   21.36 
  -1   3  -2  275.24   20.28 
  -1   3  -2  273.15   21.83 
   1   3   2  246.81   20.00 
  -1   3  -2  270.85   21.98 
   1   3   2  300.34   22.45 
  -1  -3  -2  349.36   24.77 
  -1  -3  -2  357.85   26.61 
  -1  -3  -2  361.20   27.04 
   1  -3   2  347.57   23.85 
  -1   3  -3  623.54   29.80 
   1   3   3  630.24   26.44 
   1   3   3  584.74   29.10 
  -1   3  -3  592.34   25.03 
   1   3   3  632.57   26.85 
  -1   3  -3  592.94   24.70 
  -1  -3  -3  705.86   29.03 
  -1  -3  -3  759.97   32.61 
   1  -3   3  720.26   27.43 
  -1  -3  -3  705.13   30.81 
   1  -3   3  702.47   28.25 
  -1   3  -4 3289.74   90.35 
   1   3   4 3250.64   82.84 
   1   3   4 3246.30   76.82 
   1   3   4 3363.72   82.71 
  -1   3  -4 3247.46   78.90 
  -1   3  -4 3144.09   76.07 
  -1  -3  -4 3201.03   78.35 
  -1  -3  -4 3318.09   86.50 
  -1  -3  -4 3243.69   84.45 
   1  -3   4 3067.57   78.61 
  -1   3  -5 1427.37   57.34 
   1   3   5 1427.57   54.45 
  -1   3  -5 1355.39   51.78 
   1   3   5 1455.23   55.55 
  -1   3  -5 1439.82   54.53 
   1   3   5 1321.42   49.24 
  -1  -3  -5 1454.80   55.23 
  -1  -3  -5 1456.45   65.05 
  -1  -3  -5 1493.85   59.35 
   1  -3   5 1451.93   54.07 
  -1   3  -6  639.96   29.36 
   1   3   6  630.10   27.05 
   1   3   6  634.10   27.30 
  -1   3  -6  612.66   27.01 
  -1   3  -6  658.96   27.66 
  -1  -3  -6  584.14   28.11 
  -1  -3  -6  609.04   26.50 
  -1  -3  -6  546.20   27.09 
   1  -3   6  612.43   25.92 
  -1   3  -7  202.90   16.94 
  -1   3  -7  213.64   18.84 
   1   3   7  204.83   17.17 
   1   3   7  211.27   17.09 
  -1   3  -7  202.10   16.47 
  -1  -3  -7  227.45   17.63 
  -1  -3  -7  228.95   19.38 
   1  -3   7  226.08   17.21 
  -1  -3  -7  217.15   19.68 
   1  -3   7  216.45   20.36 
   1  -3   7  236.09   18.06 
  -1   3  -8 1008.20   35.75 
   1   3   8 1044.82   37.57 
  -1   3  -8  944.36   34.75 
   1  -3   8  925.92   40.56 
  -1  -3  -8  906.50   35.74 
  -1  -3  -8  886.60   34.86 
  -1  -3  -8  924.72   33.69 
   1  -3   8  911.62   32.88 
   1   3   9  384.18   20.40 
  -1   3  -9  387.37   20.13 
   1  -3   9  476.15   26.88 
  -1  -3  -9  464.80   20.50 
  -1  -3  -9  460.15   20.61 
  -1  -3  -9  444.24   22.30 
   1  -3   9  449.89   20.31 
  -1   3 -10  120.22   12.92 
   1   3  10  122.02   13.45 
  -1  -3 -10  141.69   13.25 
  -1  -3 -10  142.14   12.46 
   1  -3  10  145.04   16.68 
   1  -3  10  143.31   12.02 
  -1   3 -11  161.28   14.54 
   1   3  11  156.51   15.43 
  -1  -3 -11  158.51   14.07 
  -1  -3 -11  159.57   12.87 
   1  -3  11  176.86   18.79 
   1  -3  11  176.49   13.66 
  -1   3 -12   57.77   10.02 
   1   3  12   60.75   12.49 
  -1   3 -12   51.67   10.85 
  -1  -3 -12   53.13    9.36 
   1  -3  12   54.17   13.69 
  -1  -3 -12   51.89    9.24 
   1   3  13   28.28   10.99 
  -1   3 -13   24.75    8.57 
  -1   3 -13   24.86    9.11 
   1  -3  13   44.40   13.54 
  -1  -3 -13   39.59    8.54 
  -1  -3 -13   41.13   11.75 
  -1   3 -14   19.73    9.58 
   1   3  14   19.88   10.80 
  -1   3 -14   29.39   10.59 
  -1  -3 -14   26.68   12.36 
   1  -3  14   31.19   15.06 
  -1   3 -15   29.93   10.17 
   1   3  15   25.72   12.13 
  -1   3 -15   30.12   11.52 
  -1  -3 -15   30.50   13.38 
   1  -3  15   33.00   15.50 
  -1   3 -16   98.76   13.27 
   1   3  16   97.43   15.95 
  -1   3 -16   91.57   12.62 
  -1  -3 -16   85.34   16.08 
   1  -3  16   86.13   18.65 
  -1   3 -17    3.00   10.31 
   1   3  17   -0.77   13.09 
  -1   3 -17   -2.59    9.94 
  -1  -3 -17   -5.00   11.84 
   1  -3  17   -2.35   16.61 
  -1   3 -18   35.39   12.68 
   1   3  18   31.31   15.41 
   1  -3  18   37.72   17.88 
  -1  -3 -18   39.61   16.83 
  -1   4  17  147.22   17.71 
   1   4 -17  137.88   14.33 
   1  -4 -17  155.36   18.44 
  -1   4  16   18.36   14.07 
   1   4 -16   22.51   11.43 
   1   4 -16   17.37   11.31 
   1  -4 -16   16.36   14.34 
  -1   4  15   71.52   14.57 
   1   4 -15   70.71   12.67 
   1   4 -15   71.12   11.46 
   1  -4 -15   57.68   14.74 
   1   4 -14  403.85   21.25 
  -1   4  14  422.25   23.94 
   1   4 -14  407.80   19.92 
   1  -4 -14  387.88   22.80 
  -1  -4  14  354.98   25.71 
  -1   4  13  220.74   17.10 
   1   4 -13  222.50   16.80 
  -1  -4  13  222.49   21.98 
   1  -4 -13  231.05   18.79 
  -1   4  12   39.79   10.58 
   1   4 -12   40.90    9.43 
  -1  -4  12   53.43   14.32 
   1  -4 -12   53.02   11.25 
   1   4 -11   22.23    8.80 
  -1   4  11   26.03    9.75 
   1   4 -11   28.27    8.98 
   1  -4 -11   28.93   11.64 
  -1  -4  11   30.04   12.48 
   1   4 -10  114.46   11.69 
  -1   4  10  114.37   12.32 
   1   4 -10  106.24   11.27 
   1  -4 -10  105.15   13.22 
  -1  -4  10  109.33   15.80 
  -1  -4  10  106.01   11.26 
   1   4  -9   73.23    9.82 
  -1   4   9   71.35   10.80 
   1   4  -9   78.83   11.06 
   1  -4  -9  105.51   12.82 
  -1  -4   9   99.33   14.59 
  -1  -4   9  105.46   11.26 
   1   4  -8  156.10   12.85 
  -1   4   8  157.85   13.56 
   1   4  -8  162.29   13.78 
   1  -4  -8  117.07   12.77 
  -1  -4   8  124.49   14.90 
  -1  -4   8  117.41   11.44 
   1   4  -7  170.78   12.78 
  -1   4   7  180.53   13.68 
   1   4  -7  179.99   14.02 
  -1   4   7  180.46   13.79 
  -1  -4   7  132.88   15.13 
   1  -4  -7  139.01   13.97 
   1  -4  -7  142.68   12.58 
  -1  -4   7  131.46   12.06 
   1   4  -6   43.29    9.17 
   1   4  -6   44.11   10.03 
  -1   4   6   47.74    8.74 
  -1   4   6   43.06    8.74 
   1   4  -6   47.70    8.38 
   1   4  -6   48.53    9.35 
   1  -4  -6   43.69    9.75 
   1  -4  -6   36.85    8.20 
  -1  -4   6   41.99   10.22 
  -1  -4   6   40.39    7.98 
   1   4  -5   27.54    8.03 
   1   4  -5   28.52    8.46 
  -1   4   5   26.57    7.37 
  -1   4   5   27.49    7.05 
   1   4  -5   28.33    6.78 
   1   4  -5   29.92    7.01 
   1  -4  -5   25.37    8.05 
   1  -4  -5   22.17    7.82 
  -1  -4   5   25.10    8.94 
  -1  -4   5   22.92    6.53 
   1   4  -4 1224.12   43.66 
   1   4  -4 1236.17   46.33 
  -1   4   4 1235.65   42.33 
   1   4  -4 1238.57   40.82 
   1   4  -4 1186.92   41.97 
  -1   4   4 1140.38   42.36 
  -1   4   4 1222.36   40.01 
   1   4  -4 1204.70   41.80 
  -1   4   4 1244.92   41.47 
   1  -4  -4 1130.87   41.42 
  -1  -4   4 1113.46   47.15 
   1  -4  -4 1080.87   38.62 
   1   4  -3  763.43   33.12 
   1   4  -3  761.58   34.28 
  -1   4   3  795.33   31.90 
   1   4  -3  773.74   30.51 
   1   4  -3  770.33   31.78 
  -1   4   3  790.54   33.70 
  -1   4   3  792.97   29.59 
   1   4  -3  772.40   30.41 
  -1   4   3  787.39   31.38 
   1  -4  -3  787.38   32.88 
  -1  -4   3  759.14   36.95 
   1  -4  -3  770.23   30.84 
  -1   4   2 1085.68   48.07 
  -1   4   2 1124.56   46.25 
   1   4  -2 1148.20   50.32 
  -1   4   2 1163.86   47.56 
  -1   4   2 1075.99   45.68 
   1   4  -2 1182.53   48.37 
  -1   4   2 1114.38   43.81 
   1   4  -2 1172.88   46.04 
   1   4  -2 1111.92   46.19 
   1   4  -2 1107.33   46.03 
  -1  -4   2 1084.97   51.09 
   1  -4  -2 1133.48   47.84 
   1   4  -1  120.52   13.73 
  -1   4   1  124.15   15.09 
   1   4  -1  131.79   15.80 
  -1   4   1  129.47   14.01 
  -1   4   1  119.20   13.91 
   1   4  -1  124.14   13.98 
  -1   4   1  123.22   12.35 
   1   4  -1  124.82   13.06 
  -1   4   1  127.06   13.51 
   1   4  -1  123.71   13.35 
   1  -4  -1  121.77   14.20 
  -1  -4   1  123.17   15.59 
  -1   4   0 2117.64   80.35 
   1   4   0 2004.50   88.20 
   1   4   0 2151.03   77.76 
  -1   4   0 2081.20   74.66 
  -1   4   0 2095.79   75.81 
   1   4   0 2170.01   77.56 
  -1   4   0 2064.79   73.56 
   1   4   0 1989.43   70.59 
   1   4   0 2072.40   75.53 
  -1   4   0 1805.42   80.04 
  -1  -4   0 1989.81   73.49 
   1  -4   0 2086.49   75.94 
   1   4   1 1131.67   46.72 
   1   4   1  970.32   44.86 
  -1   4  -1 1077.52   49.37 
   1   4   1 1094.93   45.40 
   1   4   1 1092.98   45.02 
  -1   4  -1 1074.15   42.55 
   1   4   1 1024.96   41.74 
  -1   4  -1 1095.19   45.51 
  -1   4  -1 1075.91   44.23 
  -1  -4  -1 1085.32   47.01 
   1  -4   1 1028.61   49.02 
   1   4   2 1641.37   64.67 
  -1   4  -2 1600.02   61.34 
  -1   4  -2 1579.17   63.80 
   1   4   2 1636.19   61.88 
   1   4   2 1549.10   61.63 
  -1   4  -2 1605.43   58.85 
   1   4   2 1553.35   57.62 
   1   4   2 1562.30   63.08 
  -1   4  -2 1605.21   61.35 
  -1  -4  -2 1543.69   60.38 
   1  -4   2 1455.49   61.93 
   1   4   3  102.20   11.00 
  -1   4  -3  106.41   13.17 
   1   4   3  107.06   11.74 
  -1   4  -3  105.09   10.65 
  -1   4  -3   88.50   10.75 
  -1   4  -3  106.27   11.50 
   1   4   3  105.46   10.69 
   1   4   3  103.07   11.46 
  -1  -4  -3   74.17   10.01 
  -1  -4  -3   66.54   10.07 
   1  -4   3   63.21   10.86 
   1  -4   3   72.37    9.04 
   1   4   4    9.55    5.37 
  -1   4  -4    6.44    7.47 
   1   4   4    6.90    5.97 
  -1   4  -4    6.72    5.22 
   1   4   4    8.06    7.45 
  -1   4  -4    8.01    5.59 
   1   4   4   16.03    5.55 
  -1   4  -4    5.48    4.87 
  -1  -4  -4    5.24    5.62 
   1  -4   4    3.27    7.53 
  -1  -4  -4    5.52    6.37 
  -1   4  -5  309.16   20.87 
   1   4   5  304.52   18.70 
   1   4   5  321.68   19.28 
  -1   4  -5  327.42   20.75 
  -1   4  -5  324.85   18.92 
  -1   4  -5  327.21   18.65 
  -1  -4  -5  387.36   21.61 
  -1  -4  -5  386.76   23.00 
   1  -4   5  376.62   20.96 
   1   4   6  620.24   26.36 
  -1   4  -6  596.36   25.68 
  -1   4  -6  604.91   26.87 
   1   4   6  594.17   25.54 
  -1  -4  -6  577.18   27.34 
  -1  -4  -6  599.52   25.92 
   1  -4   6  597.80   25.58 
   1   4   7  407.11   19.98 
  -1   4  -7  399.81   19.69 
  -1   4  -7  403.27   19.73 
  -1  -4  -7  409.58   20.15 
  -1  -4  -7  423.62   22.48 
   1  -4   7  418.38   19.57 
   1   4   8  249.57   16.40 
  -1   4  -8  262.12   16.38 
  -1   4  -8  256.19   16.73 
  -1  -4  -8  290.44   17.62 
  -1  -4  -8  293.91   20.66 
   1  -4   8  283.84   16.71 
   1   4   9  360.03   20.95 
  -1   4  -9  344.61   19.07 
  -1   4  -9  358.08   20.50 
  -1  -4  -9  368.85   22.71 
   1  -4   9  364.55   19.74 
   1   4  10  127.53   13.95 
  -1   4 -10  136.54   12.66 
  -1   4 -10  128.14   12.78 
  -1  -4 -10  135.70   14.77 
   1  -4  10  151.51   12.72 
   1   4  11  275.19   18.88 
  -1   4 -11  262.21   16.65 
  -1   4 -11  276.15   17.64 
  -1  -4 -11  252.66   18.73 
   1  -4  11  253.37   15.64 
   1   4  12  551.22   25.78 
  -1   4 -12  554.65   23.97 
   1  -4  12  553.83   30.31 
  -1  -4 -12  607.91   29.26 
   1   4  13  116.08   14.82 
  -1   4 -13  115.43   12.78 
   1  -4  13  127.58   18.89 
  -1  -4 -13  132.82   15.97 
  -1   4 -14   46.71   11.56 
   1   4  14   38.60   11.89 
  -1   4 -14   51.45   11.86 
  -1  -4 -14   36.59   13.02 
   1  -4  14   40.54   16.51 
  -1   4 -15  101.13   13.61 
   1   4  15   93.11   14.62 
   1  -4  15   87.01   19.48 
  -1   4 -16   25.54   11.63 
   1   4  16   23.99   13.52 
   1  -4  16   30.06   17.38 
  -1   4 -17   36.62   12.74 
   1   4  17   43.91   13.72 
   1  -4  17   30.68   17.19 
   1   5 -16   88.35   13.47 
  -1   5  16   89.28   15.86 
  -1  -5  16   70.68   18.73 
   1  -5 -16   80.66   16.50 
  -1   5  15  169.06   17.28 
  -1  -5  15  151.30   21.01 
   1  -5 -15  146.23   18.44 
  -1   5  14   22.40   12.94 
  -1  -5  14   22.65   14.42 
   1  -5 -14   25.94   12.05 
   1   5 -13   17.86   10.68 
  -1   5  13   24.29   11.94 
  -1  -5  13   33.58   14.89 
   1  -5 -13   33.56   13.72 
   1   5 -12  331.41   18.36 
  -1   5  12  344.85   20.07 
   1   5 -12  363.03   19.52 
   1  -5 -12  293.32   20.55 
  -1  -5  12  308.60   24.08 
   1   5 -11   58.33   10.75 
  -1   5  11   66.26   12.26 
   1   5 -11   58.14   10.40 
   1  -5 -11   59.48   13.20 
  -1  -5  11   65.75   15.10 
   1   5 -10   21.23    8.42 
  -1   5  10   21.37    9.24 
   1   5 -10   19.23    9.04 
   1  -5 -10   40.53   11.01 
  -1  -5  10   37.90   12.98 
  -1  -5  10   31.67    8.04 
   1   5  -9   62.18   10.13 
  -1   5   9   55.20   10.21 
   1   5  -9   61.41   10.82 
   1  -5  -9   69.47   13.22 
  -1  -5   9   65.61   13.67 
  -1  -5   9   57.75    9.04 
   1   5  -8   18.10    6.30 
  -1   5   8   20.65    8.85 
   1   5  -8   16.93    8.13 
   1  -5  -8    6.92    9.89 
  -1  -5   8   10.58   10.64 
  -1  -5   8    7.36    5.47 
   1   5  -7   36.19    8.12 
  -1   5   7   35.76    8.83 
   1   5  -7   35.69    9.53 
   1  -5  -7   52.28   10.86 
  -1  -5   7   49.74   13.04 
  -1  -5   7   50.06    8.42 
   1   5  -6   40.23    9.00 
  -1   5   6   41.53    8.77 
   1   5  -6   42.66    7.92 
   1   5  -6   38.69    8.61 
  -1   5   6   41.52    8.53 
  -1  -5   6   50.05   11.35 
   1  -5  -6   50.41   10.46 
   1   5  -5   86.19   10.45 
  -1   5   5   87.40   10.70 
  -1   5   5   87.56   10.08 
   1   5  -5   80.92   10.71 
   1   5  -5   85.26   10.17 
  -1  -5   5   83.00   13.92 
   1  -5  -5   82.39   10.83 
   1  -5  -5   89.33   11.92 
   1   5  -4   12.18    7.49 
   1   5  -4   16.59    8.46 
  -1   5   4   15.95    6.93 
   1   5  -4   15.70    6.91 
   1   5  -4   12.62    6.51 
  -1   5   4   14.99    6.03 
  -1   5   4   14.32    5.48 
   1   5  -4   13.64    5.71 
  -1   5   4   15.14    6.05 
   1  -5  -4   10.70    7.21 
  -1  -5   4   14.92    9.79 
   1  -5  -4   12.90    6.99 
  -1   5   3  147.37   15.06 
  -1   5   3  146.73   12.62 
   1   5  -3  149.01   15.12 
  -1   5   3  145.52   13.00 
   1   5  -3  146.87   13.74 
  -1   5   3  146.70   12.94 
  -1   5   3  144.61   11.19 
   1   5  -3  145.47   12.61 
   1   5  -3  135.71   12.84 
   1   5  -3  141.58   12.19 
  -1  -5   3  185.39   17.23 
   1  -5  -3  181.24   14.97 
   1   5  -2  201.91   14.98 
  -1   5   2  207.31   17.33 
   1   5  -2  204.72   17.16 
  -1   5   2  200.72   14.82 
  -1   5   2  209.80   15.69 
   1   5  -2  208.50   15.24 
  -1   5   2  201.61   13.10 
   1   5  -2  196.99   13.78 
  -1   5   2  209.52   14.55 
   1   5  -2  199.73   14.41 
   1  -5  -2  186.17   15.19 
  -1  -5   2  200.44   17.68 
  -1   5   1  380.61   23.62 
   1   5  -1  398.72   23.74 
  -1   5   1  398.31   22.02 
   1   5  -1  379.67   21.30 
  -1   5   1  391.82   21.87 
   1   5  -1  386.62   21.54 
  -1   5   1  386.72   18.80 
   1   5  -1  376.67   19.38 
   1   5  -1  392.61   21.27 
  -1   5   1  380.28   20.78 
   1   5  -1  383.76   20.63 
  -1   5   0  102.25   13.15 
   1   5   0  102.39   12.72 
   1   5   0   98.73   10.97 
  -1   5   0  102.08   12.00 
  -1   5   0  102.02   11.69 
   1   5   0  105.17   11.39 
  -1   5   0   97.47    9.86 
   1   5   0   98.26   10.47 
   1   5   0  101.42   11.17 
  -1   5   0   96.55   10.50 
   1  -5   0  123.16   12.29 
  -1  -5   0  118.33   12.45 
   1   5   1  169.99   15.97 
  -1   5  -1  179.06   16.40 
   1   5   1  173.17   14.10 
  -1   5  -1  174.06   14.43 
  -1   5  -1  173.08   14.64 
   1   5   1  176.57   13.83 
  -1   5  -1  171.23   12.73 
   1   5   1  151.87   14.25 
  -1   5  -1  169.55   13.76 
   1   5   1  173.07   13.70 
  -1   5  -1  165.97   13.16 
  -1  -5  -1  184.86   15.44 
  -1   5  -2  283.37   20.00 
   1   5   2  298.14   20.70 
  -1   5  -2  304.96   20.70 
   1   5   2  301.39   18.54 
  -1   5  -2  290.07   19.10 
   1   5   2  310.60   18.77 
  -1   5  -2  305.42   17.20 
   1   5   2  302.76   16.99 
   1   5   2  317.38   18.56 
  -1   5  -2  300.46   17.33 
  -1  -5  -2  263.39   18.49 
   1  -5   2  265.70   20.12 
   1   5   3  238.58   18.23 
  -1   5  -3  240.20   15.10 
   1   5   3  245.91   16.13 
  -1   5  -3  232.85   16.60 
   1   5   3  223.86   15.93 
  -1   5  -3  236.44   15.10 
   1   5   3  236.33   14.29 
   1   5   3  251.82   16.16 
  -1   5  -3  228.88   16.57 
  -1  -5  -3  200.41   16.26 
   1  -5   3  195.06   18.21 
   1   5   4  531.99   22.85 
   1   5   4  522.04   22.32 
  -1   5  -4  526.89   21.81 
  -1   5  -4  491.46   23.57 
   1   5   4  523.07   21.79 
   1   5   4  525.54   20.16 
  -1   5  -4  517.19   21.21 
  -1   5  -4  525.26   23.53 
  -1  -5  -4  531.72   24.73 
   1  -5   4  520.25   28.18 
  -1  -5  -4  517.72   22.59 
  -1   5  -5  492.22   22.75 
   1   5   5  527.26   22.75 
   1   5   5  524.43   22.61 
  -1   5  -5  517.63   21.67 
  -1   5  -5  509.85   20.90 
   1  -5   5  536.38   27.92 
  -1  -5  -5  525.29   22.94 
  -1  -5  -5  542.87   25.52 
   1   5   6  193.99   14.30 
  -1   5  -6  198.55   14.52 
  -1   5  -6  205.43   14.15 
   1  -5   6  191.06   18.32 
  -1  -5  -6  189.29   14.08 
  -1  -5  -6  183.67   15.29 
   1   5   7  194.27   14.64 
  -1   5  -7  184.65   14.03 
  -1   5  -7  193.23   14.41 
   1  -5   7  218.37   18.98 
  -1  -5  -7  226.90   15.94 
  -1  -5  -7  220.30   17.68 
   1  -5   7  201.97   14.64 
  -1   5  -8  248.11   17.02 
   1   5   8  249.22   17.19 
  -1   5  -8  250.91   16.93 
  -1  -5  -8  237.00   18.40 
   1  -5   8  252.29   21.70 
   1  -5   8  231.80   15.59 
  -1   5  -9  597.32   24.27 
   1   5   9  603.50   24.06 
  -1   5  -9  626.29   24.36 
  -1  -5  -9  618.17   27.63 
   1  -5   9  619.44   30.93 
   1  -5   9  627.32   24.55 
  -1   5 -10  240.44   16.13 
   1   5  10  254.79   17.79 
   1  -5  10  197.66   20.66 
  -1  -5 -10  206.85   18.42 
   1   5  11   65.27   11.68 
  -1   5 -11   59.77   11.75 
  -1  -5 -11   62.17   13.20 
   1   5  12    5.96   11.09 
  -1   5 -12    8.57   10.11 
  -1  -5 -12    0.85   12.43 
   1   5  13   66.79   13.81 
  -1   5 -13   73.49   12.62 
  -1  -5 -13   49.98   13.71 
   1   5  14   49.86   12.84 
  -1  -5 -14   29.80   13.37 
   1   5  15   31.17   12.12 
  -1  -5 -15   28.47   13.53 
   1   5  16   55.75   13.65 
  -1   5 -16   52.42   13.43 
  -1  -5 -16   61.98   16.68 
   1   6 -15   47.09   12.77 
  -1   6  15   44.47   13.31 
  -1  -6  15   40.01   18.08 
   1  -6 -15   39.24   14.86 
   1   6 -14  102.45   14.58 
  -1   6  14  110.89   15.88 
  -1  -6  14  117.50   20.14 
   1  -6 -14  120.37   16.76 
   1   6 -13    4.08   11.45 
  -1   6  13    2.73   12.77 
  -1  -6  13    0.96   15.55 
   1  -6 -13   10.96   12.81 
   1   6 -12   61.84   11.53 
  -1   6  12   64.77   12.55 
  -1  -6  12   54.61   18.06 
   1  -6 -12   50.39   14.35 
   1   6 -11   16.21   10.97 
  -1   6  11   14.80    9.77 
  -1  -6  11   12.90   13.87 
   1  -6 -11   13.96   10.70 
   1   6 -10   24.07   10.42 
  -1   6  10   20.38    9.26 
  -1  -6  10   16.94   13.50 
   1  -6 -10   18.85   12.09 
   1   6  -9   70.27   10.96 
  -1   6   9   71.22   11.40 
  -1  -6   9   65.78   14.54 
   1  -6  -9   64.94   13.19 
   1   6  -8  188.56   14.61 
  -1   6   8  193.71   14.80 
  -1  -6   8  160.83   18.15 
   1  -6  -8  159.16   15.38 
   1   6  -7   79.86   10.44 
  -1   6   7   76.07   10.97 
   1   6  -7   80.61   11.35 
   1  -6  -7   63.54   12.05 
  -1  -6   7   66.57   13.92 
   1   6  -6   67.87    9.56 
  -1   6   6   70.21   10.85 
   1   6  -6   65.79   11.26 
   1  -6  -6   58.04   11.23 
  -1  -6   6   57.02   13.77 
  -1   6   5  488.95   24.02 
  -1   6   5  457.48   23.17 
   1   6  -5  456.23   23.28 
   1   6  -5  473.49   22.85 
  -1  -6   5  474.73   28.79 
   1  -6  -5  483.34   25.99 
  -1   6   4  139.81   12.82 
  -1   6   4  130.52   12.95 
   1   6  -4  131.07   12.82 
   1   6  -4  131.26   11.71 
  -1  -6   4  104.75   14.48 
   1  -6  -4  103.33   12.83 
  -1   6   3  110.46   10.37 
  -1   6   3  108.51   11.85 
   1   6  -3  109.29   11.52 
   1   6  -3  109.68   11.59 
  -1   6   3  113.97   11.42 
  -1  -6   3  150.89   17.01 
   1  -6  -3  159.41   14.83 
  -1   6   2  109.83   12.86 
   1   6  -2   98.29   12.30 
   1   6  -2  106.15   11.39 
  -1   6   2  106.44   10.35 
   1   6  -2  108.57   11.82 
  -1   6   2  109.15   11.60 
   1   6  -2  100.21   11.48 
   1   6  -2  105.37   11.33 
   1  -6  -2  109.88   12.79 
  -1   6   1  217.21   16.18 
   1   6  -1  209.18   15.49 
  -1   6   1  213.80   15.83 
   1   6  -1  201.47   14.93 
  -1   6   1  201.55   13.34 
   1   6  -1  207.42   14.22 
  -1   6   1  199.86   14.43 
   1   6  -1  169.01   19.47 
   1   6  -1  208.52   15.27 
   1  -6  -1  208.14   15.66 
   1   6   0    6.97    8.70 
   1   6   0    4.29    7.04 
  -1   6   0    6.24    7.56 
  -1   6   0    6.84    7.14 
   1   6   0    5.31    6.04 
  -1   6   0    2.03    6.34 
   1   6   0    7.04    6.44 
   1   6   0    4.74    6.29 
  -1   6   0    3.25    5.34 
   1   6   0    5.22    6.48 
   1   6   1  267.89   20.38 
   1   6   1  261.52   18.15 
  -1   6  -1  270.18   18.65 
  -1   6  -1  263.83   18.33 
   1   6   1  272.01   17.97 
  -1   6  -1  269.59   16.42 
   1   6   1  267.51   16.56 
  -1   6  -1  276.93   17.78 
   1   6   1  265.91   17.32 
  -1  -6  -1  225.74   16.71 
   1   6   2  185.81   16.77 
   1   6   2  184.48   14.91 
  -1   6  -2  180.04   14.69 
  -1   6  -2  180.28   15.06 
  -1   6  -2  180.85   13.47 
   1   6   2  179.70   12.93 
  -1   6  -2  183.97   13.48 
   1   6   2  183.27   14.18 
  -1  -6  -2  137.53   14.27 
   1   6   3  389.89   19.32 
   1   6   3  391.24   23.75 
   1   6   3  377.13   21.21 
  -1   6  -3  372.46   20.98 
   1   6   3  405.64   21.19 
  -1   6  -3  400.60   20.42 
   1  -6   3  370.39   24.46 
  -1  -6  -3  355.61   22.10 
  -1   6  -4   69.69    9.58 
   1   6   4   64.38   10.38 
   1  -6   4   70.65   13.84 
  -1  -6  -4   71.43   11.62 
  -1   6  -5   80.62   10.96 
   1   6   5   74.39   11.45 
   1  -6   5   92.12   14.65 
  -1  -6  -5   92.13   13.26 
  -1   6  -6  656.87   25.18 
   1   6   6  651.88   24.60 
   1  -6   6  582.10   29.65 
  -1  -6  -6  577.35   26.78 
  -1   6  -7  823.99   27.60 
   1   6   7  817.38   27.15 
   1  -6   7  833.07   34.66 
  -1  -6  -7  817.63   30.80 
  -1   6  -8   61.67   11.43 
   1   6   8   60.25   10.27 
   1  -6   8   68.11   13.79 
  -1  -6  -8   66.58   12.77 
  -1   6  -9   38.52   11.39 
   1   6   9   37.94   10.31 
   1  -6   9   27.64   14.86 
  -1  -6  -9   40.04   12.27 
  -1   6 -10   90.14   12.16 
   1   6  10   95.60   13.41 
   1  -6  10   81.07   16.58 
  -1  -6 -10   78.76   14.60 
  -1   6 -11  150.88   15.28 
   1   6  11  140.38   15.02 
   1  -6  11  155.46   19.51 
  -1  -6 -11  152.04   18.21 
  -1   6 -12   18.18   12.57 
   1   6  12   21.88   11.98 
   1  -6  12   32.77   16.88 
  -1  -6 -12   28.93   11.93 
  -1   6 -13    6.73   11.40 
   1   6  13    8.05   11.51 
   1  -6  13   22.81   17.34 
  -1  -6 -13   17.02   13.65 
  -1   6 -14   16.68   12.43 
   1  -6  14   29.14   18.71 
  -1  -6 -14   20.73   13.92 
   1   7 -13  134.40   15.02 
  -1   7  13  141.19   15.40 
  -1  -7  13  158.56   20.71 
   1  -7 -13  170.64   18.07 
   1   7 -12  117.54   14.48 
  -1   7  12  110.81   14.75 
  -1  -7  12  126.25   19.53 
   1  -7 -12  139.46   18.02 
   1   7 -11   84.91   12.71 
  -1   7  11   95.51   14.11 
  -1  -7  11   82.59   17.76 
   1  -7 -11   89.18   16.19 
   1   7 -10   16.34   10.91 
  -1   7  10   21.39   11.12 
  -1  -7  10   12.37   13.80 
   1  -7 -10   11.96   10.89 
   1   7  -9   14.81   10.10 
  -1   7   9   19.61   11.38 
  -1  -7   9   22.79   13.84 
   1  -7  -9   21.47   12.11 
   1   7  -8   30.31   11.07 
  -1   7   8   37.65   10.94 
  -1  -7   8   32.67   14.78 
   1  -7  -8   32.61   11.35 
   1   7  -7   55.39   11.90 
  -1   7   7   61.35   12.34 
  -1  -7   7   40.94   13.24 
   1  -7  -7   42.56   11.57 
   1   7  -6   11.85   10.17 
  -1   7   6    3.48    8.60 
  -1  -7   6    2.50   11.13 
   1  -7  -6    2.30    9.14 
   1   7  -5   58.32   10.34 
  -1   7   5   53.26   11.36 
  -1  -7   5   70.88   14.10 
   1  -7  -5   64.23   11.46 
   1   7  -4   35.22    9.91 
  -1   7   4   38.79   10.85 
  -1  -7   4   45.68   12.72 
   1  -7  -4   44.98   11.16 
  -1   7   3   50.97   11.74 
   1   7  -3   53.63   11.52 
   1   7  -3   50.25    9.17 
   1  -7  -3   33.06    9.79 
  -1   7   2  101.16   13.38 
   1   7  -2   94.43   12.13 
   1   7  -2   89.71   10.59 
   1  -7  -2  139.07   13.58 
  -1   7   1  345.65   20.48 
   1   7  -1  340.71   19.33 
  -1   7   1  333.88   16.92 
   1   7  -1  342.87   17.37 
   1   7  -1  347.82   19.22 
   1   7   0  169.49   15.28 
  -1   7   0  168.51   15.15 
  -1   7   0  174.63   13.05 
   1   7   0  165.55   13.16 
   1   7   0  168.71   14.30 
   1   7   1   55.76   11.19 
  -1   7  -1   57.54   10.63 
  -1   7  -1   55.51    9.53 
   1   7   1   57.80    8.86 
   1   7   1   52.58    9.14 
   1   7   2   -0.74    8.46 
  -1   7  -2    0.31    8.39 
  -1   7  -2    5.16    7.56 
  -1  -7  -2    4.25    7.90 
   1   7   3   81.86   11.68 
  -1   7  -3   88.55   12.20 
  -1   7  -3   88.67   10.73 
  -1  -7  -3   83.43   11.93 
  -1   7  -4   34.05    9.89 
   1   7   4   36.35   10.02 
   1  -7   4   31.07   12.34 
  -1  -7  -4   27.04   10.05 
  -1   7  -5  182.60   14.92 
   1   7   5  182.07   14.94 
   1  -7   5  151.67   17.65 
  -1  -7  -5  146.44   14.82 
  -1   7  -6   42.37   10.09 
   1   7   6   47.60    9.98 
   1  -7   6   42.61   12.40 
  -1  -7  -6   45.77   11.00 
  -1   7  -7   56.52   10.93 
   1   7   7   55.32   10.26 
   1  -7   7   71.84   16.18 
  -1  -7  -7   66.27   12.72 
  -1   7  -8  144.94   14.64 
   1   7   8  151.16   14.43 
   1  -7   8  149.78   18.86 
  -1  -7  -8  165.14   17.26 
  -1   7  -9  152.63   15.17 
   1   7   9  151.36   14.65 
   1  -7   9  140.73   19.28 
  -1  -7  -9  129.98   15.40 
  -1   7 -10  239.50   17.73 
   1   7  10  228.32   16.75 
   1  -7  10  211.16   21.80 
  -1  -7 -10  213.06   18.74 
  -1   7 -11  110.04   14.20 
   1  -7  11  116.20   19.50 
  -1  -7 -11  112.40   16.01 
  -1   7 -12   19.28   12.14 
   1  -7  12   14.10   15.83 
  -1  -7 -12   19.63   12.74 
   1   8 -10   18.31   12.75 
  -1   8  10   15.27   10.90 
  -1  -8  10   12.19   15.09 
   1  -8 -10   18.96   13.29 
   1   8  -9  112.75   13.61 
  -1   8   9  115.19   13.99 
  -1  -8   9  117.51   18.74 
   1  -8  -9  106.23   14.57 
   1   8  -8   11.03   10.43 
  -1   8   8   20.69    9.98 
  -1  -8   8   25.20   12.85 
   1  -8  -8   23.17   11.37 
   1   8  -7  116.01   13.39 
  -1   8   7  114.20   14.55 
  -1  -8   7  130.17   17.54 
   1  -8  -7  133.62   15.61 
   1   8  -6    7.40   10.70 
  -1   8   6   14.13   10.07 
  -1  -8   6   18.54   13.84 
   1  -8  -6   16.78   10.37 
  -1   8   5   71.44   11.96 
   1   8  -5   70.07   13.65 
   1   8  -5   68.49   11.96 
   1  -8  -5   93.94   13.86 
  -1   8   4   33.27   10.81 
   1   8  -4   33.45   10.42 
   1   8  -4   29.35    9.68 
   1  -8  -4   41.72   11.01 
  -1   8   3   83.23   12.54 
   1   8  -3   92.99   13.90 
   1   8  -3   85.85   12.08 
   1  -8  -3   76.90   12.10 
  -1   8   2   69.81   12.99 
   1   8  -2   74.28   13.01 
  -1   8   1   13.88   10.49 
   1   8  -1   16.82   10.27 
   1   8   0   41.54   11.41 
  -1   8   0   46.11   11.23 
   1   8   1  211.70   17.31 
  -1   8  -1  201.65   16.13 
   1   8   2   81.63   11.90 
  -1   8  -2   82.25   13.13 
  -1   8  -2   75.72   11.09 
   1   8   3  101.99   12.45 
  -1   8  -3   95.84   13.14 
  -1   8  -3  103.18   11.53 
  -1  -8  -3   95.82   12.98 
   1   8   4   19.91    8.74 
  -1   8  -4   27.08   11.21 
  -1   8  -4   24.61    9.11 
  -1  -8  -4   22.46   10.17 
   1   8   5   69.59   12.11 
  -1   8  -5   66.58   13.38 
  -1   8  -5   66.95   11.75 
  -1  -8  -5   55.08   12.40 
  -1   8  -6  152.28   15.15 
   1  -8   6  187.18   19.73 
  -1  -8  -6  178.35   17.12 
  -1   8  -7   74.63   12.85 
   1  -8   7   96.55   16.80 
  -1  -8  -7   89.27   14.85 
  -1   8  -8   93.33   13.73 
   1  -8   8   91.42   17.84 
  -1  -8  -8   94.03   15.03 
  -1   8  -9   59.48   12.51 
   1  -8   9   45.77   16.14 
  -1  -8  -9   51.74   13.16 
  -1   8 -10   46.87   12.03 
   1  -8  10   72.28   18.09 
  -1  -8 -10   62.71   14.57 
  -1   9   6  184.62   16.56 
   1   9  -6  184.24   18.28 
  -1   9   5    3.69   11.51 
   1   9  -5    3.40   10.90 
  -1   9   4   20.34   10.75 
   1   9  -4   25.29   12.34 
  -1   9   3   58.05   12.26 
   1   9  -3   50.94   13.38 
  -1   9   2   53.57   12.11 
   1   9  -2   56.29   12.22 
  -1   9   1    7.89   10.78 
   1   9  -1    5.03    9.90 
  -1   9   0   52.51   14.00 
  -1   9  -1   53.70   12.81 
  -1   9  -2   92.63   14.27 
  -1   9  -3   12.87   12.01 
  -1   9  -4   60.79   13.36 
  -1   9  -5   96.53   14.43 
  -1   9  -6   28.65   12.05 
  -1   9  -6   24.93   12.01 
  -2   0  19   67.40   17.28 
   2   0 -19   71.11   11.50 
   2   0 -19   74.21   15.39 
  -2   0  18   42.40   14.62 
   2   0 -18   33.05   10.40 
   2   0 -18   35.33   13.64 
  -2   0  17   23.06   14.80 
   2   0 -17   20.62    9.20 
   2   0 -17   28.66   13.32 
  -2   0  16   97.83   15.70 
   2   0 -16   87.69   11.70 
   2   0 -16   86.73   13.54 
  -2   0  15   19.36   13.04 
   2   0 -15   14.92    7.78 
   2   0 -15   20.27   10.20 
  -2   0  14  497.79   25.35 
   2   0 -14  504.38   21.55 
   2   0 -14  503.71   23.49 
  -2   0  13  203.20   17.58 
   2   0 -13  187.12   13.40 
   2   0 -13  196.41   16.45 
  -2   0  12 1265.90   43.03 
   2   0 -12 1223.25   39.92 
   2   0 -12 1286.06   37.15 
   2   0 -12 1280.23   42.13 
  -2   0  11    6.57    8.75 
   2   0 -11    8.55    6.16 
   2   0 -11    9.84    5.72 
   2   0 -11    8.37    8.39 
  -2   0  10   75.84   12.56 
   2   0 -10   73.13   11.11 
   2   0 -10   72.97    9.98 
   2   0 -10   76.77   10.75 
  -2   0   9  122.16   13.95 
   2   0  -9  123.74   12.62 
   2   0  -9  116.99   13.00 
   2   0  -9  125.01   11.90 
   2   0  -9  130.77   13.30 
  -2   0   8  148.07   16.51 
   2   0  -8  146.00   14.88 
   2   0  -8  141.08   14.97 
   2   0  -8  148.56   14.03 
   2   0  -8  143.26   14.47 
  -2   0   7  344.16   26.10 
   2   0  -7  348.66   24.77 
   2   0  -7  362.08   26.54 
   2   0  -7  308.23   34.09 
   2   0  -7  335.99   24.18 
  -2   0   7  319.35   22.64 
  -2   0   6 2872.41   89.00 
   2   0  -6 2894.60   82.49 
  -2   0   6 2977.65   88.42 
   2   0  -6 2899.64   85.73 
   2   0  -6 2743.85   79.24 
  -2   0   6 2902.83   80.94 
  -2   0   5 2799.22   83.20 
   2   0  -5 2851.94   81.14 
  -2   0   5 2785.64   84.67 
   2   0  -5 2831.88   83.50 
   2   0  -5 2983.71   85.18 
  -2   0   5 2885.44   80.67 
  -2   0   4   62.15    9.11 
   2   0  -4   68.74    9.11 
  -2   0   4   69.79    9.81 
   2   0  -4   60.12    9.32 
   2   0  -4   66.24    8.54 
  -2   0   4   67.46    8.70 
   2   0  -3 4149.87  110.34 
  -2   0   3 4042.46  111.78 
   2   0  -3 4161.94  109.33 
  -2   0   3 3859.46  102.98 
   2   0  -2 2732.72   77.08 
  -2   0   2 2912.22   85.88 
   2   0  -2 2938.80   81.81 
  -2   0   2 2685.25   75.77 
   2   0  -1 2146.03   64.23 
  -2   0   1 2198.34   68.09 
   2   0  -1 2053.94   62.84 
   2   0  -1 2098.58   63.43 
  -2   0   1 2078.12   63.60 
   2   0   1 2257.66   74.05 
  -2   0  -1 2107.35   62.58 
   2   0   1 2191.48   64.33 
  -2   0  -1 2201.32   68.97 
   2   0   2 2897.55   88.44 
   2   0   2 2808.05   77.53 
  -2   0  -2 3047.75   88.14 
   2   0   3  133.52   13.99 
  -2   0  -3  121.35   12.67 
   2   0   3  124.88   11.03 
  -2   0  -3  135.06   12.91 
   2   0   4  394.69   25.58 
  -2   0  -4  401.80   24.97 
  -2   0  -4  355.92   20.56 
   2   0   4  381.99   20.85 
  -2   0  -4  421.76   24.78 
   2   0   5 2610.39   83.59 
  -2   0  -5 2518.65   78.87 
  -2   0  -5 2567.56   73.03 
   2   0   5 2503.48   71.27 
  -2   0  -5 2597.62   85.48 
   2   0   5 2428.99   72.18 
   2   0   6  648.39   31.23 
  -2   0  -6  643.80   29.02 
  -2   0  -6  626.86   44.42 
   2   0   6  626.32   25.12 
  -2   0  -6  678.53   29.22 
   2   0   6  684.54   28.62 
   2   0   7  249.44   22.54 
  -2   0  -7  258.62   21.66 
  -2   0  -7  262.75   20.67 
   2   0   7  250.76   19.49 
  -2   0  -7  253.93   21.72 
   2   0   7  259.31   21.09 
   2   0   8  299.34   24.07 
  -2   0  -8  292.62   20.21 
  -2   0  -8  291.66   18.99 
   2   0   8  282.12   18.08 
  -2   0  -8  291.47   20.50 
   2   0   8  285.89   18.94 
   2   0   9  147.05   16.46 
  -2   0  -9  155.73   14.93 
  -2   0  -9  152.90   14.14 
   2   0   9  143.36   13.12 
  -2   0  -9  147.02   15.60 
   2   0   9  146.02   13.85 
   2   0  10  314.33   22.30 
  -2   0 -10  330.92   18.36 
   2   0  10  340.13   17.56 
  -2   0 -10  331.17   20.51 
   2   0  11   55.42   11.37 
  -2   0 -11   51.59    9.19 
   2   0  11   51.95    8.50 
  -2   0 -11   51.65    9.99 
   2   0  12  267.08   20.54 
  -2   0 -12  240.02   16.59 
  -2   0 -12  265.45   19.48 
   2   0  13  116.68   16.02 
  -2   0 -13  124.45   13.51 
  -2   0 -13  122.91   15.04 
   2   0  14  536.74   26.90 
  -2   0 -14  494.47   21.35 
  -2   0 -14  545.67   25.14 
   2   0  15    0.44   12.87 
  -2   0 -15    2.96    9.06 
  -2   0 -15   -0.07   10.40 
   2   0  16   67.37   15.33 
  -2   0 -16   66.46   11.60 
  -2   0 -16   66.21   13.75 
   2   0  17  142.44   19.35 
  -2   0 -17  147.26   14.50 
  -2   0 -17  152.04   17.37 
   2   0  18   13.00   14.88 
  -2   0 -18   10.18    9.00 
  -2   0 -18   13.83   12.96 
   2   1 -19   49.67   13.97 
  -2   1  19   34.15   15.73 
   2   1 -19   46.08   11.84 
   2  -1 -19   50.75   14.83 
  -2  -1  19   47.13   16.88 
  -2   1  18   16.68   13.81 
   2   1 -18   14.02    8.92 
   2   1 -18    9.01   12.15 
  -2  -1  18   19.59   13.96 
   2  -1 -18   14.00    8.71 
   2  -1 -18   16.98   12.38 
  -2   1  17   19.67   12.63 
   2   1 -17   24.87    9.73 
   2   1 -17   24.21   11.95 
  -2  -1  17   35.34   14.18 
   2  -1 -17   32.99    9.00 
   2  -1 -17   31.15   13.88 
  -2   1  16    2.58   13.28 
   2   1 -16    2.60    7.62 
   2   1 -16    3.05   11.91 
  -2  -1  16    3.44   12.77 
   2  -1 -16    3.65    8.03 
   2  -1 -16   10.03   11.12 
  -2   1  15   37.87   12.72 
   2   1 -15   39.33    9.49 
   2   1 -15   43.70   11.67 
  -2  -1  15   34.10   15.36 
   2  -1 -15   30.95    8.75 
   2  -1 -15   30.89   12.34 
   2   1 -14   76.18   10.62 
  -2   1  14   78.34   14.30 
   2   1 -14   75.22   13.15 
   2  -1 -14   44.65    8.91 
  -2  -1  14   45.16   11.96 
   2  -1 -14   44.80   11.24 
   2  -1 -14   44.33    9.52 
   2   1 -13   79.67   10.83 
  -2   1  13   73.55   12.30 
   2   1 -13   77.47   12.15 
   2  -1 -13   84.62   10.21 
  -2  -1  13   82.92   13.78 
   2  -1 -13   86.10   11.97 
   2  -1 -13   78.38   10.87 
   2   1 -12   40.29    8.42 
  -2   1  12   40.32   10.31 
   2   1 -12   39.49    9.81 
   2  -1 -12   33.64    7.06 
  -2  -1  12   36.67   10.06 
   2  -1 -12   31.83   10.64 
   2  -1 -12   35.82    8.43 
   2   1 -11   97.41   12.26 
  -2   1  11  103.06   13.49 
   2   1 -11  106.24   11.98 
   2   1 -11  106.51   11.07 
  -2  -1  11  112.78   14.97 
   2  -1 -11  112.23   10.81 
   2  -1 -11  112.13   12.31 
   2  -1 -11  103.27   11.80 
   2   1 -10  346.90   20.67 
  -2   1  10  331.13   20.34 
   2   1 -10  374.13   20.41 
   2   1 -10  349.96   19.03 
  -2  -1  10  299.81   20.71 
   2  -1 -10  318.59   17.33 
   2  -1 -10  310.97   19.31 
   2  -1 -10  303.00   19.17 
  -2  -1  10  317.87   17.90 
  -2   1   9  642.48   26.60 
  -2   1   9  646.96   29.68 
   2   1  -9  641.39   28.15 
   2   1  -9  628.13   29.26 
   2   1  -9  616.47   27.00 
   2   1  -9  622.03   26.04 
   2  -1  -9  626.61   26.21 
   2  -1  -9  655.88   29.20 
   2  -1  -9  651.24   29.28 
  -2  -1   9  568.47   29.32 
  -2  -1   9  627.88   26.28 
   2   1  -8  203.17   18.51 
  -2   1   8  198.92   18.66 
   2   1  -8  199.90   18.93 
   2   1  -8  191.73   17.32 
  -2   1   8  193.41   17.25 
   2   1  -8  193.45   16.79 
   2  -1  -8  195.39   18.27 
   2  -1  -8  196.85   18.18 
   2  -1  -8  195.76   16.99 
  -2  -1   8  203.44   17.61 
   2   1  -7  614.80   27.59 
  -2   1   7  631.31   27.31 
   2   1  -7  668.27   27.06 
   2   1  -7  634.39   28.79 
   2   1  -7  610.16   25.34 
  -2   1   7  614.44   25.76 
   2  -1  -7  650.04   26.50 
   2  -1  -7  687.36   26.51 
   2  -1  -7  691.07   29.29 
   2  -1  -7  653.82   28.62 
  -2  -1   7  672.15   27.02 
   2   1  -6 1698.11   51.15 
  -2   1   6 1705.83   51.92 
  -2   1   6 1699.12   48.32 
   2   1  -6 1621.64   47.31 
  -2   1   6 1743.81   53.64 
   2  -1  -6 1685.02   50.98 
   2  -1  -6 1717.30   48.74 
  -2  -1   6 1752.18   54.82 
   2   1  -5  648.24   33.75 
  -2   1   5  621.92   31.24 
  -2   1   5  682.12   40.36 
   2   1  -5  660.28   31.75 
  -2   1   5  668.23   35.13 
   2  -1  -5  711.42   42.99 
   2  -1  -5  707.06   41.59 
  -2  -1   5  672.90   42.71 
   2   1  -4  941.73   38.42 
  -2   1   4 1001.53   37.14 
  -2   1   4  960.57   35.85 
   2   1  -4  871.40   36.27 
  -2   1   4  944.09   37.76 
   2   1  -4  979.92   36.45 
   2  -1  -4  816.60   32.37 
   2  -1  -4  781.22   32.59 
   2   1  -3  815.49   35.37 
  -2   1   3  868.77   35.08 
   2   1  -3  842.43   35.05 
  -2   1   3  842.78   33.22 
   2   1  -3  870.18   33.90 
  -2   1   3  894.44   35.88 
   2  -1  -3  762.65   30.89 
  -2  -1   3  767.48   33.35 
   2  -1  -3  756.86   31.20 
   2   1  -2  119.24   12.64 
  -2   1   2  112.96   11.19 
   2   1  -2  116.72   12.18 
  -2   1   2  118.94   11.03 
   2   1  -2  122.60   11.44 
  -2   1   2  122.93   11.69 
   2  -1  -2  123.81   11.91 
  -2  -1   2  123.57   12.42 
   2  -1  -2  118.13   11.26 
   2   1  -1 1398.15   49.64 
   2   1  -1 1377.91   50.46 
  -2   1   1 1420.45   48.57 
   2   1  -1 1425.93   48.88 
  -2   1   1 1397.63   45.84 
  -2   1   1 1384.98   48.84 
   2  -1  -1 1486.28   49.84 
   2  -1  -1 1292.91   44.94 
  -2  -1   1 1289.75   48.75 
  -2  -1   1 1500.42   65.43 
  -2  -1   1 1453.16   48.54 
  -2   1   0 2512.47   78.76 
   2   1   0 2412.85   77.61 
  -2   1   0 2562.14   75.94 
   2   1   0 2551.31   74.22 
  -2   1   0 2530.96   71.83 
   2   1   0 2526.92   75.71 
  -2   1   0 2565.81   74.87 
  -2   1  -1 1952.01   58.52 
   2   1   1 1972.31   65.13 
  -2   1  -1 1983.54   63.46 
   2   1   1 1916.86   59.41 
   2   1   1 1961.96   62.47 
   2  -1   1 2046.50   59.56 
  -2  -1  -1 2147.35   64.31 
  -2  -1  -1 2093.04   66.54 
   2  -1   1 2282.09   76.01 
   2  -1   1 2093.53   67.81 
  -2   1  -2  842.81   34.68 
   2   1   2  857.73   35.90 
   2   1   2  795.75   31.12 
  -2   1  -2  854.90   32.20 
   2   1   2  855.36   35.67 
  -2  -1  -2  902.65   35.09 
  -2  -1  -2  887.87   34.26 
  -2  -1  -2  931.50   38.09 
   2  -1   2  889.98   32.91 
   2  -1   2  959.79   42.49 
   2  -1   2  886.69   34.84 
  -2   1  -3  170.99   14.54 
   2   1   3  182.50   16.10 
   2   1   3  175.74   13.27 
  -2   1  -3  178.89   13.61 
   2   1   3  176.65   14.60 
  -2  -1  -3  150.87   12.62 
  -2  -1  -3  148.43   13.18 
  -2  -1  -3  158.46   14.45 
   2  -1   3  151.50   12.09 
   2  -1   3  150.36   15.49 
   2  -1   3  151.02   13.25 
   2   1   4 3352.53   91.71 
   2   1   4 3566.15  103.43 
  -2   1  -4 3636.41  103.19 
   2   1   4 3472.47   96.54 
  -2  -1  -4 3407.48   97.31 
   2  -1   4 3508.39   93.16 
  -2  -1  -4 3378.91  134.71 
  -2  -1  -4 3576.21  100.20 
   2  -1   4 3428.77  108.65 
   2  -1   4 3388.83  102.41 
   2   1   5 1001.81   32.92 
   2   1   5 1038.60   40.27 
   2   1   5  940.06   33.64 
  -2   1  -5 1042.71   37.58 
  -2  -1  -5 1010.67   36.24 
   2  -1   5 1008.65   32.80 
  -2  -1  -5 1002.33   36.41 
  -2  -1  -5 1000.44   33.42 
   2  -1   5 1017.84   42.23 
   2  -1   5 1003.19   35.16 
   2   1   6 1384.28   40.25 
   2   1   6 1404.75   50.81 
  -2   1  -6 1318.19   43.55 
  -2  -1  -6 1436.42   44.95 
   2  -1   6 1422.79   51.41 
   2  -1   6 1424.82   41.13 
  -2  -1  -6 1418.63   45.88 
  -2  -1  -6 1389.90   43.12 
   2  -1   6 1384.69   43.79 
  -2   1  -7  821.29   37.88 
  -2   1  -7  822.95   37.97 
   2   1   7  858.27   40.43 
  -2   1  -7  773.90   33.77 
   2   1   7  892.55   36.84 
  -2  -1  -7  831.73   36.80 
  -2  -1  -7  856.14   35.98 
   2  -1   7  771.36   34.94 
  -2  -1  -7  764.80   35.86 
   2  -1   7  814.16   40.33 
   2  -1   7  779.92   34.35 
  -2   1  -8   69.58   10.05 
   2   1   8   69.63   11.47 
  -2   1  -8   66.94   10.45 
  -2   1  -8   63.93    8.84 
   2   1   8   67.36    8.62 
  -2  -1  -8   73.39    9.82 
  -2  -1  -8   79.55    9.59 
   2  -1   8   71.69    8.78 
  -2  -1  -8   73.68   10.65 
   2  -1   8   72.18   12.24 
   2  -1   8   74.50   10.12 
  -2   1  -9  336.42   20.63 
   2   1   9  350.30   22.18 
  -2   1  -9  351.40   21.18 
  -2   1  -9  340.07   18.93 
   2   1   9  341.45   18.29 
   2   1   9  300.40   18.81 
  -2  -1  -9  348.27   20.04 
   2  -1   9  322.82   17.75 
  -2  -1  -9  339.41   19.10 
   2  -1   9  337.94   22.98 
  -2  -1  -9  354.08   21.56 
   2  -1   9  364.51   20.09 
  -2   1 -10   94.14   10.42 
   2   1  10   99.38   13.59 
  -2   1 -10   94.16   12.22 
   2   1  10   98.41    9.88 
  -2  -1 -10   53.31    8.76 
  -2  -1 -10   48.38    8.36 
   2  -1  10   52.86    8.37 
  -2  -1 -10   50.52    9.74 
   2  -1  10   51.81   11.23 
   2  -1  10   52.22    9.27 
   2   1  11  606.97   23.62 
   2   1  11  592.89   29.41 
  -2   1 -11  614.61   27.79 
  -2   1 -11  628.69   24.92 
   2  -1  11  514.21   27.90 
  -2  -1 -11  534.14   25.83 
  -2  -1 -11  523.30   23.12 
   2   1  12   27.91   10.08 
  -2   1 -12   30.62    8.42 
  -2   1 -12   32.60   10.43 
   2  -1  12   15.68   11.13 
  -2  -1 -12   17.77    7.46 
  -2  -1 -12   16.55    8.69 
  -2   1 -13  412.02   20.07 
   2   1  13  411.43   23.57 
  -2   1 -13  409.60   22.77 
  -2  -1 -13  411.70   19.36 
   2  -1  13  403.78   25.40 
  -2  -1 -13  414.33   22.39 
  -2  -1 -13  398.61   21.12 
   2   1  14   40.12   12.04 
  -2   1 -14   34.79    9.64 
  -2   1 -14   41.12   10.63 
   2  -1  14   33.10   13.76 
  -2  -1 -14   35.10    8.41 
  -2  -1 -14   27.22   11.58 
   2   1  15  150.96   18.18 
  -2   1 -15  165.90   14.43 
  -2   1 -15  164.56   16.30 
   2  -1  15  153.15   18.49 
  -2  -1 -15  151.06   13.18 
  -2  -1 -15  148.61   15.62 
   2   1  16  171.22   18.42 
  -2   1 -16  174.87   15.09 
  -2   1 -16  172.73   16.75 
   2  -1  16  168.61   18.99 
  -2  -1 -16  178.03   14.51 
  -2  -1 -16  166.91   17.53 
   2   1  17  127.56   16.86 
  -2   1 -17  123.34   14.30 
  -2   1 -17  119.88   16.18 
   2  -1  17  143.11   20.17 
  -2  -1 -17  126.32   12.86 
  -2  -1 -17  135.63   17.16 
  -2   1 -18    5.64   13.78 
   2   1  18    8.40   13.03 
  -2   1 -18    6.45   10.11 
  -2  -1 -18    4.17   12.36 
   2  -1  18    0.91   14.14 
   2   2 -19   15.57   12.80 
  -2   2  19   15.04   14.85 
   2   2 -19    7.17   11.46 
   2  -2 -19    9.22   13.62 
  -2  -2  19   10.90   16.97 
   2   2 -18   16.09   12.10 
  -2   2  18   21.29   13.15 
   2   2 -18   11.35    9.37 
   2  -2 -18   16.23   12.76 
  -2  -2  18   22.07   16.23 
   2   2 -17  121.88   16.72 
  -2   2  17  117.15   16.91 
   2   2 -17  114.66   13.43 
   2  -2 -17  155.96   17.09 
  -2  -2  17  148.80   19.20 
  -2   2  16    5.87   12.65 
   2   2 -16    9.41    8.73 
   2   2 -16   10.53   11.38 
  -2  -2  16   13.18   13.93 
   2  -2 -16   10.61    7.07 
   2  -2 -16   10.42   12.05 
  -2   2  15   14.11   11.53 
   2   2 -15   17.13    9.30 
   2   2 -15   16.16   10.84 
  -2  -2  15   17.97   12.83 
   2  -2 -15   17.01    7.42 
   2  -2 -15   15.59   11.33 
  -2   2  14  195.85   16.94 
   2   2 -14  188.67   14.69 
   2   2 -14  190.09   15.76 
   2  -2 -14  199.03   13.78 
   2  -2 -14  228.06   17.62 
  -2   2  13   18.86   10.45 
   2   2 -13   10.83    8.12 
   2   2 -13   15.15    7.36 
   2  -2 -13   24.45    7.80 
   2  -2 -13   23.36   10.16 
   2  -2 -13   24.61    7.84 
  -2   2  12  570.97   28.15 
   2   2 -12  559.78   24.62 
   2   2 -12  566.00   26.33 
   2  -2 -12  523.88   25.70 
   2  -2 -12  530.08   23.63 
  -2   2  11 1239.91   40.81 
   2   2 -11 1196.58   36.44 
   2   2 -11 1259.12   39.78 
   2  -2 -11 1104.91   37.95 
   2  -2 -11 1111.90   34.34 
  -2   2  10   48.20    9.29 
   2   2 -10   46.76    8.31 
   2   2 -10   50.33    9.62 
   2  -2 -10   52.89    9.31 
   2  -2 -10   51.83    7.91 
  -2  -2  10   55.17    8.40 
   2   2  -9  204.80   17.92 
  -2   2   9  224.25   18.52 
   2   2  -9  219.72   17.89 
   2   2  -9  217.57   18.61 
  -2   2   9  212.55   17.02 
   2  -2  -9  264.53   17.96 
   2  -2  -9  261.81   17.07 
   2  -2  -9  261.70   16.04 
  -2  -2   9  255.68   16.44 
   2   2  -8  833.06   34.59 
   2  -2  -8  689.21   29.90 
   2  -2  -8  686.23   27.88 
  -2  -2   8  677.11   27.75 
   2   2  -7 2429.71   96.19 
  -2   2   7 2413.54   93.53 
  -2   2   7 2350.94   84.53 
   2   2  -7 2512.53   97.07 
   2  -2  -7 2221.93   78.74 
   2  -2  -7 2363.41   79.93 
  -2  -2   7 2276.39   79.43 
   2   2  -6  283.01   20.79 
   2   2  -6  272.86   21.46 
  -2   2   6  283.97   21.06 
  -2   2   6  287.66   22.77 
   2   2  -6  278.64   22.24 
   2   2  -6  283.51   20.55 
  -2   2   6  261.22   20.12 
   2  -2  -6  264.67   20.31 
   2  -2  -6  267.93   21.34 
  -2  -2   6  268.86   22.88 
  -2  -2   6  275.58   20.43 
   2   2  -5  103.38   11.61 
   2   2  -5  103.62   12.56 
  -2   2   5  106.86   11.77 
   2   2  -5  108.09   13.02 
  -2   2   5  104.83   12.17 
  -2   2   5  102.93   11.70 
  -2  -2   5  104.64   13.08 
   2  -2  -5   95.18   11.46 
   2  -2  -5   95.01   10.72 
  -2  -2   5   96.30   12.90 
  -2  -2   5   97.55   10.98 
   2   2  -4  387.64   22.32 
   2   2  -4  355.71   22.94 
  -2   2   4  375.50   22.21 
  -2   2   4  384.67   23.23 
   2   2  -4  400.24   24.53 
  -2   2   4  348.61   21.59 
  -2  -2   4  345.48   23.02 
   2  -2  -4  340.12   21.84 
   2  -2  -4  331.45   19.98 
  -2  -2   4  354.79   24.54 
  -2  -2   4  371.82   21.95 
  -2   2   3 2029.39   61.91 
   2   2  -3 2005.32   66.32 
  -2   2   3 2023.26   62.46 
   2   2  -3 1955.70   62.57 
   2   2  -3 2012.29   62.01 
  -2   2   3 1823.41   60.34 
   2  -2  -3 2186.66   69.48 
   2  -2  -3 2158.46   62.97 
  -2  -2   3 2213.25   78.13 
  -2  -2   3 2117.15   68.97 
   2   2  -2 2363.43   71.52 
   2   2  -2 2319.41   79.25 
  -2   2   2 2430.77   73.45 
  -2   2   2 2342.86   68.93 
   2   2  -2 2280.91   72.37 
  -2   2   2 2223.09   67.84 
   2  -2  -2 2116.11   64.56 
   2  -2  -2 2283.46   69.40 
   2  -2  -2 2250.91   65.25 
  -2  -2   2 2317.68   84.27 
  -2  -2   2 2215.65   66.87 
   2   2  -1    8.47    4.91 
   2   2  -1    9.15    5.65 
  -2   2   1   10.96    4.79 
   2   2  -1    8.95    4.75 
  -2   2   1    8.74    4.38 
   2   2  -1   10.01    5.28 
  -2   2   1   11.04    4.58 
   2  -2  -1   23.05    6.35 
  -2  -2   1   25.63    7.33 
   2  -2  -1   24.70    6.06 
  -2  -2   1   21.56    6.37 
   2  -2  -1   23.16    5.14 
  -2   2   0  586.64   32.86 
   2   2   0  586.27   34.06 
  -2   2   0  590.95   30.78 
   2   2   0  575.06   30.50 
   2   2   0  592.96   31.13 
   2   2   0  584.64   30.41 
  -2   2   0  588.50   28.49 
  -2   2   0  554.48   28.46 
   2  -2   0  583.64   28.16 
   2  -2   0  529.22   30.42 
  -2  -2   0  614.04   32.42 
   2   2   1 1655.29   53.96 
  -2   2  -1 1639.32   59.62 
   2   2   1 1705.85   55.95 
   2   2   1 1642.01   54.58 
  -2   2  -1 1648.64   52.56 
   2  -2   1 1909.88   67.81 
   2  -2   1 1714.19   52.50 
  -2  -2  -1 1873.20   63.21 
  -2   2  -2  965.25   37.99 
  -2   2  -2  982.09   42.48 
   2   2   2  970.42   36.41 
   2   2   2  997.13   38.81 
  -2   2  -2  982.89   35.67 
   2   2   2  975.32   36.46 
   2  -2   2 1068.44   45.44 
  -2  -2  -2 1080.94   39.86 
  -2  -2  -2  971.88   38.45 
   2  -2   2  983.74   39.57 
  -2   2  -3 1211.80   43.80 
  -2   2  -3 1174.08   46.66 
   2   2   3 1185.21   41.98 
   2   2   3 1204.52   43.58 
  -2   2  -3  995.38   83.92 
   2   2   3 1201.71   41.05 
   2  -2   3 1289.94   52.46 
  -2  -2  -3 1218.77   42.91 
  -2  -2  -3 1238.95   45.46 
   2  -2   3 1242.58   42.50 
  -2   2  -4  308.09   23.03 
  -2   2  -4  311.61   24.48 
   2   2   4  306.30   22.36 
   2   2   4  305.24   21.44 
   2   2   4  312.48   22.93 
  -2   2  -4  318.96   22.43 
  -2  -2  -4  262.64   20.03 
   2  -2   4  267.49   19.46 
  -2  -2  -4  260.88   20.15 
   2  -2   4  257.95   22.93 
   2  -2   4  250.78   19.08 
   2   2   5  275.23   21.02 
  -2   2  -5  264.31   21.88 
   2   2   5  266.33   20.82 
   2   2   5  258.18   18.72 
  -2   2  -5  260.54   19.41 
  -2   2  -5  255.06   20.28 
  -2  -2  -5  259.30   19.76 
   2  -2   5  248.12   18.33 
  -2  -2  -5  256.75   19.74 
   2  -2   5  246.92   22.24 
  -2  -2  -5  258.67   21.23 
   2  -2   5  254.34   19.40 
  -2   2  -6  108.16   13.02 
   2   2   6  109.43   13.05 
  -2   2  -6   97.27   11.40 
   2   2   6  100.28   10.70 
   2   2   6  111.86   12.92 
  -2  -2  -6   84.84   10.42 
  -2  -2  -6   75.45    9.99 
  -2  -2  -6   83.10   11.25 
   2  -2   6   78.36    9.55 
   2  -2   6   81.13   12.47 
   2  -2   6   78.95   10.12 
   2   2   7 1305.02   75.49 
   2   2   7 1361.42   46.73 
   2   2   7 1334.61   44.82 
  -2   2  -7 1319.70   45.07 
  -2  -2  -7 1271.18   42.24 
   2  -2   7 1249.44   39.58 
  -2  -2  -7 1335.34   46.65 
  -2  -2  -7 1307.32   42.16 
   2  -2   7 1298.06   50.74 
   2  -2   7 1276.33   41.91 
   2   2   8 1033.28   40.19 
   2   2   8 1076.67   43.15 
  -2  -2  -8  854.40   33.98 
  -2  -2  -8  847.23   33.20 
   2  -2   8  858.69   40.09 
  -2  -2  -8  868.19   36.87 
   2  -2   8  872.67   34.18 
  -2   2  -9  276.71   16.53 
   2   2   9  292.61   20.12 
  -2   2  -9  293.26   18.92 
   2   2   9  279.91   15.23 
  -2  -2  -9  376.47   19.70 
   2  -2   9  372.69   24.14 
  -2  -2  -9  362.38   21.68 
  -2  -2  -9  374.70   19.53 
   2  -2   9  382.23   19.93 
  -2   2 -10   25.83    7.66 
   2   2  10   25.99    9.56 
  -2   2 -10   26.99    8.11 
   2   2  10   26.47    6.41 
  -2  -2 -10   20.86    7.86 
   2  -2  10   20.51   10.25 
  -2  -2 -10   20.71    9.14 
  -2  -2 -10   20.98    6.41 
   2  -2  10   21.30    7.45 
   2   2  11   76.30    9.21 
   2   2  11   80.95   12.61 
  -2   2 -11   83.82   11.88 
  -2   2 -11   74.69   10.18 
   2  -2  11   57.58   13.19 
  -2  -2 -11   55.90   11.21 
  -2  -2 -11   54.55    8.54 
  -2   2 -12  120.76   12.34 
   2   2  12  124.62   14.34 
  -2   2 -12  124.98   13.86 
  -2  -2 -12   90.51   10.65 
   2  -2  12   92.27   14.56 
  -2  -2 -12   90.51   13.02 
  -2  -2 -12   95.53   11.41 
  -2   2 -13    6.63    9.03 
   2   2  13   10.84   11.38 
  -2   2 -13    7.09    9.02 
  -2  -2 -13   15.61    7.59 
   2  -2  13   13.41   10.90 
  -2  -2 -13   15.21   10.48 
  -2  -2 -13   13.90    7.43 
   2   2  14  213.61   17.84 
  -2   2 -14  202.40   15.24 
  -2   2 -14  206.06   16.25 
   2  -2  14  217.78   21.22 
  -2  -2 -14  206.04   15.17 
  -2  -2 -14  214.60   19.40 
   2   2  15   40.52   12.34 
  -2   2 -15   49.52   10.31 
  -2   2 -15   44.24   12.49 
   2  -2  15   46.67   15.11 
  -2  -2 -15   47.76    9.68 
  -2  -2 -15   46.44   14.60 
  -2   2 -16   24.08   12.04 
   2   2  16   20.01   12.10 
  -2   2 -16   30.22   11.24 
  -2  -2 -16   25.06   13.30 
   2  -2  16   25.20   14.93 
  -2   2 -17   46.10   13.79 
   2   2  17   46.78   15.31 
  -2   2 -17   48.48   13.05 
  -2  -2 -17   50.30   15.35 
   2  -2  17   44.44   16.87 
  -2   2 -18  148.75   16.18 
   2   2  18  173.23   19.70 
  -2   2 -18  152.62   14.92 
  -2  -2 -18  154.49   18.69 
   2  -2  18  152.10   19.65 
  -2   3  18    1.48   12.38 
   2   3 -18   -1.14   10.13 
   2   3 -18   -0.34   10.46 
  -2   3  17    5.96   13.30 
   2   3 -17   11.82    9.61 
   2   3 -17   10.73   11.02 
  -2   3  16   -3.54   11.71 
   2   3 -16   -2.16   10.33 
   2   3 -16    0.81    9.13 
  -2   3  15  100.94   15.41 
   2   3 -15  112.81   13.89 
   2   3 -15  107.11   14.08 
  -2   3  14   21.70   12.30 
   2   3 -14   29.58   10.83 
   2   3 -14   24.15    9.25 
   2  -3 -14   21.37    7.38 
  -2   3  13    1.21   10.16 
   2   3 -13    0.66    7.01 
   2   3 -13    0.69    8.93 
   2  -3 -13    2.87    6.10 
   2  -3 -13   -3.91    9.24 
   2   3 -12    5.21    8.30 
  -2   3  12    2.70    9.06 
   2   3 -12    3.62    7.22 
   2  -3 -12    1.74    5.39 
  -2  -3  12    5.94   11.39 
   2  -3 -12    5.39    9.79 
   2  -3 -12    1.25    5.88 
  -2   3  11  340.45   20.98 
   2   3 -11  329.90   19.43 
  -2  -3  11  356.81   24.05 
   2  -3 -11  374.94   20.91 
   2  -3 -11  352.07   21.51 
   2  -3 -11  364.91   19.96 
  -2   3  10   73.23   11.34 
   2   3 -10   69.93   10.07 
  -2  -3  10   56.75   13.04 
   2  -3 -10   56.46    8.68 
   2  -3 -10   57.01   10.02 
   2  -3 -10   57.40    8.13 
  -2  -3  10   57.59    9.36 
   2   3  -9   16.00    7.39 
  -2   3   9   16.17    7.25 
   2   3  -9   16.00    6.43 
   2  -3  -9   36.09    6.97 
  -2  -3   9   39.03   11.15 
   2  -3  -9   37.17    9.11 
   2  -3  -9   37.43    7.38 
  -2  -3   9   36.36    7.89 
   2   3  -8  239.32   18.10 
   2   3  -8  240.92   16.38 
  -2   3   8  238.29   18.91 
  -2   3   8  250.65   16.70 
   2   3  -8  240.42   18.23 
   2  -3  -8  198.75   16.45 
   2  -3  -8  212.95   17.38 
   2  -3  -8  209.96   18.55 
   2  -3  -8  203.37   17.32 
  -2  -3   8  207.38   19.70 
  -2  -3   8  206.39   16.85 
  -2   3   7  119.95   12.37 
   2   3  -7  125.88   13.04 
  -2   3   7  127.14   12.73 
   2   3  -7  131.68   11.99 
   2   3  -7  123.61   13.63 
   2   3  -7  129.74   12.30 
   2  -3  -7  113.68   10.68 
   2  -3  -7  125.16   12.11 
   2  -3  -7  127.83   13.28 
  -2  -3   7  121.47   15.17 
   2  -3  -7  135.85   11.89 
  -2  -3   7  122.04   11.76 
   2   3  -6   91.52   11.45 
   2   3  -6   93.04   11.44 
  -2   3   6   91.94   10.29 
   2   3  -6   91.57   10.32 
  -2   3   6   94.29   11.10 
   2   3  -6   94.00   10.34 
  -2  -3   6  170.11   16.73 
   2  -3  -6  161.98   13.87 
  -2   3   5  944.90   40.28 
   2   3  -5  994.77   43.83 
  -2   3   5  954.33   40.67 
   2   3  -5  999.77   40.47 
   2   3  -5  977.43   42.48 
  -2   3   5  919.07   41.78 
   2   3  -5  986.31   41.28 
   2  -3  -5 1076.56   43.93 
   2  -3  -5 1050.31   44.60 
  -2  -3   5 1055.83   49.30 
   2  -3  -5  952.31   43.08 
  -2  -3   5 1026.83   42.06 
   2   3  -4  676.86   28.35 
   2   3  -4  727.74   31.37 
  -2   3   4  712.61   29.20 
  -2   3   4  708.34   28.38 
   2   3  -4  762.97   31.52 
  -2   3   4  713.30   28.98 
   2  -3  -4  572.50   25.70 
   2  -3  -4  583.52   27.00 
   2  -3  -4  575.69   23.76 
  -2  -3   4  587.73   30.90 
  -2  -3   4  566.93   25.69 
   2   3  -3  575.32   25.06 
   2   3  -3  563.71   28.28 
  -2   3   3  561.70   25.30 
  -2   3   3  598.84   24.93 
   2   3  -3  610.53   27.60 
  -2   3   3  563.51   25.22 
  -2  -3   3  460.69   32.15 
   2  -3  -3  495.92   34.65 
   2  -3  -3  479.19   32.13 
  -2  -3   3  431.81   33.23 
  -2   3   2    8.01    5.02 
   2   3  -2   10.13    6.11 
  -2   3   2    8.09    4.56 
   2   3  -2    9.69    5.98 
   2   3  -2    9.68    5.82 
  -2   3   2    9.40    4.36 
   2   3  -2    8.19    5.03 
  -2  -3   2   15.24    6.76 
   2  -3  -2   15.13    5.63 
  -2  -3   2   13.38    6.92 
   2  -3  -2   15.98    5.16 
  -2   3   1 1161.76   42.94 
  -2   3   1 1030.03   44.42 
   2   3  -1 1154.91   46.74 
  -2   3   1 1176.65   40.36 
   2   3  -1 1132.93   40.02 
   2   3  -1 1130.91   39.52 
  -2   3   1 1145.87   36.83 
   2   3  -1 1150.31   40.79 
  -2  -3   1 1196.07   42.50 
   2  -3  -1 1162.76   41.40 
  -2  -3   1 1133.21   44.96 
   2  -3  -1 1157.68   37.67 
  -2   3   0  183.35   18.05 
   2   3   0  177.28   17.91 
   2   3   0  182.32   16.37 
  -2   3   0  182.20   16.56 
  -2   3   0  184.57   15.15 
   2   3   0  189.18   16.76 
   2   3   0  184.64   16.79 
  -2   3   0  162.59   15.05 
  -2  -3   0  174.61   16.80 
   2  -3   0  171.20   16.10 
  -2  -3   0  178.27   16.64 
   2  -3   0  178.03   14.93 
   2   3   1  455.08   32.47 
  -2   3  -1  469.66   33.10 
   2   3   1  467.45   31.00 
  -2   3  -1  466.91   29.48 
   2   3   1  446.47   29.81 
  -2   3  -1  412.50   28.67 
  -2   3  -1  436.32   28.56 
   2   3   1  465.28   31.03 
  -2  -3  -1  591.01   28.12 
  -2  -3  -1  564.26   27.36 
   2  -3   1  564.14   23.40 
   2   3   2  789.04   31.60 
  -2   3  -2  776.11   34.61 
   2   3   2  784.52   30.30 
   2   3   2  732.05   30.35 
  -2   3  -2  678.31   29.31 
  -2   3  -2  750.18   28.11 
  -2   3  -2  746.07   29.38 
  -2  -3  -2  821.38   31.50 
   2  -3   2  853.77   30.09 
   2  -3   2  765.32   35.28 
  -2  -3  -2  868.47   35.13 
   2   3   3  346.96   24.69 
  -2   3  -3  346.94   26.65 
   2   3   3  359.42   24.86 
   2   3   3  337.41   23.79 
  -2   3  -3  360.97   24.67 
  -2   3  -3  351.95   25.00 
  -2  -3  -3  339.46   24.27 
   2  -3   3  330.54   22.81 
  -2  -3  -3  340.00   24.90 
   2  -3   3  309.56   25.74 
  -2  -3  -3  336.38   25.40 
   2  -3   3  321.18   23.03 
  -2   3  -4   24.65    6.40 
  -2   3  -4   23.37    7.46 
   2   3   4   27.69    6.72 
   2   3   4   22.88    5.58 
   2   3   4   25.40    7.28 
  -2   3  -4   26.52    6.88 
  -2  -3  -4   15.41    5.94 
  -2  -3  -4   12.35    6.98 
  -2  -3  -4   13.95    5.64 
   2  -3   4   15.66    8.45 
   2  -3   4   13.20    5.24 
  -2   3  -5   31.86    7.37 
  -2   3  -5   32.16    9.07 
   2   3   5   28.86    6.88 
   2   3   5   29.18    7.33 
  -2   3  -5   30.57    7.58 
   2   3   5   28.96    5.99 
   2  -3   5    9.72    8.02 
  -2  -3  -5   10.45    5.45 
  -2  -3  -5    9.19    5.49 
   2  -3   5    8.32    4.85 
  -2   3  -6  345.43   20.17 
  -2   3  -6  342.38   21.10 
   2   3   6  333.14   19.62 
   2   3   6  326.61   18.60 
   2   3   6  312.30   20.59 
  -2   3  -6  334.69   18.52 
   2  -3   6  375.69   24.62 
  -2  -3  -6  382.50   20.34 
  -2  -3  -6  362.59   20.62 
   2  -3   6  368.10   19.48 
  -2   3  -7  715.90   31.57 
  -2   3  -7  710.53   31.99 
   2   3   7  730.60   32.40 
  -2   3  -7  708.89   29.49 
   2   3   7  695.02   29.82 
   2   3   7  708.85   29.05 
  -2  -3  -7  635.22   27.75 
   2  -3   7  629.62   26.18 
  -2  -3  -7  628.77   28.21 
   2  -3   7  640.51   33.93 
   2  -3   7  622.99   28.92 
  -2   3  -8  512.54   23.15 
   2   3   8  517.07   25.40 
  -2   3  -8  535.28   25.13 
   2   3   8  508.31   22.36 
   2  -3   8  539.86   29.13 
  -2  -3  -8  533.60   24.15 
  -2  -3  -8  530.16   23.71 
   2  -3   8  544.19   23.87 
   2   3   9   58.82    8.10 
   2   3   9   53.41    9.48 
  -2   3  -9   58.89    9.70 
  -2  -3  -9   84.12   10.41 
   2  -3   9   89.04   14.30 
  -2  -3  -9   88.14   10.21 
   2  -3   9   81.76    9.70 
  -2   3 -10  405.51   22.55 
   2   3  10  411.00   23.48 
  -2  -3 -10  354.44   21.17 
  -2  -3 -10  328.57   19.85 
   2  -3  10  365.05   24.75 
   2  -3  10  351.23   19.24 
   2   3  11  570.25   29.28 
  -2   3 -11  572.29   27.85 
   2  -3  11  499.76   29.83 
  -2  -3 -11  473.62   30.83 
  -2  -3 -11  479.52   26.73 
  -2  -3 -11  479.15   24.47 
   2  -3  11  487.75   23.08 
   2   3  12  153.63   16.35 
  -2   3 -12  152.21   14.29 
  -2   3 -12  149.88   15.51 
   2  -3  12  136.31   18.73 
  -2  -3 -12  138.12   13.34 
  -2  -3 -12  143.76   16.50 
   2   3  13   17.22   11.61 
  -2   3 -13   17.28    9.31 
  -2   3 -13   20.34    8.91 
   2  -3  13   16.01   12.93 
  -2  -3 -13   16.55    7.48 
  -2  -3 -13   19.56   10.85 
  -2   3 -14   47.05   11.97 
   2   3  14   42.15   12.45 
  -2   3 -14   47.27   11.57 
  -2  -3 -14   36.80   14.02 
   2  -3  14   34.12   14.55 
  -2   3 -15   40.28   11.42 
   2   3  15   44.91   14.71 
  -2   3 -15   47.13   11.62 
  -2  -3 -15   46.47   14.35 
   2  -3  15   37.73   15.06 
  -2   3 -16   69.55   12.74 
   2   3  16   66.50   14.41 
  -2   3 -16   70.70   11.85 
  -2  -3 -16   89.60   15.88 
   2  -3  16   95.06   18.38 
  -2   3 -17   32.92   11.41 
   2   3  17   30.52   14.66 
   2  -3  17   23.25   16.44 
  -2  -3 -17   31.72   14.80 
   2   4 -17   14.15   11.06 
  -2   4  17   18.12   15.45 
   2   4 -17   19.74   10.48 
   2  -4 -17   15.78   14.00 
  -2  -4  17   27.31   15.47 
   2   4 -16   26.69   11.57 
  -2   4  16   27.24   14.14 
   2   4 -16   19.32   10.35 
   2  -4 -16   22.07   13.71 
  -2  -4  16   22.98   14.70 
   2   4 -15   17.21   11.19 
  -2   4  15   18.21   12.60 
   2   4 -15   16.02   10.29 
   2  -4 -15   15.33   12.56 
  -2  -4  15   12.96   14.88 
   2   4 -14   28.40   10.84 
  -2   4  14   26.76   11.77 
   2   4 -14   24.83   10.26 
   2  -4 -14   18.17   12.33 
  -2  -4  14   15.72   14.44 
  -2   4  13  178.63   16.77 
   2   4 -13  185.33   14.89 
  -2  -4  13  116.44   17.55 
   2  -4 -13  125.91   15.86 
  -2   4  12  163.49   15.66 
   2   4 -12  149.70   13.62 
  -2  -4  12  115.74   17.64 
   2  -4 -12  110.09   14.68 
   2   4 -11  431.42   20.62 
  -2   4  11  436.67   22.13 
   2   4 -11  415.56   20.24 
   2  -4 -11  401.26   22.50 
  -2  -4  11  406.02   25.66 
   2   4 -10    7.45    7.84 
  -2   4  10    7.90    7.99 
   2   4 -10    4.17    6.99 
   2  -4 -10    0.55    8.55 
  -2  -4  10    0.89    9.96 
   2   4  -9  325.67   17.81 
  -2   4   9  335.46   19.38 
   2   4  -9  327.24   18.35 
   2  -4  -9  341.70   21.25 
  -2  -4   9  335.65   23.60 
  -2  -4   9  343.05   18.76 
   2   4  -8  471.35   20.61 
  -2   4   8  461.99   21.43 
   2   4  -8  458.49   20.48 
   2  -4  -8  391.99   22.17 
  -2  -4   8  426.43   25.71 
  -2  -4   8  410.24   19.84 
  -2   4   7  470.85   23.43 
   2   4  -7  471.66   24.35 
   2   4  -7  486.28   21.91 
   2   4  -7  472.88   22.19 
  -2   4   7  476.13   22.67 
  -2  -4   7  529.77   29.83 
   2  -4  -7  535.99   25.92 
  -2  -4   7  509.38   23.46 
   2   4  -6  153.12   13.59 
   2   4  -6  159.57   14.53 
  -2   4   6  158.53   13.35 
  -2   4   6  166.61   13.36 
   2   4  -6  157.51   12.36 
   2   4  -6  162.34   12.74 
   2  -4  -6  157.84   14.09 
   2  -4  -6  158.96   13.59 
  -2  -4   6  151.91   15.69 
  -2  -4   6  154.39   12.84 
   2   4  -5  273.92   18.43 
   2   4  -5  283.70   19.08 
  -2   4   5  279.90   17.96 
  -2   4   5  263.82   17.40 
   2   4  -5  279.12   17.06 
   2   4  -5  268.02   16.79 
   2  -4  -5  279.92   18.63 
   2  -4  -5  289.76   18.56 
  -2  -4   5  277.63   21.27 
  -2  -4   5  281.34   17.74 
  -2   4   4  447.04   23.97 
   2   4  -4  436.94   28.26 
  -2   4   4  459.57   22.97 
   2   4  -4  472.81   22.67 
   2   4  -4  475.53   24.04 
   2   4  -4  461.98   23.84 
  -2   4   4  471.69   22.29 
   2   4  -4  459.29   22.72 
  -2   4   4  449.00   23.15 
   2  -4  -4  535.10   26.23 
  -2  -4   4  544.80   30.13 
   2  -4  -4  526.50   25.12 
   2   4  -3  914.83   36.01 
   2   4  -3  905.70   37.88 
  -2   4   3  914.05   35.58 
   2   4  -3  930.37   34.12 
   2   4  -3  907.86   35.83 
  -2   4   3  925.94   32.87 
  -2   4   3  880.67   33.94 
   2   4  -3  934.37   34.36 
  -2  -4   3  806.38   38.07 
   2  -4  -3  838.12   34.27 
   2  -4  -3  800.98   29.95 
   2  -4  -3  792.08   31.42 
  -2   4   2  596.04   32.54 
  -2   4   2  564.51   28.36 
   2   4  -2  570.95   31.91 
  -2   4   2  572.27   29.06 
   2   4  -2  579.55   29.51 
  -2   4   2  570.53   26.70 
   2   4  -2  573.04   29.22 
   2   4  -2  569.59   27.28 
   2   4  -2  553.53   28.67 
   2  -4  -2  593.67   27.78 
  -2  -4   2  616.11   34.09 
   2  -4  -2  630.57   32.10 
  -2   4   1  161.28   15.51 
  -2   4   1  167.14   17.55 
   2   4  -1  163.48   17.66 
  -2   4   1  170.38   16.67 
   2   4  -1  169.11   16.30 
  -2   4   1  167.10   15.00 
   2   4  -1  163.72   15.84 
   2   4  -1  162.92   16.12 
   2  -4  -1  139.47   15.00 
  -2  -4   1  137.01   16.25 
   2  -4  -1  130.28   13.07 
  -2   4   0  304.58   21.79 
   2   4   0  312.20   22.37 
   2   4   0  291.30   24.88 
  -2   4   0  316.34   20.15 
  -2   4   0  308.87   18.57 
   2   4   0  308.61   20.00 
   2   4   0  300.77   20.58 
  -2   4   0  315.55   19.77 
  -2  -4   0  277.04   23.66 
   2  -4   0  313.37   20.56 
  -2  -4   0  306.71   20.60 
   2  -4   0  293.91   18.70 
   2   4   1  839.85   40.86 
  -2   4  -1  857.06   41.03 
   2   4   1  819.73   38.93 
  -2   4  -1  871.05   36.25 
   2   4   1  848.57   38.36 
  -2   4  -1  836.14   36.58 
  -2   4  -1  801.97   35.19 
   2   4   1  835.79   37.81 
  -2  -4  -1  732.39   36.67 
  -2  -4  -1  702.74   34.42 
   2  -4   1  695.15   31.46 
   2   4   2  577.26   29.45 
  -2   4  -2  572.17   29.52 
   2   4   2  560.22   27.23 
   2   4   2  570.90   27.35 
  -2   4  -2  572.05   25.27 
  -2   4  -2  607.36   28.12 
   2   4   2  577.93   26.88 
  -2   4  -2  540.20   26.91 
  -2   4  -3 1215.81   45.97 
   2   4   3 1200.44   41.48 
  -2   4  -3 1248.97   40.68 
  -2   4  -3 1219.93   40.23 
   2   4   3 1167.16   39.73 
   2   4   3 1211.71   43.65 
  -2   4  -3 1165.66   41.27 
  -2  -4  -3 1354.46   48.38 
  -2  -4  -3 1347.04   44.27 
  -2  -4  -3 1387.17   47.95 
   2  -4   3 1333.13   41.65 
  -2   4  -4  189.44   17.86 
   2   4   4  190.92   16.13 
  -2   4  -4  186.90   15.97 
  -2   4  -4  187.48   16.37 
   2   4   4  190.46   15.53 
  -2   4  -4  192.22   16.19 
   2   4   4  190.13   16.22 
  -2  -4  -4  247.99   15.97 
  -2  -4  -4  245.53   17.41 
  -2  -4  -4  240.74   17.17 
   2  -4   4  240.52   17.82 
  -2   4  -5  107.58   13.20 
   2   4   5  113.61   12.34 
   2   4   5  111.05   11.04 
  -2   4  -5  107.29   12.11 
   2   4   5  113.21   12.77 
  -2   4  -5  113.98   12.37 
  -2  -4  -5  124.08   12.81 
  -2  -4  -5  121.50   13.72 
   2  -4   5  113.59   11.73 
  -2  -4  -5  117.02   13.68 
   2  -4   5  119.93   12.55 
   2   4   6   54.01    8.90 
   2   4   6   50.25    8.31 
   2   4   6   53.01    8.68 
  -2   4  -6   50.40    8.56 
  -2   4  -6   49.98    9.40 
  -2  -4  -6   66.56    9.52 
  -2  -4  -6   68.64   11.41 
  -2  -4  -6   63.75   10.64 
   2  -4   6   59.75    8.46 
   2   4   7  384.33   19.65 
  -2   4  -7  370.06   18.65 
  -2   4  -7  390.63   20.16 
  -2  -4  -7  388.71   19.54 
  -2  -4  -7  403.14   22.39 
   2  -4   7  386.60   18.86 
   2   4   8  104.09   12.07 
  -2   4  -8   99.13   11.46 
  -2   4  -8  102.18   11.82 
   2  -4   8  149.68   16.87 
  -2  -4  -8  154.83   13.26 
  -2  -4  -8  158.97   14.93 
   2  -4   8  164.49   12.95 
   2   4   9  344.49   20.92 
  -2   4  -9  330.99   19.91 
  -2   4  -9  352.77   20.83 
   2  -4   9  275.06   22.62 
  -2  -4  -9  266.32   16.87 
  -2  -4  -9  270.03   19.67 
   2  -4   9  289.04   17.57 
   2   4  10  158.54   15.05 
  -2   4 -10  158.26   13.14 
  -2   4 -10  160.45   14.60 
   2  -4  10  154.73   18.51 
  -2  -4 -10  138.60   13.18 
  -2  -4 -10  146.60   16.47 
   2  -4  10  146.73   12.63 
   2   4  11   23.74    9.56 
  -2   4 -11   19.31    9.58 
  -2   4 -11   24.45    8.55 
   2  -4  11   17.23   11.11 
  -2  -4 -11   16.01   10.06 
  -2  -4 -11   15.97   10.56 
   2  -4  11   15.76    7.12 
  -2   4 -12   29.28    9.41 
   2   4  12   29.17   11.74 
   2  -4  12   22.53   13.37 
   2   4  13  123.24   15.75 
   2  -4  13   88.27   16.37 
  -2   4 -14   12.46    9.91 
   2   4  14   11.92   11.39 
   2  -4  14    1.22   13.56 
  -2   4 -15   84.84   13.92 
   2   4  15   96.13   15.01 
   2  -4  15   90.97   19.09 
  -2   4 -16   14.25   11.04 
   2   4  16   16.25   13.86 
   2  -4  16   11.57   17.28 
   2   5 -16   12.57   11.86 
  -2   5  16   14.59   13.47 
  -2  -5  16    9.02   14.75 
   2  -5 -16    8.81   12.50 
  -2   5  15   12.37   12.54 
  -2  -5  15   16.36   16.30 
   2  -5 -15   16.54   12.04 
  -2   5  14   65.91   14.05 
  -2  -5  14   80.98   16.99 
   2  -5 -14   90.10   14.84 
   2   5 -13   27.16   10.42 
  -2   5  13   30.00   12.55 
   2   5 -13   29.08   10.30 
   2  -5 -13   27.92   12.86 
  -2  -5  13   34.28   14.34 
   2   5 -12   17.68    9.25 
  -2   5  12   14.55    9.50 
   2   5 -12   12.57   10.70 
   2  -5 -12   15.81   11.02 
  -2  -5  12   11.51   14.60 
   2   5 -11    4.42    8.23 
  -2   5  11    2.20    8.75 
   2   5 -11    6.90    9.85 
   2  -5 -11   23.07   10.68 
  -2  -5  11   25.11   12.92 
   2   5 -10  157.41   13.97 
  -2   5  10  154.86   13.73 
   2   5 -10  162.03   13.82 
   2  -5 -10  197.32   16.49 
  -2  -5  10  207.42   19.86 
   2   5  -9   42.55    9.00 
  -2   5   9   44.90    9.93 
   2   5  -9   41.19    9.32 
   2  -5  -9   34.63   11.03 
  -2  -5   9   38.57   13.29 
  -2  -5   9   35.17    8.58 
   2   5  -8   81.04   10.59 
  -2   5   8   83.83   11.31 
   2   5  -8   85.93   10.51 
   2  -5  -8   75.10   11.42 
  -2  -5   8   75.26   13.72 
  -2  -5   8   77.57   10.21 
  -2   5   7   99.43   10.84 
  -2   5   7  104.73   12.26 
   2   5  -7  103.74   11.10 
   2   5  -7  100.36   10.36 
  -2  -5   7   95.59   14.99 
   2  -5  -7   99.25   13.01 
  -2  -5   7   91.86   10.51 
   2   5  -6  190.56   13.91 
  -2   5   6  191.33   15.02 
   2   5  -6  200.70   13.86 
   2   5  -6  198.25   15.28 
  -2   5   6  193.80   14.30 
  -2  -5   6  206.49   18.44 
   2  -5  -6  222.46   17.12 
   2   5  -5  449.51   21.68 
   2   5  -5  445.34   23.06 
  -2   5   5  440.55   21.26 
   2   5  -5  443.18   20.15 
  -2   5   5  435.80   20.80 
   2   5  -5  429.28   19.29 
  -2  -5   5  428.60   25.43 
   2  -5  -5  425.93   22.11 
  -2   5   4  324.69   17.96 
   2   5  -4  333.70   20.51 
  -2   5   4  330.89   19.21 
  -2   5   4  345.88   19.67 
   2   5  -4  332.45   18.92 
  -2   5   4  335.35   17.01 
   2   5  -4  345.42   17.78 
   2   5  -4  335.52   19.03 
   2   5  -4  327.49   17.69 
  -2  -5   4  386.47   23.78 
   2  -5  -4  397.03   21.72 
  -2   5   3   58.82   11.17 
  -2   5   3   55.17    8.83 
   2   5  -3   55.85   10.76 
  -2   5   3   57.57    9.81 
  -2   5   3   54.58    9.16 
   2   5  -3   55.45    9.55 
  -2   5   3   55.35    8.06 
   2   5  -3   54.05    9.53 
   2   5  -3   54.88    9.43 
   2   5  -3   55.60    8.83 
  -2  -5   3   65.06   12.17 
   2  -5  -3   63.26   10.07 
   2   5  -2  203.50   15.21 
  -2   5   2  215.57   17.02 
   2   5  -2  214.92   17.55 
  -2   5   2  220.78   15.70 
  -2   5   2  214.42   15.89 
   2   5  -2  212.46   15.15 
  -2   5   2  209.54   13.38 
   2   5  -2  213.67   14.69 
  -2   5   2  216.36   15.05 
   2   5  -2  226.40   15.42 
   2  -5  -2  233.67   16.50 
  -2  -5   2  244.92   19.42 
  -2   5   1  855.89   35.61 
   2   5  -1  860.64   36.64 
  -2   5   1  832.06   32.94 
   2   5  -1  875.06   33.19 
  -2   5   1  852.85   34.25 
   2   5  -1  874.37   33.14 
  -2   5   1  874.73   30.27 
   2   5  -1  845.88   30.96 
  -2   5   1  870.80   32.99 
   2   5  -1  875.01   33.14 
   2   5  -1  860.40   33.01 
   2  -5  -1  922.31   35.62 
  -2   5   0  348.50   22.61 
   2   5   0  349.85   22.38 
   2   5   0  360.32   20.19 
  -2   5   0  357.56   20.78 
   2   5   0  360.93   20.30 
  -2   5   0  350.93   18.17 
   2   5   0  335.35   18.69 
   2   5   0  346.94   20.03 
  -2   5   0  338.70   19.63 
   2  -5   0  411.64   20.08 
  -2  -5   0  414.44   22.65 
   2   5   1   19.30    8.19 
  -2   5  -1   18.84    8.26 
   2   5   1   18.51    7.27 
  -2   5  -1   17.71    7.44 
   2   5   1   17.46    6.78 
  -2   5  -1   21.16    6.94 
   2   5   1   17.38    6.03 
   2   5   1   20.10    7.33 
  -2   5  -1   19.32    6.33 
  -2   5  -1   16.86    5.84 
  -2   5  -2  333.83   19.04 
   2   5   2  330.87   21.73 
   2   5   2  341.39   19.60 
   2   5   2  332.21   19.14 
  -2   5  -2  328.75   17.99 
   2   5   2  320.01   17.86 
  -2   5  -2  290.27   23.57 
   2   5   2  352.42   19.91 
  -2  -5  -2  322.75   20.44 
   2  -5   2  353.75   23.70 
   2  -5   2  326.17   17.88 
   2   5   3  262.16   16.43 
   2   5   3  260.04   18.74 
   2   5   3  256.79   16.09 
   2   5   3  247.42   15.57 
  -2   5  -3  264.30   15.47 
   2   5   3  251.50   14.98 
  -2   5  -3  261.55   15.15 
  -2   5  -3  256.15   16.42 
  -2  -5  -3  245.69   17.25 
   2  -5   3  252.40   19.89 
   2  -5   3  248.64   15.20 
   2   5   4   35.27    9.50 
   2   5   4   30.42    6.78 
   2   5   4   32.62    7.69 
   2   5   4   32.07    7.08 
  -2   5  -4   28.20    7.72 
  -2   5  -4   31.25    6.97 
   2   5   4   30.47    7.54 
  -2   5  -4   31.10    7.42 
  -2  -5  -4    9.02    8.21 
   2  -5   4    8.87    9.94 
   2   5   5  197.08   12.96 
   2   5   5  188.38   13.73 
   2   5   5  195.61   13.04 
  -2   5  -5  188.71   13.76 
  -2   5  -5  195.15   14.10 
  -2   5  -5  183.26   14.35 
   2  -5   5  109.73   15.64 
   2   5   6  271.57   17.05 
  -2   5  -6  260.28   17.13 
  -2   5  -6  267.80   17.64 
  -2  -5  -6  228.88   15.86 
  -2  -5  -6  228.38   17.22 
   2   5   7  296.83   18.30 
  -2   5  -7  277.38   17.96 
  -2   5  -7  294.37   18.41 
  -2  -5  -7  290.07   18.45 
  -2  -5  -7  278.60   20.05 
   2  -5   7  268.53   17.32 
   2   5   8  108.40   11.51 
  -2   5  -8  110.29   12.61 
  -2  -5  -8  104.52   14.48 
   2  -5   8   98.50   10.68 
   2   5   9   52.02   10.90 
  -2   5  -9   51.78   10.48 
  -2  -5  -9   86.33   13.54 
   2  -5   9   85.44   11.04 
   2   5  10   90.03   12.17 
  -2   5 -10   87.45   12.57 
  -2  -5 -10   79.76   14.29 
   2   5  11  148.77   14.66 
  -2   5 -11  157.95   13.98 
  -2  -5 -11  189.45   18.23 
   2   5  12   20.19   11.62 
  -2   5 -12   26.02   11.49 
  -2  -5 -12   23.04   12.33 
   2   5  13   99.91   13.38 
  -2   5 -13  108.89   13.85 
  -2  -5 -13  108.89   16.25 
   2   5  14   65.98   14.70 
   2  -5  14   73.47   18.27 
  -2  -5 -14   79.80   15.20 
   2  -5  15   21.18   17.00 
  -2  -5 -15   27.78   14.89 
   2   6 -15   13.99   12.62 
  -2   6  15   14.79   13.26 
  -2  -6  15   10.62   17.22 
   2  -6 -15   14.31   13.69 
   2   6 -14    7.91   11.65 
  -2   6  14   15.83   12.47 
  -2  -6  14    2.16   16.14 
   2  -6 -14    7.97   12.78 
   2   6 -13  293.69   18.24 
  -2   6  13  309.80   20.50 
  -2  -6  13  246.81   23.37 
   2  -6 -13  252.81   20.16 
   2   6 -12   35.87   11.25 
  -2   6  12   28.00   10.93 
  -2  -6  12   41.19   16.03 
   2  -6 -12   36.09   13.11 
   2   6 -11   33.04   11.50 
  -2   6  11   32.73   10.79 
  -2  -6  11   31.14   15.37 
   2  -6 -11   27.11   11.57 
   2   6 -10   47.72   10.30 
  -2   6  10   47.94   10.49 
  -2  -6  10   48.48   14.03 
   2  -6 -10   55.41   11.82 
   2   6  -9  103.06   11.74 
  -2   6   9  111.63   13.84 
   2   6  -9  115.12   13.15 
   2  -6  -9  119.42   15.21 
  -2  -6   9  125.56   18.06 
   2   6  -8  136.50   12.30 
  -2   6   8  135.85   13.63 
   2   6  -8  140.91   12.88 
   2  -6  -8  123.89   14.73 
  -2  -6   8  116.71   17.57 
   2   6  -7   39.96    8.27 
  -2   6   7   39.78    9.72 
   2   6  -7   39.23    9.96 
   2  -6  -7   45.21   11.34 
  -2  -6   7   49.22   12.75 
   2   6  -6    0.63    6.41 
  -2   6   6    0.41    7.28 
   2   6  -6    1.36    7.90 
   2  -6  -6    0.87    8.01 
  -2  -6   6    4.39   10.78 
   2   6  -5  162.53   13.11 
  -2   6   5  173.03   14.67 
   2   6  -5  160.08   13.56 
   2  -6  -5  169.93   15.15 
  -2  -6   5  161.90   17.66 
   2   6  -4   51.37    9.43 
  -2   6   4   48.98   10.10 
   2   6  -4   47.10    9.00 
   2  -6  -4   45.11    9.63 
  -2  -6   4   42.74   12.13 
  -2   6   3  605.19   25.29 
  -2   6   3  642.51   28.98 
   2   6  -3  625.29   27.27 
   2   6  -3  585.96   26.14 
   2   6  -3  616.76   27.92 
  -2  -6   3  570.80   31.14 
   2  -6  -3  578.24   27.97 
   2   6  -2  781.44   34.69 
  -2   6   2  781.13   32.15 
   2   6  -2  762.94   32.19 
   2   6  -2  794.57   32.34 
  -2   6   2  727.79   29.88 
   2   6  -2  752.51   30.13 
   2   6  -2  804.71   33.12 
   2   6  -2  754.75   31.91 
   2  -6  -2  765.56   32.96 
   2   6  -1  269.72   20.24 
  -2   6   1  265.19   18.49 
   2   6  -1  266.03   18.33 
  -2   6   1  250.40   17.70 
   2   6  -1  270.92   18.01 
  -2   6   1  257.07   15.83 
   2   6  -1  247.43   15.05 
   2   6  -1  257.39   17.31 
   2   6  -1  262.80   17.62 
   2  -6  -1  240.08   16.70 
   2   6   0   84.77   11.94 
   2   6   0   81.80   10.84 
  -2   6   0   80.19   11.54 
  -2   6   0   82.64   11.02 
   2   6   0   85.00   10.72 
  -2   6   0   81.62    9.90 
   2   6   0   79.16   10.05 
   2   6   0   83.57   11.02 
  -2   6   0   77.92   10.32 
   2   6   0   78.46   10.69 
   2   6   1  377.12   24.37 
   2   6   1  386.76   21.74 
  -2   6  -1  376.19   21.80 
  -2   6  -1  364.80   21.57 
   2   6   1  379.78   21.15 
  -2   6  -1  381.22   19.83 
   2   6   1  374.74   19.92 
  -2   6  -1  356.23   22.03 
   2   6   1  392.58   21.46 
  -2  -6  -1  385.92   22.77 
   2   6   2  868.66   37.63 
   2   6   2  897.29   35.21 
  -2   6  -2  882.25   35.07 
  -2   6  -2  836.59   34.61 
  -2   6  -2  905.82   33.10 
   2   6   2  857.23   31.85 
   2   6   2  907.70   34.46 
  -2  -6  -2  903.34   37.04 
   2   6   3   53.92    8.29 
   2   6   3   56.30   11.15 
   2   6   3   54.90    9.74 
  -2   6  -3   52.86    9.74 
   2  -6   3   48.51   13.14 
  -2  -6  -3   52.82   11.06 
   2   6   4   64.67    9.28 
   2   6   4   65.36   10.84 
  -2   6  -4   66.64   11.37 
   2  -6   4   99.02   14.29 
  -2  -6  -4  100.43   13.43 
  -2   6  -5    2.77    7.27 
   2   6   5   -1.13    7.36 
   2  -6   5   -0.68   10.41 
  -2  -6  -5    2.10    7.50 
  -2   6  -6   75.62   12.22 
   2   6   6   70.28   10.82 
   2  -6   6   82.49   15.36 
  -2  -6  -6   94.74   13.82 
  -2   6  -7   48.02   10.68 
   2   6   7   45.94   10.14 
   2  -6   7   77.82   14.05 
  -2  -6  -7   75.39   13.46 
  -2   6  -8   40.00   10.50 
   2   6   8   37.62    9.10 
   2  -6   8   25.53   12.33 
  -2  -6  -8   24.17   10.69 
  -2   6  -9  101.36   13.41 
   2   6   9  111.02   12.82 
   2  -6   9  123.61   16.86 
  -2  -6  -9  123.36   16.25 
  -2   6 -10  188.03   15.83 
   2   6  10  187.68   16.10 
   2  -6  10  189.95   20.70 
  -2  -6 -10  190.58   18.50 
  -2   6 -11   36.51   12.69 
   2   6  11   32.62   11.92 
   2  -6  11   36.05   16.42 
  -2  -6 -11   36.89   13.21 
  -2   6 -12   69.99   12.33 
   2  -6  12   61.54   16.44 
  -2  -6 -12   68.49   15.62 
  -2   6 -13  167.65   15.35 
  -2  -6 -13  148.60   18.10 
  -2   6 -14    7.09   12.28 
  -2  -6 -14   -2.81   13.67 
   2   7 -13    8.49   12.88 
  -2   7  13    8.42   11.26 
  -2  -7  13   10.59   14.60 
   2  -7 -13    6.11   11.89 
   2   7 -12   49.30   12.38 
  -2   7  12   54.97   13.51 
  -2  -7  12   38.46   15.93 
   2  -7 -12   36.18   13.91 
   2   7 -11   20.80   11.84 
  -2   7  11   19.16   10.38 
  -2  -7  11    5.22   13.33 
   2  -7 -11    6.57   11.67 
   2   7 -10  129.36   15.47 
  -2   7  10  115.18   13.83 
  -2  -7  10  144.03   19.87 
   2  -7 -10  140.26   15.94 
   2   7  -9  120.55   13.64 
  -2   7   9  123.49   13.94 
  -2  -7   9  155.71   19.08 
   2  -7  -9  153.66   16.48 
   2   7  -8   96.90   13.65 
  -2   7   8  107.00   14.10 
  -2  -7   8  113.53   17.87 
   2  -7  -8  107.54   14.18 
   2   7  -7    5.79   10.37 
  -2   7   7    6.01   10.11 
  -2  -7   7    3.55   10.52 
   2  -7  -7   -1.49    9.18 
   2   7  -6  251.68   16.96 
  -2   7   6  252.73   17.61 
  -2  -7   6  267.39   21.93 
   2  -7  -6  270.94   18.82 
   2   7  -5  156.90   13.59 
  -2   7   5  154.31   14.23 
  -2  -7   5  193.69   19.46 
   2  -7  -5  191.93   16.37 
   2   7  -4  110.61   12.31 
  -2   7   4  116.03   13.84 
  -2  -7   4  111.39   16.03 
   2  -7  -4  102.85   13.10 
  -2   7   3   17.21    9.26 
   2   7  -3   14.07    9.52 
   2   7  -3   20.82    8.43 
   2   7  -3   20.72    8.94 
   2  -7  -3   20.00    8.78 
  -2   7   2  202.45   15.65 
   2   7  -2  185.12   15.81 
   2   7  -2  184.72   14.30 
   2   7  -2  197.72   15.11 
   2  -7  -2  211.73   16.04 
  -2   7   1   45.26   11.81 
   2   7  -1   50.49   10.23 
  -2   7   1   48.86    8.79 
   2   7  -1   47.03    9.23 
   2   7  -1   49.85    9.43 
   2   7   0  342.90   19.78 
  -2   7   0  323.62   20.30 
  -2   7   0  323.08   17.04 
   2   7   0  317.08   16.88 
   2   7   0  328.20   18.75 
   2   7   1  149.54   13.59 
  -2   7  -1  149.93   14.43 
  -2   7  -1  151.85   13.00 
   2   7   1  145.94   13.66 
   2   7   2   46.00    9.32 
  -2   7  -2   34.73   11.70 
  -2   7  -2   40.61    8.66 
  -2  -7  -2   29.87    9.96 
   2   7   3   47.20   10.11 
  -2   7  -3   48.09   10.54 
  -2   7  -3   45.80    9.42 
  -2  -7  -3   44.85   11.08 
   2   7   4   86.96   11.46 
  -2   7  -4   92.51   12.21 
  -2   7  -4   83.01   11.56 
  -2  -7  -4   55.20   11.87 
  -2   7  -5  170.47   14.13 
   2   7   5  175.65   13.87 
   2  -7   5  148.31   19.04 
  -2  -7  -5  145.66   14.77 
  -2   7  -6  125.99   13.92 
   2   7   6  126.69   12.45 
   2  -7   6  115.41   16.56 
  -2  -7  -6  115.41   14.44 
  -2   7  -7   11.70    9.29 
   2   7   7    6.39    9.29 
   2  -7   7    8.89   13.66 
  -2  -7  -7   12.60    9.30 
  -2   7  -8   17.53   10.28 
   2  -7   8   20.77   13.56 
  -2  -7  -8   22.86   11.50 
  -2   7  -9   17.29   11.04 
   2  -7   9   18.44   13.69 
  -2  -7  -9   18.47   11.19 
  -2   7 -10  101.91   13.90 
   2  -7  10  134.07   18.94 
  -2  -7 -10  123.34   15.45 
  -2   7 -11   19.66   11.71 
   2  -7  11   26.41   16.32 
  -2  -7 -11   17.34   12.84 
  -2   7 -12   27.59   13.18 
   2  -7  12   15.28   15.06 
  -2  -7 -12   16.54   13.35 
   2   8 -10   12.16   11.64 
  -2   8  10    2.85   10.25 
  -2  -8  10    3.94   13.67 
   2  -8 -10   12.55   12.07 
   2   8  -9   12.45   10.46 
  -2   8   9   12.66   11.69 
  -2  -8   9   16.32   16.27 
   2  -8  -9   20.35   11.59 
   2   8  -8   69.62   12.98 
  -2   8   8   78.64   14.20 
  -2  -8   8   62.35   14.92 
   2  -8  -8   66.16   13.42 
   2   8  -7  303.67   18.87 
  -2   8   7  301.13   18.61 
  -2  -8   7  259.63   21.83 
   2  -8  -7  240.68   18.78 
   2   8  -6   62.05   12.05 
  -2   8   6   64.30   12.98 
  -2  -8   6   59.27   15.64 
   2  -8  -6   60.96   12.91 
  -2   8   5  117.90   13.94 
   2   8  -5  110.54   13.81 
   2   8  -5  106.83   12.45 
   2  -8  -5  109.89   13.44 
  -2   8   4  278.02   18.58 
   2   8  -4  278.61   18.96 
   2   8  -4  276.09   16.89 
  -2   8   3  102.47   13.47 
   2   8  -3  110.14   14.29 
   2   8  -3   99.29   11.99 
  -2   8   2  155.48   15.69 
   2   8  -2  145.46   14.78 
  -2   8   1   22.13   11.49 
   2   8  -1   20.23    9.63 
   2   8   0   18.48   10.43 
  -2   8   0   18.20   10.63 
   2   8   1   63.16   11.00 
  -2   8  -1   70.29   13.19 
   2   8   2   99.53   12.81 
  -2   8  -2   99.07   13.52 
  -2   8  -2   98.51   11.95 
  -2   8  -3  133.87   15.58 
  -2   8  -3  131.41   13.02 
  -2  -8  -3  129.66   14.95 
  -2   8  -4   73.69   14.33 
  -2   8  -4   76.10   10.89 
  -2  -8  -4   45.51   12.01 
  -2   8  -5   61.32   14.22 
  -2   8  -5   56.06   11.91 
  -2  -8  -5   51.15   12.37 
  -2   8  -6   37.18   11.03 
   2  -8   6   27.60   15.26 
  -2  -8  -6   24.25   11.02 
  -2   8  -7   53.71   12.04 
   2  -8   7   40.58   15.83 
  -2  -8  -7   35.69   11.66 
  -2   8  -8   12.08   12.55 
   2  -8   8    7.70   13.93 
  -2  -8  -8    8.92   12.93 
  -2   8  -9   22.85   12.02 
   2  -8   9   37.24   16.52 
  -2  -8  -9   39.48   13.29 
  -2   8 -10   57.30   13.27 
   2  -8  10   62.78   16.04 
  -2  -8 -10   71.93   14.73 
  -2   9   6   15.61   11.56 
  -2   9   5   18.92   11.96 
  -2   9   4   13.17   11.65 
  -2   9   3   48.82   13.35 
  -2   9   2    8.12   10.98 
  -2   9   1   51.15   13.11 
  -2   9   0   39.14   13.81 
  -2   9  -1  124.31   15.63 
  -2   9  -2   14.40   12.65 
  -2   9  -3   59.14   13.55 
  -2   9  -4   35.69   12.50 
  -2   9  -5    5.60   13.24 
  -2  -9  -5   -3.96    9.81 
  -2   9  -6    8.94   13.21 
  -2   9  -6   18.37   10.04 
  -2  -9  -6    3.94   11.99 
  -3   0  19   15.24   15.83 
   3   0 -19   19.01    9.80 
   3   0 -19   15.17   13.53 
  -3   0  18  191.73   18.52 
   3   0 -18  194.89   15.18 
   3   0 -18  190.33   17.83 
  -3   0  17   66.90   16.43 
   3   0 -17   64.86   10.29 
   3   0 -17   73.09   13.80 
  -3   0  16   27.58   13.73 
   3   0 -16   30.32    9.03 
   3   0 -16   26.19   12.74 
  -3   0  15   43.13   13.87 
   3   0 -15   40.42    9.00 
   3   0 -15   41.40   11.69 
  -3   0  14   65.40   13.02 
   3   0 -14   67.94    9.94 
   3   0 -14   66.48   11.90 
  -3   0  13    6.47    8.93 
   3   0 -13    2.23    7.21 
   3   0 -13    4.28    8.61 
  -3   0  12  337.93   21.70 
   3   0 -12  306.86   19.12 
   3   0 -12  318.60   17.89 
   3   0 -12  321.03   19.63 
  -3   0  11  262.52   19.12 
   3   0 -11  247.66   17.07 
   3   0 -11  240.56   15.08 
   3   0 -11  264.78   17.14 
  -3   0  10  825.22   37.62 
   3   0 -10  880.87   36.15 
   3   0 -10  899.03   33.84 
   3   0 -10  917.35   36.49 
  -3   0   9    4.75    6.14 
   3   0  -9    5.88    6.46 
   3   0  -9    6.95    6.42 
   3   0  -9    5.52    5.61 
   3   0  -9    5.17    6.38 
  -3   0   8   35.93    8.14 
   3   0  -8   42.04    8.52 
  -3   0   8   38.33    8.71 
   3   0  -8   38.88    8.12 
   3   0  -8   42.75    8.82 
  -3   0   8   40.79    8.16 
   3   0  -7 3652.63   92.77 
  -3   0   7 3724.96  208.04 
   3   0  -7 3648.60   89.75 
   3   0  -7 3681.59  206.61 
  -3   0   7 3585.06   83.11 
   3   0  -6  511.20   23.28 
  -3   0   6  523.18   26.37 
   3   0  -6  516.38   24.93 
   3   0  -6  509.79   23.15 
  -3   0   6  519.65   22.89 
   3   0  -5  158.03   13.45 
  -3   0   5  155.51   14.23 
   3   0  -5  155.90   13.99 
   3   0  -5  155.02   13.33 
  -3   0   5  162.28   13.16 
   3   0  -4   80.36    9.45 
  -3   0   4   76.69   10.10 
   3   0  -4   73.45    9.86 
   3   0  -4   83.03    9.42 
  -3   0   4   81.90    9.51 
   3   0  -3 2390.82   73.90 
  -3   0   3 2475.75   74.63 
   3   0  -3 2379.64   70.04 
  -3   0   3 2411.38   69.73 
   3   0  -2 1013.52   37.90 
  -3   0   2 1014.87   38.72 
  -3   0   2 1016.67   37.11 
   3   0  -1  579.09   29.83 
  -3   0   1  594.74   30.36 
   3   0  -1  573.66   29.06 
  -3   0   1  565.81   29.10 
  -3   0   0  326.13   23.07 
  -3   0   0  318.91   20.71 
  -3   0   0  346.93   21.02 
   3   0   0  332.33   20.11 
   3   0   1   10.37    5.73 
  -3   0  -1    8.98    5.85 
  -3   0  -1    9.73    4.42 
   3   0   1    9.85    4.35 
  -3   0  -1    9.61    4.78 
   3   0   2   52.66    9.41 
  -3   0  -2   51.52    8.81 
   3   0   2   52.97    7.46 
  -3   0  -2   56.77    9.22 
   3   0   3  512.11   30.22 
  -3   0  -3  516.86   29.04 
   3   0   3  506.57   25.45 
  -3   0  -3  517.95   28.99 
   3   0   3  481.80   26.49 
   3   0   4  491.76   29.50 
  -3   0  -4  502.39   28.50 
  -3   0  -4  447.97   23.97 
   3   0   4  498.05   24.94 
  -3   0  -4  520.14   29.02 
   3   0   4  507.78   27.38 
   3   0   5  709.49   33.44 
  -3   0  -5  748.40   31.46 
  -3   0  -5  670.18   37.50 
   3   0   5  748.77   26.92 
  -3   0  -5  709.16   30.12 
   3   0   5  706.49   28.35 
   3   0   6   58.84   10.14 
  -3   0  -6   59.27    9.96 
  -3   0  -6   53.81    8.32 
   3   0   6   59.71    8.34 
  -3   0  -6   52.70    9.17 
   3   0   6   55.85    9.02 
   3   0   7  595.23   32.67 
  -3   0  -7  574.70   30.42 
  -3   0  -7  608.98   28.56 
   3   0   7  602.23   27.33 
  -3   0  -7  607.67   30.99 
   3   0   7  635.57   30.37 
   3   0   8 1361.81   50.36 
  -3   0  -8 1424.34   47.59 
  -3   0  -8 1411.27   44.20 
   3   0   8 1441.44   44.21 
  -3   0  -8 1397.83   47.60 
   3   0   8 1383.13   44.22 
   3   0   9  669.14   31.74 
  -3   0  -9  704.54   29.24 
  -3   0  -9  692.97   27.12 
   3   0   9  657.24   24.99 
  -3   0  -9  677.25   29.60 
   3   0   9  691.34   27.98 
   3   0  10    1.34    7.41 
  -3   0 -10    0.85    5.49 
   3   0  10    2.94    5.56 
  -3   0 -10    1.95    7.36 
   3   0  11  194.43   16.98 
  -3   0 -11  193.74   14.30 
  -3   0 -11  202.61   16.79 
   3   0  12   48.88   11.95 
  -3   0 -12   61.84   10.27 
  -3   0 -12   51.37   11.14 
   3   0  13    4.02   10.88 
  -3   0 -13    4.58    7.99 
  -3   0 -13    1.90    8.78 
   3   0  14   24.73   13.30 
  -3   0 -14   24.54    9.56 
  -3   0 -14   21.58   10.42 
   3   0  15  119.81   16.70 
  -3   0 -15  119.94   13.29 
  -3   0 -15  103.78   13.56 
   3   0  16   87.99   17.77 
  -3   0 -16   83.74   12.29 
  -3   0 -16   84.51   15.89 
   3   0  17   57.19   16.48 
  -3   0 -17   51.15   11.55 
  -3   0 -17   68.01   15.72 
   3   0  18   25.31   15.47 
  -3   0 -18   25.88   10.06 
  -3   0 -18   22.29   14.80 
   3   1 -19   70.41   14.57 
  -3   1  19   64.13   16.13 
   3   1 -19   60.99   12.61 
   3  -1 -19   56.71   14.72 
  -3  -1  19   53.95   16.01 
  -3   1  18   24.67   14.98 
   3   1 -18   28.90   11.37 
   3   1 -18   24.63   12.69 
  -3  -1  18   11.79   13.18 
   3  -1 -18   17.22    8.99 
   3  -1 -18   16.32   13.16 
  -3   1  17   37.04   15.90 
   3   1 -17   42.04   10.18 
   3   1 -17   37.57   12.17 
  -3  -1  17   55.96   14.33 
   3  -1 -17   48.93    9.75 
   3  -1 -17   55.12   12.81 
  -3   1  16   22.71   12.75 
   3   1 -16   21.21    9.28 
   3   1 -16   17.56   11.36 
  -3  -1  16   23.79   12.64 
   3  -1 -16   16.66    9.31 
   3  -1 -16   22.76   12.64 
  -3   1  15  101.86   15.41 
   3   1 -15  104.34   11.46 
   3   1 -15  104.17   14.36 
  -3  -1  15  115.68   16.70 
   3  -1 -15  104.87   11.35 
   3  -1 -15  115.24   15.84 
   3   1 -14   16.00    9.19 
  -3   1  14   23.11   11.15 
   3   1 -14   21.13    9.98 
   3  -1 -14   38.08    8.42 
  -3  -1  14   33.33   11.24 
   3  -1 -14   36.14   12.30 
   3  -1 -14   35.45    9.16 
  -3   1  13   10.92   10.41 
   3   1 -13   12.13    8.01 
   3   1 -13   12.06    7.61 
   3  -1 -13   38.65    8.30 
   3  -1 -13   43.95   10.22 
   3  -1 -13   41.86    9.20 
  -3   1  12   43.73   11.03 
   3   1 -12   42.36   10.28 
   3   1 -12   43.19    9.21 
   3  -1 -12   34.17    7.84 
   3  -1 -12   35.36    9.11 
   3  -1 -12   36.55    8.53 
  -3   1  11  376.02   21.97 
   3   1 -11  364.46   19.44 
   3   1 -11  376.72   18.40 
   3  -1 -11  354.01   17.48 
   3  -1 -11  378.16   20.54 
   3  -1 -11  376.77   20.38 
  -3   1  10   60.31   10.74 
   3   1 -10   55.93    9.48 
   3   1 -10   57.28    9.34 
   3   1 -10   58.75    8.57 
   3  -1 -10   70.93    9.07 
   3  -1 -10   71.77   10.69 
   3  -1 -10   67.47   10.02 
  -3  -1  10   67.66    9.48 
  -3   1   9   43.39    8.52 
   3   1  -9   45.78    8.39 
   3   1  -9   43.60    8.79 
   3   1  -9   45.68    9.23 
   3   1  -9   47.01    7.71 
  -3   1   9   43.52    7.93 
   3  -1  -9   11.81    6.46 
   3  -1  -9   12.03    5.36 
   3  -1  -9   12.03    6.65 
   3  -1  -9   13.58    7.36 
  -3  -1   9   13.18    5.88 
  -3   1   8  412.33   23.41 
   3   1  -8  412.31   23.39 
  -3   1   8  383.65   26.23 
   3   1  -8  407.27   22.48 
  -3   1   8  408.17   22.01 
   3   1  -8  398.73   23.77 
   3  -1  -8  312.15   19.38 
  -3  -1   8  317.44   21.78 
   3  -1  -8  325.04   20.72 
  -3  -1   8  305.60   18.56 
   3   1  -7  765.94   30.73 
  -3   1   7  774.42   30.80 
  -3   1   7  760.19   32.19 
   3   1  -7  790.08   29.93 
  -3   1   7  743.12   28.69 
   3   1  -7  774.95   31.74 
   3  -1  -7  879.72   31.58 
  -3  -1   7  872.00   35.04 
   3  -1  -7  865.51   33.37 
   3   1  -6   16.83    6.72 
  -3   1   6   11.03    5.78 
  -3   1   6   10.71    4.94 
   3   1  -6   10.31    4.25 
  -3   1   6    9.34    5.67 
   3  -1  -6    8.90    5.67 
   3  -1  -6    7.49    5.36 
  -3  -1   6   10.59    5.16 
   3   1  -5  177.16   13.92 
   3   1  -5  167.25   14.70 
  -3   1   5  173.17   13.99 
  -3   1   5  172.48   13.73 
  -3   1   5  165.87   14.33 
  -3  -1   5  177.39   16.23 
   3  -1  -5  186.63   15.09 
   3  -1  -5  188.83   14.62 
  -3  -1   5  177.35   15.43 
   3   1  -4  166.71   13.45 
   3   1  -4  156.67   14.11 
  -3   1   4  159.00   13.36 
   3   1  -4  162.45   14.49 
  -3   1   4  166.76   13.33 
  -3   1   4  166.68   14.43 
   3  -1  -4  192.25   14.80 
   3  -1  -4  184.27   14.62 
  -3  -1   4  194.04   16.02 
  -3  -1   4  194.01   16.74 
   3   1  -3 1825.86   57.96 
   3   1  -3 1847.84   59.49 
  -3   1   3 1680.66   55.72 
   3   1  -3 1907.64   60.42 
  -3   1   3 1830.73   56.49 
  -3   1   3 1931.58   60.86 
   3  -1  -3 1971.68   60.41 
   3  -1  -3 1983.65   60.90 
  -3  -1   3 2018.83   63.85 
  -3  -1   3 1926.13   65.08 
  -3  -1   3 1809.27   56.32 
   3   1  -2  427.22   24.01 
   3   1  -2  432.85   25.07 
   3   1  -2  423.68   24.65 
  -3   1   2  436.26   24.57 
  -3   1   2  435.82   23.69 
  -3  -1   2  528.42   28.96 
   3  -1  -2  520.66   28.05 
   3  -1  -2  496.03   25.83 
   3  -1  -2  488.21   25.92 
  -3  -1   2  504.65   29.40 
  -3  -1   2  501.15   26.78 
   3   1  -1  671.18   33.65 
   3   1  -1  650.14   32.48 
   3   1  -1  607.00   32.29 
  -3   1   1  664.76   32.24 
   3   1  -1  654.52   32.35 
  -3   1   1  635.65   30.90 
  -3  -1   1  537.71   29.40 
   3  -1  -1  657.48   31.87 
   3  -1  -1  622.37   32.21 
  -3  -1   1  691.92   43.88 
  -3   1   0 3030.41   83.86 
   3   1   0 3002.28  116.45 
  -3  -1   0 3434.48   97.67 
   3  -1   0 3371.85  170.86 
   3  -1   0 3318.63   91.51 
  -3   1  -1 3766.26  102.07 
   3   1   1 3863.68  113.49 
   3   1   1 3699.25  100.43 
  -3   1  -1 3828.45  105.75 
   3   1   1 3589.42  101.35 
  -3  -1  -1 3248.65   90.00 
   3  -1   1 3482.36  106.06 
  -3  -1  -1 3427.62  103.38 
   3  -1   1 3287.59  109.08 
   3   1   2   80.07   10.25 
   3   1   2   84.28   10.88 
   3   1   2   81.97    9.24 
  -3   1  -2   81.80    9.07 
  -3   1  -2   82.72   10.52 
  -3  -1  -2   36.27    7.09 
  -3  -1  -2   35.59    7.18 
  -3  -1  -2   38.05    7.81 
   3  -1   2   35.05    6.22 
   3  -1   2   37.24    8.57 
   3  -1   2   34.39    6.81 
  -3   1  -3  318.48   21.15 
  -3   1  -3  258.27   19.77 
   3   1   3  306.15   21.48 
   3   1   3  313.26   18.79 
  -3   1  -3  310.36   18.91 
   3   1   3  281.82   19.51 
  -3  -1  -3  326.82   21.49 
   3  -1   3  330.18   18.91 
  -3  -1  -3  336.63   20.46 
   3  -1   3  346.07   25.09 
  -3  -1  -3  338.84   22.30 
   3  -1   3  342.14   21.07 
  -3   1  -4   45.94    7.98 
  -3   1  -4   45.78    8.97 
   3   1   4   43.70    8.47 
   3   1   4   41.23    6.69 
  -3   1  -4   37.97    6.63 
  -3  -1  -4   47.68    8.57 
  -3  -1  -4   44.74    7.38 
   3  -1   4   47.35    7.20 
  -3  -1  -4   49.13    8.76 
   3  -1   4   47.29    9.51 
   3  -1   4   47.02    7.96 
  -3   1  -5  367.80   26.23 
  -3   1  -5  382.09   27.89 
   3   1   5  361.06   27.09 
   3   1   5  384.17   24.90 
   3  -1   5  266.96   22.92 
  -3  -1  -5  274.82   21.59 
   3  -1   5  273.89   19.61 
  -3  -1  -5  285.48   22.46 
  -3  -1  -5  270.18   20.21 
   3  -1   5  265.45   20.32 
  -3   1  -6 1098.97   46.29 
  -3   1  -6 1055.06   45.09 
   3   1   6 1031.62   46.50 
   3   1   6 1073.17   41.86 
   3  -1   6 1098.33   50.60 
  -3  -1  -6 1124.35   46.62 
   3  -1   6 1068.78   41.21 
  -3  -1  -6 1131.67   48.00 
  -3  -1  -6 1077.64   43.00 
   3  -1   6 1053.80   43.26 
  -3   1  -7 1000.99   43.30 
   3   1   7 1019.42   46.50 
  -3   1  -7 1043.67   44.63 
  -3   1  -7 1047.85   41.79 
   3   1   7 1074.58   41.76 
  -3  -1  -7 1047.68   44.03 
  -3  -1  -7 1031.45   41.40 
   3  -1   7  988.31   39.05 
  -3  -1  -7 1026.43   44.21 
   3  -1   7 1007.36   46.75 
   3  -1   7 1007.75   41.55 
  -3   1  -8  511.37   26.38 
   3   1   8  524.06   28.49 
  -3   1  -8  555.35   27.20 
  -3   1  -8  507.09   24.00 
   3   1   8  520.09   23.43 
   3   1   8  553.47   25.89 
  -3  -1  -8  583.13   27.54 
   3  -1   8  552.52   23.80 
  -3  -1  -8  557.55   25.72 
   3  -1   8  558.20   30.13 
  -3  -1  -8  551.62   27.44 
   3  -1   8  564.66   25.78 
  -3   1  -9    4.98    6.29 
   3   1   9    8.55    8.22 
  -3   1  -9    4.48    6.57 
  -3   1  -9    7.27    6.76 
   3   1   9    6.55    5.39 
  -3  -1  -9    6.51    5.83 
  -3  -1  -9    8.30    6.46 
   3  -1   9    5.35    5.93 
  -3  -1  -9    6.13    6.48 
   3  -1   9    7.90    8.13 
   3  -1   9    6.73    6.54 
  -3   1 -10   92.44   10.15 
   3   1  10  102.02   13.47 
  -3   1 -10  100.68   12.06 
   3   1  10   97.24    9.96 
  -3  -1 -10  115.06   12.06 
   3  -1  10  115.99   14.40 
  -3  -1 -10  112.51   12.93 
  -3  -1 -10  108.80   11.36 
   3  -1  10  110.49   11.37 
   3   1  11  132.87   11.17 
   3   1  11  130.27   14.18 
  -3   1 -11  137.10   14.15 
  -3   1 -11  132.31   12.76 
   3  -1  11  167.57   17.14 
  -3  -1 -11  169.20   16.15 
  -3  -1 -11  170.21   12.98 
   3   1  12  105.27   10.36 
   3   1  12  115.49   15.44 
  -3   1 -12  112.28   13.65 
  -3   1 -12  104.63   11.26 
   3  -1  12  106.50   15.79 
  -3  -1 -12  100.68   14.07 
  -3  -1 -12  105.88   11.21 
   3   1  13  145.15   16.12 
  -3   1 -13  133.90   12.55 
  -3   1 -13  142.86   14.54 
   3  -1  13  131.29   16.96 
  -3  -1 -13  134.74   12.68 
  -3  -1 -13  140.54   15.33 
   3   1  14   78.67   14.65 
  -3   1 -14   72.27   10.66 
  -3   1 -14   71.44   11.92 
   3  -1  14   77.31   15.10 
  -3  -1 -14   70.40   10.32 
  -3  -1 -14   66.13   12.85 
   3   1  15   33.78   14.48 
  -3   1 -15   37.38    9.72 
  -3   1 -15   37.07   12.20 
   3  -1  15   45.44   15.63 
  -3  -1 -15   45.73   10.10 
  -3  -1 -15   51.96   13.02 
   3   1  16    1.85   14.23 
  -3   1 -16    4.73    9.71 
  -3   1 -16    4.02   10.96 
   3  -1  16   14.41   12.56 
  -3  -1 -16    8.46    9.32 
  -3  -1 -16    8.32   13.95 
   3   1  17   84.05   17.60 
  -3   1 -17   82.50   14.02 
  -3   1 -17   94.43   15.02 
   3  -1  17   78.39   17.23 
  -3  -1 -17   66.17   12.39 
  -3  -1 -17   69.31   15.27 
  -3   1 -18    1.45   12.49 
   3   1  18    7.15   16.55 
  -3   1 -18    4.47    9.91 
  -3  -1 -18    5.69   12.85 
   3  -1  18   -1.14   16.28 
  -3   2  19   52.01   16.84 
   3   2 -19   40.16   12.42 
   3   2 -19   39.26   13.95 
   3  -2 -19   42.31   14.66 
  -3   2  18    0.62   14.70 
   3   2 -18    2.58   11.00 
   3   2 -18    6.83   11.54 
   3  -2 -18    5.07   13.30 
  -3   2  17   66.15   15.86 
   3   2 -17   57.77   12.39 
   3   2 -17   57.41   12.63 
   3  -2 -17   39.17   12.28 
  -3   2  16  118.52   16.91 
   3   2 -16  118.81   13.39 
   3   2 -16  125.52   14.44 
   3  -2 -16  105.07   11.09 
   3  -2 -16  101.70   15.66 
  -3   2  15   54.16   14.04 
   3   2 -15   61.39   12.57 
   3   2 -15   49.69   10.23 
   3  -2 -15   42.97    8.78 
  -3   2  14   92.39   13.30 
   3   2 -14   90.98   12.00 
   3   2 -14   91.76   11.43 
   3  -2 -14   98.98   10.58 
  -3   2  13   78.64   12.84 
   3   2 -13   67.67   10.17 
   3   2 -13   74.38   11.80 
   3  -2 -13   53.96    9.39 
   3  -2 -13   52.48    8.95 
  -3   2  12  713.93   31.65 
   3   2 -12  729.40   29.43 
   3   2 -12  750.50   31.46 
   3  -2 -12  697.81   30.46 
   3  -2 -12  704.68   27.85 
   3   2 -11  517.29   22.57 
  -3   2  11  547.85   25.80 
   3   2 -11  533.87   24.38 
   3  -2 -11  466.91   23.16 
  -3  -2  11  424.77   25.47 
   3  -2 -11  470.83   20.90 
   3   2 -10  473.61   21.70 
  -3   2  10  497.59   22.81 
   3   2 -10  478.39   20.22 
   3  -2 -10  594.37   25.03 
  -3  -2  10  555.09   27.76 
  -3   2   9   11.98    6.99 
   3   2  -9    8.19    7.35 
  -3   2   9    5.97    6.09 
   3   2  -9    4.77    5.87 
   3   2  -9    9.90    6.64 
  -3  -2   9    6.81    7.55 
   3  -2  -9   11.83    7.41 
   3  -2  -9   12.19    5.84 
   3  -2  -9    9.88    5.65 
  -3  -2   9   10.52    6.64 
  -3   2   8   64.63    9.25 
   3   2  -8   62.63   10.42 
  -3   2   8   61.32    9.42 
  -3   2   8   63.70   10.15 
   3   2  -8   60.56    9.51 
  -3  -2   8   37.62   10.01 
   3  -2  -8   37.48    7.48 
   3  -2  -8   36.46    8.10 
  -3  -2   8   37.18    6.98 
  -3   2   7  453.24   25.77 
   3   2  -7  425.21   24.29 
  -3   2   7  438.70   23.88 
  -3   2   7  412.59   22.68 
   3   2  -7  447.26   23.50 
   3  -2  -7  531.37   26.90 
   3  -2  -7  523.36   27.48 
  -3  -2   7  544.00   29.73 
  -3  -2   7  531.38   30.28 
  -3  -2   7  539.70   26.87 
   3   2  -6  973.64   33.80 
  -3   2   6  968.31   33.91 
  -3   2   6  974.48   35.82 
   3   2  -6  988.53   36.51 
  -3   2   6  950.48   33.33 
  -3  -2   6 1111.59   40.50 
   3  -2  -6 1035.51   35.22 
   3  -2  -6 1085.45   38.27 
   3  -2  -6 1089.90   36.64 
  -3  -2   6 1083.38   43.86 
  -3  -2   6 1099.86   36.07 
  -3   2   5  807.57   30.23 
   3   2  -5  769.08   31.89 
  -3   2   5  784.41   30.57 
   3   2  -5  792.13   31.97 
  -3   2   5  763.83   31.35 
   3   2  -5  813.98   30.42 
   3  -2  -5  849.44   31.32 
   3  -2  -5  857.68   31.51 
  -3  -2   5  866.30   35.06 
  -3  -2   5  882.81   37.65 
   3  -2  -5  810.29   33.07 
  -3  -2   5  829.72   30.99 
  -3   2   4  166.82   14.66 
   3   2  -4  176.72   16.54 
  -3   2   4  182.02   15.92 
   3   2  -4  179.79   16.31 
  -3   2   4  178.79   15.80 
   3   2  -4  178.49   15.36 
   3  -2  -4  146.34   13.90 
   3  -2  -4  152.67   14.01 
  -3  -2   4  149.48   15.18 
  -3  -2   4  151.24   16.01 
   3  -2  -4  152.89   14.93 
  -3  -2   4  140.86   13.65 
   3   2  -3   70.87    9.09 
   3   2  -3   70.87    9.89 
  -3   2   3   80.84    9.91 
  -3   2   3   73.67    9.14 
   3   2  -3   78.41   10.33 
  -3   2   3   73.06    9.00 
   3  -2  -3   58.97    8.77 
   3  -2  -3   56.77    8.57 
   3  -2  -3   61.22    8.03 
  -3  -2   3   62.08    9.67 
  -3  -2   3   56.90    8.51 
   3   2  -2 1536.46   52.41 
   3   2  -2 1605.64   56.05 
  -3   2   2 1643.19   56.41 
  -3   2   2 1658.89   53.38 
   3   2  -2 1623.93   53.68 
  -3   2   2 1635.85   51.45 
   3  -2  -2 1654.37   53.82 
   3  -2  -2 1668.02   55.02 
   3  -2  -2 1638.45   50.75 
  -3  -2   2 1645.95   60.27 
  -3   2   1  517.35   26.48 
   3   2  -1  520.18   30.65 
  -3   2   1  515.61   28.02 
   3   2  -1  524.78   28.96 
   3   2  -1  516.78   27.85 
  -3   2   1  509.97   26.65 
   3   2  -1  478.86   26.17 
  -3  -2   1  496.01   27.84 
   3  -2  -1  518.23   27.84 
  -3  -2   1  577.40   33.69 
   3  -2  -1  550.27   26.98 
  -3   2   0 1645.41   58.35 
   3   2   0 1519.55   73.84 
  -3   2   0 1616.21   53.72 
   3   2   0 1702.99   56.26 
   3   2   0 1638.98   53.58 
  -3   2   0 1623.76   51.55 
  -3   2   0 1580.28   52.12 
   3  -2   0 1519.27   47.59 
   3  -2   0 1559.24   51.53 
  -3  -2   0 1586.73   53.30 
   3   2   1  171.43   13.94 
  -3   2  -1  174.74   16.64 
   3   2   1  184.94   15.50 
   3   2   1  183.87   15.55 
  -3   2  -1  184.04   13.86 
   3  -2   1  200.92   18.09 
   3  -2   1  181.95   13.39 
  -3  -2  -1  184.99   15.36 
   3  -2   1  152.18   13.14 
   3   2   2 1404.27   47.01 
   3   2   2 1405.16   47.93 
  -3   2  -2 1414.45   49.80 
   3   2   2 1426.90   49.34 
  -3   2  -2 1300.31   44.69 
   3  -2   2 1264.70   51.41 
  -3  -2  -2 1255.62   44.58 
  -3  -2  -2 1240.24   56.48 
   3  -2   2 1248.36   44.75 
   3   2   3  397.03   26.18 
   3   2   3  427.27   28.93 
   3   2   3  416.40   28.60 
  -3   2  -3  440.46   30.10 
  -3   2  -3  412.34   26.77 
  -3  -2  -3  521.30   23.48 
  -3  -2  -3  505.38   25.69 
  -3  -2  -3  537.28   25.10 
   3  -2   3  537.88   29.15 
   3  -2   3  499.36   23.43 
   3   2   4  609.55   26.59 
   3   2   4  642.64   28.83 
   3   2   4  560.01   24.05 
  -3   2  -4  618.59   25.19 
  -3   2  -4  579.38   26.33 
  -3  -2  -4  524.27   24.33 
  -3  -2  -4  515.52   23.13 
  -3  -2  -4  526.73   25.86 
   3  -2   4  519.08   22.12 
   3  -2   4  560.78   29.79 
   3  -2   4  526.22   23.98 
   3   2   5  205.99   18.15 
   3   2   5  199.53   18.79 
   3   2   5  204.52   16.88 
  -3   2  -5  201.99   17.27 
  -3   2  -5  191.98   17.64 
  -3  -2  -5  302.99   19.70 
  -3  -2  -5  310.64   18.89 
  -3  -2  -5  312.48   21.08 
   3  -2   5  301.42   18.54 
   3  -2   5  310.50   23.13 
   3  -2   5  311.61   19.24 
   3   2   6  480.13   25.04 
   3   2   6  455.28   26.56 
  -3   2  -6  464.77   24.22 
   3   2   6  457.08   22.55 
  -3   2  -6  466.30   25.69 
  -3  -2  -6  567.66   28.00 
  -3  -2  -6  519.25   26.06 
  -3  -2  -6  553.18   29.48 
   3  -2   6  524.46   24.81 
   3  -2   6  523.43   30.74 
   3  -2   6  516.38   26.41 
   3   2   7  336.09   19.02 
  -3   2  -7  311.57   22.93 
   3   2   7  318.69   21.37 
   3   2   7  345.09   17.77 
  -3   2  -7  330.25   20.04 
  -3  -2  -7  362.19   19.62 
   3  -2   7  364.44   18.46 
  -3  -2  -7  382.92   22.82 
  -3  -2  -7  365.27   19.73 
   3  -2   7  365.84   24.35 
   3  -2   7  375.82   20.02 
  -3   2  -8  310.45   19.97 
  -3   2  -8  307.99   20.13 
   3   2   8  327.65   21.72 
   3   2   8  304.78   17.15 
   3  -2   8  329.30   23.95 
  -3  -2  -8  329.91   19.02 
   3  -2   8  316.22   17.23 
  -3  -2  -8  331.68   21.53 
  -3  -2  -8  330.52   19.24 
   3  -2   8  334.46   19.10 
  -3   2  -9  451.35   20.20 
   3   2   9  505.30   24.68 
  -3   2  -9  477.67   23.16 
   3   2   9  491.58   19.52 
  -3  -2  -9  415.81   19.51 
   3  -2   9  423.22   25.70 
  -3  -2  -9  434.30   23.04 
  -3  -2  -9  427.86   19.96 
   3  -2   9  448.74   19.84 
  -3   2 -10  679.39   26.75 
   3   2  10  695.45   30.66 
  -3   2 -10  669.68   28.60 
   3   2  10  666.42   25.60 
  -3  -2 -10  616.23   25.53 
   3  -2  10  636.17   32.00 
  -3  -2 -10  629.28   28.94 
  -3  -2 -10  652.38   25.98 
   3  -2  10  654.93   25.59 
   3   2  11  175.72   17.10 
  -3   2 -11  169.94   13.88 
  -3   2 -11  164.42   15.39 
   3  -2  11  137.06   16.50 
  -3  -2 -11  143.05   12.62 
  -3  -2 -11  137.58   15.23 
   3   2  12   32.17   11.73 
  -3   2 -12   33.22   10.13 
  -3   2 -12   31.05   10.49 
   3  -2  12   24.37   12.55 
  -3  -2 -12   21.84    7.92 
  -3  -2 -12   24.02   10.02 
   3   2  13   68.81   12.56 
  -3   2 -13   65.78   11.00 
  -3   2 -13   70.76   11.96 
   3  -2  13   61.16   13.97 
  -3  -2 -13   65.88    9.87 
  -3  -2 -13   67.39   12.44 
   3   2  14  307.29   21.89 
  -3   2 -14  302.47   18.64 
  -3   2 -14  296.29   19.60 
   3  -2  14  262.83   22.57 
  -3  -2 -14  267.70   16.82 
  -3  -2 -14  272.03   20.77 
   3   2  15   38.78   14.22 
  -3   2 -15   44.80   12.28 
  -3   2 -15   40.85   11.04 
   3  -2  15   37.02   16.18 
  -3  -2 -15   39.04    9.53 
  -3  -2 -15   39.56   13.89 
  -3   2 -16   57.42   14.21 
   3   2  16   64.75   14.41 
  -3   2 -16   58.46   12.22 
  -3  -2 -16   67.86   15.48 
   3  -2  16   63.83   17.86 
  -3   2 -17   31.44   13.56 
   3   2  17   23.21   14.13 
  -3   2 -17   23.28   10.64 
  -3  -2 -17   24.23   15.51 
   3  -2  17   25.08   17.63 
   3   3 -18   30.45   11.15 
  -3   3  18   28.62   15.17 
   3   3 -18   27.58   12.03 
  -3  -3  18   16.57   18.44 
   3   3 -17   -1.71   10.63 
  -3   3  17   -0.46   12.49 
   3   3 -17   -0.75   11.25 
  -3  -3  17   -2.39   15.34 
   3   3 -16   23.79   11.17 
  -3   3  16   22.69   13.69 
   3   3 -16   25.50   10.03 
   3  -3 -16   29.91   12.08 
  -3  -3  16   35.82   15.96 
   3   3 -15    2.29    9.71 
  -3   3  15    5.91   10.92 
   3   3 -15    8.05    9.70 
   3  -3 -15   19.69   13.11 
  -3  -3  15   12.73   13.86 
  -3   3  14    1.35   12.01 
   3   3 -14    1.35    8.99 
   3   3 -14    4.57    8.96 
  -3  -3  14    5.35   12.50 
   3  -3 -14    2.24    6.23 
   3  -3 -14    7.37   10.52 
  -3   3  13  107.49   14.16 
   3   3 -13  108.41   11.89 
   3   3 -13  110.97   13.51 
  -3  -3  13  146.03   18.07 
   3  -3 -13  162.07   12.30 
   3  -3 -13  165.27   15.54 
   3   3 -12   62.24   10.30 
  -3   3  12   67.69   12.75 
   3   3 -12   67.00   12.17 
   3  -3 -12   46.03    8.06 
  -3  -3  12   46.37   12.59 
   3  -3 -12   53.47   11.97 
   3  -3 -12   44.37    8.35 
  -3   3  11  105.68   12.94 
   3   3 -11   99.56   11.80 
  -3  -3  11   90.64   14.58 
   3  -3 -11   86.03   10.19 
   3  -3 -11   92.67   13.33 
   3  -3 -11   86.03    9.56 
  -3   3  10  160.75   13.67 
   3   3 -10  137.69   12.49 
  -3  -3  10  106.76   14.13 
   3  -3 -10  104.39   10.76 
   3  -3 -10  108.22   12.77 
   3  -3 -10  106.03   10.40 
   3   3  -9  197.13   14.09 
  -3   3   9  195.75   14.62 
   3   3  -9  187.00   13.45 
   3  -3  -9  179.58   13.03 
  -3  -3   9  179.29   17.36 
   3  -3  -9  185.49   15.52 
   3  -3  -9  179.90   13.30 
  -3  -3   9  176.90   12.99 
   3   3  -8  590.59   24.35 
   3   3  -8  555.71   26.08 
  -3   3   8  553.24   24.56 
  -3   3   8  584.90   24.99 
   3   3  -8  586.09   24.78 
   3  -3  -8  558.77   23.85 
   3  -3  -8  540.06   26.05 
   3  -3  -8  537.37   23.52 
  -3  -3   8  559.44   29.98 
  -3  -3   8  527.90   23.21 
  -3   3   7  228.21   17.72 
   3   3  -7  232.29   19.24 
  -3   3   7  232.74   18.30 
   3   3  -7  236.17   18.02 
  -3   3   7  232.92   19.22 
   3   3  -7  231.41   19.04 
   3   3  -7  244.38   15.35 
   3  -3  -7  260.33   16.92 
   3  -3  -7  271.88   18.88 
  -3  -3   7  285.14   21.14 
   3  -3  -7  271.05   16.48 
  -3  -3   7  269.51   17.12 
   3   3  -6   40.29    7.41 
   3   3  -6   38.27    8.79 
  -3   3   6   37.58    8.30 
  -3   3   6   38.79    7.81 
   3   3  -6   39.14    9.12 
  -3   3   6   37.82    7.35 
  -3  -3   6   37.43    8.73 
   3  -3  -6   43.47    9.32 
   3  -3  -6   43.36    7.12 
  -3  -3   6   46.08    9.90 
  -3  -3   6   44.87    7.74 
  -3   3   5  106.01   12.17 
   3   3  -5  106.42   13.03 
  -3   3   5  109.65   12.72 
   3   3  -5  107.36   12.85 
   3   3  -5  100.24   11.50 
  -3   3   5   99.84   11.80 
   3  -3  -5   51.75    9.25 
   3  -3  -5   50.97    7.72 
  -3  -3   5   52.07   10.27 
  -3  -3   5   53.27    9.00 
  -3   3   4  487.11   25.32 
   3   3  -4  482.99   27.12 
  -3   3   4  474.47   25.25 
   3   3  -4  483.06   26.12 
   3   3  -4  472.29   25.37 
  -3   3   4  459.40   24.46 
   3  -3  -4  567.57   30.10 
   3  -3  -4  572.69   26.65 
  -3  -3   4  560.74   32.19 
  -3  -3   4  529.63   26.98 
  -3   3   3  461.48   30.77 
   3   3  -3  473.39   32.09 
  -3   3   3  482.54   33.71 
   3   3  -3  507.34   24.49 
   3   3  -3  480.30   33.71 
  -3   3   3  438.77   28.77 
   3   3  -3  461.03   30.06 
  -3  -3   3  575.69   27.83 
   3  -3  -3  577.27   26.89 
  -3  -3   3  564.66   30.35 
   3  -3  -3  581.66   23.49 
  -3   3   2  335.51   23.37 
   3   3  -2  306.63   28.15 
  -3   3   2  351.07   25.09 
   3   3  -2  348.34   25.20 
   3   3  -2  338.35   24.62 
  -3   3   2  341.67   23.57 
   3   3  -2  333.16   23.96 
  -3  -3   2  321.87   24.77 
   3  -3  -2  331.78   24.19 
  -3  -3   2  307.95   25.45 
   3  -3  -2  320.78   22.01 
  -3   3   1  763.74   33.94 
  -3   3   1  725.09   28.03 
   3   3  -1  735.50   34.68 
  -3   3   1  721.51   29.50 
   3   3  -1  751.18   30.70 
   3   3  -1  734.53   30.01 
  -3   3   1  744.52   28.10 
   3   3  -1  775.26   30.35 
  -3  -3   1  703.56   32.46 
   3  -3  -1  768.60   31.25 
  -3  -3   1  750.56   34.11 
   3  -3  -1  763.22   27.59 
  -3   3   0    7.00    6.86 
   3   3   0    6.57    5.63 
   3   3   0    6.14    4.96 
  -3   3   0    5.92    5.64 
  -3   3   0    5.59    4.38 
   3   3   0    6.26    4.83 
   3   3   0    7.67    5.47 
  -3   3   0    5.66    4.69 
  -3  -3   0    5.74    5.11 
   3  -3   0    5.46    4.99 
  -3  -3   0    5.04    5.24 
   3  -3   0    4.95    4.26 
   3   3   1  403.46   28.04 
   3   3   1  404.96   29.68 
  -3   3  -1  412.64   30.53 
   3   3   1  410.81   27.84 
  -3   3  -1  410.93   26.79 
   3   3   1  419.79   28.34 
  -3  -3  -1  404.95   28.26 
   3  -3   1  421.97   27.03 
  -3  -3  -1  390.17   27.99 
   3  -3   1  407.11   30.83 
   3   3   2 3263.83   82.05 
  -3   3  -2 3470.02   92.18 
   3   3   2 3278.91   96.01 
   3   3   2 3542.63   83.70 
  -3   3  -2 3523.93   84.99 
  -3  -3  -2 3348.18   83.10 
  -3  -3  -2 3365.35   86.03 
   3  -3   2 3452.28   79.91 
  -3  -3  -2 3234.87   82.81 
   3  -3   2 3433.63   94.58 
   3   3   3  170.15   16.23 
  -3   3  -3  166.26   17.59 
   3   3   3  172.84   15.87 
   3   3   3  154.30   14.61 
  -3   3  -3  157.71   16.05 
  -3   3  -3  167.74   15.24 
  -3  -3  -3  178.65   16.76 
   3  -3   3  185.15   15.86 
  -3  -3  -3  185.90   17.50 
   3  -3   3  185.03   19.78 
   3  -3   3  175.58   16.37 
  -3   3  -4   68.36    9.97 
  -3   3  -4   65.84   11.57 
   3   3   4   70.48    9.55 
   3   3   4   64.35    9.98 
  -3   3  -4   65.87    9.15 
   3   3   4   59.03    8.24 
   3  -3   4   73.88   12.27 
  -3  -3  -4   71.24   10.07 
  -3  -3  -4   73.46   10.36 
   3  -3   4   73.58    9.72 
  -3   3  -5  907.20   35.24 
  -3   3  -5  921.51   37.63 
   3   3   5  876.30   38.67 
   3   3   5  839.59   32.95 
  -3   3  -5  881.57   32.23 
   3   3   5  822.95   30.02 
   3  -3   5  766.18   36.43 
  -3  -3  -5  786.77   31.28 
  -3  -3  -5  788.51   32.17 
   3  -3   5  770.93   29.64 
   3   3   6 1166.55   41.71 
  -3   3  -6 1044.70   41.48 
   3   3   6 1137.81   42.64 
  -3   3  -6 1101.29   41.76 
  -3   3  -6 1090.18   39.29 
   3   3   6 1107.38   38.00 
   3  -3   6 1214.90   50.72 
  -3  -3  -6 1162.81   41.57 
  -3  -3  -6 1151.25   44.69 
   3  -3   6 1166.18   40.72 
  -3   3  -7  776.39   29.24 
   3   3   7  828.17   32.92 
  -3   3  -7  815.69   32.43 
   3   3   7  811.78   35.55 
   3  -3   7  826.15   37.65 
  -3  -3  -7  859.03   32.00 
  -3  -3  -7  824.58   30.81 
   3  -3   7  733.55   49.77 
  -3   3  -8    5.06    6.53 
   3   3   8    6.59    7.53 
  -3   3  -8    4.11    6.19 
   3   3   8    4.87    4.63 
   3  -3   8    4.30    9.32 
  -3  -3  -8    7.71    5.61 
  -3  -3  -8    8.77    6.10 
   3  -3   8    7.31    5.54 
   3   3   9  246.71   15.17 
   3   3   9  263.46   18.76 
  -3   3  -9  274.23   18.18 
  -3  -3  -9  240.80   17.36 
   3  -3   9  258.30   21.68 
  -3  -3  -9  259.85   18.93 
  -3  -3  -9  252.31   15.81 
   3  -3   9  253.49   15.74 
   3   3  10   14.15    9.02 
  -3   3 -10   19.26    8.61 
   3  -3  10   32.76   11.31 
  -3  -3 -10   25.61    8.26 
  -3  -3 -10   28.74   10.27 
  -3  -3 -10   32.36    7.77 
   3  -3  10   31.07    7.63 
  -3   3 -11  187.93   16.00 
   3   3  11  191.30   16.03 
  -3  -3 -11  183.41   15.62 
  -3  -3 -11  198.65   18.23 
   3  -3  11  195.87   19.00 
   3  -3  11  172.40   14.36 
   3   3  12   55.00   11.59 
  -3   3 -12   50.59   11.19 
  -3   3 -12   50.27   11.06 
   3  -3  12   42.51   14.36 
  -3  -3 -12   42.29    9.07 
  -3  -3 -12   37.67   11.23 
   3   3  13   25.13   10.60 
  -3   3 -13   19.54   10.19 
  -3   3 -13   23.57   10.22 
   3  -3  13   18.93   14.33 
  -3  -3 -13   20.45    7.98 
  -3  -3 -13   22.00   13.25 
  -3   3 -14  186.73   15.91 
   3   3  14  189.23   18.14 
  -3   3 -14  190.64   15.48 
  -3  -3 -14  184.75   18.93 
   3  -3  14  183.47   20.63 
  -3   3 -15    4.20   10.00 
   3   3  15    7.25   11.65 
  -3   3 -15   11.44   11.06 
  -3  -3 -15   10.06   12.92 
   3  -3  15    6.15   14.87 
  -3   3 -16    1.57   10.56 
   3   3  16    4.90   12.90 
   3  -3  16    4.68   16.29 
  -3  -3 -16    2.67   14.31 
  -3   3 -17   24.85   13.10 
   3   3  17   24.25   14.46 
   3  -3  17   44.87   17.49 
  -3  -3 -17   40.86   16.38 
   3   4 -17   31.96   11.95 
  -3   4  17   24.81   13.95 
   3   4 -17   32.43   11.43 
   3  -4 -17   35.80   13.85 
  -3  -4  17   35.04   17.51 
   3   4 -16  104.82   15.17 
  -3   4  16  102.38   15.41 
   3   4 -16  104.31   13.96 
   3  -4 -16  127.17   16.10 
  -3  -4  16  106.37   17.37 
   3   4 -15   17.71   10.21 
  -3   4  15   20.91   11.76 
   3   4 -15   17.70   10.86 
   3  -4 -15   28.07   12.31 
  -3  -4  15   32.50   15.64 
   3   4 -14    8.54    9.60 
  -3   4  14   16.52   12.47 
   3   4 -14   14.22   10.36 
   3  -4 -14   13.51   12.85 
  -3  -4  14   15.24   12.59 
  -3   4  13  112.35   14.58 
   3   4 -13  114.54   13.48 
  -3  -4  13   83.81   17.54 
   3  -4 -13   86.03   13.80 
  -3   4  12  491.61   22.90 
   3   4 -12  481.79   21.68 
  -3  -4  12  527.10   28.97 
   3  -4 -12  535.31   24.93 
   3   4 -11  452.00   20.50 
  -3   4  11  486.38   22.57 
   3   4 -11  474.30   21.28 
   3  -4 -11  371.96   21.26 
  -3  -4  11  391.70   25.61 
   3   4 -10   26.86    8.17 
  -3   4  10   31.15    9.79 
   3   4 -10   28.45    9.01 
   3  -4 -10   13.74   10.09 
  -3  -4  10   11.26   11.31 
   3   4  -9   95.16   10.71 
  -3   4   9   98.99   11.88 
   3   4  -9   96.61   11.67 
   3  -4  -9   85.95   12.61 
  -3  -4   9   91.58   14.25 
  -3  -4   9   87.41   10.95 
  -3   4   8  122.14   11.45 
  -3   4   8  126.63   12.21 
   3   4  -8  127.19   11.64 
   3   4  -8  123.97   11.63 
  -3  -4   8   97.51   14.82 
   3  -4  -8   97.67   12.72 
  -3  -4   8   94.62   11.04 
  -3   4   7  277.36   16.92 
   3   4  -7  292.68   18.04 
   3   4  -7  272.78   15.61 
   3   4  -7  282.03   16.55 
  -3   4   7  269.46   17.15 
  -3  -4   7  250.58   20.00 
   3  -4  -7  254.34   17.05 
  -3  -4   7  242.89   15.52 
   3   4  -6   89.01   10.42 
   3   4  -6   92.04   11.69 
  -3   4   6  100.20   11.58 
  -3   4   6   89.98   11.46 
   3   4  -6   86.82    9.86 
  -3   4   6   90.40   10.57 
   3  -4  -6   73.62    9.73 
   3  -4  -6   71.28    9.53 
   3  -4  -6   78.39   11.09 
  -3  -4   6   80.23   12.41 
  -3  -4   6   77.12   10.28 
  -3   4   5  916.33   35.79 
   3   4  -5  981.47   39.58 
  -3   4   5  966.26   37.82 
   3   4  -5 1011.09   37.19 
   3   4  -5  982.45   38.54 
  -3   4   5 1009.10   37.77 
   3   4  -5  908.90   36.43 
   3  -4  -5  979.88   37.90 
   3  -4  -5 1002.66   39.51 
  -3  -4   5  939.19   43.20 
   3  -4  -5  921.99   34.02 
  -3  -4   5  933.72   35.65 
   3   4  -4  267.23   18.06 
   3   4  -4  255.81   19.37 
  -3   4   4  256.17   18.35 
   3   4  -4  252.58   16.64 
  -3   4   4  264.91   16.71 
   3   4  -4  262.30   18.13 
  -3   4   4  243.29   17.37 
   3  -4  -4  269.25   18.88 
  -3  -4   4  273.21   22.21 
   3  -4  -4  270.28   18.24 
  -3  -4   4  280.10   19.83 
   3  -4  -4  261.92   15.90 
   3   4  -3  181.04   15.72 
   3   4  -3  177.03   16.25 
  -3   4   3  174.93   15.35 
   3   4  -3  170.62   14.67 
  -3   4   3  173.81   13.90 
   3   4  -3  171.00   14.75 
  -3   4   3  164.96   13.98 
   3  -4  -3  151.38   13.88 
  -3  -4   3  138.06   15.44 
   3  -4  -3  144.04   13.71 
  -3  -4   3  144.55   15.29 
   3  -4  -3  137.67   11.93 
  -3   4   2  605.49   29.84 
  -3   4   2  499.01   30.36 
   3   4  -2  551.22   28.18 
  -3   4   2  582.01   26.76 
   3   4  -2  538.58   26.51 
   3   4  -2  581.92   27.40 
  -3   4   2  580.36   24.66 
   3   4  -2  587.10   26.35 
  -3  -4   2  677.19   31.32 
   3  -4  -2  680.25   29.93 
  -3  -4   2  667.32   32.68 
   3  -4  -2  657.00   26.24 
  -3   4   1  692.65   32.06 
   3   4  -1  723.02   34.44 
  -3   4   1  676.37   30.22 
   3   4  -1  648.44   29.39 
   3   4  -1  677.50   29.14 
  -3   4   1  659.95   30.92 
   3   4  -1  688.28   28.94 
  -3   4   1  670.39   27.69 
   3  -4  -1  650.68   29.63 
  -3  -4   1  652.20   30.21 
   3  -4  -1  634.60   25.81 
  -3   4   0  927.43   39.53 
   3   4   0  985.79   41.96 
   3   4   0 1010.49   37.30 
  -3   4   0 1028.32   38.44 
   3   4   0  992.59   37.25 
   3   4   0 1004.44   37.85 
  -3   4   0  991.10   34.40 
  -3   4   0  995.65   35.50 
  -3  -4   0 1129.32   42.38 
   3  -4   0 1120.02   37.13 
   3   4   1  907.00   38.92 
  -3   4  -1  898.48   38.92 
   3   4   1  905.83   34.49 
  -3   4  -1  917.03   35.46 
  -3   4  -1  913.73   32.71 
   3   4   1  887.35   34.06 
   3   4   1  897.19   35.00 
  -3  -4  -1  880.36   36.62 
  -3  -4  -1  857.44   35.44 
   3  -4   1  852.51   30.86 
   3   4   2  514.81   27.44 
  -3   4  -2  498.27   27.40 
   3   4   2  501.17   23.80 
  -3   4  -2  525.23   23.59 
   3   4   2  502.51   23.67 
   3   4   2  517.43   25.09 
  -3  -4  -2  524.98   26.67 
  -3  -4  -2  507.56   26.30 
   3  -4   2  533.32   23.22 
   3   4   3  445.25   22.61 
  -3   4  -3  453.25   26.14 
   3   4   3  462.09   23.15 
  -3   4  -3  466.68   22.75 
   3   4   3  469.36   23.88 
  -3  -4  -3  380.71   22.50 
   3  -4   3  382.23   19.52 
  -3  -4  -3  370.63   22.75 
   3  -4   3  327.24   23.30 
  -3   4  -4  285.63   19.02 
  -3   4  -4  280.42   20.11 
   3   4   4  303.61   18.15 
   3   4   4  290.42   18.10 
  -3   4  -4  295.75   17.76 
   3   4   4  286.28   17.49 
  -3   4  -4  274.58   18.46 
  -3  -4  -4  233.74   18.49 
   3  -4   4  224.31   21.12 
  -3  -4  -4  215.66   19.14 
  -3  -4  -4  235.36   19.39 
   3  -4   4  215.72   16.44 
   3   4   5   28.46    6.40 
   3   4   5   28.48    7.25 
  -3   4  -5   28.46    7.18 
   3   4   5   29.17    8.17 
  -3   4  -5   29.98    7.38 
  -3  -4  -5   39.16    8.02 
  -3  -4  -5   44.65   10.43 
  -3  -4  -5   41.09    8.41 
   3  -4   5   35.71    9.80 
   3  -4   5   38.96    7.47 
   3   4   6   12.08    5.14 
   3   4   6   11.42    6.43 
  -3   4  -6   10.82    6.38 
  -3   4  -6   11.73    7.41 
  -3  -4  -6   19.29    6.98 
   3  -4   6   20.17   10.03 
  -3  -4  -6   21.71    8.51 
  -3  -4  -6   20.97    7.24 
   3  -4   6   19.49    6.31 
  -3   4  -7  101.09   11.13 
   3   4   7  101.09   11.47 
  -3   4  -7   96.67   11.21 
   3   4   7  100.32    9.48 
  -3  -4  -7   83.37   10.13 
   3  -4   7   89.70   14.18 
  -3  -4  -7   81.86   11.94 
  -3  -4  -7   76.64   11.19 
   3  -4   7   83.44   10.12 
  -3   4  -8  662.02   27.67 
   3   4   8  671.64   29.56 
  -3   4  -8  664.17   29.44 
  -3  -4  -8  561.58   26.97 
   3  -4   8  550.80   31.43 
  -3  -4  -8  550.65   27.82 
  -3  -4  -8  546.83   25.29 
   3  -4   8  523.45   24.11 
  -3   4  -9  257.59   16.76 
   3   4   9  258.60   18.55 
  -3   4  -9  255.52   18.16 
  -3  -4  -9  291.50   19.39 
   3  -4   9  295.44   23.76 
  -3  -4  -9  277.79   20.12 
  -3  -4  -9  292.22   18.10 
   3  -4   9  289.94   17.60 
  -3   4 -10  279.49   17.78 
   3   4  10  290.25   18.74 
  -3   4 -10  286.46   17.79 
  -3  -4 -10  250.05   17.86 
   3  -4  10  272.17   22.86 
   3  -4  10  262.81   15.86 
  -3   4 -11    5.28    7.47 
   3   4  11    3.87    9.59 
  -3   4 -11    5.27    8.10 
  -3  -4 -11    9.52    6.87 
   3  -4  11   16.11   12.10 
   3   4  12   68.76   12.73 
   3  -4  12   55.30   15.59 
   3   4  13  176.12   17.71 
   3  -4  13  184.67   20.85 
  -3   4 -14  255.91   17.39 
   3   4  14  245.80   19.57 
   3  -4  14  257.84   23.48 
  -3   4 -15    6.44   11.23 
   3   4  15    5.89   11.37 
   3  -4  15    1.19   15.34 
  -3   4 -16   28.38   12.55 
   3  -4  16   13.56   16.67 
  -3  -4 -16   13.78   13.66 
   3   5 -16   30.72   12.15 
  -3   5  16   34.29   13.75 
  -3  -5  16   27.09   16.93 
   3  -5 -16   41.48   14.82 
  -3   5  15   25.74   13.04 
  -3  -5  15   47.12   16.62 
   3  -5 -15   47.51   15.04 
  -3   5  14   16.87   11.75 
   3   5 -14   10.29    8.58 
  -3  -5  14   21.11   15.06 
   3  -5 -14   16.81   12.65 
   3   5 -13   35.93   10.65 
  -3   5  13   37.28   11.34 
   3   5 -13   38.76   11.51 
   3  -5 -13   43.22   12.81 
  -3  -5  13   46.07   14.24 
   3   5 -12   50.77   11.17 
  -3   5  12   49.47   13.15 
   3   5 -12   52.92   11.69 
   3  -5 -12   48.96   12.35 
  -3  -5  12   56.08   16.34 
   3   5 -11   81.82   11.24 
  -3   5  11   84.14   12.60 
   3   5 -11   83.64   11.90 
   3  -5 -11   84.23   14.22 
  -3  -5  11   84.49   17.49 
   3   5 -10  231.31   15.07 
  -3   5  10  233.27   17.18 
   3   5 -10  245.87   16.46 
   3  -5 -10  198.30   16.48 
  -3  -5  10  215.57   20.34 
   3   5  -9    8.80    6.84 
  -3   5   9   12.72    9.54 
   3   5  -9    9.03    7.59 
   3  -5  -9   26.75    9.49 
  -3  -5   9   24.63   12.19 
   3   5  -8   31.45    8.14 
  -3   5   8   30.96   10.01 
   3   5  -8   32.43    9.07 
   3  -5  -8   16.45    8.85 
  -3  -5   8   15.74   10.95 
  -3  -5   8   14.18    6.94 
  -3   5   7   28.03    8.27 
  -3   5   7   25.19    8.87 
   3   5  -7   27.13    8.73 
   3   5  -7   23.55    7.85 
  -3  -5   7   15.45   10.02 
   3  -5  -7   22.78    9.27 
  -3  -5   7   16.13    6.95 
   3   5  -6   -0.49    6.29 
   3   5  -6    4.09    6.51 
  -3   5   6    2.87    7.83 
   3   5  -6    2.16    6.45 
  -3   5   6    2.12    6.50 
   3   5  -6    2.06    6.63 
  -3  -5   6    2.57    8.51 
   3  -5  -6    1.30    7.12 
  -3   5   5  135.58   11.91 
   3   5  -5  128.14   13.36 
  -3   5   5  135.35   13.27 
  -3   5   5  135.38   12.99 
   3   5  -5  129.08   12.45 
   3   5  -5  134.39   12.10 
   3   5  -5  127.92   12.65 
  -3   5   5  131.27   12.01 
  -3  -5   5  193.72   18.31 
   3   5  -4  335.50   20.02 
  -3   5   4  332.91   18.75 
   3   5  -4  307.15   18.65 
  -3   5   4  336.43   17.49 
   3   5  -4  335.41   17.85 
   3   5  -4  318.10   18.27 
  -3   5   4  316.03   17.56 
   3   5  -4  325.64   18.15 
  -3   5   3  257.21   16.45 
   3   5  -3  280.86   19.08 
  -3   5   3  279.28   17.72 
   3   5  -3  276.12   17.42 
  -3   5   3  271.65   15.54 
   3   5  -3  268.83   17.17 
   3   5  -3  275.35   16.34 
   3   5  -3  270.61   16.64 
   3  -5  -3  259.63   14.93 
  -3  -5   3  262.07   19.74 
   3  -5  -3  231.13   16.49 
  -3   5   2  506.15   24.06 
   3   5  -2  553.79   27.94 
  -3   5   2  523.10   28.03 
   3   5  -2  521.34   24.94 
  -3   5   2  532.93   23.07 
   3   5  -2  516.77   24.96 
   3   5  -2  529.40   24.02 
   3   5  -2  529.33   24.80 
   3  -5  -2  492.28   21.92 
  -3  -5   2  498.82   27.77 
   3  -5  -2  523.23   25.61 
   3   5  -1  421.78   24.88 
  -3   5   1  410.90   22.49 
   3   5  -1  423.97   22.34 
  -3   5   1  419.92   20.30 
   3   5  -1  429.84   22.33 
  -3   5   1  399.72   20.63 
   3   5  -1  420.55   21.44 
   3   5  -1  420.65   22.40 
  -3  -5   1  416.47   23.89 
   3  -5  -1  420.39   22.80 
   3  -5  -1  423.10   20.13 
   3   5   0  356.81   23.06 
   3   5   0  365.51   20.47 
  -3   5   0  362.93   21.81 
  -3   5   0  356.77   19.01 
   3   5   0  369.39   20.56 
  -3   5   0  369.20   18.83 
   3   5   0  369.61   20.90 
  -3   5   0  349.07   20.60 
  -3  -5   0  267.19   18.76 
   3   5   1  865.26   37.02 
   3   5   1  834.90   32.18 
  -3   5  -1  838.10   32.44 
  -3   5  -1  836.97   29.52 
   3   5   1  828.39   31.32 
   3   5   1  845.16   32.86 
  -3  -5  -1  853.92   35.75 
  -3  -5  -1  864.20   34.86 
   3  -5   1  838.98   30.32 
   3   5   2  359.73   22.03 
   3   5   2  358.61   18.85 
  -3   5  -2  347.88   17.32 
   3   5   2  349.28   18.39 
   3   5   2  363.09   19.25 
  -3  -5  -2  350.71   20.79 
  -3  -5  -2  370.94   20.89 
   3  -5   2  364.55   17.90 
   3   5   3  308.31   20.17 
   3   5   3  314.75   17.30 
  -3   5  -3  311.08   16.58 
   3   5   3  314.44   17.07 
   3   5   3  302.87   17.71 
  -3  -5  -3  347.41   20.77 
  -3  -5  -3  338.53   20.60 
   3  -5   3  353.15   17.63 
   3   5   4   22.49    8.24 
   3   5   4   22.49    7.35 
  -3   5  -4   24.29    8.01 
   3   5   4   19.70    5.94 
  -3  -5  -4   20.60    7.33 
  -3  -5  -4   22.18    9.40 
   3   5   5  170.29   13.47 
  -3   5  -5  151.68   13.03 
  -3   5  -5  166.55   13.38 
  -3  -5  -5  170.47   15.09 
  -3  -5  -5  166.45   15.49 
  -3  -5  -5  172.72   13.70 
   3   5   6  130.54   12.25 
  -3   5  -6  129.84   12.86 
  -3  -5  -6  171.19   14.85 
  -3  -5  -6  183.29   14.18 
  -3  -5  -6  175.59   15.74 
   3   5   7   46.42    9.30 
  -3   5  -7   46.80    9.57 
  -3  -5  -7   55.72    9.35 
  -3  -5  -7   59.15   12.48 
   3  -5   7   52.29    8.64 
   3   5   8  122.00   13.62 
  -3   5  -8  121.14   13.67 
  -3  -5  -8   89.59   11.61 
  -3  -5  -8   85.93   13.63 
   3  -5   8   79.68   10.83 
  -3   5  -9   82.28   12.50 
   3   5   9   88.46   12.06 
   3  -5   9   90.83   16.51 
  -3  -5  -9   91.96   13.16 
  -3   5 -10  157.39   15.38 
   3   5  10  162.11   15.31 
   3  -5  10  164.87   18.77 
  -3  -5 -10  172.42   16.95 
  -3   5 -11   45.87   11.99 
   3   5  11   45.16   11.72 
   3  -5  11   18.52   14.31 
  -3  -5 -11   15.26   11.85 
  -3   5 -12  104.64   13.76 
   3   5  12  101.91   13.77 
   3  -5  12   80.78   17.17 
  -3  -5 -12   76.02   15.36 
  -3   5 -13   51.26   12.94 
   3  -5  13   62.35   19.49 
  -3  -5 -13   61.55   15.61 
   3  -5  14    2.59   16.68 
  -3  -5 -14    6.08   12.02 
   3  -5  15   53.45   19.45 
  -3  -5 -15   50.45   16.96 
   3   6 -15    1.43   12.03 
  -3   6  15   -1.39   12.37 
  -3  -6  15   10.40   17.04 
   3  -6 -15    9.13   12.74 
   3   6 -14   26.12   12.48 
  -3   6  14   28.29   12.55 
  -3  -6  14   22.15   16.02 
   3  -6 -14   27.42   13.17 
   3   6 -13    3.32   11.48 
  -3   6  13    5.39   10.84 
  -3  -6  13    4.65   13.86 
   3  -6 -13    3.46   11.60 
   3   6 -12   22.31   11.38 
  -3   6  12   29.43   12.22 
  -3  -6  12    8.53   12.37 
   3  -6 -12    8.75   11.99 
   3   6 -11  206.58   15.93 
  -3   6  11  193.54   16.10 
  -3  -6  11  180.37   21.30 
   3  -6 -11  168.90   17.40 
   3   6 -10  107.29   12.08 
  -3   6  10  102.03   12.43 
   3   6 -10  100.46   12.42 
   3  -6 -10   91.05   13.78 
  -3  -6  10   89.64   16.95 
   3   6  -9   14.55    7.64 
  -3   6   9   13.51   10.30 
   3   6  -9   11.59    9.21 
   3  -6  -9    8.13    9.92 
  -3  -6   9    9.85   12.62 
   3   6  -8   34.26    8.03 
  -3   6   8   33.84   10.52 
   3   6  -8   32.73    9.18 
   3  -6  -8   40.88   11.49 
  -3  -6   8   38.19   13.41 
   3   6  -7  197.07   14.37 
  -3   6   7  210.14   16.71 
   3   6  -7  195.67   15.65 
   3  -6  -7  198.53   16.09 
  -3  -6   7  189.88   19.19 
   3   6  -6  434.53   20.51 
  -3   6   6  421.92   20.77 
   3   6  -6  426.16   19.56 
   3  -6  -6  420.31   22.17 
  -3  -6   6  417.04   25.64 
   3   6  -5   15.91    7.72 
  -3   6   5   18.11    8.47 
   3   6  -5    8.61    7.99 
   3  -6  -5   19.37    8.65 
  -3  -6   5   21.00    9.60 
   3   6  -4   14.62    7.67 
  -3   6   4   14.83    8.63 
   3   6  -4   10.56    7.05 
   3   6  -4   11.46    7.17 
  -3  -6   4   14.24    9.93 
   3  -6  -4   13.32    7.25 
   3   6  -3  116.01   11.66 
   3   6  -3  129.35   14.44 
  -3   6   3  123.89   13.14 
  -3   6   3  117.52   10.89 
   3   6  -3  117.41   11.96 
   3   6  -3  123.15   12.48 
  -3  -6   3  122.07   15.70 
   3  -6  -3  121.59   13.19 
   3   6  -2   11.54    8.41 
  -3   6   2   17.47    7.99 
   3   6  -2   14.06    7.72 
   3   6  -2   13.66    7.64 
  -3   6   2   13.06    6.33 
   3   6  -2   11.83    7.76 
   3   6  -2   16.34    7.74 
   3   6  -2   11.02    7.20 
   3  -6  -2   44.93    9.05 
   3   6  -1   39.47    9.74 
  -3   6   1   34.47    9.21 
   3   6  -1   34.72    8.26 
  -3   6   1   29.82    8.17 
   3   6  -1   35.35    8.54 
  -3   6   1   36.31    7.83 
   3   6  -1   35.60    8.12 
   3   6  -1   32.98    8.03 
   3   6  -1   33.13    9.07 
   3  -6  -1   19.15    7.29 
   3   6   0   61.58   11.32 
   3   6   0   59.22    9.92 
  -3   6   0   63.90   11.32 
   3   6   0   61.83    9.73 
  -3   6   0   61.60    9.23 
   3   6   0   60.65    9.29 
   3   6   0   62.32   10.15 
   3   6   0   63.21    9.76 
   3   6   1  394.62   24.50 
   3   6   1  387.56   21.72 
  -3   6  -1  382.75   22.07 
  -3   6  -1  395.65   20.30 
   3   6   1  369.14   19.54 
   3  -6   1  401.22   20.16 
  -3  -6  -1  409.73   23.89 
   3   6   2  160.36   15.73 
   3   6   2  153.67   13.56 
  -3   6  -2  161.25   15.04 
  -3   6  -2  162.32   13.38 
   3   6   2  148.88   12.61 
  -3  -6  -2  182.60   16.30 
   3   6   3  139.62   12.66 
  -3   6  -3  153.43   12.95 
   3   6   3  144.95   12.18 
  -3  -6  -3  182.62   16.40 
  -3   6  -4  289.34   18.34 
   3   6   4  292.31   18.21 
   3  -6   4  248.47   21.09 
  -3  -6  -4  238.63   18.22 
  -3   6  -5  334.50   18.20 
   3   6   5  328.41   17.83 
   3  -6   5  352.91   23.62 
  -3  -6  -5  350.10   20.87 
  -3   6  -6   67.71   11.79 
   3   6   6   63.23   10.30 
   3  -6   6   70.48   14.45 
  -3  -6  -6   75.68   13.49 
   3   6   7  143.53   12.88 
  -3   6  -7  143.38   13.02 
  -3  -6  -7  128.71   16.19 
   3   6   8   68.12   10.77 
  -3   6  -8   64.97   12.52 
  -3  -6  -8   71.23   12.85 
   3   6   9  173.74   15.08 
  -3   6  -9  179.45   15.61 
  -3  -6  -9  149.48   16.78 
  -3   6 -10    8.15   10.70 
  -3  -6 -10   22.08   12.68 
  -3   6 -11   39.48   12.75 
  -3  -6 -11   48.34   13.57 
  -3   6 -12   10.74   10.27 
  -3  -6 -12    9.20   13.41 
  -3   6 -13    9.91   12.53 
  -3  -6 -13    1.92   14.89 
  -3   6 -14    9.54   12.34 
  -3  -6 -14   15.10   14.02 
   3   7 -13   63.16   13.48 
  -3   7  13   62.71   13.55 
  -3  -7  13   89.51   18.45 
   3  -7 -13   80.84   15.66 
   3   7 -12   20.71   12.11 
  -3   7  12   15.45   12.09 
  -3  -7  12   20.05   15.46 
   3  -7 -12   22.83   12.34 
   3   7 -11   29.11   11.51 
  -3   7  11   25.11   11.30 
  -3  -7  11   34.79   16.15 
   3  -7 -11   43.17   13.28 
   3   7 -10   54.46   12.12 
  -3   7  10   60.77   13.74 
  -3  -7  10   85.02   16.07 
   3  -7 -10   77.59   13.11 
   3   7  -9   36.11   11.27 
  -3   7   9   31.20   11.16 
  -3  -7   9   15.35   13.68 
   3  -7  -9   16.40   11.09 
   3   7  -8   59.96   12.23 
  -3   7   8   61.11   11.72 
  -3  -7   8   28.23   13.83 
   3  -7  -8   27.32   10.02 
   3   7  -7   43.82   11.90 
  -3   7   7   40.78   12.09 
  -3  -7   7   23.41   13.30 
   3  -7  -7   23.56   10.36 
   3   7  -6   22.60    9.60 
  -3   7   6   25.18   10.98 
  -3  -7   6   20.68   11.42 
   3  -7  -6   21.36    9.75 
   3   7  -5   54.82    9.99 
  -3   7   5   54.13   11.42 
   3   7  -5   50.84    9.76 
   3  -7  -5   34.96    9.97 
  -3  -7   5   29.35   11.62 
   3   7  -4   56.94   10.56 
  -3   7   4   51.30   11.52 
   3   7  -4   55.84   10.59 
   3  -7  -4   31.50    8.91 
  -3  -7   4   33.13   12.47 
  -3   7   3  170.04   15.91 
   3   7  -3  176.08   14.82 
   3   7  -3  153.87   13.72 
   3   7  -3  167.17   14.23 
   3  -7  -3  143.84   13.99 
  -3   7   2  166.93   14.86 
   3   7  -2  177.07   15.16 
   3   7  -2  168.93   13.48 
   3   7  -2  166.09   14.44 
   3  -7  -2  191.80   15.00 
  -3   7   1   22.70   10.14 
   3   7  -1   24.91    9.31 
  -3   7   1   23.64    8.00 
   3   7  -1   22.11    7.92 
   3   7  -1   23.48    8.86 
   3   7   0   20.35    9.10 
  -3   7   0   21.75   11.25 
  -3   7   0   21.77    7.89 
   3   7   0   19.71    8.16 
   3   7   0   18.08    8.60 
   3   7   1   83.31   11.30 
  -3   7  -1   83.42   13.81 
  -3   7  -1   82.19   10.77 
   3   7   1   80.10   11.85 
   3   7   2  384.87   20.01 
  -3   7  -2  395.73   22.56 
  -3   7  -2  398.22   18.79 
  -3  -7  -2  461.93   23.63 
   3   7   3   75.70   10.43 
  -3   7  -3   77.23   12.86 
  -3   7  -3   78.25   11.59 
  -3  -7  -3   50.16   11.82 
   3   7   4   43.07    9.21 
  -3   7  -4   45.86   12.24 
  -3   7  -4   39.91   10.39 
  -3  -7  -4   45.22   11.08 
  -3   7  -5   81.52   11.94 
   3  -7   5  130.49   18.17 
  -3  -7  -5  118.54   14.18 
  -3   7  -6   13.76   10.60 
   3  -7   6    5.95   11.94 
  -3  -7  -6   10.79    9.83 
  -3   7  -7  103.71   13.71 
   3  -7   7   84.82   16.24 
  -3  -7  -7   72.58   13.98 
  -3   7  -8   76.48   13.41 
   3  -7   8  103.58   17.75 
  -3  -7  -8   99.64   14.66 
  -3   7  -9   32.99   12.03 
   3  -7   9   37.38   16.22 
  -3  -7  -9   40.68   12.86 
  -3   7 -10    4.14   10.87 
   3  -7  10   11.39   14.24 
  -3  -7 -10   -1.20   11.38 
  -3   7 -11    7.31   13.13 
   3  -7  11   20.24   17.32 
  -3  -7 -11   18.17   13.03 
  -3   7 -12   65.80   12.60 
   3  -7  12   70.87   17.45 
  -3  -7 -12   74.78   16.12 
   3   8 -10   24.55   12.21 
  -3   8  10   23.60   12.25 
  -3  -8  10   41.99   16.04 
   3  -8 -10   40.36   12.69 
   3   8  -9   15.10    9.98 
  -3   8   9   13.52   10.83 
  -3  -8   9   17.50   12.60 
   3  -8  -9   19.03   11.16 
   3   8  -8    8.02   10.13 
  -3   8   8    7.27   10.56 
  -3  -8   8    6.44   12.81 
   3   8  -7   56.05   11.83 
  -3   8   7   68.98   12.46 
  -3  -8   7  101.08   16.63 
   3   8  -6   62.25   11.95 
  -3   8   6   75.13   12.70 
  -3  -8   6   98.10   15.44 
  -3   8   5   18.09   10.07 
   3   8  -5   19.41    9.55 
   3   8  -5   21.48   10.04 
  -3   8   4  225.29   17.69 
   3   8  -4  237.17   17.23 
   3   8  -4  216.31   15.13 
  -3   8   3   11.73   11.09 
   3   8  -3    9.98   10.03 
   3   8  -3   12.34    8.53 
  -3   8   2   53.93   12.68 
   3   8  -2   55.53   11.71 
  -3   8   1  127.92   15.45 
  -3   8   0  101.76   14.18 
  -3   8  -1   50.50   12.81 
  -3   8  -2   31.50   12.28 
  -3   8  -2   29.69    9.94 
   3   8   2   32.06   10.25 
  -3   8  -3   37.28   12.34 
  -3   8  -3   30.93    9.14 
  -3  -8  -3   39.43   11.27 
  -3   8  -4  188.63   16.57 
  -3   8  -4  205.51   15.14 
  -3  -8  -4  236.21   18.10 
  -3   8  -5  144.21   16.04 
  -3   8  -5  147.22   13.91 
  -3  -8  -5  163.49   16.69 
  -3   8  -6    8.14   11.78 
  -3   8  -6    8.03   10.91 
  -3  -8  -6   13.67   11.07 
  -3   8  -7   25.01   11.54 
   3  -8   7   34.39   15.40 
  -3  -8  -7   34.31   13.74 
  -3   8  -8   48.33   11.66 
   3  -8   8   66.10   17.59 
  -3  -8  -8   66.10   13.62 
  -3   8  -9   56.82   12.85 
   3  -8   9   71.20   18.61 
  -3  -8  -9   70.80   14.01 
  -3   9   6   12.80   12.23 
  -3   9   5   96.64   14.04 
  -3   9   4   81.63   13.63 
  -3   9   3   11.52   11.22 
  -3   9   2    0.69   11.11 
  -3   9   1    9.85   12.06 
  -3   9   0   -3.66    9.46 
  -3   9  -1   22.10   11.80 
  -3   9  -2   41.45   13.07 
  -3   9  -3   32.09   13.51 
  -3   9  -4   64.88   14.16 
  -3  -9  -4   68.39   13.60 
  -3   9  -5   33.94   13.73 
  -3  -9  -5   33.83   12.30 
  -4   0  19    4.29   14.33 
   4   0 -19    4.55   10.05 
   4   0 -19    7.78   14.48 
  -4   0  18   99.21   17.02 
   4   0 -18   99.45   12.81 
   4   0 -18   99.18   15.50 
  -4   0  17   14.89   13.27 
   4   0 -17   12.04    9.66 
   4   0 -17   11.75   12.99 
  -4   0  16  111.40   16.99 
   4   0 -16  111.59   11.68 
   4   0 -16  110.88   14.91 
  -4   0  15  387.13   23.99 
   4   0 -15  360.01   18.61 
   4   0 -15  372.61   20.88 
  -4   0  14  361.17   21.99 
   4   0 -14  376.77   18.58 
   4   0 -14  364.70   20.87 
  -4   0  13   22.95   10.39 
   4   0 -13   22.02    7.97 
   4   0 -13   24.14   10.47 
   4   0 -12   35.42    9.29 
   4   0 -12   38.40    8.35 
   4   0 -12   34.70    9.67 
   4   0 -11  764.42   28.57 
   4   0 -11  782.52   26.32 
   4   0 -11  843.74   29.34 
  -4   0  10   44.41    9.35 
   4   0 -10   41.91    8.66 
   4   0 -10   37.06    8.29 
   4   0  -9   14.86    6.51 
  -4   0   9   12.40    7.56 
   4   0  -9   14.42    7.26 
   4   0  -9   15.07    6.30 
  -4   0   9   11.89    6.51 
   4   0  -8   50.94    8.44 
  -4   0   8   52.81   10.12 
   4   0  -8   50.85    9.31 
   4   0  -8   50.97    9.26 
  -4   0   8   52.94    8.81 
   4   0  -7 1061.42   43.08 
  -4   0   7 1017.69   43.99 
   4   0  -7 1024.28   43.12 
   4   0  -7 1063.25   43.09 
  -4   0   7 1022.30   41.14 
   4   0  -6    3.63    5.31 
  -4   0   6    1.67    5.02 
   4   0  -6    3.23    4.40 
   4   0  -6    5.18    5.21 
  -4   0   6    3.56    4.04 
  -4   0   5  668.45   34.51 
   4   0  -5  787.51   31.64 
  -4   0   5  777.05   33.67 
   4   0  -5  783.43   33.08 
   4   0  -5  730.94   30.40 
  -4   0   5  776.60   30.93 
  -4   0   4  548.67   28.54 
   4   0  -4  585.80   29.31 
  -4   0   4  565.58   30.14 
   4   0  -4  533.37   28.46 
  -4   0   4  583.06   29.10 
  -4   0   3  950.16   36.08 
   4   0  -3  911.71   37.58 
  -4   0   3  904.94   36.44 
  -4   0   3  922.25   34.68 
  -4   0   2  884.56   34.69 
   4   0  -2  892.88   35.10 
  -4   0   2  848.42   34.14 
  -4   0   2  869.37   33.85 
  -4   0   1   52.26    7.82 
   4   0  -1   48.87    7.95 
  -4   0   1   48.79    7.85 
   4   0  -1   48.59    7.69 
  -4   0   1   47.93    8.19 
  -4   0   0 1859.69   63.62 
  -4   0   0 1968.30   62.26 
  -4   0   0 1935.24   60.14 
   4   0   0 1951.02   59.44 
   4   0   1  718.31   45.52 
  -4   0  -1  697.06   44.88 
  -4   0  -1  706.00   42.15 
   4   0   1  712.73   41.61 
  -4   0  -1  690.16   42.51 
   4   0   1  754.67   32.84 
   4   0   2  325.77   23.59 
  -4   0  -2  337.56   23.15 
   4   0   2  324.84   19.23 
  -4   0  -2  335.64   22.17 
   4   0   2  323.99   21.64 
   4   0   3  475.28   29.47 
  -4   0  -3  476.47   27.95 
   4   0   3  473.86   24.38 
  -4   0  -3  477.15   27.65 
   4   0   3  519.61   28.38 
   4   0   4  154.35   16.43 
  -4   0  -4  169.69   16.22 
  -4   0  -4  154.08   14.04 
   4   0   4  168.44   14.28 
  -4   0  -4  171.01   16.37 
   4   0   4  159.86   15.05 
   4   0   5  872.38   37.35 
  -4   0  -5  893.85   34.86 
  -4   0  -5  904.95   31.58 
   4   0   5  907.52   30.26 
  -4   0  -5  911.09   35.33 
   4   0   5  889.35   32.78 
   4   0   6  227.83   21.46 
  -4   0  -6  219.61   19.78 
  -4   0  -6  226.19   18.80 
   4   0   6  224.81   17.90 
  -4   0  -6  226.99   20.33 
   4   0   6  215.08   18.52 
   4   0   7   55.68   10.95 
  -4   0  -7   56.40    9.77 
  -4   0  -7   56.91    8.62 
   4   0   7   59.04    7.94 
  -4   0  -7   58.81   10.04 
   4   0   7   54.87    8.97 
   4   0   8  319.02   22.52 
  -4   0  -8  321.00   20.39 
  -4   0  -8  313.90   18.39 
   4   0   8  294.78   18.51 
  -4   0  -8  318.42   20.51 
   4   0   8  316.01   18.56 
   4   0   9  150.04   15.34 
  -4   0  -9  148.02   13.69 
  -4   0  -9  145.56   12.21 
   4   0   9  139.34   11.28 
  -4   0  -9  151.80   14.76 
   4   0   9  152.67   13.09 
   4   0  10  751.67   34.89 
  -4   0 -10  749.11   27.86 
   4   0  10  757.22   26.85 
  -4   0 -10  735.67   31.48 
   4   0  11  232.02   18.61 
  -4   0 -11  250.52   16.37 
  -4   0 -11  257.70   19.63 
   4   0  12   48.08   13.32 
  -4   0 -12   52.41    9.58 
  -4   0 -12   52.15   12.32 
   4   0  13  268.36   21.89 
  -4   0 -13  262.68   16.39 
  -4   0 -13  267.41   18.64 
   4   0  14   33.42   13.74 
  -4   0 -14   31.04    9.37 
  -4   0 -14   24.81   11.60 
   4   0  15   70.06   15.65 
  -4   0 -15   70.04   12.10 
  -4   0 -15   75.71   15.05 
   4   0  16    3.31   12.69 
  -4   0 -16    0.45    9.79 
  -4   0 -16    4.91   11.09 
   4   0  17   16.54   13.89 
  -4   0 -17   12.96    9.65 
  -4   0 -17   11.46   12.88 
   4   1 -19   15.14   12.55 
  -4   1  19   14.48   14.60 
   4   1 -19    8.96    9.98 
   4  -1 -19   13.49   13.86 
  -4  -1  19   15.47   17.31 
  -4   1  18   55.38   14.68 
   4   1 -18   49.64   10.67 
   4   1 -18   53.93   13.78 
   4  -1 -18   55.86   10.15 
   4  -1 -18   61.07   15.30 
  -4   1  17   14.01   14.60 
   4   1 -17   16.91   10.55 
   4   1 -17    9.15   12.84 
   4  -1 -17    9.79    8.91 
   4  -1 -17    8.22   11.22 
  -4   1  16   10.17   11.49 
   4   1 -16   10.65    8.38 
   4   1 -16    6.92   11.39 
   4  -1 -16    4.32    7.87 
   4  -1 -16    7.47   11.25 
  -4   1  15   64.47   14.11 
   4   1 -15   55.16   10.45 
   4   1 -15   51.61   12.01 
   4  -1 -15   58.15   10.18 
   4  -1 -15   61.12   13.53 
  -4   1  14   16.36   11.42 
   4   1 -14   14.44    8.79 
   4   1 -14   20.52   10.17 
   4  -1 -14    8.85    7.58 
   4  -1 -14    5.60   10.79 
  -4   1  13   -0.53    9.12 
   4   1 -13    1.01    7.51 
   4   1 -13    1.42    6.98 
   4  -1 -13    7.42    7.13 
   4  -1 -13    7.47    9.01 
   4  -1 -13    6.15    7.51 
  -4   1  12    5.40    9.02 
   4   1 -12    1.14    8.49 
   4   1 -12    5.18    7.16 
   4  -1 -12   11.77    6.14 
   4  -1 -12   15.07    9.12 
   4  -1 -12   13.56    7.58 
  -4   1  11  172.25   15.57 
   4   1 -11  170.75   13.96 
   4   1 -11  166.88   13.03 
   4  -1 -11  166.89   12.93 
   4  -1 -11  148.85   13.61 
   4  -1 -11  164.92   14.13 
   4   1 -10  119.32   12.83 
  -4   1  10  112.81   12.50 
   4   1 -10   99.40   11.34 
  -4   1  10  111.74   12.61 
  -4  -1  10  114.44   14.02 
   4  -1 -10  121.87   12.39 
  -4  -1  10  127.04   13.25 
  -4   1   9   29.76    7.25 
  -4   1   9   29.46    8.05 
   4   1  -9   30.56    7.33 
  -4   1   9   30.63    8.55 
   4   1  -9   32.51    8.50 
   4   1  -9   30.58    7.64 
   4  -1  -9   48.69    8.23 
   4  -1  -9   45.63    8.83 
  -4  -1   9   47.50    9.23 
  -4  -1   9   47.17   10.62 
  -4   1   8 1058.91   36.26 
  -4   1   8 1051.37   38.80 
   4   1  -8 1077.09   39.46 
  -4   1   8 1089.44   41.13 
   4   1  -8 1115.14   38.62 
   4   1  -8 1121.55   40.37 
   4  -1  -8 1152.75   39.16 
   4  -1  -8 1114.95   39.59 
  -4  -1   8 1128.65   41.62 
  -4  -1   8 1144.62   44.13 
  -4   1   7  895.93   39.62 
   4   1  -7  965.76   40.45 
  -4   1   7  936.36   38.52 
   4   1  -7 1015.58   41.14 
   4   1  -7  937.80   41.21 
   4  -1  -7  878.64   37.07 
   4  -1  -7  854.50   37.46 
  -4  -1   7  898.63   41.08 
  -4  -1   7  868.23   40.65 
  -4   1   6  112.31   12.56 
   4   1  -6  111.74   12.44 
   4   1  -6  119.84   12.31 
  -4   1   6  109.73   11.44 
  -4  -1   6   85.71   11.93 
   4  -1  -6   94.64   11.12 
   4  -1  -6   89.24   10.43 
  -4  -1   6   90.09   11.55 
  -4   1   5  141.76   14.23 
   4   1  -5  143.43   13.92 
  -4   1   5  140.67   13.06 
   4   1  -5  142.63   13.64 
  -4  -1   5  138.71   15.52 
   4  -1  -5  139.71   13.60 
   4  -1  -5  147.84   13.80 
  -4  -1   5  141.25   14.55 
  -4  -1   5  134.65   13.00 
   4   1  -4  132.06   12.01 
   4   1  -4  136.94   12.56 
   4   1  -4  126.47   12.58 
  -4   1   4  136.15   12.95 
  -4   1   4  132.01   11.89 
  -4  -1   4  163.70   14.56 
   4  -1  -4  164.52   13.67 
   4  -1  -4  156.87   13.06 
   4  -1  -4  159.66   13.39 
  -4  -1   4  161.57   15.11 
  -4  -1   4  156.35   13.21 
   4   1  -3 1543.88   64.94 
   4   1  -3 1655.90   53.18 
   4   1  -3 1689.33   54.58 
  -4   1   3 1664.34   54.58 
  -4   1   3 1546.34   49.72 
  -4  -1   3 1536.17   83.12 
   4  -1  -3 1607.50   52.31 
   4  -1  -3 1561.28   50.49 
   4  -1  -3 1611.83   51.94 
  -4  -1   3 1619.66   56.23 
  -4  -1   3 1609.14   51.91 
   4   1  -2 1268.81   44.68 
   4   1  -2 1235.42   42.73 
   4   1  -2 1258.84   44.05 
  -4   1   2 1261.29   44.29 
  -4   1   2 1227.61   44.29 
  -4  -1   2 1078.53   42.54 
   4  -1  -2 1077.42   40.04 
   4  -1  -2 1100.04   39.23 
   4  -1  -2 1104.34   39.51 
  -4  -1   2 1094.18   42.40 
  -4  -1   2 1075.24   39.45 
  -4   1   1 2728.67   79.27 
   4   1  -1 2633.86   75.78 
   4   1  -1 2634.83   78.92 
   4   1  -1 2792.53   79.59 
   4   1  -1 2634.31   78.38 
  -4   1   1 2686.74   77.05 
   4  -1  -1 2719.29   78.68 
   4  -1  -1 2709.64   77.19 
  -4  -1   1 2646.15   80.04 
  -4   1   0   55.62    9.64 
   4   1   0   57.27    8.40 
  -4   1   0   54.73    7.84 
   4   1   0   56.15    8.80 
  -4  -1   0   52.34    7.59 
  -4  -1   0   46.34    8.66 
   4  -1   0   46.88    7.93 
  -4  -1   0   50.59    8.51 
   4  -1   0   53.85    8.18 
   4   1   1   20.83    6.30 
   4   1   1   26.00    7.44 
  -4   1  -1   25.41    7.66 
  -4   1  -1   25.20    6.10 
   4   1   1   26.60    6.20 
  -4   1  -1   25.03    5.46 
   4  -1   1    7.14    3.81 
  -4  -1  -1    7.41    5.60 
  -4  -1  -1    8.07    4.89 
   4  -1   1    7.28    5.64 
   4  -1   1    6.04    4.70 
  -4   1  -2  425.18   25.42 
  -4   1  -2  404.66   26.50 
   4   1   2  416.84   26.64 
   4   1   2  388.43   22.03 
  -4   1  -2  403.47   23.10 
  -4  -1  -2  320.94   21.69 
   4  -1   2  342.44   24.19 
   4  -1   2  335.61   19.38 
  -4  -1  -2  335.85   21.02 
  -4  -1  -2  314.77   21.81 
   4  -1   2  343.60   22.06 
  -4   1  -3  153.24   15.34 
   4   1   3  162.22   15.33 
   4   1   3  169.98   13.27 
  -4   1  -3  161.30   14.87 
   4  -1   3  279.86   18.99 
  -4   1  -4  883.45   34.79 
  -4   1  -4  886.10   36.46 
   4   1   4  893.67   36.68 
   4   1   4  871.87   30.20 
   4  -1   4  811.58   37.22 
  -4  -1  -4  807.04   32.62 
   4  -1   4  839.62   28.78 
  -4  -1  -4  830.25   33.63 
  -4  -1  -4  791.47   30.92 
   4  -1   4  782.03   30.77 
  -4   1  -5   95.56   12.72 
  -4   1  -5  103.51   12.76 
   4   1   5  100.27   12.83 
   4   1   5  101.84   10.71 
   4  -1   5  107.45   13.88 
  -4  -1  -5  105.77   12.36 
   4  -1   5  112.51   11.03 
  -4  -1  -5  106.03   12.80 
  -4  -1  -5  106.87   11.51 
   4  -1   5  109.39   12.06 
   4   1   6  115.09   12.76 
   4   1   6  117.37   14.37 
  -4   1  -6  111.89   13.52 
   4   1   6  109.55   11.48 
  -4   1  -6  115.23   13.62 
  -4  -1  -6  155.24   15.63 
   4  -1   6  156.43   14.02 
  -4  -1  -6  154.22   16.00 
  -4  -1  -6  154.97   14.77 
   4  -1   6  151.89   17.41 
   4  -1   6  164.41   15.54 
  -4   1  -7   17.48    7.35 
   4   1   7   16.19    7.52 
  -4   1  -7   17.74    7.81 
  -4   1  -7   16.98    6.05 
   4   1   7   17.36    5.88 
   4   1   7   15.98    6.37 
  -4  -1  -7   34.13    8.19 
   4  -1   7   30.41    6.97 
  -4  -1  -7   32.52    7.53 
   4  -1   7   33.95   10.03 
  -4  -1  -7   34.40    8.91 
   4  -1   7   33.53    7.49 
  -4   1  -8  176.35   16.80 
   4   1   8  171.87   17.38 
  -4   1  -8  180.83   16.90 
  -4   1  -8  180.23   15.83 
   4   1   8  177.14   14.41 
   4   1   8  173.12   15.31 
  -4  -1  -8  169.77   15.86 
   4  -1   8  156.36   13.35 
  -4  -1  -8  166.06   14.60 
   4  -1   8  160.78   17.94 
  -4  -1  -8  172.89   17.39 
   4  -1   8  156.01   14.15 
  -4   1  -9   18.10    7.68 
   4   1   9   16.07    8.20 
  -4   1  -9   17.37    8.07 
   4   1   9   20.32    6.78 
  -4  -1  -9   30.55    7.83 
   4  -1   9   25.77    9.57 
  -4  -1  -9   27.89    8.91 
  -4  -1  -9   28.54    7.67 
   4  -1   9   25.71    7.80 
  -4   1 -10  214.13   15.23 
   4   1  10  223.32   18.13 
  -4   1 -10  221.86   16.88 
   4   1  10  228.38   13.59 
  -4  -1 -10  217.27   14.91 
   4  -1  10  213.14   19.32 
  -4  -1 -10  211.38   17.81 
  -4  -1 -10  217.10   14.93 
   4  -1  10  209.93   14.69 
   4   1  11   83.10    9.44 
   4   1  11   76.03   13.17 
  -4   1 -11   80.73   11.80 
  -4   1 -11   77.56   10.26 
   4  -1  11   60.70   13.51 
  -4  -1 -11   71.49   13.42 
  -4  -1 -11   56.56   10.03 
   4   1  12   17.19   11.14 
  -4   1 -12   19.37    9.11 
  -4   1 -12   13.44    9.02 
   4  -1  12   27.87   13.31 
  -4  -1 -12   21.32    7.49 
  -4  -1 -12   20.11   10.31 
   4   1  13   83.31   14.53 
  -4   1 -13   80.99   11.11 
  -4   1 -13   83.21   12.12 
   4  -1  13   58.29   15.03 
  -4  -1 -13   56.17   10.37 
  -4  -1 -13   57.35   12.16 
   4   1  14   47.37   12.41 
  -4   1 -14   53.66   11.65 
  -4   1 -14   44.65   11.23 
   4  -1  14   60.68   14.74 
  -4  -1 -14   54.56    9.86 
  -4  -1 -14   56.76   14.75 
   4   1  15   66.87   14.19 
  -4   1 -15   65.94   11.63 
  -4   1 -15   57.40   12.97 
   4  -1  15   69.48   15.52 
  -4  -1 -15   79.84   11.23 
  -4  -1 -15   76.70   15.22 
   4   1  16    2.74   13.26 
  -4   1 -16    0.02   10.75 
  -4   1 -16    3.29   10.70 
   4  -1  16    0.75   13.70 
  -4  -1 -16    2.55    8.70 
  -4  -1 -16    3.63   12.89 
   4   1  17    4.00   13.63 
  -4   1 -17    3.75   10.46 
  -4   1 -17   -3.28   11.91 
   4  -1  17    4.77   15.01 
  -4  -1 -17   -3.06    9.14 
  -4  -1 -17    7.12   13.28 
  -4   2  19   24.10   15.21 
   4   2 -19   14.25   10.66 
   4   2 -19   17.97   13.88 
   4  -2 -19   17.24   12.94 
  -4   2  18   45.99   16.42 
   4   2 -18   47.04   10.86 
   4   2 -18   43.11   13.33 
   4  -2 -18   49.23   14.93 
   4   2 -17   86.04   12.73 
  -4   2  17   81.39   16.37 
   4   2 -17   79.96   13.88 
  -4  -2  17   77.39   16.72 
   4   2 -16   71.88   12.51 
  -4   2  16   78.84   16.20 
   4   2 -16   75.67   11.72 
   4  -2 -16   91.70   10.87 
  -4  -2  16   92.11   16.36 
   4   2 -15  140.30   15.22 
  -4   2  15  137.27   16.33 
   4   2 -15  138.48   13.68 
   4  -2 -15  166.96   13.31 
  -4  -2  15  159.80   18.17 
   4   2 -14  146.23   14.62 
  -4   2  14  141.54   15.55 
   4   2 -14  140.91   12.79 
   4  -2 -14  120.92   11.79 
  -4  -2  14  124.15   16.43 
   4   2 -13   87.56   11.89 
  -4   2  13   84.35   14.67 
   4   2 -13   89.47   12.36 
   4  -2 -13   96.94   12.32 
  -4  -2  13   91.82   15.19 
   4  -2 -13  100.18   11.53 
   4   2 -12  369.88   20.34 
  -4   2  12  367.26   22.19 
   4   2 -12  363.25   20.89 
   4  -2 -12  390.57   21.80 
  -4  -2  12  390.11   25.25 
   4  -2 -12  383.63   19.95 
   4   2 -11   52.03    9.42 
  -4   2  11   52.52   10.79 
   4   2 -11   55.03   10.52 
   4  -2 -11   93.21   10.13 
  -4  -2  11   91.59   13.33 
   4  -2 -11   84.36   10.95 
   4  -2 -11   91.15   10.97 
   4   2 -10  538.93   21.65 
  -4   2  10  545.49   23.83 
  -4   2  10  545.43   25.77 
   4   2 -10  555.18   22.86 
   4  -2 -10  537.95   22.99 
   4  -2 -10  544.97   24.14 
  -4  -2  10  534.16   26.89 
  -4   2   9  114.04   12.41 
   4   2  -9  112.38   12.21 
  -4   2   9  119.19   12.53 
   4   2  -9  116.83   11.46 
  -4   2   9  114.82   11.01 
   4  -2  -9   82.84    9.83 
   4  -2  -9   83.07   11.09 
  -4  -2   9   85.47   12.64 
  -4  -2   9   83.72   12.21 
  -4  -2   9   85.43    9.70 
   4   2  -8   66.38    9.78 
   4   2  -8   61.20   10.09 
  -4   2   8   54.78    9.62 
  -4   2   8   55.64    9.75 
  -4   2   8   59.20    8.63 
   4  -2  -8   47.20    8.91 
   4  -2  -8   48.73    8.45 
   4  -2  -8   46.75    9.75 
  -4  -2   8   43.99    9.69 
  -4  -2   8   43.79   10.73 
  -4  -2   8   46.48    8.76 
   4   2  -7  957.52   34.57 
   4   2  -7  983.89   36.81 
  -4   2   7  994.34   37.23 
  -4   2   7  954.79   36.48 
  -4   2   7  942.98   33.63 
   4  -2  -7  964.77   35.18 
   4  -2  -7  984.89   35.57 
   4  -2  -7  997.98   37.20 
  -4  -2   7  978.90   38.83 
  -4  -2   7  948.04   40.66 
  -4  -2   7  954.63   34.16 
  -4   2   6  615.27   28.63 
   4   2  -6  596.07   30.12 
  -4   2   6  594.98   28.68 
   4   2  -6  608.45   30.25 
  -4   2   6  595.19   29.88 
   4   2  -6  588.94   28.41 
   4  -2  -6  496.10   25.38 
   4  -2  -6  471.02   24.62 
  -4  -2   6  487.68   27.63 
  -4  -2   6  498.28   28.72 
   4  -2  -6  511.44   26.95 
  -4  -2   6  466.56   24.37 
   4   2  -5  706.89   29.95 
  -4   2   5  698.81   28.06 
   4   2  -5  746.60   30.47 
  -4   2   5  746.82   30.49 
  -4   2   5  718.67   27.65 
   4   2  -5  725.27   28.30 
   4  -2  -5  607.23   25.91 
  -4  -2   5  614.91   28.43 
   4  -2  -5  606.09   25.39 
   4  -2  -5  607.21   26.61 
  -4  -2   5  616.77   25.80 
  -4   2   4  165.92   14.44 
   4   2  -4  159.37   15.67 
  -4   2   4  159.97   14.77 
   4   2  -4  171.62   16.13 
  -4   2   4  162.18   14.94 
   4   2  -4  172.99   15.39 
   4  -2  -4  213.00   17.69 
   4  -2  -4  207.78   16.89 
  -4  -2   4  198.15   17.78 
  -4  -2   4  212.64   19.54 
   4  -2  -4  209.96   17.55 
  -4  -2   4  181.93   16.08 
   4   2  -3  404.03   27.48 
   4   2  -3  389.80   28.00 
  -4   2   3  407.12   27.60 
  -4   2   3  431.65   28.62 
   4   2  -3  420.85   28.75 
  -4   2   3  436.35   28.22 
   4  -2  -3  500.77   23.73 
   4  -2  -3  500.05   23.31 
   4  -2  -3  497.20   22.21 
  -4  -2   3  509.34   27.36 
  -4   2   2  402.63   22.53 
   4   2  -2  382.82   24.16 
  -4   2   2  330.86   21.43 
   4   2  -2  404.55   24.31 
   4   2  -2  397.09   23.59 
  -4   2   2  397.46   22.78 
   4   2  -2  428.63   24.53 
   4  -2  -2  438.57   24.84 
   4  -2  -2  438.20   24.35 
  -4  -2   2  429.73   27.43 
   4  -2  -2  447.90   23.81 
  -4   2   1  240.55   16.51 
   4   2  -1  233.84   18.05 
   4   2  -1  234.61   17.44 
   4  -2  -1  139.01   12.04 
  -4  -2   1  134.21   14.56 
   4   2   0 1125.82   43.23 
   4   2   0 1186.58   45.62 
  -4   2   0 1195.14   41.41 
   4   2   0 1163.25   41.82 
   4   2   0 1177.54   43.25 
   4  -2   0 1329.90   43.63 
  -4  -2   0 1331.94   47.72 
  -4  -2   0 1107.80   43.31 
   4  -2   0 1270.04   46.25 
   4  -2   0 1344.61   46.01 
   4   2   1  186.40   22.63 
   4  -2   1  120.40   14.66 
  -4  -2  -1  117.38   12.69 
   4  -2   1  109.74   11.10 
  -4  -2  -1  113.57   13.00 
   4  -2   1  114.20   12.81 
   4  -2   1  120.79   13.37 
   4   2   2  924.28   32.30 
   4   2   2  888.91   36.13 
  -4   2  -2  894.94   34.17 
  -4   2  -2  931.50   32.28 
   4   2   2  939.93   34.97 
  -4  -2  -2  894.04   33.40 
  -4  -2  -2  867.48   32.90 
  -4  -2  -2  890.90   35.35 
   4  -2   2  915.32   39.98 
   4  -2   2  858.52   31.94 
   4   2   3   96.96   10.67 
   4   2   3   95.41   12.06 
   4   2   3   95.80   11.70 
  -4   2  -3   97.92   11.96 
  -4   2  -3   97.28   10.93 
  -4  -2  -3  104.22   11.35 
  -4  -2  -3  111.75   13.22 
  -4  -2  -3  110.56   12.16 
   4  -2   3  106.20   13.98 
   4  -2   3  109.46   11.89 
  -4   2  -4  236.89   20.54 
  -4   2  -4  221.10   20.45 
   4   2   4  225.68   20.39 
   4   2   4  226.16   18.42 
  -4   2  -4  234.82   18.91 
   4   2   4  239.35   20.30 
  -4  -2  -4  192.46   16.79 
   4  -2   4  200.42   16.52 
  -4  -2  -4  206.88   18.06 
   4  -2   4  199.58   20.09 
  -4  -2  -4  205.47   18.99 
   4  -2   4  192.76   17.08 
  -4   2  -5  860.35   39.29 
  -4   2  -5  831.97   39.04 
   4   2   5  845.93   39.79 
   4   2   5  839.12   34.54 
  -4   2  -5  849.96   35.83 
   4   2   5  860.92   37.47 
  -4  -2  -5  765.86   33.59 
   4  -2   5  728.94   31.42 
  -4  -2  -5  764.16   35.45 
   4  -2   5  771.48   40.14 
  -4  -2  -5  774.53   36.78 
   4  -2   5  764.50   34.79 
  -4   2  -6  293.40   22.55 
  -4   2  -6  296.72   22.79 
   4   2   6  290.39   21.39 
  -4   2  -6  286.43   18.85 
   4   2   6  287.22   17.77 
   4   2   6  281.76   18.98 
  -4  -2  -6  278.88   18.62 
   4  -2   6  285.69   17.93 
  -4  -2  -6  238.65   23.30 
   4  -2   6  275.47   21.85 
  -4  -2  -6  287.18   20.97 
   4  -2   6  294.12   21.17 
  -4   2  -7  178.04   16.54 
  -4   2  -7  188.61   17.60 
   4   2   7  183.53   17.81 
   4   2   7  180.43   14.56 
   4  -2   7  199.22   19.64 
  -4  -2  -7  188.92   15.91 
   4  -2   7  201.23   15.55 
  -4  -2  -7  208.38   18.63 
  -4  -2  -7  197.72   16.43 
   4  -2   7  197.51   16.61 
   4   2   8   44.33    7.43 
   4   2   8   44.33    9.73 
  -4   2  -8   45.85    9.42 
  -4  -2  -8   39.60    8.17 
   4  -2   8   36.12   10.93 
  -4  -2  -8   36.49   10.37 
  -4  -2  -8   36.46    7.57 
   4  -2   8   36.53    7.70 
  -4   2  -9  432.31   21.32 
   4   2   9  478.98   25.80 
  -4   2  -9  464.20   23.96 
   4   2   9  488.35   20.81 
  -4  -2  -9  419.52   20.79 
   4  -2   9  429.92   26.09 
  -4  -2  -9  449.14   24.72 
  -4  -2  -9  419.03   20.71 
   4  -2   9  437.28   20.63 
  -4   2 -10  220.45   15.84 
   4   2  10  218.47   17.18 
  -4   2 -10  202.42   16.26 
   4   2  10  219.16   13.44 
  -4  -2 -10  300.88   17.94 
   4  -2  10  300.23   22.59 
  -4  -2 -10  320.95   21.81 
  -4  -2 -10  302.61   18.26 
   4  -2  10  293.73   17.77 
   4   2  11  178.21   16.26 
  -4   2 -11  179.53   14.57 
  -4   2 -11  164.18   15.26 
   4  -2  11  216.48   20.10 
  -4  -2 -11  205.46   15.18 
  -4  -2 -11  223.98   18.45 
   4   2  12   30.21   10.74 
  -4   2 -12   31.64   10.13 
  -4   2 -12   30.39   10.77 
   4  -2  12   17.73   12.28 
  -4  -2 -12   19.68    8.44 
  -4  -2 -12   23.30   12.23 
   4   2  13   20.24   10.25 
  -4   2 -13   20.86    8.46 
  -4   2 -13   19.84    9.77 
   4  -2  13   12.22   14.26 
  -4  -2 -13   16.94    8.57 
  -4  -2 -13   16.28   11.78 
   4   2  14   42.92   13.04 
  -4   2 -14   36.29   11.28 
  -4   2 -14   40.05   11.91 
   4  -2  14   54.39   16.64 
  -4  -2 -14   50.23   10.95 
  -4  -2 -14   56.21   13.87 
   4   2  15   17.20   13.46 
  -4   2 -15   16.22   11.01 
  -4   2 -15    8.56   10.17 
   4  -2  15   10.70   16.05 
  -4  -2 -15   11.82    8.83 
  -4  -2 -15    5.66   14.04 
  -4   2 -16   87.38   14.27 
   4   2  16   88.33   16.06 
  -4   2 -16   92.21   13.45 
  -4  -2 -16   66.35   15.81 
   4  -2  16   58.30   16.94 
  -4   2 -17  102.95   15.09 
   4   2  17  104.03   16.33 
  -4   2 -17  109.34   13.56 
  -4  -2 -17  109.81   18.14 
   4  -2  17  112.72   19.56 
   4   3 -18    4.98   11.28 
  -4   3  18   -1.43   14.20 
   4   3 -18    0.85   10.53 
   4  -3 -18   -1.90   12.38 
  -4  -3  18    5.75   15.61 
   4   3 -17   41.14   12.85 
  -4   3  17   41.42   14.48 
   4   3 -17   40.64   11.17 
   4  -3 -17   46.02   13.45 
  -4  -3  17   54.20   16.51 
   4   3 -16   34.63   12.77 
  -4   3  16   37.16   13.98 
   4   3 -16   32.55   11.32 
   4  -3 -16   33.47   12.45 
  -4  -3  16   34.79   14.84 
   4   3 -15   35.82   11.56 
  -4   3  15   36.57   13.90 
   4   3 -15   32.25   10.33 
   4  -3 -15   33.53   13.24 
  -4  -3  15   38.55   14.46 
  -4   3  14   22.34   13.22 
   4   3 -14   18.40    9.80 
   4   3 -14   19.37    9.89 
  -4  -3  14   22.59   13.82 
   4  -3 -14   25.16    7.30 
   4  -3 -14   23.55   11.06 
  -4   3  13  108.53   13.30 
   4   3 -13  100.09   12.01 
   4   3 -13  111.85   12.87 
  -4  -3  13  140.09   18.07 
   4  -3 -13  148.05   11.78 
   4  -3 -13  148.90   14.60 
   4   3 -12  101.59   12.26 
  -4   3  12  107.87   13.84 
   4   3 -12   98.73   12.19 
   4  -3 -12  127.20   12.34 
  -4  -3  12  124.48   17.11 
   4  -3 -12  129.84   15.20 
   4  -3 -12  130.87   13.23 
  -4   3  11   89.18   12.95 
   4   3 -11   96.45   10.97 
  -4  -3  11  108.94   15.21 
   4  -3 -11  114.13   11.43 
   4  -3 -11  119.07   13.57 
   4  -3 -11  115.39   10.66 
  -4   3  10   23.88    9.08 
   4   3 -10   27.21    7.85 
  -4  -3  10   22.84   11.46 
   4  -3 -10   24.51    6.82 
   4  -3 -10   27.00   10.31 
   4  -3 -10   25.20    6.54 
   4   3  -9   43.73    9.13 
  -4   3   9   43.64    8.63 
  -4   3   9   42.69    9.00 
   4   3  -9   40.23    8.63 
   4  -3  -9   57.90    8.51 
   4  -3  -9   58.30   11.15 
  -4  -3   9   59.48   11.21 
  -4   3   8  375.13   21.78 
   4   3  -8  351.73   20.29 
  -4   3   8  380.30   20.68 
  -4   3   8  355.67   21.75 
   4   3  -8  365.92   19.04 
   4  -3  -8  358.57   18.83 
   4  -3  -8  373.80   21.73 
  -4  -3   8  365.13   21.98 
  -4  -3   8  357.07   23.24 
  -4  -3   8  363.65   19.13 
   4   3  -7  267.01   17.07 
   4   3  -7  251.42   17.83 
  -4   3   7  271.59   17.24 
   4   3  -7  282.62   18.94 
  -4   3   7  268.77   17.93 
  -4   3   7  261.75   16.34 
  -4  -3   7  200.29   18.26 
   4  -3  -7  203.01   17.95 
   4  -3  -7  184.60   15.13 
  -4  -3   7  205.80   19.30 
  -4  -3   7  204.12   16.98 
  -4   3   6  185.86   15.41 
   4   3  -6  171.54   15.41 
  -4   3   6  191.69   15.56 
   4   3  -6  185.71   15.79 
   4   3  -6  180.69   14.66 
  -4   3   6  173.76   13.88 
   4  -3  -6  222.44   17.30 
   4  -3  -6  232.25   16.24 
  -4  -3   6  241.89   20.25 
  -4  -3   6  228.91   16.96 
   4   3  -5  267.88   18.13 
   4   3  -5  270.16   19.53 
  -4   3   5  272.82   18.61 
  -4   3   5  277.51   19.05 
   4   3  -5  269.48   19.38 
  -4   3   5  267.61   17.93 
   4  -3  -5  233.98   17.18 
   4  -3  -5  241.62   18.48 
   4  -3  -5  246.93   16.49 
  -4  -3   5  249.02   20.52 
  -4  -3   5  245.94   17.72 
   4   3  -4  225.69   18.99 
   4   3  -4  223.60   20.01 
  -4   3   4  230.07   19.41 
  -4   3   4  229.57   19.21 
   4   3  -4  227.48   19.95 
  -4   3   4  219.43   18.11 
   4  -3  -4  159.55   15.53 
   4  -3  -4  155.10   15.99 
   4  -3  -4  162.17   14.52 
  -4  -3   4  161.70   17.54 
  -4  -3   4  166.10   15.69 
   4   3  -3  962.30   41.36 
   4   3  -3  905.96   40.70 
  -4   3   3  943.30   40.25 
   4   3  -3  948.72   40.49 
  -4   3   3  925.47   42.94 
   4   3  -3  945.23   40.65 
  -4   3   3  929.36   38.25 
   4  -3  -3  973.01   40.98 
  -4  -3   3  983.24   46.35 
   4  -3  -3 1005.06   42.76 
  -4  -3   3  994.68   43.31 
   4  -3  -3 1022.95   40.60 
   4   3  -2  480.41   33.91 
   4   3  -2  474.16   32.08 
  -4   3   2  493.40   34.37 
   4   3  -2  498.14   23.95 
  -4   3   2  494.14   33.47 
   4   3  -2  475.72   31.32 
  -4   3   2  477.93   30.07 
   4  -3  -2  451.62   29.85 
  -4  -3   2  458.65   33.28 
   4  -3  -2  475.26   31.55 
  -4  -3   2  448.01   30.81 
   4  -3  -2  462.63   28.97 
  -4   3   1  998.24   39.40 
  -4   3   1  995.75   34.24 
   4   3  -1  980.48   38.40 
  -4   3   1 1026.79   38.15 
   4   3  -1  992.26   36.24 
   4   3  -1 1044.84   36.31 
  -4   3   1  936.12   32.66 
   4   3  -1 1015.37   36.48 
  -4  -3   1  994.79   36.82 
   4  -3  -1 1072.23   37.79 
  -4  -3   1  991.46   40.00 
   4  -3  -1  995.90   32.37 
  -4   3   0  291.16   24.35 
   4   3   0  288.92   23.68 
   4   3   0  285.87   21.67 
  -4   3   0  279.25   21.50 
  -4   3   0  284.66   20.58 
   4   3   0  295.13   22.02 
   4   3   0  284.49   22.05 
   4  -3   0  269.19   19.34 
  -4  -3   0  274.72   21.76 
   4  -3   0  262.27   21.45 
  -4  -3   0  248.91   20.30 
   4  -3   0  265.12   21.33 
   4   3   1  841.49   38.79 
  -4   3  -1  913.62   43.11 
   4   3   1  884.12   44.29 
   4   3   1  885.78   41.81 
  -4   3  -1  900.45   37.24 
   4   3   1  915.38   40.32 
   4  -3   1  941.23   44.68 
   4  -3   1  913.22   36.62 
  -4  -3  -1  823.84   55.38 
   4   3   2   88.76   12.40 
  -4   3  -2   87.70   13.23 
   4   3   2   98.39   11.21 
   4   3   2   97.13   11.29 
  -4   3  -2   98.26   11.30 
   4   3   2   97.27   12.28 
   4   3   3   80.53   10.03 
   4   3   3   80.55   10.35 
   4   3   3   80.20   11.35 
  -4   3  -3   77.88   10.34 
  -4  -3  -3   95.08   11.50 
   4  -3   3   94.71   14.19 
   4  -3   3   98.31   10.82 
  -4  -3  -3   98.05   12.25 
   4  -3   3   75.39    9.16 
   4   3   4  133.49   11.79 
   4   3   4  139.87   13.36 
  -4   3  -4  134.87   13.35 
   4   3   4  134.51   13.30 
  -4   3  -4  137.34   12.72 
   4  -3   4   83.10   12.78 
  -4  -3  -4   80.28    9.92 
  -4  -3  -4   78.14   10.05 
   4  -3   4   81.46    9.47 
   4   3   5   90.48    9.87 
   4   3   5   90.55   11.61 
  -4   3  -5   87.22   11.33 
   4   3   5   82.77   10.47 
  -4   3  -5   94.13   11.40 
   4  -3   5   91.15   13.94 
  -4  -3  -5   84.38   10.29 
  -4  -3  -5   82.19   10.62 
   4  -3   5   85.09   10.29 
   4   3   6  147.73   12.95 
   4   3   6  146.43   14.95 
  -4   3  -6  154.37   15.26 
  -4   3  -6  150.56   14.31 
   4  -3   6  190.76   19.77 
  -4  -3  -6  191.70   16.63 
  -4  -3  -6  175.62   15.26 
   4  -3   6  181.49   15.36 
  -4   3  -7   24.03    7.60 
   4   3   7   21.73    7.81 
  -4   3  -7   21.81    7.33 
   4   3   7   23.80    6.02 
  -4  -3  -7   33.86    7.12 
   4  -3   7   33.14   11.35 
  -4  -3  -7   33.38    8.82 
  -4  -3  -7   35.44    7.64 
   4  -3   7   35.76    7.56 
  -4   3  -8   55.80   10.02 
   4   3   8   56.47   10.47 
  -4   3  -8   53.12    9.88 
   4   3   8   56.19    7.87 
  -4  -3  -8   29.59    7.52 
   4  -3   8   28.55   10.07 
  -4  -3  -8   27.06    8.98 
  -4  -3  -8   27.18    7.68 
   4  -3   8   29.17    6.97 
   4   3   9  647.37   30.74 
  -4   3  -9  599.64   28.25 
   4  -3   9  680.07   34.66 
  -4  -3  -9  682.36   28.42 
  -4  -3  -9  712.71   33.06 
  -4  -3  -9  664.53   29.02 
   4  -3   9  669.53   27.48 
   4   3  10   29.31   10.30 
  -4   3 -10   24.43    8.90 
   4  -3  10   30.11   12.10 
  -4  -3 -10   31.97    8.35 
  -4  -3 -10   29.25   10.93 
  -4  -3 -10   33.31    7.99 
   4  -3  10   33.53    7.79 
   4   3  11  114.45   15.00 
  -4   3 -11  106.23   13.67 
  -4   3 -11  108.22   13.88 
   4  -3  11  131.22   17.50 
  -4  -3 -11  120.08   12.86 
  -4  -3 -11  127.69   16.62 
   4  -3  11  131.09   12.88 
   4   3  12  148.92   16.33 
  -4   3 -12  140.54   13.63 
  -4   3 -12  133.68   14.64 
   4  -3  12  145.81   18.54 
  -4  -3 -12  131.25   13.26 
  -4  -3 -12  134.33   16.21 
   4   3  13  356.12   22.34 
  -4   3 -13  334.44   18.94 
  -4   3 -13  329.30   20.59 
   4  -3  13  346.64   25.81 
  -4  -3 -13  339.76   18.94 
  -4  -3 -13  330.62   21.82 
  -4   3 -14   26.05   10.71 
   4   3  14   25.53   12.21 
   4  -3  14   16.65   15.48 
  -4  -3 -14   15.16   11.82 
  -4   3 -15   26.38   10.75 
   4   3  15   25.25   13.12 
   4  -3  15   35.82   17.79 
  -4  -3 -15   30.60   13.65 
  -4   3 -16   29.69   11.73 
   4   3  16   31.05   14.15 
   4  -3  16   29.47   17.18 
  -4  -3 -16   36.07   14.72 
  -4   3 -17   -0.13   11.46 
   4  -3  17    4.57   17.18 
  -4  -3 -17    0.16   13.28 
   4   4 -17   39.92   12.65 
  -4   4  17   39.03   14.65 
   4   4 -17   43.39   12.34 
   4  -4 -17   47.27   15.14 
  -4  -4  17   36.50   16.19 
   4   4 -16   73.76   13.32 
  -4   4  16   78.49   14.77 
   4   4 -16   74.63   13.04 
   4  -4 -16   73.76   15.96 
  -4  -4  16   56.32   16.12 
   4   4 -15  149.34   15.41 
  -4   4  15  142.92   15.80 
   4   4 -15  144.53   14.69 
   4  -4 -15  119.98   16.32 
  -4  -4  15  109.31   18.12 
   4   4 -14   47.84   11.52 
  -4   4  14   52.32   13.86 
   4   4 -14   48.64   11.87 
   4  -4 -14   62.84   14.37 
  -4  -4  14   46.67   15.04 
  -4   4  13   20.90   12.22 
   4   4 -13   18.94   10.12 
  -4  -4  13   12.12   12.72 
   4  -4 -13   15.15   11.82 
  -4   4  12   67.38   11.87 
   4   4 -12   59.87   10.72 
  -4  -4  12   62.96   13.62 
   4  -4 -12   67.29   12.54 
   4   4 -11  163.78   15.20 
  -4   4  11  168.29   16.75 
   4   4 -11  155.71   14.86 
   4  -4 -11  123.74   15.88 
  -4  -4  11  127.34   16.95 
  -4   4  10  564.70   26.51 
   4   4 -10  533.80   24.69 
   4   4 -10  547.41   24.88 
  -4  -4  10  684.07   34.56 
   4  -4 -10  642.20   26.62 
   4  -4 -10  704.40   31.96 
   4   4  -9  242.00   15.88 
  -4   4   9  231.86   16.21 
   4   4  -9  240.59   15.13 
   4  -4  -9  287.53   17.55 
  -4  -4   9  275.16   22.41 
   4  -4  -9  263.66   18.55 
   4  -4  -9  271.01   17.02 
   4   4  -8    5.92    6.38 
  -4   4   8    6.61    7.25 
  -4   4   8    5.99    6.41 
   4   4  -8    6.93    7.01 
  -4   4   8    7.27    6.13 
   4  -4  -8    8.02    8.18 
  -4  -4   8    9.79    9.11 
   4  -4  -8   11.49    5.74 
  -4  -4   8    9.93    6.94 
  -4   4   7   52.32    9.50 
   4   4  -7   52.95    9.72 
  -4   4   7   51.04    8.74 
  -4   4   7   52.93    8.64 
   4   4  -7   53.65    9.34 
  -4  -4   7   58.66   11.58 
   4  -4  -7   54.35    7.60 
   4  -4  -7   55.90   10.29 
  -4  -4   7   55.66    8.73 
  -4   4   6  769.66   30.36 
   4   4  -6  764.46   31.26 
  -4   4   6  764.69   29.88 
  -4   4   6  730.94   27.89 
   4   4  -6  767.86   29.53 
   4  -4  -6  797.33   28.50 
   4  -4  -6  821.49   34.00 
  -4  -4   6  762.61   34.15 
  -4  -4   6  847.69   37.46 
  -4  -4   6  817.08   31.20 
   4   4  -5  378.80   19.85 
   4   4  -5  343.88   20.40 
  -4   4   5  356.50   19.87 
  -4   4   5  362.77   19.66 
   4   4  -5  354.74   20.29 
  -4   4   5  347.42   18.60 
  -4  -4   5  411.09   23.17 
   4  -4  -5  422.26   22.66 
   4  -4  -5  412.96   19.57 
  -4  -4   5  421.90   26.14 
   4   4  -4  217.08   17.76 
   4   4  -4  219.45   18.60 
  -4   4   4  230.94   18.61 
  -4   4   4  227.99   17.76 
   4   4  -4  226.82   18.65 
   4   4  -4  223.32   18.25 
  -4   4   4  218.21   17.26 
  -4  -4   4  120.33   14.52 
   4  -4  -4  125.83   13.77 
  -4  -4   4  122.29   15.33 
  -4   4   3   22.53    6.23 
   4   4  -3   21.74    6.92 
  -4   4   3   24.92    7.69 
   4   4  -3   23.78    7.83 
   4   4  -3   22.97    7.79 
  -4   4   3   24.78    6.79 
   4   4  -3   21.80    6.87 
  -4  -4   3   25.87    7.65 
   4  -4  -3   28.12    7.67 
  -4  -4   3   26.24    8.72 
   4  -4  -3   27.75    6.28 
  -4   4   2   26.78    8.71 
  -4   4   2   22.13    5.76 
   4   4  -2   24.27    7.34 
  -4   4   2   25.32    7.44 
   4   4  -2   21.09    7.71 
   4   4  -2   23.35    7.64 
  -4   4   2   23.22    6.44 
   4   4  -2   24.51    7.21 
  -4  -4   2   29.05    7.64 
   4  -4  -2   32.19    7.31 
  -4  -4   2   30.33    8.39 
   4  -4  -2   31.12    6.75 
  -4   4   1   96.58   12.78 
   4   4  -1   97.63   12.17 
  -4   4   1  101.32   12.19 
   4   4  -1   97.24   11.33 
  -4   4   1   95.75   10.33 
   4   4  -1   99.92   11.42 
   4   4  -1   92.67   10.56 
   4   4  -1   97.55   11.62 
  -4   4   1   95.62   10.15 
  -4  -4   1   54.11    9.92 
   4  -4  -1   52.15    8.71 
  -4   4   0  650.92   31.46 
   4   4   0  657.64   32.15 
   4   4   0  621.35   27.85 
  -4   4   0  628.81   28.29 
  -4   4   0  671.84   27.05 
   4   4   0  637.84   27.54 
   4   4   0  633.62   28.68 
  -4  -4   0  640.29   29.41 
  -4  -4   0  614.90   28.98 
   4  -4   0  647.32   25.81 
  -4   4  -1  267.19   21.14 
   4   4   1  266.48   21.01 
   4   4   1  270.46   18.59 
  -4   4  -1  260.49   18.74 
  -4   4  -1  265.78   17.67 
   4   4   1  267.89   18.59 
   4   4   1  253.74   18.58 
  -4  -4  -1  171.27   15.48 
  -4  -4  -1  179.67   16.70 
   4  -4   1  181.14   14.02 
   4   4   2  731.36   31.50 
   4   4   2  714.18   34.06 
  -4   4  -2  732.90   34.79 
   4   4   2  718.14   29.98 
  -4   4  -2  707.90   29.02 
   4   4   2  717.91   29.90 
  -4  -4  -2  838.50   35.33 
   4  -4   2  854.52   32.15 
  -4  -4  -2  860.19   37.29 
   4  -4   2  855.32   39.36 
   4   4   3   75.78   11.68 
   4   4   3   77.35   10.06 
  -4   4  -3   75.64   12.07 
   4   4   3   75.67    9.59 
  -4   4  -3   79.48    9.76 
   4   4   3   77.26   10.60 
  -4  -4  -3   83.87   11.06 
   4  -4   3   86.87   10.49 
  -4  -4  -3   82.98   12.57 
   4  -4   3   87.24   13.06 
   4   4   4  434.37   20.67 
   4   4   4  445.54   21.56 
   4   4   4  450.73   22.48 
  -4   4  -4  446.94   21.57 
  -4  -4  -4  412.83   21.18 
  -4  -4  -4  414.54   23.77 
   4  -4   4  422.27   19.88 
  -4  -4  -4  443.11   24.29 
   4  -4   4  379.37   24.38 
   4   4   5  468.56   19.84 
   4   4   5  469.49   21.06 
  -4   4  -5  466.39   23.32 
  -4   4  -5  442.36   19.85 
  -4  -4  -5  562.71   24.41 
   4  -4   5  576.01   28.80 
  -4  -4  -5  553.23   25.31 
  -4  -4  -5  577.22   24.79 
   4  -4   5  547.75   23.52 
   4   4   6  293.14   15.52 
   4   4   6  295.56   17.69 
  -4   4  -6  305.34   18.40 
  -4   4  -6  300.46   17.27 
  -4  -4  -6  353.78   22.58 
   4  -4   6  355.04   23.25 
  -4  -4  -6  362.88   21.06 
  -4  -4  -6  361.87   20.56 
   4  -4   6  381.74   18.53 
  -4   4  -7   47.64    9.64 
   4   4   7   47.23    9.78 
  -4   4  -7   43.03    8.58 
  -4  -4  -7   41.60    8.50 
   4  -4   7   37.45   12.48 
  -4  -4  -7   44.52    8.78 
   4  -4   7   43.12    7.93 
  -4   4  -8  313.33   19.29 
   4   4   8  307.09   19.72 
  -4   4  -8  302.83   19.52 
  -4  -4  -8  305.64   18.33 
   4  -4   8  298.76   22.43 
  -4  -4  -8  294.91   18.96 
   4  -4   8  306.15   17.80 
  -4   4  -9  105.81   12.51 
   4   4   9  103.97   12.90 
  -4   4  -9  107.49   13.07 
  -4  -4  -9  142.50   13.66 
   4  -4   9  141.01   17.44 
  -4  -4  -9  135.93   13.65 
   4  -4   9  131.58   14.39 
   4   4  10  129.84   14.16 
  -4   4 -10  132.62   13.63 
   4  -4  10  149.34   18.55 
  -4  -4 -10  151.79   13.43 
   4  -4  10  146.94   12.42 
   4   4  11  143.25   15.31 
  -4   4 -11  135.72   13.42 
   4  -4  11  107.46   17.27 
  -4  -4 -11   96.62   11.27 
   4   4  12   25.39   11.15 
   4  -4  12   31.56   14.55 
   4   4  13  114.85   14.58 
   4  -4  13  118.73   19.79 
  -4  -4 -13   95.58   16.08 
  -4   4 -14   50.39   12.52 
   4  -4  14   26.64   16.90 
  -4  -4 -14   32.77   13.63 
  -4   4 -15  103.72   13.96 
   4  -4  15   76.01   18.68 
  -4  -4 -15   76.96   16.87 
  -4   4 -16  102.88   14.61 
   4  -4  16   96.39   18.49 
  -4  -4 -16   95.84   17.22 
   4   5 -16    4.65   11.31 
  -4   5  16   11.10   12.98 
  -4  -5  16    1.98   14.42 
   4  -5 -16   11.30   12.95 
  -4   5  15    5.12   12.69 
   4   5 -15    0.36    9.22 
  -4  -5  15   -1.44   14.17 
   4  -5 -15    2.89   11.52 
   4   5 -14   12.92    9.64 
  -4   5  14   15.62   12.22 
   4   5 -14   12.69   10.91 
   4  -5 -14   13.76   11.10 
  -4  -5  14    8.00   15.84 
   4   5 -13  217.31   15.78 
  -4   5  13  224.22   17.71 
   4   5 -13  224.41   16.29 
   4  -5 -13  285.04   19.55 
  -4  -5  13  293.87   24.37 
   4   5 -12   10.49    8.73 
  -4   5  12   14.34   11.16 
   4   5 -12   11.82    9.90 
   4  -5 -12   15.18   10.49 
  -4  -5  12   12.76   14.15 
   4   5 -11   49.33   10.63 
  -4   5  11   47.69   10.79 
   4   5 -11   49.85   11.21 
   4  -5 -11   67.24   12.44 
  -4  -5  11   76.57   14.84 
   4   5 -10   89.01   11.18 
  -4   5  10   90.59   13.59 
   4   5 -10   91.76   11.45 
   4  -5 -10   79.62   12.25 
  -4  -5  10   90.45   15.93 
   4   5  -9   57.87    9.59 
  -4   5   9   54.42   10.58 
   4   5  -9   50.30   10.44 
   4  -5  -9   51.66   10.30 
  -4  -5   9   49.59   13.17 
   4   5  -8  360.11   20.18 
  -4   5   8  359.12   20.85 
   4   5  -8  383.43   20.85 
   4  -5  -8  334.65   21.32 
  -4  -5   8  333.95   23.87 
  -4   5   7  389.78   20.66 
  -4   5   7  419.50   22.87 
   4   5  -7  414.11   21.36 
   4   5  -7  384.13   21.12 
  -4  -5   7  369.48   27.04 
   4  -5  -7  403.89   22.63 
   4   5  -6  150.56   13.12 
   4   5  -6  148.21   13.78 
  -4   5   6  150.45   14.05 
  -4   5   6  151.95   12.83 
  -4   5   6  145.68   12.69 
   4   5  -6  150.40   13.12 
   4   5  -6  159.04   14.07 
   4  -5  -6  147.21   13.83 
   4  -5  -6  153.21   11.76 
  -4  -5   6  153.07   16.87 
   4   5  -5  102.33   11.26 
   4   5  -5   95.12   11.66 
  -4   5   5  104.96   12.37 
  -4   5   5  100.19   10.73 
  -4   5   5   95.34   10.36 
   4   5  -5   99.88   10.88 
   4   5  -5   98.44   11.65 
   4  -5  -5  102.56   12.08 
   4  -5  -5  104.88   10.08 
  -4  -5   5  102.53   14.20 
   4   5  -4  172.65   14.34 
   4   5  -4  166.30   14.43 
  -4   5   4  172.78   14.87 
  -4   5   4  171.65   13.15 
   4   5  -4  172.27   14.55 
  -4   5   4  168.91   13.26 
  -4  -5   4  168.58   15.42 
   4  -5  -4  161.41   11.96 
   4  -5  -4  186.55   15.32 
  -4  -5   4  172.59   16.86 
  -4   5   3  157.94   12.45 
   4   5  -3  158.38   13.93 
  -4   5   3  156.18   13.56 
   4   5  -3  160.20   13.81 
   4   5  -3  163.44   13.60 
  -4   5   3  163.22   12.44 
   4   5  -3  162.04   13.80 
  -4  -5   3  246.69   18.05 
   4  -5  -3  244.45   17.02 
  -4  -5   3  231.22   18.66 
   4  -5  -3  223.32   14.06 
  -4   5   2  288.94   15.83 
   4   5  -2  293.83   19.22 
  -4   5   2  303.34   18.40 
   4   5  -2  294.13   18.11 
   4   5  -2  307.11   18.37 
  -4   5   2  291.53   16.43 
   4   5  -2  300.19   17.52 
  -4  -5   2  343.86   20.71 
   4  -5  -2  330.51   20.48 
  -4  -5   2  367.67   22.54 
   4  -5  -2  323.52   16.68 
   4   5  -1   50.23    9.70 
  -4   5   1   50.70    9.96 
   4   5  -1   50.66    8.88 
  -4   5   1   51.53    8.56 
   4   5  -1   53.41    9.25 
  -4   5   1   49.83    7.50 
   4   5  -1   54.21    9.53 
   4   5  -1   52.13    8.98 
  -4  -5   1   70.11   10.65 
   4  -5  -1   64.57    9.66 
   4  -5  -1   66.24    8.75 
   4   5   0  203.15   16.77 
   4   5   0  202.27   14.78 
  -4   5   0  211.06   15.52 
   4   5   0  213.36   15.75 
   4   5   0  219.43   15.09 
  -4   5   0  215.97   13.98 
   4  -5   0  189.43   12.75 
  -4  -5   0  199.96   16.24 
   4   5   1  120.55   13.62 
   4   5   1  122.78   11.57 
  -4   5  -1  125.74   13.57 
  -4   5  -1  124.09   11.48 
   4   5   1  118.82   11.40 
   4   5   1  118.25   12.45 
  -4  -5  -1  171.92   15.19 
  -4  -5  -1  166.99   14.68 
   4  -5   1  169.24   12.66 
   4   5   2  343.78   21.46 
   4   5   2  351.89   18.27 
  -4   5  -2  353.82   19.91 
  -4   5  -2  346.89   17.89 
   4   5   2  339.34   19.78 
  -4  -5  -2  434.30   23.05 
   4  -5   2  445.44   19.41 
  -4  -5  -2  423.76   22.77 
   4   5   3  133.67   13.92 
   4   5   3  129.24   11.99 
   4   5   3  129.15   11.61 
  -4   5  -3  127.19   11.75 
  -4  -5  -3   60.76   10.56 
   4   5   4  336.02   21.33 
  -4   5  -4  331.56   18.14 
   4   5   4  343.11   18.77 
   4   5   4  328.38   17.98 
  -4  -5  -4  327.93   20.34 
   4  -5   4  291.38   21.86 
  -4  -5  -4  321.14   20.82 
  -4   5  -5   62.67    9.81 
   4   5   5   59.48    9.05 
  -4  -5  -5   52.12    8.75 
  -4  -5  -5   55.37    9.99 
   4  -5   5   49.75   12.13 
  -4  -5  -5   59.77   12.03 
  -4   5  -6   26.22    8.74 
   4   5   6   27.63    7.61 
  -4  -5  -6   23.44    7.24 
  -4  -5  -6   22.33    7.96 
   4  -5   6   19.27   10.65 
  -4  -5  -6   22.24   10.71 
  -4   5  -7  256.72   16.95 
   4   5   7  255.91   16.73 
  -4  -5  -7  238.30   15.82 
  -4  -5  -7  238.97   16.98 
   4  -5   7  234.41   21.34 
  -4  -5  -7  233.24   18.31 
   4  -5   7  217.20   14.60 
  -4   5  -8  225.67   15.84 
   4   5   8  227.18   16.56 
  -4  -5  -8  235.85   15.86 
  -4  -5  -8  237.88   17.19 
   4  -5   8  237.56   19.99 
  -4  -5  -8  259.18   19.25 
  -4   5  -9   17.56    9.55 
   4   5   9   14.65    8.60 
   4  -5   9   40.19   12.78 
  -4  -5  -9   44.49   13.30 
  -4   5 -10   62.41   11.75 
   4   5  10   55.08   11.78 
   4  -5  10   69.26   16.63 
  -4  -5 -10   65.61   14.39 
  -4   5 -11   11.33   10.22 
   4  -5  11   15.52   14.56 
  -4  -5 -11   13.37   12.68 
  -4   5 -12   34.38   10.94 
   4  -5  12   42.56   18.53 
  -4  -5 -12   47.65   13.45 
  -4   5 -13  175.71   16.81 
   4  -5  13  209.35   21.24 
  -4  -5 -13  205.82   19.81 
   4  -5  14  113.34   20.41 
  -4  -5 -14  101.68   16.30 
   4  -5  15   51.52   19.25 
   4   6 -15   94.24   14.72 
  -4   6  15   93.33   15.49 
  -4  -6  15   82.48   18.08 
   4  -6 -15   80.25   15.86 
   4   6 -14  140.78   15.29 
  -4   6  14  136.65   17.00 
  -4  -6  14  122.63   19.01 
   4  -6 -14  120.03   16.36 
   4   6 -13    9.48   11.39 
  -4   6  13   15.56   12.63 
  -4  -6  13   12.05   14.15 
   4  -6 -13   13.67   12.67 
   4   6 -12  250.07   17.27 
  -4   6  12  240.78   17.81 
  -4  -6  12  265.81   23.18 
   4  -6 -12  257.81   19.72 
   4   6 -11  202.83   14.69 
  -4   6  11  204.66   16.99 
   4   6 -11  201.08   16.65 
   4  -6 -11  198.84   17.98 
  -4  -6  11  208.96   21.45 
   4   6 -10   -0.13    8.16 
  -4   6  10   -1.17   10.40 
   4   6 -10   -1.65    9.56 
   4  -6 -10   11.35   10.02 
  -4  -6  10   11.24   12.03 
   4   6  -9   50.12   10.32 
  -4   6   9   54.68   12.29 
   4   6  -9   51.26   11.08 
   4  -6  -9   67.70   11.75 
  -4  -6   9   60.92   14.05 
   4   6  -8   26.73    9.52 
  -4   6   8   30.95   10.76 
   4   6  -8   30.34    9.43 
   4  -6  -8   37.42    9.90 
  -4  -6   8   37.58   12.68 
   4   6  -7    4.34    8.31 
  -4   6   7    3.85    8.00 
   4   6  -7    5.24    8.94 
   4  -6  -7    9.02    8.90 
  -4  -6   7    6.72   11.37 
   4   6  -6   18.36    8.37 
  -4   6   6   20.40   10.22 
   4   6  -6   18.54    9.25 
   4  -6  -6   13.75    7.94 
  -4  -6   6   12.11    9.28 
   4   6  -5  173.98   15.78 
  -4   6   5  187.98   15.45 
   4   6  -5  182.71   16.26 
   4  -6  -5  214.36   16.47 
  -4  -6   5  198.07   17.75 
  -4   6   4  348.43   21.26 
   4   6  -4  335.88   21.02 
   4   6  -4  317.22   18.53 
   4   6  -4  334.29   19.85 
  -4  -6   4  298.29   22.09 
   4  -6  -4  297.90   19.96 
   4   6  -3  245.77   16.64 
   4   6  -3  241.93   17.56 
  -4   6   3  249.11   17.98 
  -4   6   3  248.80   16.17 
   4   6  -3  234.91   16.51 
  -4  -6   3  276.34   21.55 
   4  -6  -3  246.13   17.82 
   4  -6  -3  256.01   15.69 
  -4   6   2   43.06   10.88 
   4   6  -2   44.39    9.63 
  -4   6   2   47.41    8.37 
   4   6  -2   45.72    9.25 
   4   6  -2   46.75    8.87 
   4  -6  -2   42.90    7.84 
   4  -6  -2   40.28    8.88 
  -4   6   1  470.12   24.76 
   4   6  -1  467.22   24.24 
   4   6  -1  463.89   23.89 
  -4   6   1  469.33   22.36 
   4   6  -1  460.04   23.95 
   4   6  -1  459.68   22.64 
   4  -6  -1  456.50   21.86 
   4   6   0  464.70   23.75 
  -4   6   0  455.67   24.48 
   4   6   0  452.74   23.13 
  -4   6   0  451.68   21.54 
   4   6   0  459.72   23.54 
   4  -6   0  470.13   22.40 
   4   6   1  656.88   28.67 
  -4   6  -1  669.23   30.87 
  -4   6  -1  649.34   27.24 
  -4  -6  -1  693.34   31.75 
   4   6   2  193.45   14.67 
  -4   6  -2  194.40   16.12 
  -4   6  -2  200.63   14.11 
  -4  -6  -2  196.96   16.36 
  -4  -6  -2  215.08   17.54 
   4   6   3  162.73   13.53 
  -4   6  -3  166.63   15.70 
  -4   6  -3  171.22   13.35 
  -4  -6  -3  151.70   14.80 
  -4  -6  -3  152.09   14.78 
   4   6   4   51.86    9.31 
  -4   6  -4   51.56    9.40 
  -4  -6  -4   52.32   11.20 
   4   6   5   86.04   10.75 
  -4   6  -5   91.50   11.88 
  -4  -6  -5  134.20   14.84 
   4   6   6    9.63    8.01 
  -4   6  -6   13.64    9.24 
  -4  -6  -6   30.98   10.48 
  -4   6  -7   51.83   10.89 
  -4  -6  -7   34.39   11.37 
  -4   6  -8   14.12   10.27 
  -4  -6  -8   11.62   11.68 
  -4   6  -9   20.53   10.85 
  -4  -6  -9   35.53   12.66 
  -4   6 -10  124.85   14.13 
   4  -6  10   93.71   17.67 
  -4  -6 -10   95.37   15.02 
  -4   6 -11  209.06   16.77 
   4  -6  11  178.57   19.57 
  -4  -6 -11  188.42   19.65 
  -4   6 -12  110.12   14.98 
   4  -6  12  125.19   21.26 
  -4  -6 -12  119.00   17.45 
  -4   6 -13    8.68   13.42 
   4  -6  13   -2.33   16.66 
  -4  -6 -13    9.31   15.39 
   4   7 -13   44.11   13.33 
  -4   7  13   53.23   13.94 
  -4  -7  13   27.17   16.85 
   4  -7 -13   29.04   12.68 
   4   7 -12   67.30   14.41 
  -4   7  12   70.37   13.37 
  -4  -7  12   80.02   17.19 
   4  -7 -12   75.16   14.34 
   4   7 -11   26.89   10.59 
  -4   7  11   20.84   11.64 
  -4  -7  11   30.54   14.82 
   4  -7 -11   32.85   12.16 
   4   7 -10  132.13   14.19 
  -4   7  10  130.96   14.95 
  -4  -7  10  135.02   18.27 
   4  -7 -10  132.35   15.42 
   4   7  -9   64.48   11.94 
  -4   7   9   64.55   13.49 
  -4  -7   9   44.77   14.49 
   4  -7  -9   41.71   12.00 
   4   7  -8  135.89   13.23 
  -4   7   8  142.28   14.84 
  -4  -7   8  163.28   17.63 
   4  -7  -8  165.03   16.13 
   4   7  -7  201.57   15.97 
  -4   7   7  210.10   16.41 
  -4  -7   7  206.73   18.96 
   4  -7  -7  218.77   17.60 
   4   7  -6   40.28    9.77 
  -4   7   6   40.83   12.20 
   4   7  -6   39.39   10.04 
   4  -7  -6   48.22   11.40 
  -4  -7   6   42.75   13.03 
   4   7  -5   87.96   11.80 
  -4   7   5   85.61   12.36 
   4   7  -5   78.34   11.15 
   4  -7  -5   84.86   12.26 
  -4  -7   5   86.15   15.11 
  -4   7   4  174.99   16.55 
   4   7  -4  175.01   14.73 
   4   7  -4  164.92   13.71 
   4   7  -4  166.19   14.51 
   4  -7  -4  191.26   15.52 
  -4   7   3   32.03    9.96 
   4   7  -3   34.40    9.87 
   4   7  -3   27.21    9.53 
   4   7  -3   34.84   10.07 
   4  -7  -3   18.64    8.12 
  -4   7   2  196.97   16.16 
   4   7  -2  196.12   15.31 
   4   7  -2  188.74   14.81 
   4   7  -2  198.28   15.72 
  -4   7   1   45.05   11.03 
   4   7  -1   39.08    9.38 
  -4   7   1   41.88    8.44 
   4   7  -1   37.39    9.13 
   4   7  -1   44.47   10.67 
   4   7   0   79.63   10.95 
  -4   7   0   72.46   11.83 
  -4   7   0   80.17   10.58 
   4   7   0   70.25   10.04 
   4   7   0   83.01   11.93 
  -4   7  -1   51.41   11.58 
  -4   7  -1   59.79   10.39 
   4   7   1   54.34   10.83 
  -4   7  -2   76.45   12.57 
  -4   7  -2   78.54   10.39 
  -4  -7  -2   53.18   11.80 
  -4   7  -3   60.12   11.80 
  -4   7  -3   63.16   10.43 
  -4  -7  -3   51.92   12.21 
  -4   7  -4  329.57   20.65 
  -4   7  -4  320.61   17.82 
  -4  -7  -4  336.08   21.24 
  -4   7  -5    2.14    8.43 
   4  -7   5    2.99   11.87 
  -4  -7  -5    3.62   10.02 
  -4   7  -6   71.60   11.82 
   4  -7   6   63.59   15.72 
  -4  -7  -6   63.35   12.91 
  -4   7  -7  162.41   14.89 
   4  -7   7  163.73   18.54 
  -4  -7  -7  174.32   17.00 
  -4   7  -8   90.09   12.96 
   4  -7   8   72.27   17.17 
  -4  -7  -8   80.00   15.54 
  -4   7  -9   18.86   12.11 
  -4  -7  -9   13.56   11.81 
  -4   7 -10   21.54   12.13 
  -4  -7 -10   18.71   13.74 
  -4   7 -11   22.89   12.02 
  -4  -7 -11   26.45   13.62 
   4   8 -10  186.09   16.13 
  -4   8  10  187.70   17.37 
  -4  -8  10  141.43   18.85 
   4   8  -9  148.81   14.62 
  -4   8   9  150.92   15.28 
  -4  -8   9  125.73   18.93 
   4   8  -8   -1.22   10.00 
  -4   8   8    0.80   11.40 
  -4  -8   8    2.73   11.87 
   4   8  -7    7.42   10.17 
  -4   8   7    7.63   10.44 
  -4  -8   7    5.65   11.63 
   4   8  -6  206.02   16.07 
  -4   8   6  216.10   17.40 
  -4  -8   6  176.10   18.12 
  -4   8   5  177.24   15.88 
   4   8  -5  165.98   14.61 
  -4   8   4   47.49   13.40 
   4   8  -4   41.79   10.97 
  -4   8   3   72.44   13.44 
   4   8  -3   68.37   11.61 
  -4   8   2   35.56   11.48 
  -4   8   1  143.03   16.25 
  -4   8   0   78.21   13.17 
   4   8   0   73.58   12.28 
  -4   8  -1   80.81   13.77 
   4   8   1   86.78   12.99 
  -4   8  -2   51.88   13.65 
  -4   8  -2   46.52    9.60 
   4   8   2   52.07   10.87 
  -4   8  -3   77.04   14.35 
  -4   8  -3   87.07   11.30 
  -4  -8  -3   82.94   14.57 
  -4   8  -4   54.99   13.74 
  -4   8  -4   60.10   11.10 
  -4  -8  -4   37.83   11.84 
  -4   8  -5   78.23   14.30 
  -4   8  -5   70.65   12.20 
  -4  -8  -5   57.52   13.56 
  -4   8  -6   83.83   14.40 
  -4   8  -6   84.52   13.69 
  -4  -8  -6   55.91   13.28 
  -4   8  -7    6.60   11.15 
   4  -8   7    8.15   16.66 
  -4  -8  -7   15.39   12.85 
  -4   8  -8   14.18   10.86 
   4  -8   8   14.35   16.18 
  -4  -8  -8   12.26   11.76 
  -4   8  -9  123.29   15.32 
   4  -8   9  109.86   19.11 
  -4  -8  -9  103.51   16.09 
  -4   9   6    2.04   11.39 
  -4   9   5   20.52   12.70 
  -4   9   4   11.56   12.14 
  -4   9   3   50.40   12.61 
  -4   9   2   60.13   12.95 
  -4   9   1   65.79   14.69 
  -4   9   0   -1.40   11.42 
  -4   9  -1   35.84   13.59 
  -4   9  -2   18.21   12.65 
  -4   9  -3   53.03   14.55 
  -4   9  -4   -0.10   12.27 
  -5   0  19  243.10   22.74 
   5   0 -19  250.33   16.36 
   5   0 -19  250.54   19.28 
  -5   0  18   91.46   16.09 
   5   0 -18   98.20   11.87 
   5   0 -18   95.45   15.12 
   5   0 -17   20.62    9.67 
   5   0 -17   17.09   13.28 
   5   0 -16  135.93   13.46 
   5   0 -16  139.99   16.82 
   5   0 -15   23.31    9.45 
   5   0 -15   28.94   10.78 
   5   0 -14  373.14   18.15 
   5   0 -14  372.26   20.87 
   5   0 -13  235.33   14.88 
   5   0 -13  236.81   17.23 
   5   0 -12    4.77    6.14 
   5   0 -12    2.24    8.57 
  -5   0  11  248.28   18.27 
   5   0 -11  253.58   17.55 
   5   0 -11  245.87   16.50 
  -5   0  10   89.57   11.37 
   5   0 -10   99.13   11.84 
   5   0 -10   97.89   11.82 
  -5   0   9  254.79   18.69 
   5   0  -9  291.67   18.02 
  -5   0   9  278.04   19.46 
   5   0  -9  287.73   18.90 
   5   0  -9  277.95   17.19 
  -5   0   9  280.50   17.02 
  -5   0   8  320.90   20.10 
   5   0  -8  320.62   18.26 
  -5   0   8  314.33   23.44 
   5   0  -8  323.82   19.40 
   5   0  -8  308.79   21.68 
  -5   0   8  331.15   18.41 
  -5   0   7   72.32   10.79 
   5   0  -7   63.70    9.64 
  -5   0   7   65.89   10.63 
   5   0  -7   67.85    9.98 
   5   0  -7   64.42    9.30 
  -5   0   7   64.78    9.62 
  -5   0   6  482.42   33.74 
   5   0  -6  474.28   30.40 
  -5   0   6  483.66   33.93 
   5   0  -6  478.52   33.25 
  -5   0   6  473.73   30.27 
  -5   0   5  641.32   27.42 
   5   0  -5  632.96   25.93 
  -5   0   5  645.40   28.69 
   5   0  -5  617.04   26.15 
  -5   0   5  649.49   26.31 
  -5   0   4 2801.59   70.82 
   5   0  -4 2769.85   68.62 
  -5   0   4 2947.60   75.51 
   5   0  -4 2620.13   66.45 
  -5   0   4 2677.57   73.26 
  -5   0   3  171.95   13.80 
   5   0  -3  172.46   14.14 
  -5   0   3  144.79   14.15 
  -5   0   3  171.63   14.03 
  -5   0   2  107.34   10.85 
   5   0  -2  108.30   11.08 
  -5   0   2  106.00   11.21 
  -5   0   2  106.81   11.22 
  -5   0   1  202.56   15.43 
   5   0  -1  207.03   15.88 
  -5   0   1  199.51   15.45 
   5   0  -1  208.86   15.47 
   5   0  -1  225.99   17.17 
   5   0  -1  178.11   14.47 
  -5   0   0 3540.15  104.54 
  -5   0   0 3683.80  101.76 
  -5   0   0 3283.33  110.99 
   5   0   0 3471.60   94.70 
   5   0   0 3737.54  103.80 
   5   0   0 3615.58  101.05 
   5   0   1  281.66   21.24 
  -5   0  -1  267.65   20.98 
  -5   0  -1  273.65   18.13 
   5   0   1  267.93   17.32 
  -5   0  -1  274.37   19.52 
   5   0   1  267.97   19.22 
   5   0   2 2766.47   78.11 
  -5   0  -2 2663.83   83.27 
   5   0   2 2711.01   66.38 
  -5   0  -2 2682.85   72.50 
   5   0   2 2643.23   74.20 
   5   0   3 1412.45   51.03 
  -5   0  -3 1368.62   47.13 
   5   0   3 1343.97   39.61 
  -5   0  -3 1371.51   47.15 
   5   0   3 1360.52   46.58 
   5   0   4  414.89   31.10 
  -5   0  -4  405.87   28.84 
  -5   0  -4  364.07   24.79 
   5   0   4  420.30   26.75 
  -5   0  -4  404.50   28.93 
   5   0   4  403.81   27.50 
   5   0   5   30.92    8.50 
  -5   0  -5   33.09    7.98 
  -5   0  -5   35.58    7.68 
   5   0   5   32.50    6.82 
  -5   0  -5   34.77    8.36 
   5   0   5   37.26    8.14 
   5   0   6   98.55   13.20 
  -5   0  -6   99.51   12.01 
  -5   0  -6   96.88   10.40 
   5   0   6   99.77   10.26 
  -5   0  -6   97.91   11.91 
   5   0   6  100.56   11.43 
   5   0   7  430.51   26.14 
  -5   0  -7  431.84   24.16 
  -5   0  -7  424.98   21.94 
   5   0   7  424.65   20.19 
  -5   0  -7  432.16   24.23 
   5   0   7  412.41   21.69 
   5   0   8    1.68    6.88 
  -5   0  -8    5.39    7.05 
  -5   0  -8    3.86    6.35 
   5   0   8    1.81    5.60 
  -5   0  -8    1.81    6.11 
   5   0   8    5.03    6.32 
   5   0   9   62.20   12.29 
  -5   0  -9   68.19   10.52 
  -5   0  -9   67.49    9.82 
   5   0   9   65.59    8.77 
  -5   0  -9   70.16   10.79 
   5   0  10   70.80   13.84 
  -5   0 -10   74.57    9.98 
  -5   0 -10   67.41   12.47 
   5   0  11    7.97    9.57 
  -5   0 -11   12.06    8.87 
  -5   0 -11    9.71   10.35 
   5   0  12  168.13   17.37 
  -5   0 -12  170.11   14.52 
  -5   0 -12  170.00   16.92 
   5   0  13   13.01   12.97 
  -5   0 -13   15.22    9.51 
  -5   0 -13   16.78   11.61 
   5   0  14   10.02   12.75 
  -5   0 -14    9.03    9.91 
  -5   0 -14   15.56   10.89 
   5   0  15   24.13   12.84 
  -5   0 -15   18.29   10.04 
  -5   0 -15   27.43   13.00 
   5   0  16   53.31   15.78 
  -5   0 -16   55.15   12.16 
  -5   0 -16   55.56   14.83 
   5   0  17  249.53   22.22 
  -5   0 -17  253.12   17.80 
  -5   0 -17  250.54   21.44 
  -5   1  19   41.50   15.34 
   5   1 -19   50.20   11.36 
   5   1 -19   45.35   14.36 
   5  -1 -19   50.12   15.04 
  -5   1  18   44.97   16.42 
   5   1 -18   39.75   10.67 
   5   1 -18   33.16   13.61 
   5  -1 -18   32.62    9.76 
   5  -1 -18   34.42   13.79 
  -5   1  17  104.98   15.90 
   5   1 -17  101.46   12.20 
   5   1 -17  109.33   15.28 
   5  -1 -17   88.91   11.31 
   5  -1 -17   95.75   15.37 
  -5   1  16  154.57   17.55 
   5   1 -16  157.87   13.50 
   5   1 -16  168.89   16.36 
  -5  -1  16  156.41   18.87 
   5  -1 -16  172.64   13.56 
   5  -1 -16  189.36   17.90 
  -5   1  15  182.37   17.59 
   5   1 -15  190.92   15.42 
   5   1 -15  199.93   17.26 
  -5  -1  15  209.99   19.42 
   5  -1 -15  219.36   14.94 
   5  -1 -15  230.91   18.69 
  -5   1  14   -1.36   10.37 
   5   1 -14    3.00    7.46 
   5   1 -14    5.77    9.92 
  -5  -1  14    1.88    9.90 
   5  -1 -14   -0.71    7.51 
   5  -1 -14    0.30    8.44 
   5   1 -13  100.71   13.79 
  -5   1  13   98.18   13.68 
   5   1 -13  101.43   11.69 
  -5  -1  13  109.76   16.27 
   5  -1 -13  110.05   12.07 
   5  -1 -13   93.46   12.88 
   5  -1 -13  104.81   12.88 
  -5   1  12  225.27   17.52 
   5   1 -12  245.63   15.86 
   5   1 -12  260.44   17.96 
  -5  -1  12  252.51   19.51 
   5  -1 -12  248.16   16.52 
   5  -1 -12  265.89   16.54 
   5   1 -11  439.68   21.88 
  -5   1  11  406.27   22.72 
  -5  -1  11  471.73   25.42 
   5  -1 -11  467.96   23.29 
  -5  -1  11  472.41   25.18 
  -5   1  10  254.73   17.31 
   5   1 -10  251.09   16.04 
   5   1 -10  241.10   16.91 
  -5  -1  10  176.63   16.66 
   5  -1 -10  189.22   14.49 
  -5  -1  10  197.80   16.49 
  -5   1   9    5.49    6.67 
   5   1  -9    7.29    6.48 
  -5   1   9    5.77    5.87 
   5   1  -9    6.77    5.90 
   5   1  -9    6.00    6.72 
   5  -1  -9   -0.81    5.82 
   5  -1  -9    3.17    5.88 
  -5  -1   9    0.98    5.63 
  -5  -1   9    4.08    6.60 
  -5   1   8  286.13   20.37 
   5   1  -8  282.37   18.88 
  -5   1   8  291.80   18.99 
   5   1  -8  289.94   19.18 
   5   1  -8  295.70   21.99 
   5  -1  -8  297.07   21.24 
   5  -1  -8  302.19   21.94 
  -5  -1   8  297.79   23.02 
  -5  -1   8  295.82   23.22 
  -5   1   7  326.70   20.90 
   5   1  -7  320.67   19.52 
  -5   1   7  312.45   18.75 
   5   1  -7  333.53   19.56 
   5   1  -7  335.62   21.09 
   5  -1  -7  219.29   18.48 
   5  -1  -7  218.95   18.77 
  -5  -1   7  226.53   20.03 
  -5  -1   7  212.61   19.96 
  -5  -1   7  209.90   18.04 
  -5   1   6  512.33   27.37 
   5   1  -6  506.33   25.99 
  -5   1   6  496.78   24.68 
   5   1  -6  524.31   26.22 
   5  -1  -6  618.87   29.37 
   5  -1  -6  603.87   29.05 
   5  -1  -6  604.26   29.22 
  -5  -1   6  634.57   31.87 
  -5  -1   6  592.21   31.47 
  -5  -1   6  590.83   27.96 
  -5   1   5  166.05   15.81 
   5   1  -5  160.73   14.69 
  -5   1   5  169.64   14.89 
   5   1  -5  171.99   15.02 
   5  -1  -5  159.97   14.60 
   5  -1  -5  160.80   14.48 
   5  -1  -5  163.06   14.66 
  -5  -1   5  157.59   15.59 
  -5  -1   5  157.86   15.86 
  -5  -1   5  165.61   14.73 
   5   1  -4  239.08   18.88 
   5   1  -4  242.84   18.89 
  -5   1   4  206.19   17.04 
   5   1  -4  226.79   18.67 
  -5   1   4  229.76   19.13 
  -5   1   4  248.53   18.96 
   5  -1  -4  264.68   20.33 
   5  -1  -4  254.99   19.61 
  -5  -1   4  266.68   21.30 
  -5  -1   4  267.17   21.44 
   5  -1  -4  263.84   19.73 
  -5  -1   4  248.59   19.36 
   5   1  -3  479.58   25.91 
   5   1  -3  486.99   26.77 
  -5   1   3  435.80   31.50 
   5   1  -3  514.91   27.41 
  -5   1   3  498.26   27.18 
  -5   1   3  505.75   26.42 
   5  -1  -3  515.88   27.45 
   5  -1  -3  503.18   22.83 
  -5  -1   3  484.54   27.52 
  -5  -1   3  499.28   27.94 
   5  -1  -3  519.28   26.93 
  -5  -1   3  526.54   23.78 
  -5   1   2  151.24   13.06 
   5   1  -2  144.21   12.60 
  -5   1   2  145.05   13.00 
   5   1  -2  147.68   12.94 
  -5   1   2  145.94   13.21 
   5   1  -2  151.13   13.44 
   5  -1  -2  117.79   11.93 
   5  -1  -2  114.96   11.17 
  -5  -1   2  121.09   12.40 
  -5  -1   2  121.78   12.19 
   5  -1  -2  119.44   11.37 
  -5  -1   2  116.39   11.69 
   5   1  -1 2349.86   69.23 
  -5   1   1 2315.71   70.00 
   5   1  -1 2289.41   68.92 
   5   1  -1 2213.03   70.47 
  -5   1   1 2309.60   68.88 
  -5   1   1 2293.12   71.27 
   5  -1  -1 2395.29   78.71 
   5  -1  -1 2219.00   79.64 
  -5  -1   1 2404.47   71.04 
  -5   1   0  504.65   30.20 
  -5   1   0  526.59   27.61 
   5   1   0  528.07   27.32 
  -5   1   0  504.68   27.66 
  -5  -1   0  644.57   32.09 
  -5  -1   0  589.73   33.82 
  -5  -1   0  589.50   31.32 
   5  -1   0  585.68   31.18 
   5  -1   0  589.67   30.35 
   5   1   1  422.25   23.34 
  -5   1  -1  452.64   28.45 
  -5   1  -1  425.17   23.60 
  -5  -1  -1  403.90   25.73 
   5  -1   1  405.27   26.53 
  -5  -1  -1  420.17   24.87 
   5  -1   1  392.04   21.69 
  -5  -1  -1  413.15   25.07 
   5  -1   1  408.74   24.70 
   5  -1   1  390.03   23.06 
  -5   1  -2  235.68   19.64 
   5   1   2  229.34   21.27 
  -5   1  -2  238.32   21.29 
   5   1   2  236.87   18.20 
  -5   1  -2  235.36   18.35 
  -5  -1  -2  279.88   22.26 
   5  -1   2  274.43   23.39 
   5  -1   2  287.55   20.32 
  -5  -1  -2  289.65   21.72 
  -5  -1  -2  289.44   22.91 
   5  -1   2  278.45   21.69 
  -5   1  -3  113.87   14.02 
   5   1   3  119.84   14.16 
   5  -1   3   50.08   10.08 
  -5  -1  -3   48.74    8.78 
  -5  -1  -3   49.93    8.06 
   5  -1   3   52.74    8.01 
  -5  -1  -3   49.56    8.66 
   5  -1   3   46.29    8.26 
   5   1   4  889.79   39.06 
   5   1   4  942.03   44.61 
  -5   1  -4  960.06   43.98 
   5   1   4  941.36   37.78 
  -5   1  -4  942.77   41.81 
  -5  -1  -4 1055.21   45.93 
   5  -1   4 1067.90   41.38 
  -5  -1  -4 1095.55   46.91 
  -5  -1  -4 1133.97   45.26 
   5  -1   4 1109.31   50.05 
   5  -1   4 1106.81   44.83 
   5   1   5  343.01   20.67 
   5   1   5  354.78   23.44 
  -5   1  -5  360.41   22.97 
   5   1   5  328.28   18.58 
  -5   1  -5  362.23   22.76 
  -5  -1  -5  287.06   23.43 
   5  -1   5  260.05   19.72 
  -5  -1  -5  281.59   23.57 
  -5  -1  -5  274.59   21.80 
   5  -1   5  277.09   25.01 
   5  -1   5  277.60   21.95 
   5   1   6   47.94    8.85 
   5   1   6   46.80    9.89 
  -5   1  -6   49.73    9.72 
   5   1   6   46.85    7.65 
  -5   1  -6   48.72    9.21 
  -5  -1  -6   69.85    9.89 
   5  -1   6   66.34    8.63 
  -5  -1  -6   70.37   10.72 
  -5  -1  -6   68.11    9.59 
   5  -1   6   62.46   10.70 
   5  -1   6   67.87    9.57 
  -5   1  -7    2.28    5.96 
   5   1   7    2.26    7.03 
  -5   1  -7    3.33    6.17 
  -5   1  -7    3.08    6.12 
   5   1   7    1.13    4.82 
   5   1   7    1.54    5.55 
  -5  -1  -7    5.76    6.33 
   5  -1   7    5.34    5.07 
  -5  -1  -7    6.15    6.04 
   5  -1   7    5.66    7.17 
  -5  -1  -7    2.80    6.49 
   5  -1   7    6.96    6.22 
  -5   1  -8   31.20    9.06 
   5   1   8   29.73    8.83 
  -5   1  -8   30.16    8.14 
  -5   1  -8   31.07    7.70 
   5   1   8   32.40    7.09 
  -5  -1  -8   18.05    7.57 
   5  -1   8   11.95    9.55 
  -5  -1  -8   16.78    7.91 
  -5  -1  -8   17.34    6.52 
   5  -1   8   15.60    6.31 
  -5   1  -9  460.43   21.63 
   5   1   9  455.33   26.01 
  -5   1  -9  472.18   24.67 
   5   1   9  491.38   20.53 
  -5  -1  -9  487.85   23.47 
   5  -1   9  471.46   27.54 
  -5  -1  -9  488.06   25.27 
  -5  -1  -9  463.10   22.06 
   5  -1   9  478.48   22.26 
   5   1  10  240.93   14.29 
   5   1  10  217.78   18.53 
  -5   1 -10  207.20   16.53 
  -5   1 -10  235.49   15.82 
   5  -1  10  330.98   24.21 
  -5  -1 -10  322.09   22.15 
  -5  -1 -10  324.65   19.14 
   5   1  11  347.71   23.22 
  -5   1 -11  357.79   20.29 
  -5   1 -11  349.27   22.19 
   5  -1  11  304.52   22.96 
  -5  -1 -11  331.09   19.78 
  -5  -1 -11  332.38   22.43 
   5   1  12   69.77   13.09 
  -5   1 -12   69.57   11.54 
  -5   1 -12   77.44   13.43 
   5  -1  12   65.35   14.13 
  -5  -1 -12   59.91   10.15 
  -5  -1 -12   62.92   13.04 
   5   1  13   60.01   14.53 
  -5   1 -13   59.35   10.97 
  -5   1 -13   61.59   13.39 
   5  -1  13   61.32   14.13 
  -5  -1 -13   64.26   10.45 
  -5  -1 -13   70.92   13.64 
   5   1  14   21.62   12.17 
  -5   1 -14   27.29   11.26 
  -5   1 -14   24.56   10.96 
   5  -1  14   40.06   14.29 
  -5  -1 -14   40.67   10.45 
  -5  -1 -14   37.47   13.00 
   5   1  15   78.41   15.38 
  -5   1 -15   79.57   12.22 
  -5   1 -15   84.27   15.48 
   5  -1  15   56.55   15.14 
  -5  -1 -15   63.98   11.15 
  -5  -1 -15   54.86   15.18 
   5   1  16   18.53   13.44 
  -5   1 -16   20.02   11.96 
  -5   1 -16   20.26   12.23 
   5  -1  16    8.94   15.37 
  -5  -1 -16   13.29    9.59 
  -5  -1 -16   13.06   12.89 
   5   1  17   12.19   15.83 
  -5   1 -17   19.63   11.71 
  -5   1 -17   14.29   14.36 
   5  -1  17    9.00   15.05 
  -5  -1 -17   18.38    9.92 
  -5  -1 -17   13.31   13.86 
   5   2 -18   97.70   12.97 
  -5   2  18  102.29   17.28 
   5   2 -18  101.85   14.86 
  -5  -2  18   91.69   17.45 
   5   2 -17   75.75   12.11 
  -5   2  17   68.39   15.39 
   5   2 -17   76.03   13.88 
  -5  -2  17   76.59   17.42 
   5   2 -16    5.40   11.43 
  -5   2  16    2.13   11.55 
   5   2 -16    3.34    9.75 
   5  -2 -16    5.76    7.57 
  -5  -2  16    6.07   13.03 
   5   2 -15  257.71   19.10 
  -5   2  15  251.57   20.15 
   5   2 -15  261.07   17.38 
   5  -2 -15  240.70   15.03 
  -5  -2  15  235.14   20.57 
   5   2 -14  645.13   26.01 
  -5   2  14  657.64   28.14 
   5   2 -14  620.80   23.75 
   5  -2 -14  607.68   22.76 
  -5  -2  14  617.54   29.18 
   5   2 -13   93.81   12.94 
  -5   2  13   97.10   14.95 
   5   2 -13   87.23   13.07 
   5  -2 -13   61.08    9.30 
  -5  -2  13   61.79   13.48 
   5  -2 -13   50.96   11.28 
   5  -2 -13   54.47    9.37 
   5   2 -12  206.74   15.48 
  -5   2  12  195.63   15.74 
   5   2 -12  198.94   14.58 
  -5  -2  12  189.88   17.69 
   5  -2 -12  200.30   13.85 
   5  -2 -12  193.06   15.91 
   5  -2 -12  195.78   14.78 
   5   2 -11   63.98   10.60 
  -5   2  11   61.53   10.78 
  -5   2  11   62.52   10.45 
  -5  -2  11   69.14   13.13 
   5  -2 -11   69.51    9.55 
   5  -2 -11   67.38   10.87 
  -5  -2  11   74.14   11.93 
   5   2 -10  266.19   16.33 
  -5   2  10  263.29   17.16 
  -5   2  10  250.44   17.48 
  -5  -2  10  187.22   16.83 
   5  -2 -10  188.54   14.09 
   5  -2 -10  184.56   14.80 
  -5  -2  10  190.37   16.29 
  -5   2   9  236.80   16.16 
   5   2  -9  231.58   15.50 
  -5   2   9  242.96   16.85 
   5   2  -9  239.82   15.61 
  -5  -2   9  347.94   22.20 
   5  -2  -9  359.95   22.45 
  -5   2   8  208.73   16.77 
   5   2  -8  209.76   17.65 
  -5   2   8  215.35   17.51 
  -5   2   8  204.08   17.45 
   5   2  -8  207.78   16.66 
   5  -2  -8  234.24   18.05 
   5  -2  -8  248.19   15.44 
   5  -2  -8  257.20   17.69 
  -5  -2   8  252.24   18.73 
  -5  -2   8  246.39   18.39 
  -5  -2   8  256.89   16.69 
   5   2  -7  118.60   11.83 
   5   2  -7  116.04   12.07 
  -5   2   7  112.77   11.79 
  -5   2   7  110.10   12.09 
  -5   2   7  115.88   11.67 
   5  -2  -7  178.08   14.87 
   5  -2  -7  181.31   14.77 
   5  -2  -7  170.69   14.63 
  -5  -2   7  177.22   16.33 
  -5  -2   7  169.83   16.61 
  -5  -2   7  172.02   14.36 
   5   2  -6  279.35   21.94 
   5   2  -6  260.04   21.95 
   5   2  -6  280.95   22.76 
  -5   2   6  281.00   22.99 
  -5   2   6  269.82   20.99 
  -5  -2   6  272.45   23.10 
   5  -2  -6  269.74   21.45 
   5  -2  -6  279.14   22.19 
   5  -2  -6  275.80   21.69 
  -5  -2   6  258.14   23.04 
  -5  -2   6  268.48   21.55 
   5   2  -5 1195.31   46.88 
   5   2  -5 1108.35   54.89 
   5   2  -5 1227.07   48.79 
  -5   2   5 1145.32   46.51 
  -5   2   5 1179.95   45.71 
  -5  -2   5 1211.15   49.57 
   5  -2  -5 1302.59   50.30 
   5  -2  -5 1306.08   51.20 
   5  -2  -5 1303.27   50.55 
  -5  -2   5 1316.56   55.84 
   5   2  -4 1249.23   40.49 
   5   2  -4 1255.30   43.14 
   5   2  -4 1261.02   41.58 
  -5   2   4 1196.55   39.58 
  -5   2   4 1239.18   38.60 
  -5  -2   4 1068.15   38.32 
   5  -2  -4 1139.90   37.90 
   5  -2  -4 1130.94   40.92 
   5  -2  -4 1143.80   36.96 
  -5  -2   4 1211.39   44.87 
  -5   2   3 1496.45   45.17 
   5   2  -3 1550.72   47.10 
   5   2  -3 1588.16   47.80 
   5   2  -3 1521.62   46.47 
  -5   2   3 1491.28   47.52 
   5  -2  -3 1660.50   49.20 
   5  -2  -3 1632.97   50.23 
   5  -2  -3 1607.29   46.14 
  -5  -2   3 1658.27   55.53 
   5   2  -2  228.71   18.75 
   5   2  -2  220.62   17.94 
   5   2  -2  215.61   18.30 
   5   2  -2  212.64   17.87 
  -5   2   2  226.93   18.30 
  -5   2   2  188.68   16.08 
   5  -2  -2  202.42   16.37 
   5  -2  -2  203.94   16.73 
   5  -2  -2  206.76   17.70 
  -5  -2   2  211.10   19.16 
  -5   2   1   56.04    9.85 
   5   2  -1   64.62    9.38 
   5   2  -1   65.72    9.58 
   5   2  -1   69.03    9.89 
   5   2  -1   66.12    9.44 
  -5   2   1   65.56    9.16 
  -5   2   1   63.88    8.95 
   5  -2  -1   67.04    8.85 
   5  -2  -1   66.39    8.71 
  -5  -2   1   63.00    9.56 
  -5  -2   1   66.30   11.75 
  -5   2   0 2738.89   78.84 
  -5   2   0 2779.11   70.59 
   5   2   0 2800.08   70.41 
   5   2   0 2855.47   74.34 
   5  -2   0 2831.26   70.53 
  -5  -2   0 2749.62   74.86 
   5  -2   0 2735.65   73.02 
  -5  -2   0 2719.33   74.33 
   5  -2   0 2727.63   68.52 
  -5   2  -1 1862.43   52.99 
  -5   2  -1 1863.54   59.73 
   5   2   1 1848.54   53.00 
   5   2   1 1872.09   54.16 
  -5  -2  -1 1782.90   54.06 
   5  -2   1 1815.14   60.70 
  -5  -2  -1 1765.13   54.71 
   5  -2   1 1738.99   48.59 
   5  -2   1 1722.98   51.79 
   5  -2   1 1899.38   53.48 
   5   2   2  963.76   35.58 
  -5   2  -2  992.87   39.97 
   5   2   2  979.55   39.91 
   5   2   2  980.89   33.61 
  -5   2  -2  988.52   33.87 
  -5  -2  -2 1005.33   41.04 
   5  -2   2 1055.59   41.64 
  -5  -2  -2 1111.35   39.94 
  -5  -2  -2 1069.50   37.48 
   5  -2   2 1054.51   37.07 
   5  -2   2  992.29   35.47 
   5   2   3  159.71   16.06 
  -5   2  -3  168.51   17.68 
   5   2   3  160.72   16.53 
  -5   2  -3  166.13   16.41 
  -5   2  -3  163.65   14.86 
   5   2   3  157.44   14.47 
  -5  -2  -3   92.83   11.26 
  -5  -2  -3   92.06   10.87 
  -5  -2  -3   95.57   12.59 
   5  -2   3   98.73   14.05 
   5  -2   3   89.78   10.85 
  -5   2  -4    0.44    4.70 
  -5   2  -4    0.38    6.86 
   5   2   4    1.00    5.14 
   5   2   4    0.63    4.60 
  -5   2  -4    1.05    5.25 
   5   2   4    0.54    5.95 
  -5  -2  -4    1.13    3.79 
   5  -2   4    0.18    4.38 
   5  -2   4    0.34    6.96 
  -5  -2  -4    0.85    6.36 
  -5  -2  -4   -1.25    4.97 
   5  -2   4    1.87    4.32 
  -5   2  -5  654.76   29.56 
  -5   2  -5  674.53   31.62 
   5   2   5  648.26   30.65 
   5   2   5  666.42   26.29 
  -5   2  -5  665.23   27.19 
  -5  -2  -5  696.08   28.43 
  -5  -2  -5  718.97   29.60 
   5  -2   5  724.00   26.96 
  -5  -2  -5  720.33   31.92 
   5  -2   5  749.20   35.27 
   5  -2   5  737.33   29.52 
  -5   2  -6   47.67    9.16 
  -5   2  -6   43.89    8.84 
   5   2   6   41.93    9.41 
  -5   2  -6   41.53    7.92 
   5   2   6   43.74    7.57 
  -5  -2  -6   22.36    6.20 
  -5  -2  -6   19.35    6.77 
   5  -2   6   20.11    6.39 
  -5  -2  -6   20.61    8.09 
   5  -2   6   18.42    9.36 
   5  -2   6   20.58    6.78 
   5   2   7   78.43   11.64 
  -5   2  -7   85.38   11.80 
  -5   2  -7   78.29   10.79 
   5   2   7   81.67    9.13 
   5  -2   7  111.46   14.85 
  -5  -2  -7  110.18   11.35 
  -5  -2  -7  108.14   13.11 
  -5  -2  -7  113.86   11.04 
   5  -2   7  105.13   10.96 
   5   2   8   80.19    8.92 
   5   2   8   83.91   12.18 
  -5   2  -8   82.99   11.64 
  -5  -2  -8   77.59   10.26 
   5  -2   8   72.31   12.52 
  -5  -2  -8   75.75   11.75 
  -5  -2  -8   75.40    9.76 
   5  -2   8   79.53    9.33 
  -5   2  -9  171.26   14.19 
   5   2   9  180.05   16.53 
  -5   2  -9  173.32   15.53 
   5   2   9  181.18   12.40 
  -5  -2  -9  167.39   13.30 
   5  -2   9  168.86   17.33 
  -5  -2  -9  162.74   15.31 
  -5  -2  -9  165.85   13.48 
   5  -2   9  170.35   12.84 
  -5   2 -10  127.14   12.67 
   5   2  10  124.41   13.91 
  -5   2 -10  126.76   14.53 
   5   2  10  130.94   11.01 
  -5  -2 -10  105.82   11.52 
   5  -2  10  108.05   15.91 
  -5  -2 -10  109.49   13.67 
  -5  -2 -10  103.84   11.84 
   5  -2  10   99.43   11.04 
   5   2  11  230.85   18.22 
  -5   2 -11  227.67   16.04 
  -5   2 -11  226.05   17.26 
   5  -2  11  208.04   19.79 
  -5  -2 -11  201.46   15.16 
  -5  -2 -11  200.70   17.35 
   5   2  12   80.09   14.13 
  -5   2 -12   74.38   10.98 
  -5   2 -12   72.45   13.02 
   5  -2  12   72.87   15.05 
  -5  -2 -12   73.38   11.10 
  -5  -2 -12   72.40   12.75 
   5   2  13   27.68   12.53 
  -5   2 -13   29.94    9.93 
  -5   2 -13   24.79   10.87 
   5  -2  13   21.43   13.31 
  -5  -2 -13   22.94    9.70 
  -5  -2 -13   20.98   12.62 
   5   2  14   63.82   14.95 
  -5   2 -14   62.46   11.92 
  -5   2 -14   58.87   13.66 
   5  -2  14   61.29   14.95 
  -5  -2 -14   60.71   10.79 
  -5  -2 -14   72.08   14.67 
   5   2  15   41.88   13.22 
  -5   2 -15   48.25   11.14 
  -5   2 -15   43.44   13.58 
   5  -2  15   42.69   14.73 
  -5  -2 -15   39.81   10.92 
  -5  -2 -15   37.44   14.04 
  -5   2 -16   67.89   13.33 
   5   2  16   57.43   15.45 
   5  -2  16   48.52   16.98 
  -5  -2 -16   53.33   14.42 
  -5   2 -17    3.22   12.27 
   5  -2  17   -3.59   15.07 
  -5  -2 -17    8.77   14.75 
   5   3 -18   10.94   12.78 
  -5   3  18    7.29   13.77 
   5   3 -18   12.25   11.44 
   5  -3 -18   15.65   14.86 
  -5  -3  18    7.57   15.27 
   5   3 -17   68.37   13.61 
  -5   3  17   66.73   16.46 
   5   3 -17   61.64   12.07 
   5  -3 -17   57.65   14.80 
  -5  -3  17   55.55   16.96 
   5   3 -16   11.40   10.33 
  -5   3  16   12.11   12.13 
   5   3 -16    9.79    9.99 
   5  -3 -16   13.90   13.29 
  -5  -3  16   10.11   13.77 
   5   3 -15   19.30   12.00 
  -5   3  15   25.14   12.69 
   5   3 -15   24.13    9.68 
   5  -3 -15   21.29   13.10 
  -5  -3  15   19.86   13.97 
  -5   3  14   10.79   12.30 
   5   3 -14   16.27   10.18 
   5   3 -14   14.65    9.29 
  -5  -3  14   12.51   12.31 
   5  -3 -14   16.43    7.05 
   5  -3 -14   17.41   12.68 
  -5   3  13   17.90   10.63 
   5   3 -13   13.60    8.93 
   5   3 -13   13.75    8.69 
  -5  -3  13   19.42   12.35 
   5  -3 -13   21.28    7.14 
   5  -3 -13   22.11   11.49 
   5   3 -12   19.07    9.85 
  -5   3  12   14.51    9.33 
   5   3 -12   12.56    8.83 
   5  -3 -12   42.22    7.95 
  -5  -3  12   35.19   12.91 
   5  -3 -12   35.79   11.99 
   5  -3 -12   40.41    8.22 
   5   3 -11  594.96   26.39 
  -5   3  11  625.45   28.73 
   5  -3 -11  551.92   25.21 
   5  -3 -11  590.93   28.71 
  -5  -3  11  537.03   30.27 
   5   3 -10  274.25   17.27 
  -5   3  10  289.71   18.82 
  -5   3  10  280.62   18.88 
  -5  -3  10  267.20   21.24 
   5  -3 -10  272.77   16.91 
   5  -3 -10  297.29   20.08 
  -5  -3  10  266.10   20.66 
   5   3  -9   87.54   11.16 
  -5   3   9  100.56   11.50 
  -5   3   9   97.99   11.66 
  -5  -3   9   90.45   13.16 
   5  -3  -9   91.03   10.27 
   5  -3  -9   87.60   11.95 
  -5  -3   9   99.70   13.57 
  -5   3   8  217.57   15.47 
   5   3  -8  226.12   15.99 
  -5   3   8  230.52   15.17 
  -5   3   8  217.66   14.60 
   5   3  -8  231.88   16.09 
   5  -3  -8  254.44   15.25 
   5  -3  -8  253.55   17.64 
  -5  -3   8  243.27   17.79 
  -5  -3   8  250.65   19.78 
  -5   3   7 1049.34   37.65 
   5   3  -7 1054.68   37.30 
  -5   3   7 1039.92   35.29 
  -5   3   7 1041.87   34.72 
   5   3  -7 1063.50   36.01 
   5  -3  -7 1011.50   33.93 
   5  -3  -7 1006.35   38.61 
  -5  -3   7 1021.65   38.46 
  -5  -3   7 1073.01   43.33 
  -5  -3   7 1043.69   35.04 
   5   3  -6  244.05   15.46 
   5   3  -6  237.27   19.39 
  -5   3   6  245.91   16.12 
  -5   3   6  234.59   18.85 
   5   3  -6  248.98   17.10 
  -5   3   6  236.77   17.95 
   5  -3  -6  240.02   18.64 
   5  -3  -6  245.72   16.19 
   5  -3  -6  238.24   17.74 
  -5  -3   6  258.37   19.63 
  -5  -3   6  247.20   15.71 
   5   3  -5  318.35   18.75 
   5   3  -5  325.12   20.05 
  -5   3   5  326.95   19.10 
  -5   3   5  353.17   19.93 
   5   3  -5  343.89   20.12 
  -5   3   5  329.98   18.17 
   5  -3  -5  288.16   19.52 
   5  -3  -5  295.02   21.86 
   5  -3  -5  294.60   20.21 
  -5  -3   5  293.04   22.34 
  -5  -3   5  309.29   21.88 
   5   3  -4   52.20    8.34 
   5   3  -4   50.03    8.93 
  -5   3   4   50.54    8.33 
  -5   3   4   51.05    8.21 
   5   3  -4   52.22    8.62 
  -5   3   4   52.35    8.21 
   5  -3  -4   46.05    8.79 
   5  -3  -4   44.90    8.27 
   5  -3  -4   48.30    7.62 
  -5  -3   4   47.73    9.73 
  -5  -3   4   47.39    8.49 
   5   3  -3  163.07   16.27 
   5   3  -3  158.18   16.05 
  -5   3   3  157.85   15.52 
   5   3  -3  170.11   16.37 
  -5   3   3  152.62   14.98 
   5   3  -3  163.10   15.69 
  -5   3   3  160.84   14.82 
   5  -3  -3  155.18   15.45 
  -5  -3   3  161.88   17.38 
   5  -3  -3  153.48   15.42 
  -5  -3   3  160.00   16.41 
   5  -3  -3  156.77   14.36 
  -5   3   2  515.07   26.06 
   5   3  -2  559.55   29.48 
  -5   3   2  556.59   28.43 
   5   3  -2  563.34   28.96 
   5   3  -2  588.50   28.91 
  -5   3   2  585.34   28.68 
   5   3  -2  565.26   28.33 
  -5  -3   2  456.08   25.79 
   5  -3  -2  443.39   24.87 
  -5  -3   2  461.89   28.54 
   5  -3  -2  468.42   23.23 
  -5   3   1  689.58   31.46 
   5   3  -1  716.65   37.67 
  -5   3   1  621.24   30.98 
   5   3  -1  746.00   35.01 
   5   3  -1  759.45   34.30 
  -5   3   1  743.36   33.40 
   5   3  -1  720.58   33.27 
  -5  -3   1  689.12   33.20 
   5  -3  -1  671.97   32.11 
  -5  -3   1  680.63   35.46 
   5  -3  -1  666.15   29.64 
   5   3   0  280.57   23.12 
   5   3   0  287.18   22.45 
  -5   3   0  293.02   18.71 
   5   3   0  278.35   22.00 
   5   3   0  279.53   22.98 
  -5  -3   0  189.64   17.54 
   5  -3   0  198.76   18.89 
   5  -3   0  198.91   16.55 
   5  -3   0  197.97   18.54 
   5   3   1  604.44   33.21 
   5   3   1  606.44   30.40 
   5   3   1  612.34   30.59 
   5   3   1  614.59   30.26 
  -5   3  -1  638.96   29.87 
   5  -3   1  651.88   29.27 
  -5  -3  -1  637.68   32.40 
   5   3   2   96.20   10.59 
   5   3   2   92.94   12.19 
   5   3   2   98.99   11.38 
   5   3   2   94.49   11.75 
  -5   3  -2   95.91   10.68 
   5  -3   2  118.66   14.95 
   5  -3   2  117.46   11.08 
  -5  -3  -2  113.25   12.37 
   5   3   3  311.80   21.29 
   5   3   3  297.11   22.40 
   5   3   3  310.56   22.54 
  -5   3  -3  295.74   20.81 
  -5  -3  -3  329.49   19.14 
   5  -3   3  343.17   23.29 
   5  -3   3  351.41   17.96 
  -5  -3  -3  335.32   20.60 
   5  -3   3  332.13   19.83 
   5  -3   3  355.16   20.36 
   5   3   4 1192.65   43.55 
  -5   3  -4 1096.36   44.52 
   5   3   4 1158.46   44.91 
  -5   3  -4 1164.86   43.90 
  -5   3  -4 1211.56   41.78 
   5   3   4 1167.46   41.05 
  -5  -3  -4 1230.76   45.59 
  -5  -3  -4 1195.39   47.08 
  -5  -3  -4 1109.70   44.30 
   5  -3   4 1228.58   51.09 
   5  -3   4 1191.68   42.19 
  -5   3  -5  164.38   15.75 
  -5   3  -5  158.42   16.31 
   5   3   5  165.49   16.36 
   5   3   5  161.09   13.67 
  -5   3  -5  166.91   15.54 
  -5  -3  -5  149.35   13.93 
   5  -3   5  146.36   17.30 
  -5  -3  -5  139.89   15.25 
  -5  -3  -5  148.99   14.58 
   5  -3   5  142.69   13.49 
   5   3   6  141.46   11.16 
   5   3   6  132.77   13.58 
  -5   3  -6  135.97   13.00 
  -5   3  -6  142.94   12.30 
  -5  -3  -6  158.80   12.68 
   5  -3   6  162.72   16.51 
  -5  -3  -6  167.36   15.44 
  -5  -3  -6  164.27   13.41 
   5  -3   6  159.47   12.66 
  -5   3  -7  235.13   15.36 
   5   3   7  235.35   17.43 
  -5   3  -7  228.20   16.69 
   5   3   7  229.87   13.66 
  -5  -3  -7  218.62   15.75 
   5  -3   7  233.28   19.95 
  -5  -3  -7  237.04   17.95 
  -5  -3  -7  234.69   15.77 
   5  -3   7  238.96   15.16 
  -5   3  -8  430.38   22.08 
   5   3   8  432.49   23.86 
  -5   3  -8  422.50   22.81 
   5   3   8  425.96   19.77 
  -5  -3  -8  407.03   19.94 
   5  -3   8  429.78   26.60 
  -5  -3  -8  424.42   24.69 
  -5  -3  -8  413.62   22.65 
   5  -3   8  431.29   21.55 
   5   3   9   12.96    9.12 
  -5   3  -9   14.84    7.53 
   5  -3   9   44.77   13.05 
  -5  -3  -9   44.86    8.32 
  -5  -3  -9   45.27   11.12 
  -5  -3  -9   47.59    9.49 
   5  -3   9   45.80    8.14 
   5   3  10  149.71   16.68 
  -5   3 -10  149.97   15.74 
   5  -3  10  110.64   17.22 
  -5  -3 -10  105.60   11.99 
  -5  -3 -10  110.77   15.64 
  -5  -3 -10  111.65   12.90 
   5  -3  10  107.89   11.69 
   5   3  11    5.43    9.69 
  -5   3 -11    4.28    8.40 
  -5   3 -11    8.59    8.82 
   5  -3  11    7.15   11.63 
  -5  -3 -11   12.74    8.41 
  -5  -3 -11   12.83   11.32 
   5  -3  11   11.90    7.37 
   5   3  12    9.65   10.67 
  -5   3 -12   12.72    8.86 
  -5   3 -12   11.78    9.59 
   5  -3  12   12.78   15.18 
  -5  -3 -12   13.06    8.05 
  -5  -3 -12   10.90   11.71 
   5   3  13   -3.84   10.56 
  -5   3 -13    2.66    9.74 
   5  -3  13   -6.25   12.86 
  -5  -3 -13    0.19    7.72 
  -5  -3 -13   -0.83   13.79 
  -5   3 -14    7.60   10.46 
   5   3  14    9.90   10.94 
   5  -3  14   -1.19   16.51 
  -5  -3 -14   -1.23   12.92 
  -5   3 -15   42.40   11.42 
   5  -3  15   28.43   15.64 
  -5  -3 -15   33.50   14.42 
  -5   3 -16   84.07   12.87 
   5  -3  16   74.26   17.88 
  -5  -3 -16   80.36   16.91 
   5   4 -17   43.93   12.83 
  -5   4  17   45.95   15.94 
   5   4 -17   47.50   13.46 
   5  -4 -17   54.82   15.19 
  -5  -4  17   49.51   16.74 
   5   4 -16    0.02   10.49 
  -5   4  16    3.78   13.02 
   5   4 -16    7.42   10.54 
   5  -4 -16    1.12   12.09 
  -5  -4  16    2.27   14.28 
   5   4 -15  114.72   14.38 
  -5   4  15  109.72   16.27 
   5   4 -15  115.37   14.81 
   5  -4 -15  133.90   15.65 
  -5  -4  15  120.85   18.66 
   5   4 -14  191.47   16.15 
  -5   4  14  191.64   18.10 
   5   4 -14  178.59   15.91 
   5  -4 -14  179.04   17.81 
  -5  -4  14  165.95   19.42 
  -5   4  13  190.56   16.26 
   5   4 -13  187.88   14.88 
  -5  -4  13  158.60   19.56 
   5  -4 -13  170.03   16.97 
  -5   4  12  110.91   14.26 
   5   4 -12  112.81   12.17 
  -5  -4  12   80.22   14.07 
   5  -4 -12   82.65   13.71 
  -5   4  11  132.57   13.99 
   5   4 -11  134.68   13.23 
   5   4 -11  133.52   13.26 
  -5  -4  11  145.49   16.91 
   5  -4 -11  144.62   11.55 
   5  -4 -11  154.04   15.67 
  -5   4  10   99.14   11.76 
   5   4 -10   95.16   11.56 
   5   4 -10   98.40   12.01 
  -5  -4  10  100.82   15.78 
   5  -4 -10   93.51    9.77 
   5  -4 -10   99.72   12.96 
  -5   4   9  308.87   19.41 
   5   4  -9  284.81   17.71 
   5   4  -9  310.09   18.65 
  -5  -4   9  278.88   22.25 
   5  -4  -9  277.73   16.28 
   5  -4  -9  274.31   18.91 
  -5   4   8  230.14   16.00 
   5   4  -8  218.68   16.23 
  -5   4   8  214.10   14.43 
  -5   4   8  209.59   15.26 
   5   4  -8  215.61   14.50 
  -5  -4   8  201.79   17.93 
   5  -4  -8  183.42   12.89 
   5  -4  -8  188.94   15.04 
  -5   4   7   58.66   10.06 
   5   4  -7   54.47    9.93 
  -5   4   7   53.32    8.17 
  -5   4   7   55.50    9.08 
   5   4  -7   56.34    8.81 
  -5  -4   7   95.03   13.10 
   5  -4  -7   84.21    9.95 
   5  -4  -7   83.83   12.01 
  -5   4   6  459.51   21.52 
   5   4  -6  452.61   22.11 
  -5   4   6  462.75   21.33 
  -5   4   6  445.53   19.54 
   5   4  -6  429.06   19.93 
   5  -4  -6  426.69   19.73 
   5  -4  -6  436.62   22.13 
  -5  -4   6  430.93   22.80 
  -5  -4   6  446.87   24.79 
  -5  -4   6  453.43   20.71 
   5   4  -5  221.36   15.17 
   5   4  -5  205.47   15.34 
  -5   4   5  210.45   15.34 
  -5   4   5  217.15   14.90 
   5   4  -5  213.06   15.24 
  -5   4   5  212.22   13.82 
  -5  -4   5  194.22   16.92 
   5  -4  -5  198.00   13.10 
   5  -4  -5  200.79   15.22 
  -5  -4   5  192.21   17.45 
  -5   4   4  479.13   21.42 
   5   4  -4  490.07   24.50 
  -5   4   4  461.49   23.03 
   5   4  -4  501.81   24.70 
   5   4  -4  515.21   24.86 
  -5   4   4  484.28   22.72 
   5   4  -4  487.58   23.00 
  -5  -4   4  448.00   24.47 
   5  -4  -4  455.49   23.35 
  -5  -4   4  471.39   26.94 
   5  -4  -4  448.95   20.26 
  -5   4   3  691.18   33.44 
  -5   4   3  634.95   26.99 
   5   4  -3  637.47   29.94 
  -5   4   3  653.93   29.86 
   5   4  -3  679.32   30.35 
   5   4  -3  650.99   29.30 
  -5   4   3  659.40   28.63 
   5   4  -3  641.35   28.85 
  -5  -4   3  732.04   33.65 
   5  -4  -3  715.64   31.31 
  -5  -4   3  653.14   33.65 
   5  -4  -3  724.37   28.66 
  -5   4   2  290.99   20.82 
  -5   4   2  268.75   16.26 
   5   4  -2  282.95   19.02 
  -5   4   2  283.57   18.92 
   5   4  -2  280.60   18.59 
   5   4  -2  282.03   17.98 
  -5   4   2  281.57   17.28 
   5   4  -2  284.77   18.47 
  -5  -4   2  333.41   20.76 
   5  -4  -2  344.94   20.36 
  -5  -4   2  338.37   22.56 
   5  -4  -2  343.04   18.30 
  -5   4   1  278.69   19.90 
   5   4  -1  266.35   19.03 
  -5   4   1  273.23   18.17 
   5   4  -1  268.53   17.65 
   5   4  -1  281.96   18.70 
   5   4  -1  272.01   17.84 
  -5   4   1  272.98   17.12 
   5   4  -1  266.19   18.01 
  -5   4   1  271.50   16.74 
   5  -4  -1  275.76   18.46 
  -5  -4   1  271.04   18.71 
   5  -4  -1  267.19   16.11 
  -5   4   0  368.75   23.71 
   5   4   0  368.61   22.83 
   5   4   0  381.60   21.10 
  -5   4   0  383.03   21.83 
  -5   4   0  366.08   19.71 
   5   4   0  375.96   20.79 
   5   4   0  370.94   21.53 
  -5  -4   0  398.71   22.58 
  -5  -4   0  432.73   24.22 
   5  -4   0  402.79   19.96 
  -5   4  -1  729.89   34.39 
   5   4   1  744.52   35.51 
   5   4   1  705.10   31.98 
  -5   4  -1  726.43   31.73 
  -5   4  -1  708.35   28.70 
   5   4   1  743.26   30.51 
   5   4   1  712.65   31.31 
  -5  -4  -1  757.34   33.49 
  -5  -4  -1  744.42   33.54 
   5  -4   1  785.16   30.17 
   5   4   2  456.14   21.65 
   5   4   2  467.16   30.55 
   5   4   2  477.33   22.19 
  -5   4  -2  454.41   21.45 
   5   4   2  456.14   22.84 
  -5  -4  -2  374.35   21.46 
   5  -4   2  381.04   18.70 
  -5  -4  -2  382.98   22.37 
   5  -4   2  387.54   25.11 
   5   4   3  584.92   24.58 
   5   4   3  541.15   27.86 
   5   4   3  585.32   24.92 
  -5   4  -3  591.57   24.68 
   5  -4   3  471.70   27.15 
  -5  -4  -3  456.98   23.59 
   5  -4   3  464.76   20.43 
  -5  -4  -3  442.30   24.55 
   5   4   4   34.16    7.05 
   5   4   4   34.39    7.57 
  -5   4  -4   34.93    7.47 
  -5  -4  -4   33.22    7.19 
   5  -4   4   31.81   10.89 
  -5  -4  -4   32.01    8.46 
  -5  -4  -4   31.31    9.77 
   5   4   5  204.73   13.53 
   5   4   5  209.99   15.29 
  -5   4  -5  210.25   15.71 
  -5   4  -5  207.11   14.75 
   5  -4   5  203.63   18.56 
  -5  -4  -5  189.94   14.79 
  -5  -4  -5  202.05   14.60 
   5   4   6  209.92   13.15 
   5   4   6  205.84   15.78 
  -5   4  -6  211.69   15.58 
  -5   4  -6  211.40   15.00 
   5  -4   6  141.08   17.49 
  -5  -4  -6  138.87   13.38 
  -5  -4  -6  142.06   12.67 
   5  -4   6  136.33   11.61 
  -5   4  -7  310.23   18.77 
   5   4   7  314.16   20.49 
  -5   4  -7  314.19   20.04 
  -5  -4  -7  240.10   15.65 
   5  -4   7  236.52   19.80 
  -5  -4  -7  238.77   16.51 
   5  -4   7  226.59   14.74 
  -5   4  -8  168.32   14.74 
   5   4   8  161.49   15.40 
  -5  -4  -8  175.38   13.59 
  -5  -4  -8  176.20   14.26 
   5  -4   8  175.76   18.50 
   5  -4   8  175.99   13.42 
  -5   4  -9  218.28   15.98 
   5   4   9  219.52   17.56 
  -5  -4  -9  213.47   14.75 
  -5  -4  -9  202.46   15.17 
   5  -4   9  219.39   20.94 
   5  -4   9  212.03   14.85 
  -5   4 -10    4.53   10.02 
   5   4  10    2.73    8.35 
  -5  -4 -10    2.30    6.25 
  -5  -4 -10    2.59    6.31 
   5  -4  10   -2.50   11.24 
   5   4  11  225.61   18.24 
  -5   4 -11  199.74   15.40 
   5  -4  11  208.39   22.42 
  -5  -4 -11  191.48   14.75 
  -5  -4 -11  202.99   18.34 
   5  -4  12  116.32   19.44 
  -5  -4 -12  104.28   16.78 
   5  -4  13   18.06   15.41 
  -5   4 -14    3.26   10.77 
   5  -4  14    2.18   14.05 
  -5  -4 -14   -8.30   13.73 
  -5   4 -15   26.85   11.42 
   5  -4  15   25.16   16.88 
  -5  -4 -15   26.70   15.45 
  -5   5  16   72.49   14.47 
   5   5 -16   70.11   13.90 
  -5  -5  16   57.93   18.67 
   5  -5 -16   73.27   15.35 
  -5   5  15   16.02   12.53 
   5   5 -15   21.73   10.89 
  -5  -5  15   15.54   15.72 
   5  -5 -15   22.10   12.54 
   5   5 -14   15.69   11.46 
  -5   5  14   21.12   13.13 
   5   5 -14   18.12   11.24 
   5  -5 -14   15.87   13.05 
  -5  -5  14   20.19   14.54 
   5   5 -13   50.63   10.74 
  -5   5  13   45.79   13.10 
   5   5 -13   46.63   11.73 
   5  -5 -13   42.96   12.35 
  -5  -5  13   43.93   15.17 
   5   5 -12  125.62   13.59 
  -5   5  12  118.07   14.38 
   5   5 -12  120.61   13.48 
   5  -5 -12  129.21   16.02 
  -5  -5  12  130.18   18.36 
   5   5 -11   45.04    9.35 
  -5   5  11   39.76   12.62 
   5   5 -11   39.86   11.29 
   5  -5 -11   38.25   12.35 
  -5  -5  11   37.90   14.19 
   5   5 -10  158.94   13.36 
  -5   5  10  160.78   15.24 
   5   5 -10  164.41   14.13 
   5  -5 -10  157.62   16.19 
  -5  -5  10  170.99   19.01 
   5   5  -9   29.78    9.08 
  -5   5   9   24.79   10.30 
   5   5  -9   25.89    8.98 
   5  -5  -9   32.13   10.52 
  -5  -5   9   41.78   11.66 
  -5   5   8  152.74   15.62 
   5   5  -8  159.67   14.99 
   5   5  -8  159.19   14.94 
  -5  -5   8  192.92   18.20 
   5  -5  -8  174.12   14.05 
   5  -5  -8  169.29   16.65 
  -5   5   7   54.87    9.16 
  -5   5   7   61.33   10.88 
   5   5  -7   57.92    9.95 
   5  -5  -7   33.49    7.07 
  -5  -5   7   33.78   11.54 
   5  -5  -7   37.15    9.27 
  -5   5   6  139.83   12.47 
   5   5  -6  136.50   13.44 
  -5   5   6  136.27   13.17 
  -5   5   6  135.86   12.02 
   5   5  -6  136.05   12.44 
   5  -5  -6  177.77   12.68 
   5  -5  -6  182.31   15.00 
  -5  -5   6  178.48   17.06 
  -5  -5   6  186.47   17.39 
  -5   5   5  578.84   26.00 
   5   5  -5  559.61   27.18 
  -5   5   5  589.15   27.01 
  -5   5   5  547.82   24.59 
   5   5  -5  579.22   26.68 
   5  -5  -5  478.18   22.04 
   5  -5  -5  492.37   24.88 
  -5  -5   5  469.77   26.06 
  -5  -5   5  482.74   28.32 
  -5   5   4  160.11   12.92 
   5   5  -4  147.07   13.34 
  -5   5   4  147.94   13.47 
  -5   5   4  152.86   12.07 
   5   5  -4  153.42   13.65 
   5  -5  -4  131.92   11.24 
   5  -5  -4  135.46   12.97 
  -5  -5   4  131.48   14.62 
  -5  -5   4  130.57   14.87 
  -5   5   3   62.35    8.99 
   5   5  -3   57.91    9.97 
  -5   5   3   68.80   11.40 
  -5   5   3   60.13    8.29 
   5   5  -3   64.03    9.40 
   5  -5  -3   43.46    7.25 
   5  -5  -3   45.31    9.15 
  -5  -5   3   50.77   10.41 
  -5  -5   3   43.91   10.18 
   5   5  -2  473.27   24.45 
  -5   5   2  500.62   24.64 
   5   5  -2  493.63   23.51 
  -5   5   2  502.05   22.66 
   5   5  -2  495.00   23.35 
   5   5  -2  467.97   23.16 
  -5   5   2  471.45   20.73 
  -5  -5   2  425.84   23.74 
   5  -5  -2  424.45   19.73 
   5  -5  -2  436.10   24.20 
   5   5  -1  430.38   23.41 
  -5   5   1  431.37   22.53 
   5   5  -1  415.72   21.88 
  -5   5   1  445.61   21.04 
   5   5  -1  426.90   21.26 
   5   5  -1  427.47   21.97 
  -5   5   1  413.52   20.59 
  -5  -5   1  355.32   21.33 
   5  -5  -1  352.27   17.95 
   5  -5  -1  354.46   20.32 
   5   5   0  441.98   24.62 
   5   5   0  444.29   21.77 
  -5   5   0  435.85   23.26 
   5   5   0  437.30   21.94 
   5   5   0  444.60   21.21 
  -5   5   0  452.00   21.11 
   5  -5   0  351.52   17.89 
  -5  -5   0  354.88   21.50 
   5   5   1  248.82   20.56 
   5   5   1  272.87   16.71 
  -5   5  -1  274.00   18.15 
  -5   5  -1  267.95   15.91 
   5   5   1  265.09   16.38 
  -5  -5  -1  326.90   20.64 
   5  -5   1  297.88   16.28 
  -5  -5  -1  307.39   20.16 
   5   5   2   -0.81    6.10 
   5   5   2    0.98    5.36 
  -5   5  -2    2.40    7.11 
  -5   5  -2    1.53    5.85 
   5   5   2    0.55    5.25 
  -5  -5  -2    3.58    6.63 
  -5  -5  -2    2.16    8.69 
  -5   5  -3   20.39    8.22 
   5   5   3   20.48    6.72 
   5   5   3   18.45    6.50 
  -5  -5  -3   41.17    9.66 
   5  -5   3   45.02   13.09 
  -5  -5  -3   45.25    9.90 
   5   5   4  342.63   19.51 
  -5   5  -4  374.04   19.99 
   5  -5   4  411.69   26.16 
  -5  -5  -4  411.43   23.46 
  -5  -5  -4  384.08   23.16 
   5   5   5  169.04   13.57 
  -5   5  -5  167.52   14.12 
   5  -5   5  242.23   20.31 
  -5  -5  -5  232.77   17.05 
  -5  -5  -5  237.65   18.53 
  -5   5  -6   33.50    9.39 
   5   5   6   35.09    8.74 
  -5  -5  -6   23.96    7.70 
  -5  -5  -6   20.68    8.02 
   5  -5   6   20.64   11.34 
  -5  -5  -6   22.73   10.89 
  -5   5  -7   37.17    9.81 
   5   5   7   41.17    9.63 
  -5  -5  -7   50.54    9.00 
  -5  -5  -7   47.80    9.57 
   5  -5   7   45.98   12.45 
  -5  -5  -7   47.37   12.11 
  -5   5  -8    3.04    9.25 
  -5  -5  -8    8.20    7.51 
   5  -5   8    5.97   11.56 
  -5  -5  -8    5.76   11.12 
  -5   5  -9   91.09   11.94 
   5  -5   9  100.33   16.57 
  -5  -5  -9  102.64   14.83 
  -5   5 -10  268.73   18.05 
   5  -5  10  228.78   21.51 
  -5  -5 -10  227.28   19.31 
  -5   5 -11   30.54   12.48 
   5  -5  11   36.23   16.41 
  -5  -5 -11   32.54   12.57 
  -5   5 -12    8.81   11.39 
   5  -5  12   11.37   15.99 
  -5  -5 -12    9.71   12.82 
  -5   5 -13   55.23   13.40 
   5  -5  13   23.74   16.88 
   5  -5  14   15.53   16.02 
   5   6 -14    8.80   11.33 
  -5   6  14    2.13   12.24 
  -5  -6  14    2.90   15.00 
   5  -6 -14   10.04   12.21 
   5   6 -13   78.00   13.18 
  -5   6  13   79.72   14.35 
  -5  -6  13   60.75   15.72 
   5  -6 -13   54.12   14.61 
   5   6 -12    6.83   10.01 
  -5   6  12   10.58   10.98 
   5   6 -12    5.36   12.25 
   5  -6 -12    3.33   11.26 
  -5  -6  12    2.54   14.51 
   5   6 -11   57.01   11.19 
  -5   6  11   56.31   12.86 
   5   6 -11   58.99   13.03 
   5  -6 -11   47.07   11.77 
  -5  -6  11   55.88   15.52 
   5   6 -10  131.55   13.69 
  -5   6  10  132.97   14.29 
   5   6 -10  132.98   13.99 
   5  -6 -10  144.35   16.01 
  -5  -6  10  147.77   19.19 
   5   6  -9  695.02   25.82 
  -5   6   9  690.85   26.12 
   5   6  -9  677.58   25.46 
   5  -6  -9  698.35   27.83 
  -5  -6   9  728.37   32.87 
   5   6  -8  109.85   11.69 
  -5   6   8  112.15   14.17 
   5   6  -8  108.01   12.33 
   5  -6  -8  138.97   14.56 
  -5  -6   8  132.83   17.41 
   5   6  -7    5.29    7.77 
  -5   6   7    5.99    8.56 
   5   6  -7    7.59    9.35 
   5  -6  -7   15.07    9.00 
  -5  -6   7   15.10   10.12 
   5   6  -6  159.57   14.13 
  -5   6   6  157.12   14.81 
   5   6  -6  155.38   13.43 
   5  -6  -6  168.58   15.12 
  -5  -6   6  161.41   17.29 
  -5   6   5  424.82   21.51 
   5   6  -5  407.87   19.99 
   5   6  -5  425.95   20.29 
  -5  -6   5  384.40   23.55 
   5  -6  -5  393.52   18.02 
   5  -6  -5  400.64   21.64 
  -5   6   4   18.98    7.13 
  -5   6   4   21.38    9.39 
   5   6  -4   22.01    8.90 
  -5  -6   4   19.70    9.84 
   5  -6  -4   20.25    8.49 
   5  -6  -4   19.73    6.56 
  -5   6   3   31.98    9.67 
   5   6  -3   30.02    9.20 
  -5   6   3   34.14    8.31 
   5  -6  -3   76.96    9.83 
   5  -6  -3   82.74   11.57 
  -5  -6   3   82.00   13.18 
  -5   6   2    2.36    7.76 
   5   6  -2    5.29    6.67 
   5   6  -2    5.06    8.13 
  -5   6   2    4.84    6.35 
   5  -6  -2   11.30    6.18 
   5  -6  -2   10.09    6.79 
  -5  -6   2   12.54    8.71 
  -5   6   1   21.89    9.52 
   5   6  -1   19.44    8.08 
  -5   6   1   22.26    7.88 
   5   6  -1   21.21    8.82 
  -5  -6   1   20.86    9.10 
   5  -6  -1   21.19    7.31 
   5   6   0    3.87    6.69 
  -5   6   0    3.27    8.84 
  -5   6   0    4.54    6.68 
   5   6   0    4.74    7.04 
  -5  -6   0   12.95    9.78 
   5  -6   0   10.90    5.77 
   5   6   1  149.26   13.16 
  -5   6  -1  153.55   14.79 
  -5   6  -1  151.00   12.60 
  -5  -6  -1   81.38   12.45 
  -5  -6  -1   79.79   11.83 
   5   6   2   67.96   10.12 
  -5   6  -2   68.05   12.89 
  -5   6  -2   71.07   11.24 
  -5  -6  -2  101.20   13.70 
  -5  -6  -2  100.08   13.68 
  -5   6  -3  728.10   28.48 
  -5   6  -3  725.87   25.44 
  -5  -6  -3  679.24   28.90 
  -5  -6  -3  691.01   28.37 
  -5   6  -4    4.33    7.13 
  -5  -6  -4    8.59    7.38 
  -5  -6  -4    7.03   10.41 
  -5   6  -5   87.25   11.90 
  -5  -6  -5   71.27   11.61 
   5  -6   5   66.35   15.02 
  -5  -6  -5   74.45   12.58 
  -5   6  -6  210.54   16.34 
  -5  -6  -6  190.94   15.95 
   5  -6   6  202.27   19.65 
  -5  -6  -6  204.72   17.61 
  -5   6  -7  214.91   16.04 
   5  -6   7  182.87   19.29 
  -5  -6  -7  194.49   18.58 
  -5   6  -8    4.73    9.84 
   5  -6   8    2.28   12.91 
  -5  -6  -8   -0.66   10.64 
  -5   6  -9   34.27   11.46 
   5  -6   9   34.85   14.18 
  -5  -6  -9   30.48   13.34 
  -5   6 -10   44.36   11.77 
   5  -6  10   29.63   16.78 
  -5  -6 -10   33.98   14.14 
  -5   6 -11    4.66   11.92 
   5  -6  11    3.98   13.93 
  -5  -6 -11    5.01   12.30 
  -5   6 -12    9.72   11.97 
   5  -6  12   16.50   16.71 
  -5  -6 -12   19.96   14.42 
  -5   6 -13    9.72   12.20 
   5  -6  13   -0.48   17.24 
  -5  -6 -13    9.00   12.89 
   5   7 -12   67.99   13.89 
  -5   7  12   67.69   13.84 
  -5  -7  12   59.09   16.14 
   5  -7 -12   60.25   14.87 
   5   7 -11    3.00   10.88 
  -5   7  11    5.65   11.66 
  -5  -7  11   11.87   14.56 
   5  -7 -11   14.06   11.73 
   5   7 -10   49.23   12.27 
  -5   7  10   46.34   11.63 
  -5  -7  10   45.95   15.55 
   5  -7 -10   47.69   12.53 
   5   7  -9   42.85   11.48 
  -5   7   9   46.43   12.20 
  -5  -7   9   40.26   14.27 
   5  -7  -9   41.46   11.32 
   5   7  -8   55.31   10.39 
  -5   7   8   53.69   12.55 
   5   7  -8   53.52   12.05 
   5  -7  -8   51.72   12.31 
  -5  -7   8   54.84   13.31 
   5   7  -7   21.72   10.03 
  -5   7   7   23.32   11.81 
   5   7  -7   18.18   10.28 
   5  -7  -7    5.85    8.90 
  -5  -7   7    3.27   11.58 
   5   7  -6  123.53   12.62 
  -5   7   6  126.80   14.41 
   5   7  -6  123.48   13.07 
   5  -7  -6   87.18   12.79 
  -5  -7   6   90.50   14.60 
   5   7  -5   40.97    9.65 
  -5   7   5   42.09   11.17 
   5   7  -5   36.65   10.53 
   5  -7  -5   48.13   10.29 
  -5  -7   5   53.63   12.51 
  -5   7   4   91.97   13.75 
   5   7  -4   82.73   12.09 
   5   7  -4   88.29   11.83 
   5   7  -4   86.49   11.56 
   5  -7  -4   95.96   12.40 
  -5   7   3    8.87   10.36 
   5   7  -3    2.29    8.97 
   5   7  -3    6.17    9.04 
  -5   7   2  231.25   18.28 
   5   7  -2  212.33   15.29 
   5   7  -2  232.09   16.64 
  -5   7   1  101.66   14.22 
  -5   7   1  101.77   11.58 
   5   7  -1   94.09   11.51 
   5   7  -1  105.49   13.49 
  -5   7   0   11.49    9.46 
  -5   7   0    5.08    7.93 
   5   7   0    6.36    6.91 
   5   7   0    6.14    9.63 
  -5   7  -1   21.77   11.99 
  -5   7  -1   23.57    7.94 
   5   7   1   25.40   10.05 
  -5   7  -2   74.98   14.15 
  -5   7  -2   74.87   10.59 
  -5  -7  -2   81.86   13.01 
  -5   7  -3   85.90   13.16 
  -5   7  -3   88.05   11.94 
  -5  -7  -3   70.59   13.37 
  -5   7  -4   14.63   10.13 
  -5   7  -4   17.98    9.86 
  -5  -7  -4   46.61   13.18 
  -5   7  -5   50.43   12.40 
  -5   7  -5   54.84   10.73 
  -5  -7  -5   46.84   12.36 
  -5   7  -6    1.27    9.29 
  -5  -7  -6   -2.80   11.94 
  -5   7  -7   35.98   12.20 
  -5  -7  -7   39.37   13.14 
  -5   7  -8    3.53    9.55 
  -5  -7  -8    0.21   13.12 
  -5   7  -9   15.93   11.51 
  -5  -7  -9   25.26   14.34 
  -5   7 -10   70.14   14.01 
  -5  -7 -10   84.41   16.11 
  -5   7 -11   71.98   14.70 
   5  -7  11   59.89   16.09 
  -5  -7 -11   66.70   15.48 
   5   8 -10   40.38   12.33 
  -5   8  10   49.02   15.11 
  -5  -8  10   58.28   16.55 
   5   8  -9  166.58   15.51 
  -5   8   9  170.04   16.50 
  -5  -8   9  202.30   19.58 
   5   8  -8  111.64   13.63 
  -5   8   8  115.44   15.65 
  -5  -8   8  144.36   18.57 
   5   8  -7    6.77   10.33 
  -5   8   7   11.87   10.91 
  -5  -8   7    7.39   11.70 
   5   8  -6    3.84   10.86 
  -5   8   6    6.94   11.76 
  -5  -8   6    5.91   11.73 
  -5   8   5   83.56   14.04 
   5   8  -5   72.42   12.29 
  -5   8   4   25.25   12.03 
   5   8  -4   25.02   10.53 
  -5   8   3   84.30   14.04 
   5   8  -3   68.97   11.73 
  -5   8   2   22.07   11.34 
  -5   8   1    6.07   11.78 
   5   8  -1    3.23    9.41 
  -5   8   0   41.04   13.70 
   5   8   0   37.86   10.76 
  -5   8  -1   98.83   14.35 
   5   8   1  102.35   14.03 
  -5   8  -2   53.65   12.92 
   5   8   2   57.13   12.51 
  -5   8  -3  214.08   17.78 
  -5   8  -3  218.83   16.23 
  -5  -8  -3  271.35   19.83 
  -5   8  -4    5.09   11.37 
  -5   8  -4    8.48   10.94 
  -5  -8  -4   12.65   12.15 
  -5   8  -5   57.55   13.83 
  -5   8  -5   58.60   12.64 
  -5  -8  -5   70.13   14.13 
  -5   8  -6   79.39   14.62 
  -5   8  -6   87.37   12.31 
  -5  -8  -6  110.37   15.25 
  -5   8  -7    8.08   11.76 
  -5   8  -7    9.51   12.01 
  -5  -8  -7   31.98   13.70 
  -5   8  -8   19.42   12.29 
   5  -8   8   12.32   15.77 
  -5  -8  -8    4.76   12.15 
  -5   9   5   50.94   15.09 
  -5   9   4   47.50   13.71 
  -5   9   3   -2.11   12.84 
  -5   9   2   13.87   12.02 
  -5   9   1   28.41   14.17 
  -5   9   0    7.76   12.30 
  -5   9  -1   22.06   12.57 
  -5   9  -2    2.71   12.13 
  -5   9  -3   52.65   15.28 
   6   0 -19    3.60    9.58 
   6   0 -19    1.31   14.27 
   6   0 -18   49.97   10.74 
   6   0 -18   51.96   13.85 
   6   0 -17  189.14   14.45 
   6   0 -17  176.73   17.37 
   6   0 -16  178.39   14.78 
   6   0 -16  191.90   17.42 
   6   0 -15    8.46    9.62 
   6   0 -15    7.32   11.42 
  -6   0  14  222.82   17.44 
   6   0 -14  231.34   15.07 
   6   0 -14  230.17   17.21 
  -6   0  13  116.39   15.63 
  -6   0  13  119.23   14.30 
   6   0 -13  118.75   14.59 
  -6   0  12  794.37   35.38 
  -6   0  12  831.78   35.89 
   6   0 -12  805.94   33.44 
  -6   0  11    8.44    9.99 
  -6   0  11    5.77    8.08 
   6   0 -11    8.05    7.77 
  -6   0  10   37.69    9.40 
  -6   0  10   32.05    9.65 
   6   0 -10   35.40    9.02 
   6   0 -10   39.36    8.60 
  -6   0   9  319.97   19.76 
   6   0  -9  327.44   18.69 
  -6   0   9  319.96   20.33 
   6   0  -9  327.26   19.70 
   6   0  -9  296.30   18.02 
  -6   0   8    5.12    7.15 
   6   0  -8    6.58    5.39 
  -6   0   8    4.48    6.48 
   6   0  -8    7.07    6.63 
  -6   0   8    7.57    5.65 
  -6   0   7 1186.71   41.25 
   6   0  -7 1262.19   41.08 
  -6   0   7 1204.52   42.65 
   6   0  -7 1205.09   41.84 
  -6   0   7 1210.56   40.47 
  -6   0   6  129.50   13.73 
   6   0  -6  122.52   12.90 
  -6   0   6  125.65   14.38 
   6   0  -6  118.29   12.65 
  -6   0   6  126.22   12.81 
  -6   0   5  290.77   22.81 
   6   0  -5  292.30   22.46 
  -6   0   5  290.62   23.31 
   6   0  -5  274.60   21.58 
  -6   0   5  282.48   20.90 
  -6   0   4   33.98    7.18 
   6   0  -4   33.55    7.14 
  -6   0   4   35.20    7.64 
   6   0  -4   32.64    7.43 
  -6   0   4   35.76    7.58 
  -6   0   3 3459.41   87.51 
   6   0  -3 3567.41   84.42 
  -6   0   3 3495.17   87.66 
  -6   0   3 3550.13   84.25 
  -6   0   2 2704.37   69.97 
   6   0  -2 2588.31   68.39 
  -6   0   2 2718.12   71.13 
   6   0  -2 2598.20   67.62 
  -6   0   2 2638.78   67.07 
  -6   0   1  101.52   11.53 
   6   0  -1   96.78   11.40 
  -6   0   1  110.77   12.17 
   6   0  -1  106.92   11.67 
   6   0  -1   97.86   11.57 
   6   0  -1   97.51   11.40 
  -6   0   0  217.01   20.01 
  -6   0   0  220.04   18.53 
  -6   0   0  232.72   18.84 
   6   0   0  225.76   17.82 
   6   0   0  234.97   19.67 
   6   0   0  224.99   18.45 
  -6   0  -1 2161.43   66.85 
  -6   0  -1 2269.47   63.78 
  -6   0  -1 2268.97   60.74 
   6   0   1 2204.28   58.70 
  -6   0  -1 2379.95   65.21 
   6   0   1 2321.20   66.63 
   6   0   2 2450.53   71.21 
  -6   0  -2 2435.29   70.56 
   6   0   2 2523.31   62.46 
  -6   0  -2 2409.88   68.11 
   6   0   2 2461.86   66.34 
   6   0   3  795.56   39.88 
  -6   0  -3  800.82   38.27 
   6   0   3  789.12   33.11 
  -6   0  -3  775.05   36.67 
   6   0   3  800.52   36.41 
   6   0   4  560.50   32.40 
  -6   0  -4  562.50   29.54 
  -6   0  -4  552.67   27.11 
   6   0   4  558.50   25.97 
  -6   0  -4  550.89   29.71 
   6   0   4  572.10   28.88 
   6   0   5    1.36    6.11 
  -6   0  -5    0.54    5.50 
  -6   0  -5    1.49    5.75 
   6   0   5   -1.38    4.99 
  -6   0  -5    1.11    5.79 
   6   0   5    0.60    5.77 
   6   0   6   43.94    9.96 
  -6   0  -6   45.40    9.40 
  -6   0  -6   46.26    9.15 
   6   0   6   50.11    8.27 
  -6   0  -6   43.48    9.27 
   6   0   6   46.84    9.04 
   6   0   7  388.16   24.56 
  -6   0  -7  393.74   21.79 
  -6   0  -7  384.27   19.90 
   6   0   7  393.01   18.59 
  -6   0  -7  387.36   22.23 
   6   0   7  393.47   20.71 
   6   0   8   79.12   11.84 
  -6   0  -8   86.37   11.42 
  -6   0  -8   84.60   10.29 
  -6   0  -8   82.85   11.64 
   6   0   8   86.04   10.32 
   6   0   9   58.04   11.69 
  -6   0  -9   58.06   10.35 
  -6   0  -9   60.71   10.25 
  -6   0  -9   52.21   11.47 
   6   0  10    1.41    9.11 
  -6   0 -10    4.35    7.17 
  -6   0 -10    3.14    7.53 
   6   0  11  344.61   23.78 
  -6   0 -11  336.88   18.58 
  -6   0 -11  377.48   22.11 
   6   0  12   75.56   15.32 
  -6   0 -12   71.82   11.85 
  -6   0 -12   69.58   12.46 
   6   0  13   73.38   15.43 
  -6   0 -13   68.29   11.85 
  -6   0 -13   68.36   13.19 
   6   0  14   10.73   13.81 
  -6   0 -14    5.55    9.77 
  -6   0 -14   10.17   11.55 
   6   0  15   83.55   17.19 
  -6   0 -15   86.29   12.37 
  -6   0 -15   84.21   16.28 
   6   0  16   38.45   16.13 
  -6   0 -16   41.06   11.33 
  -6   0 -16   40.57   13.28 
   6   0  17   15.13   14.95 
  -6   0 -17   19.37   10.48 
  -6   0 -17   23.97   13.99 
   6   1 -19   13.81   13.76 
  -6   1  19   10.10   14.63 
   6   1 -19   10.80    9.84 
   6  -1 -19   10.72   13.22 
  -6  -1  19   18.55   16.53 
  -6   1  18   81.13   16.61 
   6   1 -18   77.34   12.28 
   6   1 -18   76.93   14.05 
  -6  -1  18   71.33   15.80 
   6  -1 -18   75.72   11.17 
   6  -1 -18   76.02   15.22 
  -6   1  17   14.34   13.19 
   6   1 -17   12.10    9.95 
   6   1 -17   14.54   13.23 
  -6  -1  17   13.43   14.66 
   6  -1 -17   18.67    8.98 
   6  -1 -17   16.98   13.52 
   6   1 -16    6.47   11.16 
   6   1 -16    3.12    9.59 
   6  -1 -16    1.32    7.95 
   6  -1 -16   -0.82   10.28 
  -6  -1  16    0.45   12.83 
   6   1 -15   42.35    9.86 
   6   1 -15   34.61   12.22 
  -6  -1  15   41.69   12.89 
   6  -1 -15   40.23    9.58 
   6   1 -14   62.41   10.38 
   6   1 -14   58.69   12.19 
  -6  -1  14   40.03   13.45 
   6  -1 -14   41.54    8.74 
   6   1 -13   25.46    9.31 
  -6   1  13   19.70    8.82 
  -6  -1  13   31.84   11.44 
   6   1 -12   92.84   12.10 
  -6   1  12   85.74   11.69 
  -6  -1  12   88.16   13.07 
   6  -1 -12   94.40   11.65 
  -6  -1  12  102.34   14.21 
   6   1 -11  390.18   20.33 
  -6   1  11  382.58   22.15 
  -6  -1  11  306.01   20.41 
   6  -1 -11  293.20   17.99 
  -6  -1  11  298.77   20.03 
   6   1 -10  569.70   22.73 
  -6   1  10  565.86   25.34 
  -6  -1  10  640.48   27.43 
   6  -1 -10  637.67   24.73 
  -6  -1  10  629.31   27.43 
   6   1  -9  547.91   26.07 
   6   1  -9  543.91   24.19 
  -6   1   9  554.73   26.48 
   6   1  -9  553.76   24.24 
  -6  -1   9  629.96   29.23 
  -6  -1   9  604.55   28.80 
   6  -1  -9  545.16   24.76 
   6  -1  -9  600.91   25.75 
   6   1  -8  600.58   26.88 
  -6   1   8  534.92   25.70 
   6   1  -8  583.67   26.43 
  -6   1   8  549.55   27.14 
   6   1  -8  566.29   27.22 
  -6   1   8  573.38   25.45 
   6  -1  -8  532.69   24.65 
   6  -1  -8  530.10   25.39 
  -6  -1   8  557.32   28.20 
  -6  -1   8  527.82   27.86 
   6  -1  -8  549.17   25.75 
  -6  -1   8  519.63   24.25 
   6   1  -7   51.00    7.99 
  -6   1   7   45.19    8.81 
   6   1  -7   46.59    8.32 
  -6   1   7   50.90    9.44 
   6   1  -7   46.66    9.12 
  -6   1   7   46.99    7.92 
   6  -1  -7   46.88    8.12 
   6  -1  -7   46.73    7.75 
  -6  -1   7   47.61    9.78 
  -6  -1   7   41.33    9.00 
   6  -1  -7   47.61    7.90 
  -6  -1   7   45.78    8.00 
  -6   1   6  433.48   22.91 
  -6   1   6  419.51   23.30 
   6   1  -6  403.13   22.17 
  -6   1   6  413.12   23.96 
   6   1  -6  431.72   23.33 
   6  -1  -6  438.54   23.45 
   6  -1  -6  446.84   23.72 
   6  -1  -6  450.83   23.61 
  -6  -1   6  423.68   24.48 
  -6  -1   6  448.74   25.97 
  -6  -1   6  500.32   25.29 
  -6   1   5  861.81   36.24 
   6   1  -5  790.44   34.33 
  -6   1   5  840.88   36.68 
  -6   1   5  821.95   36.98 
   6   1  -5  838.73   36.26 
   6  -1  -5  860.79   37.27 
   6  -1  -5  870.92   37.43 
   6  -1  -5  855.28   36.42 
  -6  -1   5  853.14   38.55 
  -6  -1   5  872.30   39.59 
  -6  -1   5  914.56   38.39 
   6   1  -4 1876.83   56.21 
   6   1  -4 1780.75   50.47 
  -6   1   4 1868.20   57.34 
  -6   1   4 1857.56   55.51 
   6   1  -4 1772.15   51.19 
  -6   1   4 1860.97   52.25 
   6  -1  -4 1975.94   55.94 
   6  -1  -4 1938.48   52.88 
  -6  -1   4 1950.69   56.59 
  -6  -1   4 1901.09   57.85 
   6  -1  -4 1923.81   52.55 
  -6  -1   4 1835.46   51.59 
   6   1  -3   52.19    8.62 
   6   1  -3   49.79    7.86 
  -6   1   3   52.02    8.52 
  -6   1   3   50.30    8.48 
   6   1  -3   49.52    8.69 
  -6   1   3   52.32    8.40 
   6  -1  -3   22.95    6.49 
   6  -1  -3   24.27    6.44 
  -6  -1   3   23.92    6.51 
  -6  -1   3   26.09    6.85 
   6  -1  -3   24.14    6.28 
  -6  -1   3   21.36    6.79 
  -6   1   2  366.23   25.29 
  -6   1   2  380.02   26.97 
   6   1  -2  374.43   25.85 
   6   1  -2  387.16   26.39 
  -6   1   2  385.27   26.50 
   6  -1  -2  394.32   27.15 
  -6  -1   2  406.92   28.01 
   6  -1  -2  390.26   26.22 
   6  -1  -2  374.54   25.43 
  -6  -1   2  386.67   26.49 
  -6   1   1 1401.96   49.86 
  -6   1   1 1386.54   43.20 
  -6   1   1 1395.74   52.10 
   6   1  -1 1375.27   47.52 
   6   1  -1 1437.40   43.20 
  -6  -1   1 1395.56   42.99 
   6  -1  -1 1364.66   44.82 
   6  -1  -1 1401.78   43.07 
  -6   1   0  951.36   38.86 
  -6   1   0  967.78   34.16 
   6   1   0  989.14   33.77 
  -6   1   0  902.06   36.34 
  -6  -1   0  858.52   31.48 
  -6  -1   0  830.73   35.78 
   6  -1   0  850.31   33.46 
   6  -1   0  839.64   31.95 
  -6   1  -1  127.70   15.25 
   6   1   1  121.78   12.41 
  -6   1  -1  124.34   12.42 
  -6   1  -1  122.61   13.06 
  -6  -1  -1  106.86   11.91 
  -6  -1  -1  103.59   12.77 
   6  -1   1  102.78   10.96 
  -6  -1  -1   96.06   11.87 
   6  -1   1  101.59   12.07 
   6  -1   1  108.52   12.00 
  -6   1  -2  126.39   13.70 
   6   1   2  129.55   14.85 
  -6   1  -2  127.86   15.16 
  -6   1  -2  126.01   12.52 
   6   1   2  115.90   11.93 
   6   1   2  120.54   13.33 
  -6  -1  -2  103.44   12.47 
   6  -1   2  102.03   10.95 
   6  -1   2  106.50   13.67 
  -6  -1  -2   95.75   12.11 
  -6  -1  -2  104.26   11.94 
   6  -1   2  101.21   12.39 
  -6   1  -3   48.19    9.24 
   6   1   3   56.53   10.56 
  -6   1  -3   57.11   10.60 
  -6   1  -3   56.32    8.55 
   6   1   3   56.92    8.25 
   6   1   3   57.77    9.82 
  -6  -1  -3   57.30    9.63 
   6  -1   3   56.73    8.39 
   6  -1   3   60.72   11.23 
  -6  -1  -3   57.14    9.58 
  -6  -1  -3   53.04    9.08 
   6  -1   3   55.61    9.22 
   6   1   4  701.92   33.26 
   6   1   4  702.08   36.60 
  -6   1  -4  730.63   36.34 
  -6   1  -4  691.92   34.16 
   6   1   4  692.16   30.61 
  -6  -1  -4  685.89   31.67 
   6  -1   4  702.35   30.12 
  -6  -1  -4  697.32   34.08 
  -6  -1  -4  724.71   35.38 
   6  -1   4  678.59   36.21 
   6  -1   4  688.10   32.28 
   6   1   5   14.60    6.52 
   6   1   5   14.81    6.74 
  -6   1  -5   15.96    6.77 
   6   1   5   12.27    5.63 
  -6   1  -5   12.63    6.72 
  -6  -1  -5   20.22    7.00 
   6  -1   5   21.61    6.53 
  -6  -1  -5   18.49    7.06 
  -6  -1  -5   17.06    7.02 
   6  -1   5   21.24    7.78 
   6  -1   5   20.99    6.81 
   6   1   6  756.50   31.44 
   6   1   6  755.39   35.52 
  -6   1  -6  761.10   33.71 
   6   1   6  751.25   29.45 
  -6   1  -6  736.03   33.19 
  -6  -1  -6  763.69   33.05 
   6  -1   6  778.99   29.62 
  -6  -1  -6  730.91   33.19 
  -6  -1  -6  741.71   31.03 
   6  -1   6  738.99   36.47 
   6  -1   6  770.04   32.27 
  -6   1  -7    4.62    7.90 
   6   1   7    8.10    7.85 
  -6   1  -7    9.58    7.26 
  -6   1  -7    7.81    7.47 
   6   1   7    5.78    5.64 
  -6  -1  -7    5.43    6.34 
   6  -1   7    5.16    8.70 
  -6  -1  -7    7.18    7.08 
  -6  -1  -7    8.37    6.64 
   6  -1   7    6.70    6.36 
  -6   1  -8   42.30    9.23 
   6   1   8   45.35   10.85 
  -6   1  -8   45.69    9.78 
  -6   1  -8   44.21    8.76 
   6   1   8   41.60    7.70 
  -6  -1  -8   55.49    9.54 
   6  -1   8   49.98   11.86 
  -6  -1  -8   46.61   10.64 
  -6  -1  -8   53.04    9.79 
   6  -1   8   49.02    8.76 
  -6   1  -9   23.70    8.41 
   6   1   9   19.00    8.56 
  -6   1  -9   17.93    9.53 
   6   1   9   18.87    7.04 
  -6  -1  -9   42.12    9.07 
   6  -1   9   39.72   10.95 
  -6  -1  -9   40.84   10.94 
  -6  -1  -9   37.69    8.46 
   6  -1   9   35.49    8.48 
   6   1  10  416.34   25.69 
  -6   1 -10  433.27   22.50 
  -6   1 -10  436.16   25.38 
   6  -1  10  350.54   24.48 
  -6  -1 -10  336.13   19.75 
  -6  -1 -10  348.50   22.98 
   6   1  11  206.08   18.76 
  -6   1 -11  204.73   15.03 
  -6   1 -11  204.98   17.86 
   6  -1  11  264.81   21.98 
  -6  -1 -11  266.26   16.72 
  -6  -1 -11  273.94   20.20 
   6   1  12   83.17   13.85 
  -6   1 -12   83.21   11.31 
  -6   1 -12   88.13   14.08 
   6  -1  12   72.85   14.94 
  -6  -1 -12   72.66   10.94 
  -6  -1 -12   76.00   14.34 
   6   1  13   17.61   11.59 
  -6   1 -13   16.97    9.47 
  -6   1 -13   14.24   10.38 
   6  -1  13   15.88   13.71 
  -6  -1 -13   15.70    9.57 
  -6  -1 -13   21.59   13.17 
   6   1  14   47.46   13.36 
  -6   1 -14   48.66   10.93 
  -6   1 -14   44.24   12.19 
   6  -1  14   28.88   14.90 
  -6  -1 -14   32.38   10.64 
  -6  -1 -14   37.69   14.70 
   6   1  15   36.11   14.11 
  -6   1 -15   40.43   11.53 
  -6   1 -15   43.56   13.84 
   6  -1  15   49.37   14.90 
  -6  -1 -15   51.83   11.64 
  -6  -1 -15   51.64   14.52 
   6   1  16  113.51   17.27 
  -6   1 -16  122.03   14.88 
  -6   1 -16  116.87   16.20 
   6  -1  16  118.20   19.14 
  -6  -1 -16  116.39   13.64 
  -6  -1 -16  114.45   16.46 
   6   2 -18   39.25   11.47 
  -6   2  18   46.99   15.17 
   6   2 -18   41.06   13.21 
  -6  -2  18   28.62   15.90 
   6   2 -17   19.89   11.51 
  -6   2  17   21.52   13.10 
   6   2 -17   24.63   13.09 
  -6  -2  17   45.44   15.07 
  -6   2  16   74.81   16.30 
   6   2 -16   81.44   13.09 
   6   2 -16   83.11   14.74 
  -6  -2  16  108.11   16.74 
   6  -2 -16  102.07   11.54 
   6  -2 -16  101.62   15.26 
  -6   2  15   21.72   12.60 
   6   2 -15   21.96   10.95 
   6   2 -15   24.38   11.22 
  -6  -2  15   18.86   13.49 
   6  -2 -15   20.50    7.83 
   6  -2 -15   14.77   10.94 
  -6   2  14  138.34   15.70 
   6   2 -14  144.49   13.87 
   6   2 -14  135.14   13.91 
  -6  -2  14  161.46   16.99 
   6  -2 -14  176.19   13.32 
   6  -2 -14  168.26   16.31 
   6   2 -13  176.23   14.73 
  -6   2  13  173.46   16.45 
   6   2 -13  169.48   14.32 
  -6  -2  13  170.71   16.72 
   6  -2 -13  184.56   13.44 
   6  -2 -13  176.45   14.93 
   6  -2 -13  173.01   14.01 
   6   2 -12  286.58   18.07 
  -6   2  12  270.68   19.11 
  -6   2  12  273.88   18.11 
  -6  -2  12  353.89   22.66 
   6  -2 -12  349.27   18.75 
   6  -2 -12  361.08   20.56 
  -6  -2  12  361.82   21.37 
   6   2 -11  321.62   18.78 
  -6   2  11  295.30   19.86 
  -6   2  11  327.35   20.71 
  -6  -2  11  274.19   20.12 
   6  -2 -11  286.37   17.70 
   6  -2 -11  278.63   18.68 
  -6  -2  11  291.04   20.60 
  -6   2  10  147.79   13.69 
   6   2 -10  145.33   13.43 
  -6  -2  10  131.96   14.64 
   6  -2 -10  132.81   12.21 
   6  -2 -10  136.79   13.10 
  -6  -2  10  135.83   14.25 
   6   2  -9  573.76   22.75 
   6   2  -9  536.61   23.13 
  -6   2   9  554.40   24.13 
  -6  -2   9  541.41   26.51 
   6  -2  -9  554.23   22.87 
   6  -2  -9  565.26   23.82 
  -6  -2   9  540.70   25.61 
   6   2  -8  529.92   24.32 
   6   2  -8  520.49   23.79 
  -6   2   8  532.60   25.20 
  -6   2   8  535.51   23.14 
  -6  -2   8  486.90   26.48 
   6  -2  -8  499.14   23.03 
  -6  -2   8  502.65   26.19 
   6  -2  -8  520.05   24.67 
  -6   2   7  683.93   30.58 
   6   2  -7  667.33   28.97 
  -6   2   7  671.00   28.01 
   6   2  -7  702.03   29.59 
   6  -2  -7  677.98   29.00 
   6  -2  -7  670.86   28.45 
   6  -2  -7  662.78   29.35 
  -6  -2   7  687.50   31.66 
  -6  -2   7  654.65   32.39 
   6   2  -6   53.45    8.38 
   6   2  -6   50.82    8.62 
   6   2  -6   51.48    9.40 
  -6   2   6   49.28    8.88 
  -6   2   6   48.03    8.03 
  -6  -2   6   18.90    6.87 
   6  -2  -6   16.47    5.98 
   6  -2  -6   17.68    6.74 
   6  -2  -6   17.51    6.17 
  -6  -2   6   17.91    7.55 
   6   2  -5  202.54   15.50 
   6   2  -5  198.99   15.44 
   6   2  -5  202.13   16.12 
  -6   2   5  200.26   16.03 
  -6   2   5  186.80   14.55 
  -6  -2   5  226.24   18.03 
   6  -2  -5  219.39   16.76 
   6  -2  -5  233.54   16.64 
   6  -2  -5  219.83   16.02 
  -6  -2   5  214.64   18.23 
   6   2  -4  988.65   41.51 
   6   2  -4  977.19   40.92 
   6   2  -4  969.50   40.63 
  -6   2   4  946.40   40.04 
  -6   2   4  940.19   42.29 
  -6  -2   4  852.95   38.67 
   6  -2  -4  900.73   38.49 
   6  -2  -4  929.57   40.74 
   6  -2  -4  930.58   38.38 
  -6  -2   4  942.91   43.55 
  -6   2   3  828.28   35.57 
   6   2  -3  824.29   35.66 
  -6   2   3  754.05   34.76 
   6   2  -3  869.92   38.54 
   6   2  -3  857.91   37.34 
  -6   2   3  851.44   37.03 
   6   2  -3  807.51   35.81 
   6  -2  -3  726.49   33.33 
   6  -2  -3  724.93   32.97 
  -6  -2   3  759.09   37.26 
   6  -2  -3  764.76   33.04 
   6   2  -2  267.87   21.06 
  -6   2   2  259.14   21.29 
   6   2  -2  290.23   22.77 
  -6   2   2  283.76   22.41 
   6   2  -2  270.50   22.41 
  -6   2   2  277.07   21.88 
   6   2  -2  288.63   22.97 
  -6   2   1  233.89   21.74 
   6   2  -1  235.53   19.79 
   6   2  -1  234.59   19.89 
  -6   2   1  237.44   20.35 
   6   2  -1  237.13   20.41 
   6   2  -1  238.75   19.87 
  -6   2   1  231.69   19.34 
  -6   2   1  239.63   19.70 
  -6  -2   1  219.64   19.46 
   6  -2  -1  240.68   19.46 
  -6  -2   1  199.47   21.05 
   6  -2  -1  242.35   19.13 
  -6   2   0   84.49   12.18 
  -6   2   0   89.55   11.64 
  -6   2   0   94.37   11.41 
   6   2   0   87.81   10.73 
   6   2   0   90.96   12.11 
   6  -2   0   73.47    9.55 
  -6  -2   0   71.00   10.11 
   6  -2   0   73.33   10.51 
  -6  -2   0   70.05   10.45 
   6  -2   0   72.26    9.58 
  -6   2  -1  620.73   33.64 
  -6   2  -1  608.80   30.23 
  -6   2  -1  628.04   29.35 
   6   2   1  636.13   29.51 
   6   2   1  641.83   31.51 
  -6  -2  -1  557.76   28.83 
  -6  -2  -1  549.61   29.28 
   6  -2   1  524.53   25.44 
   6  -2   1  545.54   29.08 
   6  -2   1  574.13   28.16 
  -6   2  -2  624.70   29.34 
  -6   2  -2  600.86   33.00 
   6   2   2  604.12   30.05 
   6   2   2  592.75   27.68 
   6  -2   2  549.45   31.43 
  -6  -2  -2  548.75   29.52 
  -6  -2  -2  527.31   27.59 
   6  -2   2  485.53   26.46 
   6  -2   2  544.14   27.52 
  -6   2  -3 2174.33   69.00 
   6   2   3 2198.30   67.58 
  -6   2  -3 2205.95   61.76 
  -6   2  -3 2230.63   65.23 
   6   2   3 2151.79   60.79 
   6  -2   3 2082.41   68.25 
  -6  -2  -3 2093.18   62.49 
  -6  -2  -3 2028.08   57.12 
  -6  -2  -3 2047.38   64.11 
   6  -2   3 2102.95   60.60 
  -6   2  -4  579.05   27.44 
  -6   2  -4  565.40   28.63 
   6   2   4  579.62   29.16 
   6   2   4  576.72   24.93 
  -6   2  -4  556.24   24.66 
  -6  -2  -4  467.83   22.70 
   6  -2   4  487.02   28.31 
   6  -2   4  501.30   21.56 
  -6  -2  -4  463.95   24.41 
  -6  -2  -4  498.75   26.22 
   6  -2   4  475.67   22.89 
  -6   2  -5  126.05   13.67 
  -6   2  -5  127.67   14.46 
   6   2   5  123.17   14.34 
  -6   2  -5  124.22   12.90 
   6   2   5  125.63   12.10 
  -6  -2  -5  142.57   13.49 
  -6  -2  -5  151.56   14.50 
   6  -2   5  146.08   13.27 
  -6  -2  -5  143.54   15.03 
   6  -2   5  147.70   17.35 
   6  -2   5  147.80   13.82 
  -6   2  -6    5.72    6.37 
  -6   2  -6    2.76    5.99 
   6   2   6    3.61    7.35 
  -6   2  -6    4.89    6.36 
   6   2   6    5.10    5.47 
  -6  -2  -6    6.26    5.21 
   6  -2   6    4.84    7.90 
  -6  -2  -6    4.59    7.13 
  -6  -2  -6    3.46    6.47 
   6  -2   6    5.89    5.77 
   6   2   7  457.89   18.94 
   6   2   7  467.02   24.58 
  -6   2  -7  464.26   23.00 
  -6  -2  -7  449.25   21.28 
   6  -2   7  431.72   24.99 
  -6  -2  -7  442.83   22.78 
  -6  -2  -7  426.01   19.99 
   6  -2   7  433.73   20.01 
   6   2   8  186.16   12.49 
   6   2   8  180.81   16.41 
  -6   2  -8  185.93   15.80 
  -6  -2  -8  188.68   14.23 
   6  -2   8  181.45   17.70 
  -6  -2  -8  192.91   16.71 
  -6  -2  -8  175.52   13.37 
   6  -2   8  182.11   13.55 
  -6   2  -9  140.42   13.83 
   6   2   9  140.48   15.65 
  -6   2  -9  148.45   14.77 
   6   2   9  149.44   11.58 
  -6  -2  -9  213.38   14.81 
   6  -2   9  208.56   18.90 
  -6  -2  -9  224.28   18.02 
  -6  -2  -9  213.89   15.55 
   6  -2   9  212.16   14.71 
  -6   2 -10   61.71   10.12 
   6   2  10   59.66   11.34 
  -6   2 -10   61.68   11.25 
  -6  -2 -10   66.33   11.04 
   6  -2  10   72.33   14.49 
  -6  -2 -10   60.90   12.85 
  -6  -2 -10   62.49    9.55 
   6  -2  10   62.42    9.46 
   6   2  11   44.01   11.14 
  -6   2 -11   38.59   10.92 
  -6   2 -11   43.24   10.35 
   6  -2  11   31.89   12.05 
  -6  -2 -11   34.18    9.23 
  -6  -2 -11   39.75   12.16 
   6   2  12  143.84   16.65 
  -6   2 -12  159.88   14.51 
  -6   2 -12  152.96   15.45 
   6  -2  12  179.84   19.33 
  -6  -2 -12  186.29   15.71 
  -6  -2 -12  189.43   18.26 
   6   2  13   -1.51    9.87 
  -6   2 -13    4.24   10.16 
  -6   2 -13    8.82   11.02 
   6  -2  13   18.62   13.15 
  -6  -2 -13   13.83   10.15 
  -6  -2 -13   10.39   11.83 
   6   2  14    8.56   13.04 
  -6   2 -14   14.17   10.98 
  -6   2 -14    7.20   11.68 
   6  -2  14    7.10   14.63 
  -6  -2 -14    9.42    9.03 
  -6  -2 -14   12.45   11.96 
  -6   2 -15   17.79   11.10 
  -6  -2 -15   14.01    9.89 
   6  -2  15   16.15   17.37 
  -6  -2 -15   14.71   12.40 
  -6   2 -16   21.40   12.06 
   6  -2  16   21.37   16.67 
  -6  -2 -16   25.18   13.88 
   6   3 -18    0.75   12.19 
  -6   3  18   -1.36   13.71 
   6   3 -18    6.60   10.63 
   6  -3 -18   -0.65   12.00 
  -6  -3  18   -3.39   14.87 
   6   3 -17    2.47   11.44 
  -6   3  17    4.62   14.25 
   6   3 -17    6.74   11.26 
   6  -3 -17    4.27   13.25 
  -6  -3  17    5.34   12.95 
   6   3 -16   65.05   13.54 
  -6   3  16   63.95   14.00 
   6   3 -16   69.22   12.31 
   6  -3 -16   76.45   14.57 
  -6  -3  16   80.73   18.43 
   6   3 -15  160.57   15.77 
  -6   3  15  173.59   16.65 
   6   3 -15  175.62   16.05 
   6  -3 -15  196.72   17.41 
  -6  -3  15  190.24   18.72 
  -6   3  14   67.94   13.80 
   6   3 -14   62.43   12.02 
   6   3 -14   63.00   12.73 
  -6  -3  14   34.54   14.06 
   6  -3 -14   33.43    8.23 
   6  -3 -14   34.55   12.69 
  -6   3  13  131.83   13.96 
   6   3 -13  135.72   14.10 
   6   3 -13  126.89   13.69 
  -6  -3  13  131.52   17.49 
   6  -3 -13  123.28   11.46 
   6  -3 -13  135.57   14.79 
   6   3 -12  137.85   13.10 
  -6   3  12  145.70   13.93 
   6   3 -12  137.99   13.92 
   6  -3 -12  144.43   14.22 
  -6  -3  12  135.65   16.56 
   6   3 -11  168.13   13.93 
  -6   3  11  167.13   14.94 
  -6   3  11  175.07   15.16 
  -6  -3  11  161.14   16.98 
   6  -3 -11  165.79   13.21 
   6  -3 -11  165.23   15.50 
  -6  -3  11  159.73   15.94 
   6   3 -10  416.34   21.14 
  -6   3  10  426.61   22.71 
  -6   3  10  440.44   23.76 
  -6  -3  10  354.30   24.07 
   6  -3 -10  372.40   19.74 
   6  -3 -10  376.57   21.91 
  -6  -3  10  377.81   23.32 
   6   3  -9   83.91   11.27 
  -6   3   9   87.08   11.14 
  -6   3   9   86.44   11.06 
  -6  -3   9  129.59   14.66 
   6  -3  -9  128.81   11.31 
   6  -3  -9  135.17   14.19 
  -6  -3   9  134.95   14.75 
  -6   3   8   86.83   10.75 
   6   3  -8   85.88   11.12 
  -6   3   8   84.52   10.69 
  -6   3   8   83.61    9.55 
   6   3  -8   84.51   10.49 
   6  -3  -8   79.79    9.59 
   6  -3  -8   76.04   11.15 
  -6  -3   8   75.86   11.47 
  -6  -3   8   73.35   12.43 
  -6   3   7  390.31   21.48 
   6   3  -7  379.48   21.26 
  -6   3   7  383.62   20.74 
  -6   3   7  370.99   19.27 
   6   3  -7  388.55   20.64 
   6  -3  -7  365.93   18.81 
   6  -3  -7  360.89   20.49 
  -6  -3   7  368.63   22.16 
  -6  -3   7  354.36   22.98 
  -6   3   6  234.96   15.36 
   6   3  -6  246.21   16.47 
  -6   3   6  254.27   15.36 
  -6   3   6  249.57   16.25 
   6   3  -6  247.96   15.92 
  -6  -3   6  317.91   21.74 
   6  -3  -6  305.94   17.13 
   6  -3  -6  317.55   19.42 
  -6  -3   6  310.74   18.40 
  -6   3   5  433.34   22.79 
   6   3  -5  431.60   23.30 
   6   3  -5  435.81   22.51 
   6   3  -5  436.87   23.31 
  -6   3   5  433.36   21.44 
   6  -3  -5  519.79   25.43 
   6  -3  -5  520.37   25.92 
   6  -3  -5  521.03   23.73 
  -6  -3   5  527.89   29.08 
  -6  -3   5  509.26   24.62 
   6   3  -4  774.90   31.07 
   6   3  -4  742.83   31.34 
   6   3  -4  849.03   33.65 
   6   3  -4  792.01   31.65 
  -6   3   4  789.78   31.45 
  -6   3   4  751.46   28.86 
   6  -3  -4  827.28   30.40 
   6  -3  -4  821.18   33.20 
   6  -3  -4  810.52   31.88 
  -6  -3   4  805.72   36.27 
  -6   3   3  616.98   26.10 
   6   3  -3  619.70   28.36 
   6   3  -3  641.75   28.15 
   6   3  -3  599.15   27.38 
   6   3  -3  650.14   28.07 
  -6   3   3  637.24   27.61 
   6  -3  -3  731.68   30.14 
  -6  -3   3  730.62   31.72 
   6  -3  -3  724.06   30.51 
  -6  -3   3  687.32   32.91 
   6  -3  -3  740.07   28.35 
   6   3  -2  212.94   16.46 
   6   3  -2  207.06   16.48 
   6   3  -2  199.33   16.24 
   6   3  -2  204.94   15.89 
  -6   3   2  217.52   16.49 
  -6   3   2  204.89   15.41 
   6  -3  -2  216.21   15.28 
   6  -3  -2  226.01   16.93 
  -6  -3   2  220.28   17.36 
  -6  -3   2  209.87   18.44 
   6   3  -1  445.80   23.00 
   6   3  -1  445.07   23.66 
   6   3  -1  432.41   21.66 
  -6   3   1  430.98   21.73 
   6   3  -1  418.23   22.14 
  -6   3   1  406.72   21.08 
   6  -3  -1  552.06   25.49 
  -6  -3   1  534.50   26.15 
   6  -3  -1  529.08   23.02 
  -6   3   0  526.86   28.14 
  -6   3   0  509.64   23.60 
   6   3   0  532.26   24.38 
   6   3   0  533.52   26.04 
  -6  -3   0  463.35   24.35 
   6  -3   0  434.87   24.13 
   6  -3   0  447.84   20.68 
   6  -3   0  484.51   22.86 
  -6   3  -1  279.42   21.51 
   6   3   1  296.48   22.06 
   6   3   1  292.30   19.22 
  -6   3  -1  289.13   19.07 
   6  -3   1  340.46   17.47 
  -6  -3  -1  322.49   19.61 
   6  -3   1  327.16   19.58 
   6  -3   1  347.10   18.64 
  -6   3  -2  347.50   19.09 
  -6   3  -2  357.05   23.45 
   6   3   2  355.78   19.76 
   6   3   2  347.41   20.68 
  -6  -3  -2  277.64   18.96 
   6  -3   2  284.15   21.51 
  -6  -3  -2  241.04   17.49 
   6  -3   2  277.37   15.92 
   6  -3   2  278.74   17.48 
   6  -3   2  271.34   16.83 
   6   3   3   19.77    6.41 
  -6   3  -3   20.87    7.76 
   6   3   3   19.22    9.43 
  -6   3  -3   20.32    6.53 
   6   3   3   20.69    7.85 
  -6  -3  -3   16.71    6.84 
   6  -3   3   17.19    6.10 
  -6  -3  -3   16.65    7.99 
   6  -3   3   15.87    8.69 
   6  -3   3   16.50    5.91 
   6  -3   3   18.79    5.99 
   6   3   4  347.02   21.24 
  -6   3  -4  341.35   21.63 
  -6   3  -4  333.18   18.12 
  -6   3  -4  338.90   19.85 
   6   3   4  316.02   17.24 
   6  -3   4  321.05   22.21 
  -6  -3  -4  322.28   19.22 
  -6  -3  -4  324.15   18.69 
  -6  -3  -4  320.88   20.62 
   6  -3   4  316.72   18.36 
   6   3   5   56.28    8.03 
   6   3   5   58.87    9.99 
  -6   3  -5   54.67    9.17 
  -6   3  -5   61.59    9.80 
   6  -3   5   29.08   10.11 
  -6  -3  -5   36.54    8.33 
  -6  -3  -5   33.31    7.19 
  -6  -3  -5   31.06    8.80 
   6  -3   5   30.88    7.26 
   6   3   6   23.50    6.24 
   6   3   6   22.92    8.23 
  -6   3  -6   23.52    7.59 
  -6   3  -6   22.87    8.04 
  -6  -3  -6    2.24    5.27 
   6  -3   6   -0.87    8.30 
  -6  -3  -6    1.39    6.42 
  -6  -3  -6    2.24    6.34 
   6  -3   6    3.52    5.34 
  -6   3  -7  462.69   22.20 
   6   3   7  466.68   25.09 
  -6   3  -7  466.20   24.03 
   6   3   7  469.24   20.19 
  -6  -3  -7  466.20   21.38 
   6  -3   7  468.50   27.27 
  -6  -3  -7  462.50   24.40 
  -6  -3  -7  474.65   22.87 
   6  -3   7  465.63   21.65 
  -6   3  -8   98.62   11.71 
   6   3   8   99.83   13.41 
  -6   3  -8   92.85   11.67 
  -6  -3  -8  101.53   11.62 
   6  -3   8  105.92   15.70 
  -6  -3  -8  112.17   14.39 
  -6  -3  -8  104.30   10.86 
   6  -3   8  113.48   11.24 
   6   3   9   15.38    9.56 
  -6   3  -9   12.20    7.96 
   6  -3   9   15.57   12.44 
  -6  -3  -9    8.62    6.43 
  -6  -3  -9   12.86    9.85 
  -6  -3  -9    9.35    8.04 
   6  -3   9   11.59    7.38 
   6   3  10   48.31   11.68 
  -6   3 -10   41.68   10.20 
   6  -3  10   45.71   13.98 
  -6  -3 -10   41.38    8.48 
  -6  -3 -10   47.95   13.20 
  -6  -3 -10   42.24   10.28 
   6  -3  10   43.87    8.93 
   6   3  11  465.19   25.06 
  -6   3 -11  450.74   21.70 
  -6   3 -11  424.64   22.79 
   6  -3  11  515.06   29.67 
  -6  -3 -11  475.29   22.06 
  -6  -3 -11  490.52   25.59 
   6   3  12    2.00    9.74 
  -6   3 -12    0.29   10.50 
   6  -3  12   -2.53   13.87 
  -6  -3 -12    1.94    8.27 
  -6  -3 -12   -0.65   10.69 
  -6   3 -13   36.67   12.06 
  -6  -3 -13   39.76    9.81 
   6  -3  13   44.51   15.87 
  -6  -3 -13   40.31   13.44 
  -6   3 -14   50.05   13.04 
   6  -3  14   55.99   18.01 
  -6  -3 -14   56.59   15.25 
  -6   3 -15   33.71   12.93 
   6  -3  15   34.03   14.99 
  -6  -3 -15   35.22   15.06 
   6   4 -17   20.73   12.85 
  -6   4  17   23.44   15.01 
   6   4 -17   17.82   12.36 
   6  -4 -17   10.43   12.41 
  -6  -4  17   18.02   14.92 
   6   4 -16    5.03   10.37 
  -6   4  16    5.01   13.48 
   6   4 -16    6.01   11.42 
   6  -4 -16    9.94   12.49 
  -6  -4  16   11.39   13.85 
   6   4 -15   55.17   13.19 
  -6   4  15   57.42   14.20 
   6   4 -15   51.33   13.28 
   6  -4 -15   62.70   14.24 
  -6  -4  15   41.11   15.70 
   6   4 -14   86.01   12.64 
  -6   4  14   90.93   13.52 
   6   4 -14   80.99   13.90 
   6  -4 -14   83.31   13.60 
  -6  -4  14   76.61   15.74 
  -6   4  13   10.63   10.57 
   6   4 -13    7.35   10.12 
  -6  -4  13    4.39   11.66 
   6  -4 -13    5.87   10.88 
  -6   4  12  294.50   17.98 
   6   4 -12  300.92   18.30 
  -6  -4  12  326.83   23.78 
   6  -4 -12  339.34   20.61 
   6   4 -11  321.22   18.07 
  -6   4  11  310.04   18.16 
   6   4 -11  341.92   19.06 
   6  -4 -11  334.18   20.04 
  -6  -4  11  322.74   23.72 
  -6   4  10  420.30   20.85 
   6   4 -10  396.66   19.31 
  -6  -4  10  419.75   25.18 
  -6  -4  10  432.76   24.21 
   6  -4 -10  406.27   21.27 
   6  -4 -10  403.75   18.41 
   6   4  -9  213.83   14.70 
  -6   4   9  219.32   15.66 
  -6   4   9  206.72   15.03 
  -6  -4   9  298.78   22.76 
   6  -4  -9  274.68   16.25 
   6  -4  -9  302.14   20.13 
  -6  -4   9  272.38   20.57 
  -6   4   8  626.86   27.64 
   6   4  -8  621.27   28.51 
  -6   4   8  597.47   25.59 
  -6   4   8  609.42   28.09 
   6   4  -8  626.00   27.73 
  -6  -4   8  710.81   35.22 
   6  -4  -8  669.88   26.65 
   6  -4  -8  695.65   31.44 
  -6   4   7  411.39   21.55 
   6   4  -7  389.12   21.06 
  -6   4   7  388.12   19.37 
  -6   4   7  398.28   20.83 
   6   4  -7  410.85   20.57 
  -6  -4   7  417.17   25.71 
   6  -4  -7  418.44   19.48 
   6  -4  -7  417.11   22.37 
  -6   4   6  268.41   17.08 
   6   4  -6  248.25   17.21 
  -6   4   6  272.56   17.87 
  -6   4   6  258.90   15.77 
   6   4  -6  274.01   17.17 
   6  -4  -6  298.99   16.31 
   6  -4  -6  309.47   19.51 
  -6  -4   6  296.94   20.19 
  -6  -4   6  311.63   22.39 
  -6   4   5  194.92   14.25 
   6   4  -5  181.88   14.71 
  -6   4   5  197.96   14.87 
  -6   4   5  188.65   13.18 
   6   4  -5  187.61   14.42 
   6  -4  -5  173.13   12.14 
   6  -4  -5  174.02   14.74 
  -6  -4   5  172.23   15.63 
  -6  -4   5  174.31   16.70 
  -6   4   4  485.33   21.54 
   6   4  -4  454.27   22.52 
  -6   4   4  475.08   22.39 
  -6   4   4  462.65   19.94 
   6   4  -4  462.87   21.47 
   6  -4  -4  476.27   19.84 
   6  -4  -4  466.83   22.18 
  -6  -4   4  474.06   24.50 
  -6  -4   4  456.88   25.36 
  -6   4   3  224.63   13.98 
   6   4  -3  229.72   16.41 
  -6   4   3  233.24   15.71 
   6   4  -3  238.92   16.29 
   6   4  -3  241.47   15.75 
  -6   4   3  233.69   15.28 
   6   4  -3  233.73   15.95 
  -6  -4   3  207.50   15.85 
   6  -4  -3  196.71   14.80 
  -6  -4   3  193.95   16.98 
   6  -4  -3  202.97   13.12 
  -6   4   2  241.55   14.74 
   6   4  -2  250.43   16.90 
  -6   4   2  250.71   18.07 
   6   4  -2  246.15   16.85 
   6   4  -2  254.30   16.18 
  -6   4   2  252.94   15.94 
   6   4  -2  253.56   16.68 
  -6  -4   2  185.88   15.15 
   6  -4  -2  198.37   15.00 
  -6  -4   2  200.67   16.92 
   6  -4  -2  201.67   13.21 
   6   4  -1   98.85   11.89 
  -6   4   1  101.81   11.56 
   6   4  -1  107.60   11.05 
   6   4  -1  113.01   12.53 
   6   4  -1  109.01   11.42 
  -6   4   1  108.10   11.11 
  -6   4   1  108.26   10.84 
   6   4  -1  113.80   12.14 
   6  -4  -1  109.29   11.37 
  -6  -4   1  100.81   12.03 
   6  -4  -1  102.09    9.64 
   6   4   0  236.44   16.58 
   6   4   0  238.43   15.10 
   6   4   0  229.73   15.58 
   6   4   0  241.53   15.16 
  -6   4   0  237.39   14.87 
   6  -4   0  276.73   14.99 
  -6  -4   0  278.40   17.59 
   6   4   1  407.11   22.72 
   6   4   1  401.67   20.02 
  -6   4  -1  393.94   19.79 
   6   4   1  412.17   20.81 
  -6  -4  -1  340.66   20.50 
   6  -4   1  339.15   17.17 
  -6  -4  -1  338.55   20.99 
   6   4   2  515.49   25.77 
   6   4   2  543.55   23.68 
  -6   4  -2  514.20   21.40 
   6   4   2  539.59   21.86 
  -6  -4  -2  497.41   23.69 
   6  -4   2  492.82   19.63 
  -6  -4  -2  513.65   25.01 
   6   4   3  569.54   22.27 
   6   4   3  547.20   26.69 
   6   4   3  564.10   28.61 
  -6   4  -3  576.67   22.46 
   6  -4   3  541.98   27.53 
  -6  -4  -3  508.30   23.69 
   6   4   4  380.06   22.68 
  -6   4  -4  381.14   19.28 
   6   4   4  378.65   21.63 
   6   4   4  395.13   19.14 
  -6  -4  -4  449.77   23.01 
   6  -4   4  466.29   27.40 
   6   4   5    8.33    5.09 
   6   4   5    9.98    6.69 
  -6   4  -5    8.42    8.63 
  -6  -4  -5    7.19    5.73 
   6  -4   5    3.87   10.55 
  -6  -4  -5    5.36    6.49 
  -6   4  -6  152.99   13.24 
   6   4   6  157.71   14.40 
  -6  -4  -6  181.61   13.86 
  -6  -4  -6  173.26   14.41 
   6  -4   6  184.02   18.31 
   6  -4   6  178.01   13.09 
  -6   4  -7  312.42   19.59 
   6   4   7  320.66   21.27 
  -6  -4  -7  364.90   20.40 
  -6  -4  -7  386.50   22.10 
   6  -4   7  378.73   26.09 
   6  -4   7  386.93   20.20 
  -6   4  -8  179.21   16.28 
   6   4   8  180.31   17.54 
  -6  -4  -8  223.16   14.98 
  -6  -4  -8  227.52   16.11 
   6  -4   8  220.83   20.23 
   6  -4   8  225.91   14.67 
  -6   4  -9   23.58   10.01 
  -6  -4  -9   15.64    7.82 
   6  -4   9   18.16   12.33 
  -6  -4  -9   13.35    9.43 
  -6   4 -10   43.58   12.23 
  -6  -4 -10   30.08    9.08 
   6  -4  10   30.20   15.02 
  -6  -4 -10   33.13   11.84 
   6  -4  11   42.39   14.43 
  -6  -4 -11   33.74    8.98 
  -6  -4 -11   38.88   12.79 
   6  -4  12    8.92   14.63 
  -6  -4 -12   10.58   13.02 
  -6   4 -13    6.26    9.57 
   6  -4  13    2.71   14.85 
  -6  -4 -13    3.29   13.19 
  -6   4 -14   10.21   11.04 
   6  -4  14    6.03   15.77 
  -6  -4 -14   11.30   14.48 
  -6   4 -15   48.14   13.29 
   6  -4  15   49.11   19.03 
  -6  -4 -15   47.28   17.32 
  -6   5  16    5.65   12.64 
   6   5 -16   11.09   11.33 
  -6  -5  16    9.31   15.72 
   6  -5 -16    4.06   12.74 
  -6   5  15   22.09   13.98 
   6   5 -15   22.81   11.96 
  -6  -5  15   30.97   14.25 
   6  -5 -15   28.32   13.34 
   6   5 -14  110.86   13.70 
  -6   5  14  108.03   14.19 
   6   5 -14  105.23   14.16 
   6  -5 -14  122.83   17.23 
  -6  -5  14  119.95   18.91 
  -6   5  13   37.43   12.28 
   6   5 -13   36.52   11.17 
  -6  -5  13   35.29   13.85 
   6  -5 -13   34.76   11.83 
   6   5 -12   54.97   11.85 
  -6   5  12   48.90   13.00 
   6   5 -12   57.73   11.93 
   6  -5 -12   51.71   12.15 
  -6  -5  12   54.68   15.37 
   6   5 -11  166.30   14.02 
  -6   5  11  177.41   16.16 
   6   5 -11  184.09   15.55 
   6  -5 -11  155.55   16.18 
  -6  -5  11  162.99   19.40 
   6   5 -10  421.66   19.88 
  -6   5  10  456.55   22.51 
   6   5 -10  438.35   20.80 
   6  -5 -10  393.47   21.47 
  -6  -5  10  404.72   25.86 
   6   5  -9  308.68   18.04 
  -6   5   9  301.64   18.41 
   6   5  -9  310.22   18.07 
   6  -5  -9  280.70   18.41 
  -6  -5   9  285.78   22.04 
  -6   5   8   49.36   11.39 
   6   5  -8   49.11   10.52 
  -6  -5   8   49.98   12.45 
  -6  -5   8   46.68   12.47 
   6  -5  -8   43.99   10.35 
   6  -5  -8   40.31    7.64 
  -6   5   7   54.74   10.31 
   6   5  -7   52.44    9.70 
  -6  -5   7   44.51   12.15 
  -6  -5   7   43.20   11.23 
   6  -5  -7   45.22   10.79 
   6  -5  -7   41.87    7.68 
  -6   5   6  138.05   12.72 
   6   5  -6  133.77   13.24 
  -6   5   6  137.54   14.01 
   6   5  -6  145.87   13.00 
  -6  -5   6  103.55   14.67 
   6  -5  -6  108.51   10.31 
   6  -5  -6  118.94   13.12 
  -6  -5   6  113.56   14.37 
  -6   5   5  645.97   27.87 
   6   5  -5  577.36   34.98 
  -6   5   5  661.22   29.21 
   6   5  -5  639.55   29.04 
  -6  -5   5  721.53   34.72 
   6  -5  -5  722.46   28.07 
   6  -5  -5  753.48   32.19 
  -6  -5   5  728.32   33.13 
  -6   5   4  235.49   15.66 
   6   5  -4  222.25   16.07 
  -6   5   4  245.66   16.57 
   6   5  -4  231.92   15.97 
  -6  -5   4  295.74   21.78 
   6  -5  -4  285.95   16.62 
   6  -5  -4  298.99   19.08 
  -6  -5   4  293.47   20.85 
  -6   5   3  163.99   13.30 
   6   5  -3  164.58   14.22 
  -6   5   3  169.74   14.49 
   6   5  -3  169.32   14.03 
  -6  -5   3  199.66   17.32 
   6  -5  -3  204.90   13.38 
   6  -5  -3  193.68   15.41 
  -6  -5   3  206.22   16.46 
   6   5  -2    7.89    5.88 
  -6   5   2    6.27    8.56 
   6   5  -2    9.69    6.67 
   6   5  -2    8.71    6.94 
  -6   5   2   11.79    6.83 
   6  -5  -2   15.37    6.53 
   6  -5  -2   14.17    6.63 
  -6  -5   2   14.13    8.22 
  -6   5   1  235.18   16.54 
   6   5  -1  229.87   15.48 
  -6   5   1  230.98   15.06 
   6   5  -1  232.64   15.47 
   6   5  -1  222.93   15.61 
  -6  -5   1  321.27   20.32 
   6   5   0   76.80    9.62 
  -6   5   0   79.47   11.99 
   6   5   0   75.80   11.50 
   6   5   0   75.78   10.00 
  -6   5   0   76.28    9.51 
   6  -5   0  131.20   11.42 
  -6  -5   0  130.24   13.81 
   6   5   1  682.17   28.14 
  -6   5  -1  672.98   29.66 
  -6   5  -1  666.84   28.07 
   6   5   1  683.48   28.70 
  -6  -5  -1  731.89   32.45 
  -6  -5  -1  693.68   30.95 
   6   5   2  369.48   19.86 
  -6   5  -2  372.10   22.28 
  -6   5  -2  368.87   20.00 
   6   5   2  360.87   19.62 
  -6  -5  -2  339.95   21.35 
  -6  -5  -2  331.02   21.11 
   6   5   3  132.68   12.44 
  -6   5  -3  143.58   12.42 
   6   5   3  125.03   11.12 
  -6  -5  -3  138.69   13.64 
  -6  -5  -3  140.88   14.34 
  -6   5  -4  113.71   11.90 
  -6  -5  -4  121.68   13.31 
   6  -5   4  121.49   15.89 
  -6  -5  -4  114.84   14.69 
  -6   5  -5  520.68   21.84 
  -6  -5  -5  459.15   22.83 
   6  -5   5  472.96   27.66 
  -6  -5  -5  459.48   23.72 
  -6   5  -6  104.30   12.50 
   6  -5   6  110.19   17.63 
  -6  -5  -6  123.14   14.06 
  -6  -5  -6  111.64   12.09 
  -6  -5  -6  122.14   15.99 
  -6   5  -7   84.69   12.15 
  -6  -5  -7   67.63   11.04 
   6  -5   7   74.24   15.55 
  -6  -5  -7   67.51   11.90 
  -6   5  -8   65.84   11.73 
  -6  -5  -8   68.20   11.26 
   6  -5   8   68.65   14.70 
  -6  -5  -8   73.56   14.51 
  -6   5  -9   19.86   11.59 
   6  -5   9   15.62   13.81 
  -6  -5  -9   13.16   11.69 
  -6   5 -10   76.62   13.07 
   6  -5  10  103.00   16.91 
  -6   5 -11   16.83   11.54 
   6  -5  11   18.76   13.62 
  -6   5 -12   14.03   11.72 
   6  -5  12   10.31   14.39 
  -6   5 -13   18.34   11.84 
   6  -5  13   29.12   16.08 
   6  -5  14   83.27   20.12 
   6   6 -14   88.56   13.94 
  -6   6  14   93.45   15.78 
  -6  -6  14   69.29   17.72 
   6  -6 -14   73.56   14.63 
   6   6 -13  125.49   13.76 
  -6   6  13  125.23   16.53 
   6   6 -13  118.73   14.74 
   6  -6 -13  114.34   15.02 
  -6  -6  13  119.11   18.20 
   6   6 -12  106.54   12.64 
  -6   6  12  103.58   15.11 
   6   6 -12   87.93   13.34 
   6  -6 -12  103.33   14.79 
  -6  -6  12  115.89   18.42 
   6   6 -11   49.36   11.68 
  -6   6  11   54.48   12.90 
   6   6 -11   45.20   12.34 
   6  -6 -11   49.28   11.68 
  -6  -6  11   55.50   14.59 
   6   6 -10   21.41   10.18 
  -6   6  10   28.46   12.62 
   6   6 -10   28.29   11.36 
   6  -6 -10   29.46   11.07 
  -6  -6  10   32.94   14.37 
   6   6  -9   12.15    8.85 
  -6   6   9    7.95    9.39 
   6   6  -9   12.91   10.29 
   6  -6  -9   17.60    9.28 
  -6  -6   9   22.90   13.36 
   6   6  -8   16.12    8.58 
  -6   6   8   20.77    9.65 
   6   6  -8   18.62    9.23 
   6  -6  -8   19.45    9.81 
  -6  -6   8   20.01   12.49 
   6   6  -7  148.75   13.63 
  -6   6   7  150.63   14.85 
   6   6  -7  147.76   13.39 
   6  -6  -7  156.37   14.60 
  -6  -6   7  162.94   17.44 
   6   6  -6  424.80   20.80 
  -6   6   6  427.17   21.70 
  -6  -6   6  445.64   24.14 
   6  -6  -6  442.93   22.49 
  -6  -6   6  416.49   24.94 
   6   6  -5  147.10   13.21 
  -6   6   5  143.03   14.55 
  -6  -6   5  125.67   15.26 
   6  -6  -5  139.10   13.93 
  -6  -6   5  124.60   15.29 
   6   6  -4   16.32    9.00 
  -6   6   4   21.56    9.53 
  -6   6   4   14.85    7.44 
  -6  -6   4   24.27    9.92 
   6  -6  -4   21.50    7.20 
   6  -6  -4   27.72    8.33 
  -6  -6   4   21.24   10.98 
  -6   6   3  461.90   23.21 
   6   6  -3  455.09   21.97 
   6   6  -3  470.07   22.39 
  -6   6   3  458.86   20.69 
   6  -6  -3  415.32   18.78 
   6  -6  -3  436.10   22.15 
  -6  -6   3  431.20   23.26 
  -6   6   2 1171.67   35.49 
   6   6  -2 1129.44   33.52 
   6   6  -2 1163.06   33.73 
  -6   6   2 1162.39   32.61 
   6  -6  -2 1093.49   31.30 
   6  -6  -2 1195.05   35.20 
  -6  -6   2 1158.25   38.57 
  -6   6   1  136.74   15.45 
  -6   6   1  129.49   12.62 
   6   6  -1  135.24   14.54 
  -6  -6   1  114.90   14.74 
   6  -6  -1  113.71   11.44 
  -6   6   0   40.39   10.82 
   6   6   0   40.90   10.36 
  -6   6   0   40.09    9.18 
  -6  -6   0   55.44   10.69 
  -6   6  -1  135.27   15.56 
   6   6   1  138.51   14.25 
  -6   6  -1  140.27   14.01 
  -6  -6  -1  116.38   14.93 
  -6   6  -2  898.14   30.64 
  -6   6  -2  888.48   28.30 
  -6  -6  -2  877.98   32.56 
  -6  -6  -2  889.56   32.49 
  -6   6  -3   24.46    9.71 
  -6   6  -3   14.79    8.98 
  -6  -6  -3   30.24    9.63 
  -6  -6  -3   34.33   10.10 
  -6   6  -4   10.85   10.42 
  -6   6  -4   16.48    8.67 
  -6  -6  -4   19.96    8.64 
  -6  -6  -4   20.49   10.04 
  -6   6  -5   64.19   11.98 
  -6  -6  -5   46.42   10.48 
   6  -6   5   50.32   14.85 
  -6  -6  -5   52.05   11.75 
  -6   6  -6   11.41    9.68 
  -6  -6  -6   11.89    9.11 
   6  -6   6    8.73   14.51 
  -6  -6  -6    9.09   11.80 
  -6   6  -7   46.78   12.26 
   6  -6   7   74.91   15.53 
  -6  -6  -7   78.81   15.58 
  -6   6  -8  120.77   15.23 
   6  -6   8  140.72   19.03 
  -6  -6  -8  147.12   17.71 
  -6   6  -9   81.08   13.65 
   6  -6   9   90.45   16.07 
  -6  -6  -9   92.96   15.31 
  -6   6 -10   39.99   12.20 
   6  -6  10   46.99   16.74 
  -6  -6 -10   41.29   14.34 
  -6   6 -11   48.81   12.58 
   6  -6  11   47.61   17.25 
  -6  -6 -11   43.30   13.96 
  -6   6 -12   56.09   14.67 
   6  -6  12   39.50   17.35 
  -6  -6 -12   48.39   15.00 
   6   7 -12   85.09   14.61 
  -6   7  12   82.64   14.68 
  -6  -7  12   67.85   17.68 
   6  -7 -12   73.11   14.71 
   6   7 -11   81.58   13.58 
  -6   7  11   77.98   14.42 
  -6  -7  11   71.15   15.82 
   6  -7 -11   68.14   13.98 
   6   7 -10  188.50   15.76 
  -6   7  10  182.35   15.86 
  -6  -7  10  207.01   21.03 
   6  -7 -10  200.81   17.99 
   6   7  -9  118.67   13.30 
  -6   7   9  132.72   16.16 
   6   7  -9  137.75   13.90 
   6  -7  -9  106.82   15.00 
  -6  -7   9  102.88   16.31 
   6   7  -8   67.88   11.02 
  -6   7   8   62.74   12.20 
   6   7  -8   64.90   12.57 
   6  -7  -8   56.74   11.94 
  -6  -7   8   48.70   13.09 
   6   7  -7   51.64   10.75 
  -6   7   7   53.73   12.51 
   6   7  -7   52.40   11.77 
   6  -7  -7   56.23   11.24 
  -6  -7   7   58.58   13.66 
   6   7  -6   75.31   11.79 
  -6   7   6   70.73   13.62 
   6   7  -6   80.43   11.28 
  -6  -7   6   89.76   14.66 
   6   7  -5  503.45   21.47 
  -6   7   5  521.16   24.87 
   6   7  -5  521.50   22.65 
  -6  -7   5  521.42   27.61 
  -6   7   4   30.27   12.27 
   6   7  -4   27.22    9.84 
   6   7  -4   27.61    9.29 
  -6   7   3  136.12   15.59 
   6   7  -3  128.15   12.41 
   6   7  -3  124.37   13.17 
  -6   7   2   11.33   10.16 
   6   7  -2   12.82    8.87 
  -6   7   1  100.90   14.72 
   6   7  -1  104.76   12.77 
  -6   7   1  100.83   11.47 
  -6  -7   1   94.35   14.24 
  -6   7   0   18.36   10.93 
   6   7   0   24.87    9.88 
  -6   7   0   25.60    9.17 
  -6  -7   0   16.91   10.97 
  -6   7  -1  168.22   16.08 
   6   7   1  180.84   15.94 
  -6   7  -1  182.11   14.51 
  -6  -7  -1  191.55   17.10 
  -6   7  -2  303.66   20.29 
  -6   7  -2  289.80   16.87 
  -6  -7  -2  327.68   21.38 
  -6   7  -3   33.00   12.75 
  -6   7  -3   34.08   10.28 
  -6  -7  -3   27.80   10.10 
  -6  -7  -3   23.56   11.56 
  -6   7  -4  162.00   17.17 
  -6   7  -4  155.52   13.96 
  -6  -7  -4  173.11   16.57 
  -6   7  -5  163.70   16.85 
  -6   7  -5  167.59   15.48 
  -6  -7  -5  180.02   17.42 
  -6   7  -6  139.40   14.30 
  -6  -7  -6  133.38   17.62 
  -6   7  -7   41.74   13.13 
   6  -7   7   29.66   15.08 
  -6  -7  -7   28.04   13.15 
  -6   7  -8   23.76   11.58 
   6  -7   8   24.51   14.98 
  -6  -7  -8   19.49   12.46 
  -6   7  -9   32.84   12.15 
   6  -7   9   42.07   17.26 
  -6  -7  -9   30.60   14.36 
  -6   7 -10   99.37   14.43 
   6  -7  10   73.46   18.08 
  -6  -7 -10   85.03   17.11 
   6   8  -9   55.29   13.98 
  -6   8   9   68.54   14.59 
  -6  -8   9   51.06   14.86 
   6   8  -8  112.51   13.71 
  -6   8   8  118.92   16.08 
  -6  -8   8   89.68   16.09 
   6   8  -7   71.00   12.87 
  -6   8   7   75.52   13.67 
  -6  -8   7   57.92   14.42 
  -6   8   6   99.13   13.93 
   6   8  -6  102.12   13.20 
  -6   8   5   84.44   14.38 
   6   8  -5   89.68   12.55 
  -6   8   4   89.82   14.52 
   6   8  -4   90.98   13.22 
  -6   8   3  121.82   15.52 
   6   8  -3  108.40   13.18 
   6   8  -3  113.23   13.67 
  -6   8   2  157.48   16.47 
   6   8  -2  156.77   15.03 
  -6   8   1   66.59   14.59 
   6   8  -1   69.88   12.27 
  -6   8   0   22.04   13.51 
   6   8   0   21.85   10.46 
  -6   8  -1   18.95   12.62 
   6   8   1   21.70   10.44 
  -6   8  -2   98.10   15.05 
   6   8   2   96.12   14.33 
  -6   8  -3  144.22   16.96 
  -6   8  -3  129.15   13.02 
   6   8   3  127.41   14.62 
  -6   8  -4  201.07   18.39 
  -6   8  -4  225.66   16.18 
  -6  -8  -4  171.41   17.63 
  -6   8  -5    7.54   12.66 
  -6   8  -5    4.04   11.04 
  -6  -8  -5    5.69   11.82 
  -6   8  -6   49.44   14.86 
  -6   8  -6   48.21   12.55 
  -6  -8  -6   45.14   13.80 
  -6   8  -7   69.82   15.30 
  -6   8  -7   68.76   13.36 
  -6  -8  -7   54.22   13.73 
  -6   9   3   12.46   13.31 
  -6   9   2   46.60   13.89 
  -6   9   1   79.52   13.74 
  -6   9   0   63.33   15.66 
  -6   9  -1   -2.34   12.60 
  -7   0  18  185.52   19.32 
   7   0 -18  176.09   14.51 
   7   0 -18  175.17   17.10 
  -7   0  17   16.35   13.16 
   7   0 -17   16.77   10.30 
   7   0 -17   14.06   11.89 
  -7   0  16    3.55   13.10 
   7   0 -16    0.84    9.25 
   7   0 -16    1.82   12.05 
  -7   0  15   11.97   12.42 
   7   0 -15   19.26    8.73 
   7   0 -15   16.34   11.43 
  -7   0  14   13.70   10.27 
  -7   0  14   14.00   10.19 
   7   0 -14   10.94   11.23 
  -7   0  13    4.60    9.84 
  -7   0  13    3.44    8.37 
   7   0 -13   -1.48   10.10 
  -7   0  12  439.80   25.13 
  -7   0  12  452.57   25.00 
   7   0 -12  463.08   23.98 
  -7   0  11  104.55   13.12 
  -7   0  11  101.39   12.75 
   7   0 -11   91.53   12.32 
  -7   0  10 1013.68   36.91 
  -7   0  10  941.33   35.08 
  -7   0   9   -0.40    7.73 
  -7   0   9    2.67    6.98 
   7   0  -9   -0.31    5.36 
  -7   0   8  186.60   15.05 
   7   0  -8  186.66   13.54 
  -7   0   8  188.88   15.58 
   7   0  -8  189.21   14.29 
  -7   0   7  917.10   36.59 
   7   0  -7  899.87   34.51 
  -7   0   7  920.12   37.55 
   7   0  -7  902.03   36.25 
  -7   0   7  884.27   35.83 
  -7   0   6  675.93   29.01 
   7   0  -6  618.18   26.66 
  -7   0   6  662.63   29.67 
   7   0  -6  634.71   27.16 
  -7   0   6  646.89   27.02 
  -7   0   5  946.94   40.32 
   7   0  -5  969.22   40.29 
  -7   0   5  958.84   41.49 
   7   0  -5  943.88   39.22 
   7   0  -5  803.77   36.06 
  -7   0   5  957.05   39.68 
  -7   0   4   26.67    6.57 
   7   0  -4   25.19    6.50 
  -7   0   4   26.14    7.53 
   7   0  -4   24.37    7.05 
   7   0  -4   23.65    6.28 
  -7   0   4   28.27    7.24 
  -7   0   3    5.07    4.53 
   7   0  -3    5.37    5.39 
  -7   0   3    6.25    4.79 
   7   0  -3    6.71    4.63 
  -7   0   3    6.54    5.30 
  -7   0   2  149.55   14.53 
   7   0  -2  143.78   14.60 
  -7   0   2  142.91   14.62 
   7   0  -2  144.94   14.27 
  -7   0   2  137.49   14.00 
  -7   0   1  426.15   30.86 
  -7   0   1  416.91   28.04 
  -7   0   1  420.71   28.66 
   7   0  -1  420.85   27.68 
   7   0  -1  395.81   27.83 
   7   0  -1  401.23   27.48 
  -7   0   0 1548.06   62.23 
  -7   0   0 1518.56   57.47 
  -7   0   0 1587.39   60.13 
   7   0   0 1523.46   55.82 
   7   0   0 1547.63   59.90 
   7   0   0 1473.64   56.31 
  -7   0  -1   62.05   10.93 
  -7   0  -1   62.57    9.35 
  -7   0  -1   53.20    9.11 
   7   0   1   61.20    9.18 
   7   0   1   61.71    9.61 
   7   0   1   62.12    9.54 
   7   0   2   28.69    8.11 
  -7   0  -2   26.14    7.74 
   7   0   2   27.32    6.22 
  -7   0  -2   27.52    8.16 
   7   0   2   28.59    7.74 
   7   0   3 1547.38   53.95 
  -7   0  -3 1504.45   52.50 
   7   0   3 1543.26   45.58 
  -7   0  -3 1495.09   50.52 
   7   0   3 1542.13   50.39 
   7   0   4  581.38   30.19 
  -7   0  -4  570.08   27.44 
  -7   0  -4  561.89   25.50 
   7   0   4  589.69   24.02 
  -7   0  -4  591.94   28.25 
   7   0   4  568.26   26.48 
   7   0   5  643.15   33.29 
  -7   0  -5  667.08   30.79 
  -7   0  -5  647.30   28.44 
   7   0   5  664.88   26.84 
  -7   0  -5  638.93   30.90 
   7   0   5  662.84   29.44 
   7   0   6   65.94   10.94 
  -7   0  -6   62.95    9.86 
  -7   0  -6   66.75   10.13 
   7   0   6   68.12    8.78 
  -7   0  -6   64.22   10.68 
   7   0   6   63.71    9.91 
   7   0   7  145.30   15.04 
  -7   0  -7  154.41   13.88 
  -7   0  -7  144.43   13.63 
  -7   0  -7  152.84   15.04 
   7   0   7  151.48   12.82 
   7   0   8  210.23   18.39 
  -7   0  -8  214.32   16.14 
  -7   0  -8  211.19   15.08 
  -7   0  -8  215.23   17.58 
   7   0   9   55.93   11.74 
  -7   0  -9   54.20    9.22 
  -7   0  -9   56.49   12.10 
   7   0  10   83.16   14.83 
  -7   0 -10   86.14   11.77 
  -7   0 -10   88.09   14.79 
   7   0  11   12.95   11.32 
  -7   0 -11   17.07    8.96 
  -7   0 -11   17.54   10.30 
   7   0  12    6.76   11.78 
  -7   0 -12    5.38   10.19 
  -7   0 -12    6.51   10.90 
   7   0  13   18.29   12.14 
  -7   0 -13   16.46    9.32 
  -7   0 -13   17.77   12.04 
   7   0  14    3.50   12.15 
  -7   0 -14    4.96    9.70 
  -7   0 -14   13.12   11.59 
   7   0  15   10.59   14.75 
  -7   0 -15   16.89   10.21 
  -7   0 -15   15.86   12.64 
   7   0  16   21.07   16.55 
  -7   0 -16   29.81   12.59 
  -7   0 -16   29.43   13.85 
   7   1 -18   46.57   13.48 
   7   1 -18   43.24   12.14 
   7  -1 -18   55.87   10.34 
   7  -1 -18   53.76   15.12 
  -7  -1  18   72.92   17.69 
   7   1 -17   51.63   11.86 
   7   1 -17   52.81   13.84 
  -7  -1  17   59.80   15.12 
   7  -1 -17   55.86   10.92 
   7   1 -16   64.03   10.83 
   7   1 -16   67.68   13.11 
  -7  -1  16   59.54   15.21 
   7  -1 -16   64.39   10.30 
   7   1 -15   82.05   11.49 
   7   1 -15   76.62   12.60 
  -7  -1  15   92.95   14.67 
   7  -1 -15  100.48   11.21 
   7   1 -14  124.03   15.07 
  -7   1  14  101.41   15.40 
  -7   1  14  122.05   13.65 
  -7  -1  14  142.38   15.45 
  -7  -1  14  141.12   16.09 
   7   1 -13  668.54   26.22 
  -7   1  13  613.47   26.89 
  -7   1  13  645.02   27.51 
  -7  -1  13  665.38   29.05 
  -7  -1  13  673.02   29.16 
   7   1 -12  100.12   13.12 
  -7   1  12   94.50   13.06 
  -7   1  12   84.23   12.51 
  -7  -1  12  127.23   14.23 
  -7  -1  12  133.32   15.37 
   7   1 -11  264.81   17.13 
  -7   1  11  283.78   19.33 
  -7   1  11  287.86   19.46 
  -7  -1  11  287.34   20.71 
   7  -1 -11  286.34   18.24 
   7  -1 -11  277.49   18.12 
  -7  -1  11  280.58   19.75 
   7   1 -10  779.60   29.38 
  -7   1  10  793.93   30.83 
  -7   1  10  793.06   31.31 
  -7  -1  10  750.82   32.51 
   7  -1 -10  745.29   28.24 
   7  -1 -10  759.77   29.05 
  -7  -1  10  751.26   31.38 
  -7   1   9  174.06   14.39 
  -7   1   9  173.26   14.01 
   7   1  -9  173.26   13.32 
   7   1  -9  163.68   13.77 
  -7  -1   9  147.78   14.99 
   7  -1  -9  148.70   12.50 
   7  -1  -9  155.53   13.40 
  -7  -1   9  148.76   14.27 
   7   1  -8  181.54   13.95 
  -7   1   8  198.57   14.77 
   7   1  -8  197.97   14.33 
  -7   1   8  190.47   15.17 
   7   1  -8  186.27   14.50 
  -7   1   8  185.36   13.14 
   7  -1  -8  154.25   12.95 
   7  -1  -8  162.20   13.13 
  -7  -1   8  162.02   14.12 
  -7  -1   8  151.43   14.12 
   7  -1  -8  154.71   13.35 
   7   1  -7  543.67   25.42 
  -7   1   7  523.02   25.38 
   7   1  -7  526.70   24.74 
  -7   1   7  531.19   26.39 
   7   1  -7  533.81   26.10 
  -7   1   7  528.64   24.66 
   7  -1  -7  446.33   22.54 
   7  -1  -7  454.19   22.88 
  -7  -1   7  446.77   24.37 
  -7  -1   7  453.62   25.27 
   7  -1  -7  458.21   22.85 
  -7  -1   7  438.50   22.25 
  -7   1   6  139.58   12.46 
  -7   1   6  141.99   13.32 
   7   1  -6  143.59   13.03 
  -7   1   6  140.38   13.73 
   7   1  -6  139.58   13.00 
   7  -1  -6  145.87   13.29 
   7  -1  -6  147.09   13.30 
   7  -1  -6  147.94   13.14 
  -7  -1   6  149.59   14.26 
  -7  -1   6  149.74   14.07 
  -7  -1   6  155.57   14.05 
  -7   1   5   81.51   10.10 
  -7   1   5   82.94   10.25 
   7   1  -5   80.56    9.78 
  -7   1   5   76.88   10.09 
   7   1  -5   82.69   10.33 
   7  -1  -5   88.65   10.61 
   7  -1  -5   83.78   10.19 
   7  -1  -5   84.58    9.69 
  -7  -1   5   87.71   11.15 
  -7  -1   5   89.07   11.15 
  -7  -1   5   87.45   10.37 
  -7   1   4  270.51   21.32 
  -7   1   4  259.22   20.84 
   7   1  -4  261.01   20.75 
  -7   1   4  261.83   21.40 
   7   1  -4  258.97   20.99 
   7  -1  -4  157.61   15.16 
  -7  -1   4  166.50   16.45 
   7  -1  -4  165.76   15.62 
   7  -1  -4  170.37   15.50 
  -7  -1   4  165.48   15.98 
  -7  -1   4  164.42   15.61 
  -7   1   3 1097.39   44.27 
  -7   1   3 1136.13   46.07 
   7   1  -3 1148.24   45.74 
  -7   1   3 1128.18   45.94 
   7   1  -3 1176.41   46.59 
   7  -1  -3 1301.58   50.73 
  -7  -1   3 1267.66   51.25 
   7  -1  -3 1229.48   47.36 
   7  -1  -3 1278.29   49.83 
  -7  -1   3 1303.81   51.13 
  -7  -1   3 1228.33   47.74 
  -7   1   2  198.62   17.43 
  -7   1   2  190.02   17.22 
   7   1  -2  192.03   17.17 
  -7   1   2  190.76   17.12 
   7   1  -2  193.25   16.99 
   7  -1  -2  204.18   18.02 
  -7  -1   2  197.72   18.11 
   7  -1  -2  207.44   17.72 
   7  -1  -2  194.24   17.06 
  -7  -1   2  204.03   17.74 
  -7   1   1 1677.62   61.54 
  -7   1   1 1661.96   65.78 
  -7   1   1 1631.97   61.08 
   7   1  -1 1713.38   62.08 
  -7  -1   1 1615.88   60.40 
  -7  -1   1 1713.55   67.07 
   7  -1  -1 1666.29   62.87 
   7  -1  -1 1595.30   58.75 
  -7   1   0   40.96    9.64 
   7   1   0   40.86    7.92 
  -7   1   0   43.57    8.44 
  -7   1   0   43.17    8.39 
   7   1   0   40.11    8.84 
  -7  -1   0   75.29    9.81 
   7  -1   0   73.20   10.66 
  -7  -1   0   74.38   11.47 
   7  -1   0   68.28   10.45 
  -7   1  -1  843.44   40.99 
   7   1   1  873.65   36.39 
  -7   1  -1  833.49   36.26 
  -7   1  -1  848.00   37.66 
   7   1   1  806.61   36.85 
  -7  -1  -1 1009.13   45.03 
  -7  -1  -1 1004.57   42.13 
  -7  -1  -1 1036.18   44.17 
   7  -1   1 1002.67   39.60 
   7  -1   1 1088.48   45.83 
   7  -1   1  985.12   45.82 
  -7   1  -2  281.49   23.22 
  -7   1  -2  297.04   22.42 
   7   1   2  289.07   21.89 
  -7   1  -2  288.48   22.62 
   7   1   2  274.97   22.81 
  -7  -1  -2  308.52   19.68 
   7  -1   2  311.55   22.74 
   7  -1   2  303.71   18.63 
  -7  -1  -2  317.63   20.17 
  -7  -1  -2  312.98   20.97 
  -7  -1  -2  309.78   20.47 
   7  -1   2  297.48   20.66 
  -7   1  -3  840.62   36.47 
   7   1   3  894.42   38.13 
  -7   1  -3  857.82   37.03 
  -7   1  -3  841.81   32.07 
   7   1   3  835.78   31.18 
   7   1   3  888.99   34.69 
  -7  -1  -3  838.56   34.61 
   7  -1   3  807.43   29.53 
   7  -1   3  829.59   37.04 
  -7  -1  -3  812.62   34.12 
  -7  -1  -3  837.56   32.50 
   7  -1   3  820.09   33.33 
   7   1   4  123.64   13.34 
   7   1   4  118.38   14.60 
  -7   1  -4  116.63   13.57 
  -7   1  -4  114.31   13.40 
   7   1   4  117.34   11.77 
  -7  -1  -4  125.26   13.15 
   7  -1   4  125.01   11.97 
  -7  -1  -4  118.83   13.35 
  -7  -1  -4  121.70   14.08 
   7  -1   4  115.60   14.32 
   7  -1   4  115.35   12.62 
   7   1   5   63.21    9.87 
   7   1   5   63.66   11.48 
  -7   1  -5   65.76   11.16 
  -7   1  -5   64.23   10.74 
   7   1   5   65.92    8.76 
  -7  -1  -5   88.26   11.38 
   7  -1   5   82.73    9.81 
  -7  -1  -5   84.04   11.70 
  -7  -1  -5   82.07   12.02 
   7  -1   5   87.69   13.41 
   7  -1   5   81.09   10.59 
  -7   1  -6  601.97   26.10 
   7   1   6  593.56   28.56 
  -7   1  -6  610.23   26.10 
   7   1   6  615.42   21.87 
   7  -1   6  622.09   29.72 
  -7  -1  -6  628.62   24.72 
  -7  -1  -6  626.86   27.11 
  -7  -1  -6  627.17   26.08 
   7  -1   6  605.22   23.93 
  -7   1  -7 1105.04   39.59 
   7   1   7 1056.26   40.88 
  -7   1  -7 1095.75   37.94 
  -7   1  -7 1053.46   34.33 
   7   1   7 1087.22   33.03 
  -7  -1  -7 1035.71   35.87 
   7  -1   7  978.10   39.77 
  -7  -1  -7 1023.03   37.55 
  -7  -1  -7  954.70   33.95 
   7  -1   7 1013.57   34.28 
  -7   1  -8  552.57   25.51 
   7   1   8  533.12   29.37 
  -7   1  -8  530.35   26.80 
  -7  -1  -8  575.09   27.28 
   7  -1   8  576.76   31.33 
  -7  -1  -8  574.78   29.27 
  -7  -1  -8  575.30   26.93 
   7  -1   8  565.77   25.62 
  -7   1  -9  187.50   14.28 
   7   1   9  188.47   16.95 
  -7   1  -9  195.26   16.65 
  -7  -1  -9  197.00   15.63 
   7  -1   9  192.60   19.07 
  -7  -1  -9  200.67   17.40 
  -7  -1  -9  194.23   15.02 
   7   1  10  111.94   14.87 
  -7   1 -10  112.18   13.95 
  -7   1 -10  111.28   14.91 
   7  -1  10  137.07   18.31 
  -7  -1 -10  136.85   14.13 
  -7  -1 -10  142.98   16.61 
   7   1  11  345.88   22.89 
  -7   1 -11  355.85   19.19 
  -7   1 -11  371.83   21.95 
   7  -1  11  359.26   24.07 
  -7  -1 -11  369.79   19.93 
  -7  -1 -11  376.24   22.58 
   7   1  12    0.85   10.67 
  -7   1 -12    3.15    9.24 
  -7   1 -12   -2.89   11.04 
   7  -1  12    8.79   12.64 
  -7  -1 -12    6.25    9.62 
  -7  -1 -12    8.04   12.39 
   7   1  13  103.44   16.32 
  -7   1 -13  107.73   14.12 
  -7   1 -13  104.94   15.61 
   7  -1  13   96.03   17.23 
  -7  -1 -13  100.11   13.08 
  -7  -1 -13   93.65   16.15 
   7   1  14   25.07   14.07 
  -7   1 -14   33.53   11.71 
  -7   1 -14   28.43   11.46 
   7  -1  14   23.39   14.49 
  -7  -1 -14   23.50   10.29 
  -7  -1 -14   25.90   12.12 
  -7   1 -15   12.24   11.11 
  -7   1 -15   11.42   10.80 
  -7  -1 -15   10.17    9.87 
  -7  -1 -15    9.38   13.14 
   7  -1  15   10.65   15.20 
  -7   1 -16    5.13   12.05 
  -7   1 -16   12.17   11.32 
  -7  -1 -16    9.31   10.39 
  -7  -1 -16    4.69   13.45 
   7  -1  16    6.61   15.39 
   7   2 -18    2.59   11.28 
  -7   2  18   -1.77   14.24 
   7   2 -18    5.16   10.22 
   7  -2 -18    5.45   13.32 
  -7  -2  18    7.00   15.29 
   7   2 -17   92.63   14.01 
  -7   2  17   76.88   15.55 
   7   2 -17   84.79   12.85 
   7  -2 -17   99.85   15.99 
  -7  -2  17  100.04   16.32 
  -7   2  16  100.08   15.20 
   7   2 -16  122.76   14.43 
   7   2 -16  110.77   14.84 
  -7  -2  16   94.52   16.51 
   7  -2 -16   91.15   11.34 
   7  -2 -16   86.32   14.20 
   7   2 -15   41.64   11.12 
   7   2 -15   38.15   10.80 
   7  -2 -15   29.69    8.23 
   7  -2 -15   35.20   11.23 
  -7  -2  15   32.19   13.04 
   7   2 -14  151.20   13.93 
   7   2 -14  152.43   15.17 
  -7  -2  14  160.57   18.24 
   7  -2 -14  154.71   16.64 
  -7   2  13  182.64   15.72 
   7   2 -13  194.64   15.23 
  -7  -2  13  158.59   16.55 
   7  -2 -13  165.19   13.68 
   7  -2 -13  162.44   15.21 
  -7  -2  13  158.21   16.11 
  -7   2  12  271.12   17.93 
   7   2 -12  267.16   16.69 
  -7  -2  12  258.90   20.23 
   7  -2 -12  250.18   16.02 
   7  -2 -12  265.63   17.76 
  -7  -2  12  257.92   18.95 
  -7   2  11  249.38   18.19 
   7   2 -11  256.24   17.26 
  -7  -2  11  249.02   20.15 
   7  -2 -11  242.37   15.76 
   7  -2 -11  252.10   18.31 
  -7  -2  11  242.31   18.40 
  -7   2  10  225.11   16.38 
   7   2 -10  238.40   16.02 
  -7  -2  10  323.52   22.75 
   7  -2 -10  325.30   18.84 
   7  -2 -10  328.45   19.86 
  -7  -2  10  337.57   21.52 
   7   2  -9   22.70    8.68 
   7   2  -9   15.04    7.17 
  -7   2   9   17.13    7.69 
  -7  -2   9    8.23    9.01 
   7  -2  -9   13.81    6.37 
   7  -2  -9   10.60    8.25 
  -7  -2   9   12.99    8.67 
  -7   2   8  114.22   12.09 
   7   2  -8  110.48   11.32 
  -7   2   8   97.46   11.08 
   7   2  -8  113.71   11.63 
  -7   2   8  112.03   11.08 
   7  -2  -8  103.76   10.31 
   7  -2  -8  101.11   11.34 
  -7  -2   8  118.94   13.69 
  -7  -2   8  104.19   12.96 
  -7   2   7  496.37   24.64 
   7   2  -7  483.13   22.65 
  -7   2   7  452.33   21.98 
   7   2  -7  478.71   24.06 
  -7   2   7  482.29   21.82 
   7  -2  -7  541.36   23.87 
   7  -2  -7  548.17   24.47 
  -7  -2   7  511.51   25.43 
  -7  -2   7  520.85   26.82 
   7   2  -6  719.77   30.35 
   7   2  -6  689.46   29.37 
  -7   2   6  686.20   30.08 
  -7   2   6  707.58   31.41 
   7   2  -6  688.13   30.06 
  -7   2   6  673.09   28.20 
   7  -2  -6  633.25   28.26 
   7  -2  -6  633.37   27.39 
  -7  -2   6  650.80   30.35 
  -7  -2   6  618.07   31.65 
   7  -2  -6  652.02   28.85 
   7   2  -5  766.80   31.52 
   7   2  -5  767.70   30.95 
  -7   2   5  763.27   31.81 
   7   2  -5  763.50   31.53 
  -7   2   5  758.65   32.53 
  -7   2   5  748.22   30.43 
   7  -2  -5  713.17   30.35 
   7  -2  -5  696.67   28.99 
  -7  -2   5  707.33   31.79 
  -7  -2   5  614.87   31.80 
   7  -2  -5  705.57   29.66 
  -7  -2   5  656.66   28.62 
   7   2  -4 1167.21   40.32 
   7   2  -4 1191.48   39.81 
  -7   2   4 1175.78   40.44 
   7   2  -4 1221.68   41.03 
  -7   2   4 1198.74   41.33 
  -7   2   4 1196.05   39.61 
   7  -2  -4 1238.99   42.05 
   7  -2  -4 1205.26   39.56 
  -7  -2   4 1096.25   40.18 
  -7  -2   4 1208.12   46.05 
   7  -2  -4 1172.00   41.25 
  -7  -2   4 1161.77   39.43 
   7   2  -3  167.81   14.83 
   7   2  -3  167.18   13.76 
  -7   2   3  163.74   14.55 
   7   2  -3  172.97   15.20 
   7   2  -3  163.91   13.92 
  -7   2   3  167.21   14.16 
  -7   2   3  164.98   13.87 
   7  -2  -3  190.79   15.64 
   7  -2  -3  202.70   15.26 
  -7  -2   3  198.82   17.87 
   7  -2  -3  195.40   14.80 
  -7   2   2  981.12   35.20 
   7   2  -2  967.47   35.24 
  -7   2   2  986.79   37.35 
   7   2  -2  944.34   34.66 
  -7   2   2  968.36   36.01 
   7   2  -2 1009.33   37.68 
   7   2  -2 1009.71   36.66 
   7  -2  -2  952.33   33.72 
   7  -2  -2  907.91   36.11 
  -7  -2   2 1005.10   41.35 
  -7   2   1 1270.03   47.72 
  -7   2   1 1298.74   44.53 
  -7   2   1 1248.93   42.24 
   7   2  -1 1270.85   41.61 
   7   2  -1 1399.92   46.36 
   7   2  -1 1232.38   42.68 
  -7  -2   1 1147.71   42.31 
   7  -2  -1 1175.84   41.75 
   7  -2  -1 1176.40   39.99 
   7  -2  -1 1199.93   38.42 
  -7   2   0 1688.37   56.76 
  -7   2   0 1714.40   54.07 
  -7   2   0 1743.23   52.16 
   7   2   0 1760.38   53.49 
   7   2   0 1620.42   50.36 
   7   2   0 1732.48   53.94 
  -7  -2   0 1835.61   56.65 
   7  -2   0 1822.18   56.09 
   7  -2   0 1814.78   54.13 
   7  -2   0 1860.27   52.71 
  -7   2  -1   12.85    8.01 
  -7   2  -1   11.34    6.24 
  -7   2  -1   10.99    5.57 
   7   2   1   10.44    5.69 
  -7  -2  -1   17.26    6.15 
   7  -2   1   16.72    6.41 
  -7  -2  -1   15.66    7.21 
   7  -2   1   15.91    6.37 
   7  -2   1   17.13    6.13 
  -7   2  -2  535.94   24.41 
  -7   2  -2  567.86   29.44 
   7   2   2  516.68   23.49 
  -7  -2  -2  553.78   26.31 
   7  -2   2  530.15   28.49 
  -7  -2  -2  556.73   27.40 
   7  -2   2  540.69   26.08 
   7  -2   2  551.33   25.56 
  -7   2  -3  492.23   27.80 
   7   2   3  495.27   29.14 
  -7   2  -3  484.96   23.84 
  -7   2  -3  494.50   25.41 
   7   2   3  490.01   22.90 
   7  -2   3  543.67   29.75 
  -7  -2  -3  518.76   25.83 
  -7  -2  -3  509.61   24.65 
  -7  -2  -3  528.41   27.65 
   7  -2   3  512.51   25.51 
  -7   2  -4  771.01   34.19 
   7   2   4  748.90   33.67 
   7   2   4  757.84   28.19 
  -7   2  -4  727.74   30.89 
  -7   2  -4  700.27   27.62 
   7  -2   4  862.39   37.35 
  -7  -2  -4  865.01   33.15 
  -7  -2  -4  814.89   32.46 
  -7  -2  -4  822.67   34.17 
   7  -2   4  875.67   32.17 
  -7   2  -5  197.54   16.03 
   7   2   5  183.39   16.23 
   7   2   5  192.84   12.70 
  -7   2  -5  184.85   15.10 
  -7   2  -5  193.93   14.54 
   7  -2   5  197.18   17.52 
  -7  -2  -5  197.93   14.41 
  -7  -2  -5  189.13   13.45 
  -7  -2  -5  187.62   16.31 
   7  -2   5  191.41   14.00 
  -7   2  -6  126.45   11.92 
   7   2   6  136.70   14.28 
  -7   2  -6  134.97   13.52 
   7   2   6  138.06   11.04 
   7  -2   6  106.28   14.15 
  -7  -2  -6  112.60   12.20 
  -7  -2  -6  107.07   10.89 
  -7  -2  -6  115.73   13.60 
   7  -2   6  116.23   11.33 
   7   2   7  131.20   11.15 
   7   2   7  128.01   14.57 
  -7   2  -7  131.96   13.53 
  -7  -2  -7  133.40   12.52 
   7  -2   7  122.49   15.24 
  -7  -2  -7  136.46   14.13 
  -7  -2  -7  127.09   11.88 
   7  -2   7  131.28   12.09 
   7   2   8  134.53   11.31 
   7   2   8  128.77   14.32 
  -7   2  -8  136.19   14.18 
  -7  -2  -8  181.54   14.68 
   7  -2   8  174.21   17.25 
  -7  -2  -8  178.71   16.81 
  -7  -2  -8  167.91   13.43 
   7  -2   8  174.98   13.61 
  -7   2  -9   50.90   10.14 
   7   2   9   51.24   10.97 
  -7   2  -9   50.35   10.60 
  -7  -2  -9   73.55   11.22 
   7  -2   9   62.45   13.01 
  -7  -2  -9   81.75   13.13 
  -7  -2  -9   67.76   10.18 
   7  -2   9   69.20   10.17 
  -7   2 -10  174.56   14.23 
   7   2  10  176.22   16.89 
  -7   2 -10  192.98   16.81 
  -7  -2 -10  154.01   14.26 
   7  -2  10  145.80   17.06 
  -7  -2 -10  157.10   16.63 
  -7  -2 -10  153.84   12.73 
   7   2  11   88.82   13.82 
  -7   2 -11   94.27   12.78 
  -7   2 -11   93.95   13.85 
   7  -2  11   76.34   16.14 
  -7  -2 -11   75.90   10.99 
  -7  -2 -11   67.03   13.57 
   7   2  12    6.59   10.65 
  -7   2 -12    4.77   10.60 
  -7   2 -12    7.58   10.42 
   7  -2  12    4.74   13.70 
  -7  -2 -12    8.81    9.43 
  -7  -2 -12    6.52   11.99 
  -7   2 -13   43.21   12.50 
  -7   2 -13   44.66   11.34 
  -7  -2 -13   48.13   10.56 
  -7  -2 -13   45.91   14.23 
   7  -2  13   46.24   15.09 
  -7   2 -14   54.29   13.13 
  -7  -2 -14   41.43   10.56 
   7  -2  14   42.10   16.89 
  -7  -2 -14   45.80   15.15 
  -7   2 -15    6.39    9.90 
   7  -2  15    2.56   13.87 
  -7  -2 -15    3.88   13.96 
   7   3 -17    9.96   11.85 
  -7   3  17    4.87   13.63 
   7   3 -17    1.60   11.14 
   7  -3 -17    2.08   11.56 
  -7  -3  17    4.13   14.01 
   7   3 -16   53.91   14.22 
  -7   3  16   59.15   14.13 
   7   3 -16   61.50   13.05 
   7  -3 -16   51.06   14.24 
  -7  -3  16   52.12   14.53 
   7   3 -15   23.67   11.66 
  -7   3  15   21.58   12.04 
   7   3 -15   17.50   10.70 
   7  -3 -15   14.53   13.19 
  -7  -3  15   14.85   14.71 
   7   3 -14   45.96   12.00 
  -7   3  14   46.17   12.31 
   7   3 -14   50.55   11.78 
  -7  -3  14   39.44   13.05 
   7  -3 -14   40.85   12.15 
   7  -3 -14   39.97    8.88 
   7   3 -13  129.12   13.51 
  -7   3  13  126.06   14.56 
   7   3 -13  135.38   14.26 
   7  -3 -13  185.38   17.38 
  -7  -3  13  173.20   17.62 
   7   3 -12  417.41   20.34 
  -7   3  12  391.79   20.80 
  -7  -3  12  415.56   23.16 
   7  -3 -12  415.05   22.91 
  -7  -3  12  384.41   23.72 
   7   3 -11    1.25    7.86 
  -7   3  11    1.13    8.56 
  -7   3  11    1.00    7.63 
  -7  -3  11    2.22   10.53 
   7  -3 -11    2.62    5.81 
   7  -3 -11    1.64    8.37 
  -7  -3  11   -0.37    9.13 
  -7   3  10   78.72   10.93 
   7   3 -10   83.07   11.51 
  -7  -3  10  113.52   14.78 
   7  -3 -10  119.90   11.49 
   7  -3 -10  122.23   13.26 
  -7  -3  10  130.47   15.78 
   7   3  -9  218.46   14.91 
   7   3  -9  207.36   15.03 
  -7   3   9  212.88   15.52 
  -7  -3   9  229.17   17.91 
   7  -3  -9  228.00   14.74 
   7  -3  -9  223.07   16.16 
  -7  -3   9  225.38   17.61 
   7   3  -8 1019.98   34.27 
   7   3  -8  974.96   33.86 
  -7   3   8  991.02   35.26 
  -7   3   8  963.84   31.34 
  -7  -3   8  897.01   36.89 
   7  -3  -8  905.48   30.74 
  -7  -3   8  932.88   35.50 
   7  -3  -8  910.27   33.39 
  -7   3   7  562.63   21.72 
   7   3  -7  559.28   23.56 
  -7   3   7  567.43   24.55 
   7   3  -7  563.67   23.09 
  -7  -3   7  499.89   25.78 
   7  -3  -7  485.13   20.43 
  -7  -3   7  469.39   23.66 
   7  -3  -7  487.21   22.62 
  -7   3   6   -1.54    6.04 
   7   3  -6    1.37    5.43 
   7   3  -6    0.78    6.59 
  -7   3   6    1.45    5.32 
  -7  -3   6    3.68    7.74 
   7  -3  -6   -0.16    4.98 
   7  -3  -6   -1.48    6.59 
  -7   3   5  257.32   16.38 
   7   3  -5  265.94   16.18 
   7   3  -5  255.18   15.86 
  -7   3   5  247.55   14.65 
  -7  -3   5  283.31   20.29 
   7  -3  -5  266.81   15.46 
   7  -3  -5  259.56   16.60 
   7   3  -4  271.97   17.28 
   7   3  -4  276.03   17.39 
   7   3  -4  275.83   18.51 
   7   3  -4  271.98   17.49 
  -7   3   4  275.40   17.64 
  -7   3   4  276.04   16.77 
   7  -3  -4  222.62   16.64 
   7  -3  -4  239.98   18.79 
   7  -3  -4  223.04   17.85 
  -7  -3   4  233.37   20.52 
  -7   3   3  341.49   18.99 
   7   3  -3  340.30   19.15 
   7   3  -3  338.55   19.99 
   7   3  -3  353.57   20.85 
   7   3  -3  337.57   19.34 
  -7   3   3  349.41   20.12 
   7  -3  -3  279.52   17.81 
  -7  -3   3  295.65   19.35 
   7  -3  -3  290.33   17.90 
  -7  -3   3  284.83   20.73 
   7  -3  -3  288.42   16.82 
  -7   3   2   96.64   13.24 
   7   3  -2   89.01   11.31 
   7   3  -2   91.27   10.41 
  -7   3   2   88.21   11.49 
   7   3  -2   95.87   12.17 
   7   3  -2   87.90   10.67 
  -7   3   2   90.05   11.35 
  -7   3   2   91.73   10.65 
  -7  -3   2  100.37   12.10 
   7  -3  -2   99.66   11.31 
  -7  -3   2   89.00   12.49 
   7  -3  -2   98.94   11.03 
  -7   3   1  232.91   20.74 
  -7   3   1  227.78   18.72 
  -7   3   1  242.95   15.40 
   7   3  -1  228.22   18.03 
   7   3  -1  233.33   18.63 
   7   3  -1  216.17   17.95 
  -7  -3   1  234.23   19.51 
   7  -3  -1  210.98   17.63 
   7  -3  -1  234.95   17.97 
   7  -3  -1  229.48   17.11 
  -7   3   0   11.13    7.34 
  -7   3   0   11.02    7.54 
  -7   3   0   13.37    6.88 
   7   3   0   10.21    5.71 
   7   3   0   10.85    6.34 
   7   3   0   11.68    6.88 
  -7  -3   0   33.10    8.65 
   7  -3   0   31.49    7.62 
   7  -3   0   33.68    7.20 
   7  -3   0   32.77    6.86 
  -7   3  -1  243.69   18.28 
  -7   3  -1  233.03   18.87 
  -7   3  -1  246.13   15.21 
   7   3   1  240.69   15.20 
   7   3   1  232.94   18.89 
  -7  -3  -1  278.75   19.03 
  -7  -3  -1  289.94   19.43 
   7  -3   1  273.77   16.40 
   7  -3   1  259.48   17.65 
   7  -3   1  273.98   16.90 
  -7   3  -2 1497.07   50.93 
  -7   3  -2 1413.43   45.38 
   7   3   2 1403.12   42.01 
  -7  -3  -2 1630.01   48.83 
   7  -3   2 1590.53   35.47 
  -7  -3  -2 1567.81   42.37 
   7  -3   2 1509.09   45.51 
   7  -3   2 1650.09   38.62 
   7   3   3  373.18   19.13 
  -7   3  -3  350.40   21.81 
   7  -3   3  380.16   25.93 
  -7  -3  -3  375.05   21.44 
  -7  -3  -3  388.66   22.79 
   7  -3   3  373.31   19.84 
   7  -3   3  393.81   20.42 
   7   3   4   40.66    7.66 
   7   3   4   37.49    9.31 
  -7   3  -4   40.68    9.27 
  -7  -3  -4   33.72    7.54 
   7  -3   4   29.67   10.56 
  -7  -3  -4   34.75    8.51 
  -7  -3  -4   36.37   10.68 
   7  -3   4   33.37    7.16 
   7  -3   4   34.51    7.59 
   7   3   5  308.93   16.49 
   7   3   5  309.32   20.42 
  -7   3  -5  313.65   19.15 
  -7   3  -5  301.79   17.93 
   7  -3   5  278.84   21.33 
  -7  -3  -5  282.29   18.30 
  -7  -3  -5  274.47   17.03 
  -7  -3  -5  281.87   19.68 
   7  -3   5  274.34   16.84 
  -7   3  -6 1013.05   36.25 
   7   3   6 1028.36   40.95 
  -7   3  -6 1020.14   39.23 
   7   3   6 1038.63   34.85 
   7  -3   6 1026.66   43.58 
  -7  -3  -6 1096.26   39.90 
  -7  -3  -6 1020.32   36.89 
  -7  -3  -6 1092.65   42.37 
   7  -3   6 1068.32   37.88 
  -7   3  -7  693.86   29.31 
   7   3   7  683.15   32.44 
  -7   3  -7  701.92   32.20 
   7   3   7  718.52   27.50 
   7  -3   7  621.61   32.83 
  -7  -3  -7  600.77   28.31 
  -7  -3  -7  597.09   26.20 
  -7  -3  -7  622.40   30.76 
   7  -3   7  601.62   26.50 
  -7   3  -8  221.46   15.95 
   7   3   8  198.40   17.39 
  -7   3  -8  216.76   16.44 
  -7  -3  -8  231.10   16.53 
   7  -3   8  218.23   19.20 
  -7  -3  -8  218.41   18.81 
  -7  -3  -8  226.31   15.09 
   7  -3   8  231.18   15.06 
   7   3   9  171.87   16.98 
  -7   3  -9  189.92   15.94 
   7  -3   9  176.52   18.74 
  -7  -3  -9  164.83   13.08 
  -7  -3  -9  165.08   16.09 
  -7  -3  -9  166.20   14.27 
   7  -3   9  173.19   13.26 
   7  -3  10   51.71   13.04 
  -7  -3 -10   50.03    9.83 
  -7  -3 -10   56.32   13.42 
  -7   3 -11    4.49   10.78 
  -7  -3 -11    4.96    8.19 
   7  -3  11   10.48   12.44 
  -7  -3 -11   10.66   11.30 
  -7   3 -12  134.82   13.84 
  -7  -3 -12  139.03   13.71 
   7  -3  12  143.53   18.60 
  -7  -3 -12  148.13   17.85 
  -7   3 -13   43.79   12.72 
   7  -3  13   25.27   15.52 
  -7  -3 -13   25.08   13.70 
  -7   3 -14   22.02   11.27 
   7  -3  14   20.92   16.11 
  -7  -3 -14   14.29   14.10 
  -7   3 -15   10.50   11.96 
   7  -3  15    4.64   14.92 
  -7  -3 -15    9.58   13.19 
   7   4 -17   68.39   14.32 
  -7   4  17   87.03   16.02 
   7   4 -17   77.36   14.94 
   7  -4 -17   95.06   17.11 
  -7  -4  17   92.78   18.16 
   7   4 -16  137.59   15.39 
  -7   4  16  140.00   17.64 
   7   4 -16  142.83   15.69 
   7  -4 -16  168.95   17.60 
  -7  -4  16  151.98   18.64 
   7   4 -15   96.92   13.07 
  -7   4  15   92.56   14.47 
   7   4 -15   95.33   14.17 
   7  -4 -15  115.87   16.08 
  -7  -4  15  100.34   18.26 
   7   4 -14    5.78   11.44 
  -7   4  14    9.38   11.71 
   7   4 -14    9.93   10.94 
   7  -4 -14    9.92   10.18 
  -7  -4  14    6.59   12.26 
  -7   4  13  161.88   16.70 
   7   4 -13  158.85   14.43 
  -7  -4  13  151.51   17.03 
   7  -4 -13  170.92   16.13 
  -7   4  12   53.36   14.03 
   7   4 -12   55.80   11.02 
  -7  -4  12   74.04   15.46 
   7  -4 -12   77.21   14.20 
   7   4 -11  168.72   14.00 
  -7   4  11  170.86   15.10 
  -7  -4  11  122.35   16.16 
   7  -4 -11  127.15   13.86 
  -7  -4  11  122.17   16.69 
   7   4 -10   54.70   10.88 
  -7   4  10   51.39   10.68 
  -7  -4  10   25.11   11.24 
   7  -4 -10   25.08   10.68 
  -7  -4  10   21.33   10.25 
   7   4  -9   82.58   11.29 
  -7   4   9   84.39   12.04 
  -7   4   9   73.99   10.88 
  -7  -4   9   63.10   13.69 
   7  -4  -9   62.59    8.64 
   7  -4  -9   60.19   11.01 
  -7  -4   9   51.11   11.67 
  -7   4   8  231.01   16.07 
   7   4  -8  219.20   15.73 
   7   4  -8  234.62   15.95 
  -7   4   8  219.07   16.12 
  -7  -4   8  197.56   18.39 
   7  -4  -8  190.96   16.51 
   7  -4  -8  185.18   13.05 
  -7   4   7  326.38   19.88 
   7   4  -7  324.36   19.69 
  -7   4   7  315.82   18.00 
  -7   4   7  325.74   19.88 
   7   4  -7  313.27   19.00 
  -7  -4   7  266.84   21.33 
   7  -4  -7  246.70   14.44 
   7  -4  -7  257.20   18.30 
  -7   4   6  364.71   20.31 
   7   4  -6  341.21   19.49 
  -7   4   6  359.78   19.68 
  -7   4   6  357.75   18.45 
   7   4  -6  366.39   20.08 
   7  -4  -6  294.29   15.98 
   7  -4  -6  299.69   18.97 
  -7  -4   6  296.37   20.39 
  -7  -4   6  318.52   21.89 
  -7   4   5  367.15   20.05 
   7   4  -5  345.99   19.75 
  -7   4   5  312.59   18.67 
  -7   4   5  339.13   17.71 
   7   4  -5  372.20   20.50 
   7  -4  -5  393.40   18.61 
   7  -4  -5  398.02   22.06 
  -7  -4   5  392.67   22.62 
  -7  -4   5  400.85   24.69 
  -7   4   4  262.65   15.32 
   7   4  -4  262.90   16.97 
  -7   4   4  275.65   16.85 
   7   4  -4  261.15   17.05 
  -7  -4   4  255.29   19.48 
   7  -4  -4  252.06   14.67 
  -7  -4   4  252.65   18.04 
   7  -4  -4  243.68   16.96 
  -7   4   3   82.59    9.39 
   7   4  -3   83.75   10.44 
  -7   4   3   90.36   10.67 
   7   4  -3   89.32   11.52 
  -7  -4   3   69.92   11.28 
   7  -4  -3   75.59    9.19 
  -7  -4   3   71.48   10.48 
   7  -4  -3   72.34   10.18 
   7   4  -2  821.87   28.77 
  -7   4   2  838.76   27.79 
   7   4  -2  821.48   27.43 
  -7   4   2  837.69   27.52 
   7   4  -2  816.49   29.24 
  -7  -4   2  888.33   30.91 
   7  -4  -2  928.75   27.03 
   7  -4  -2  906.18   31.17 
   7   4  -1 1178.54   34.98 
   7   4  -1 1123.81   32.92 
  -7   4   1 1121.82   32.07 
   7   4  -1 1091.14   31.64 
   7   4  -1 1105.56   33.50 
   7  -4  -1 1185.97   31.01 
  -7  -4   1 1126.90   36.49 
   7  -4  -1 1096.86   37.16 
   7  -4  -1 1166.88   34.66 
  -7   4  -1   36.55    8.53 
   7   4   1   35.76    7.46 
  -7  -4  -1   20.65    8.50 
  -7   4  -2  457.43   21.30 
   7   4   2  469.57   21.33 
  -7  -4  -2  458.39   23.73 
   7   4   3  482.09   21.23 
  -7   4  -3  453.33   21.17 
   7  -4   3  526.80   29.23 
  -7  -4  -3  533.29   25.56 
   7   4   4  659.83   27.16 
  -7   4  -4  648.86   27.54 
   7  -4   4  537.85   29.63 
  -7  -4  -4  521.48   26.28 
  -7   4  -5  128.84   12.93 
   7   4   5  129.65   11.22 
  -7  -4  -5  111.49   12.45 
  -7  -4  -5  109.67   11.10 
   7  -4   5  113.91   15.20 
   7  -4   5  112.06   11.64 
   7  -4   5  116.92   11.56 
  -7   4  -6   78.97   11.63 
   7  -4   6   70.45   13.14 
  -7  -4  -6   55.56    9.61 
  -7  -4  -6   67.57    9.65 
   7  -4   6   68.76    9.15 
  -7   4  -7   66.74   11.64 
   7  -4   7   62.08   14.34 
  -7  -4  -7   67.31   10.78 
  -7  -4  -7   63.83    9.70 
  -7  -4  -7   59.81   12.33 
   7  -4   7   60.62    8.96 
  -7   4  -8  183.85   14.60 
  -7  -4  -8  160.96   14.05 
   7  -4   8  145.97   17.12 
  -7  -4  -8  160.17   17.27 
  -7   4  -9   69.91   12.18 
  -7  -4  -9  111.23   12.49 
   7  -4   9  101.49   16.05 
  -7  -4  -9  104.78   14.17 
  -7   4 -10   41.80   10.64 
  -7  -4 -10   58.92   10.75 
   7  -4  10   64.88   16.25 
  -7  -4 -10   65.78   13.61 
   7  -4  11   27.44   14.24 
  -7  -4 -11   28.48   13.78 
   7  -4  12   31.63   16.07 
  -7  -4 -12   31.49   14.00 
  -7   4 -13   62.00   13.50 
   7  -4  13   57.75   15.84 
  -7  -4 -13   55.50   16.25 
  -7   4 -14   42.60   13.77 
   7  -4  14   41.15   17.77 
  -7  -4 -14   44.20   16.25 
  -7   5  15   59.17   14.97 
   7   5 -15   55.44   12.69 
  -7  -5  15   49.49   16.07 
   7  -5 -15   47.99   14.00 
   7   5 -14  144.40   15.25 
  -7   5  14  131.50   16.09 
   7   5 -14  133.00   14.60 
   7  -5 -14  123.97   16.48 
  -7  -5  14  114.65   19.06 
  -7   5  13   21.55   13.31 
   7   5 -13   19.81   10.37 
  -7  -5  13   39.99   15.79 
   7  -5 -13   37.13   13.22 
   7   5 -12   14.81   10.01 
  -7   5  12   21.17   12.81 
   7   5 -12   14.29    9.49 
   7  -5 -12    8.90   10.57 
  -7  -5  12    7.79   12.10 
   7   5 -11   50.22   11.34 
  -7   5  11   58.21   12.90 
   7   5 -11   53.21   12.26 
   7  -5 -11   51.12   11.90 
  -7  -5  11   53.29   15.38 
  -7   5  10   58.25   11.93 
   7   5 -10   59.39   10.79 
  -7  -5  10   89.26   16.00 
   7  -5 -10   79.66   11.99 
   7   5  -9   -3.18    8.95 
  -7   5   9   -0.21   10.75 
  -7  -5   9    9.73   10.39 
   7  -5  -9   11.00    9.36 
  -7  -5   9   11.25   10.99 
   7   5  -8  352.37   19.03 
  -7   5   8  343.94   20.37 
  -7  -5   8  329.09   21.21 
   7  -5  -8  327.34   19.90 
  -7  -5   8  329.20   23.96 
  -7   5   7  134.33   14.60 
   7   5  -7  127.20   14.48 
  -7  -5   7  115.18   15.81 
  -7  -5   7  115.69   15.63 
   7  -5  -7  110.86   13.94 
   7  -5  -7  113.37   11.61 
   7   5  -6  216.47   15.37 
  -7   5   6  227.43   16.37 
  -7   5   6  234.79   15.99 
  -7  -5   6  231.36   19.43 
   7  -5  -6  226.31   13.83 
   7  -5  -6  226.62   16.31 
  -7  -5   6  222.49   17.53 
   7   5  -5  287.72   18.22 
  -7   5   5  286.46   18.96 
  -7   5   5  281.00   18.00 
  -7  -5   5  308.25   22.30 
   7  -5  -5  306.69   17.12 
   7  -5  -5  314.21   19.85 
  -7  -5   5  303.14   20.65 
   7   5  -4  315.79   19.74 
  -7   5   4  328.13   20.18 
  -7   5   4  312.14   18.72 
  -7  -5   4  292.22   21.15 
   7  -5  -4  285.31   16.37 
   7  -5  -4  291.16   19.96 
  -7  -5   4  292.38   20.64 
   7   5  -3  264.14   17.97 
  -7   5   3  271.56   18.40 
  -7   5   3  265.57   17.01 
  -7  -5   3  169.84   17.32 
   7  -5  -3  182.36   12.68 
   7  -5  -3  198.43   14.87 
  -7  -5   3  182.65   15.79 
  -7   5   2  263.27   17.93 
   7   5  -2  271.62   17.60 
   7   5  -2  281.23   18.66 
  -7   5   2  279.30   17.96 
   7  -5  -2  248.79   14.67 
   7  -5  -2  266.76   18.07 
  -7  -5   2  249.20   18.14 
  -7   5   1  124.93   13.28 
  -7   5   1  122.54   11.94 
   7   5  -1  116.20   12.50 
  -7  -5   1  117.53   13.47 
   7  -5  -1  122.04   10.97 
  -7   5   0   44.21   10.39 
   7   5   0   48.41   10.90 
  -7   5   0   50.01    8.52 
  -7  -5   0   46.22   10.45 
  -7   5  -1  377.99   20.37 
   7   5   1  360.60   19.72 
  -7  -5  -1  309.25   20.39 
  -7  -5  -1  320.78   21.34 
  -7   5  -2  218.70   14.82 
   7   5   2  225.31   15.03 
  -7  -5  -2  298.25   19.61 
  -7  -5  -2  290.70   20.56 
  -7   5  -3   45.32    9.57 
  -7  -5  -3   78.28   11.60 
  -7  -5  -3   78.61   12.97 
  -7   5  -4   93.30   12.59 
  -7  -5  -4   89.57   12.32 
   7  -5   4  102.55   16.35 
  -7  -5  -4  104.07   14.01 
  -7   5  -5   35.52    9.94 
  -7  -5  -5   20.38    9.04 
   7  -5   5   23.32   11.01 
  -7  -5  -5   19.81   12.23 
  -7   5  -6  167.44   13.96 
  -7  -5  -6  165.80   15.15 
   7  -5   6  173.88   18.91 
  -7  -5  -6  164.47   16.70 
  -7   5  -7  254.34   16.75 
  -7  -5  -7  226.86   17.11 
   7  -5   7  236.82   21.25 
  -7  -5  -7  216.76   17.88 
  -7   5  -8  259.31   17.95 
  -7  -5  -8  218.16   16.81 
   7  -5   8  216.97   19.97 
  -7   5  -9   87.54   12.79 
   7  -5   9   82.38   16.69 
  -7   5 -10   24.22   12.51 
   7  -5  10   25.79   13.95 
  -7   5 -11  168.96   16.95 
   7  -5  11  153.24   19.10 
  -7   5 -12   80.66   14.32 
   7  -5  12   56.49   16.13 
  -7   5 -13   35.15   13.34 
   7  -5  13   50.83   17.63 
  -7  -5 -13   45.02   14.63 
   7   6 -14    0.89   11.84 
  -7   6  14    2.82   13.00 
   7   6 -14    0.65   12.22 
   7  -6 -14    0.76   11.45 
  -7  -6  14   13.54   16.36 
   7   6 -13   -0.20   10.56 
  -7   6  13   -0.67   12.33 
   7   6 -13   -0.28   11.76 
   7  -6 -13    3.21   12.61 
  -7  -6  13   -4.50   13.19 
   7   6 -12   46.86   11.29 
  -7   6  12   47.87   13.95 
   7   6 -12   44.08   12.80 
   7  -6 -12   51.00   13.36 
  -7  -6  12   55.28   15.89 
   7   6 -11  137.93   13.93 
  -7   6  11  133.49   15.72 
   7   6 -11  129.54   14.61 
   7  -6 -11   92.99   13.91 
  -7  -6  11  103.20   16.98 
   7   6 -10   66.36   11.72 
  -7   6  10   72.18   12.80 
   7   6 -10   68.25   12.54 
   7  -6 -10   52.26   11.60 
  -7  -6  10   52.26   14.55 
   7   6  -9  135.47   13.75 
  -7   6   9  133.36   15.56 
   7   6  -9  133.62   13.78 
   7  -6  -9  128.40   14.53 
  -7  -6   9  129.81   17.45 
  -7   6   8  234.85   17.12 
   7   6  -8  234.03   16.16 
  -7  -6   8  221.90   20.80 
   7  -6  -8  227.20   17.24 
   7   6  -7  180.06   15.41 
  -7   6   7  171.92   15.31 
  -7  -6   7  151.49   16.05 
   7  -6  -7  157.55   14.55 
  -7  -6   7  147.27   16.79 
   7   6  -6  167.57   14.30 
  -7   6   6  174.57   16.23 
  -7  -6   6  170.50   16.34 
   7  -6  -6  172.36   15.07 
  -7  -6   6  170.14   17.52 
   7   6  -5   10.26    8.75 
  -7   6   5   10.41   10.66 
  -7  -6   5   27.54   11.40 
   7  -6  -5   29.21    9.37 
  -7  -6   5   31.85   10.37 
  -7   6   4  230.93   17.11 
  -7   6   4  234.01   15.54 
   7   6  -4  234.16   16.23 
  -7  -6   4  236.95   18.80 
  -7  -6   4  263.17   19.16 
   7  -6  -4  259.47   18.07 
  -7   6   3    1.10    9.04 
   7   6  -3    1.01    9.34 
  -7   6   3    3.95    7.21 
   7  -6  -3    4.43    6.36 
   7  -6  -3    3.49    6.49 
  -7  -6   3    7.26   10.70 
  -7   6   2   19.23    9.18 
   7   6  -2   22.15    8.81 
  -7   6   2   20.16    8.59 
  -7  -6   2   23.19   10.41 
  -7   6   1  149.04   14.33 
   7   6  -1  152.80   14.87 
  -7   6   1  144.48   13.27 
  -7  -6   1  184.87   16.96 
  -7   6   0   44.21   11.85 
   7   6   0   43.05   10.47 
  -7   6   0   43.02   10.14 
  -7  -6   0   40.60   11.45 
  -7   6  -1  221.04   18.18 
   7   6   1  204.89   16.50 
  -7   6  -1  215.25   15.45 
  -7  -6  -1  233.39   17.92 
  -7   6  -2   52.46   12.89 
  -7   6  -2   57.89   10.02 
  -7  -6  -2   62.44   11.54 
  -7  -6  -2   60.19   11.65 
  -7   6  -3   46.43   12.14 
  -7   6  -3   45.88   10.17 
  -7  -6  -3   53.05   11.10 
  -7  -6  -3   55.22   12.57 
  -7   6  -4  359.81   20.82 
  -7   6  -4  399.18   19.47 
  -7  -6  -4  325.49   20.04 
  -7  -6  -4  321.56   21.11 
  -7   6  -5  332.24   18.68 
  -7  -6  -5  338.60   20.72 
   7  -6   5  361.57   26.14 
  -7  -6  -5  325.42   21.58 
  -7   6  -6   25.19    9.79 
   7  -6   6   14.62   13.37 
  -7  -6  -6   12.73   12.48 
  -7   6  -7   96.53   13.59 
   7  -6   7   95.19   15.86 
  -7  -6  -7   92.55   14.81 
  -7   6  -8  182.38   15.54 
   7  -6   8  176.09   19.19 
  -7  -6  -8  171.51   18.00 
  -7   6  -9   26.77   11.47 
   7  -6   9   28.42   15.50 
  -7  -6  -9   38.45   13.93 
  -7   6 -10   23.88   12.77 
   7  -6  10   22.18   14.66 
  -7  -6 -10   20.49   13.97 
  -7   6 -11    1.67   12.21 
   7  -6  11    4.95   16.15 
  -7  -6 -11    2.97   14.53 
   7   7 -12   16.75   11.77 
  -7   7  12   15.55   13.37 
  -7  -7  12   11.53   13.80 
   7   7 -11   63.45   13.78 
  -7   7  11   60.87   14.47 
  -7  -7  11   60.09   15.78 
   7   7 -10   40.85   12.10 
  -7   7  10   41.37   14.47 
   7   7 -10   34.59   12.08 
  -7  -7  10   20.10   13.94 
   7   7  -9   15.35   11.34 
  -7   7   9   12.19   11.53 
   7   7  -9   12.46    9.81 
  -7  -7   9   13.60   12.05 
   7   7  -8   28.25   11.38 
  -7   7   8   29.60   11.58 
   7   7  -8   32.43   10.37 
  -7  -7   8   55.82   13.20 
   7   7  -7   61.42   12.11 
  -7   7   7   68.17   13.40 
   7   7  -7   69.88   12.46 
  -7  -7   7   71.83   14.43 
   7   7  -6   23.64    9.94 
  -7   7   6   26.70   10.80 
   7   7  -6   26.73   10.90 
  -7  -7   6   27.54   11.74 
  -7   7   5   21.25   11.82 
   7   7  -5   24.74    9.58 
   7   7  -5   21.39    9.32 
  -7   7   4  145.60   14.99 
   7   7  -4  150.85   15.12 
  -7  -7   4  159.22   16.43 
  -7   7   3  217.85   17.77 
   7   7  -3  222.60   17.10 
  -7  -7   3  266.68   20.45 
  -7   7   2   55.74   12.73 
   7   7  -2   63.08   12.88 
  -7  -7   2   44.11   12.87 
  -7   7   1   14.32   10.39 
   7   7  -1   16.13   10.86 
  -7   7   1   14.54    8.53 
  -7  -7   1   12.52   11.18 
  -7   7   0   77.30   12.97 
   7   7   0   69.84   12.34 
  -7   7   0   75.43   10.61 
  -7  -7   0   79.06   13.11 
  -7   7  -1  213.44   18.42 
   7   7   1  210.54   17.30 
  -7   7  -1  207.77   15.69 
  -7  -7  -1  233.44   18.35 
  -7   7  -2  166.70   16.31 
   7   7   2  183.03   16.23 
  -7   7  -2  174.10   14.94 
  -7  -7  -2  139.15   15.45 
  -7   7  -3   25.68   11.70 
  -7   7  -3   21.29    9.24 
  -7  -7  -3   11.13    9.42 
  -7  -7  -3   14.86   11.95 
  -7   7  -4   85.90   14.38 
  -7   7  -4   90.36   13.71 
  -7  -7  -4   99.69   15.22 
  -7   7  -5   67.19   14.11 
  -7   7  -5   72.18   12.49 
  -7  -7  -5   58.05   13.45 
  -7   7  -6   28.67   13.07 
  -7   7  -6   18.76   11.49 
  -7  -7  -6   12.44   11.94 
  -7   7  -7   65.63   13.36 
   7  -7   7   62.37   18.09 
  -7  -7  -7   64.99   15.39 
  -7   7  -8   31.77   12.86 
   7  -7   8   27.69   17.02 
  -7  -7  -8   21.97   14.47 
  -7   7  -9    8.88   12.01 
   7  -7   9    5.54   14.89 
  -7  -7  -9   16.91   13.85 
  -7   8   8   23.81   13.38 
   7   8  -8   26.02   11.07 
  -7   8   7   60.54   15.38 
   7   8  -7   51.42   12.43 
  -7   8   6   78.10   14.28 
   7   8  -6   83.76   12.57 
  -7   8   5    4.61   13.31 
   7   8  -5    7.00    9.43 
  -7   8   4   46.28   13.89 
   7   8  -4   37.63   10.55 
   7   8  -4   49.56   11.62 
  -7   8   3   25.44   13.14 
   7   8  -3   24.60   11.19 
  -7   8   2   81.39   14.50 
   7   8  -2   83.26   13.07 
  -7   8   1  107.04   16.17 
   7   8  -1   91.41   13.25 
  -7   8   0   62.47   14.31 
   7   8   0   61.03   12.26 
  -7   8  -1   59.93   14.19 
   7   8   1   73.37   12.72 
  -7   8  -2   31.25   12.98 
   7   8   2   24.99   10.98 
  -7   8  -3   24.34   13.96 
  -7   8  -3   31.57   10.43 
   7   8   3   25.26   12.76 
  -7   8  -4  144.98   17.64 
  -7   8  -4  153.58   15.24 
  -7  -8  -4  193.99   18.38 
  -7   8  -5   77.57   14.56 
  -7   8  -5   85.35   13.39 
  -7  -8  -5   89.35   14.98 
  -7   8  -6    6.73   13.50 
  -7   8  -6    1.04   10.94 
  -7  -8  -6    3.18   12.82 
  -8   0  18   72.24   16.53 
   8   0 -18   82.01   11.87 
   8   0 -18   81.41   15.79 
  -8   0  17   -3.70   13.09 
   8   0 -17   -0.37    9.64 
   8   0 -17   -2.50   11.81 
  -8   0  16   96.54   16.28 
   8   0 -16  101.42   11.84 
  -8   0  15  358.67   22.57 
  -8   0  15  352.06   22.34 
   8   0 -15  356.72   20.55 
  -8   0  14  115.10   16.02 
  -8   0  14  111.22   14.26 
   8   0 -14  129.68   14.63 
  -8   0  13    2.92   10.56 
  -8   0  13    7.52   10.08 
  -8   0  12   21.33   10.78 
  -8   0  12   18.30    9.53 
  -8   0  11  818.34   34.91 
  -8   0  11  799.69   34.32 
  -8   0  10  430.78   24.16 
  -8   0  10  416.19   24.02 
  -8   0   9  378.06   23.18 
  -8   0   9  365.74   21.78 
  -8   0   8  901.25   30.83 
   8   0  -8  849.11   27.38 
  -8   0   8  865.52   30.25 
   8   0  -8  846.82   27.96 
  -8   0   7   19.28    7.61 
   8   0  -7   17.45    5.95 
  -8   0   7   18.48    8.42 
   8   0  -7   20.37    7.52 
   8   0  -7   16.55    7.41 
  -8   0   6  371.43   20.89 
   8   0  -6  369.97   20.37 
  -8   0   6  367.27   21.81 
   8   0  -6  357.12   19.95 
   8   0  -6  356.34   20.14 
  -8   0   6  365.40   20.23 
  -8   0   5  785.30   31.05 
   8   0  -5  781.76   30.45 
  -8   0   5  763.18   32.38 
   8   0  -5  762.04   30.18 
   8   0  -5  802.95   31.11 
  -8   0   5  780.86   30.53 
  -8   0   4 1106.70   38.78 
   8   0  -4 1124.61   39.20 
  -8   0   4 1120.34   40.47 
   8   0  -4 1105.93   38.02 
   8   0  -4 1134.44   38.88 
  -8   0   4 1139.83   38.85 
  -8   0   3  512.06   24.21 
   8   0  -3  503.08   24.21 
  -8   0   3  499.64   24.31 
   8   0  -3  480.22   22.91 
  -8   0   3  514.28   23.84 
  -8   0   2   11.44    5.56 
   8   0  -2   11.54    5.42 
  -8   0   2   12.79    6.93 
   8   0  -2   12.81    5.98 
   8   0  -2   15.26    6.86 
  -8   0   1  768.57   34.45 
  -8   0   1  788.58   31.69 
  -8   0   1  804.92   32.26 
   8   0  -1  808.78   30.25 
   8   0  -1  788.65   32.46 
   8   0  -1  839.06   33.13 
  -8   0   0 2516.77   75.50 
  -8   0   0 2550.47   70.84 
  -8   0   0 2434.80   68.01 
   8   0   0 2529.96   67.35 
   8   0   0 2515.94   70.71 
   8   0   0 2663.77   75.39 
  -8   0  -1    7.77    6.18 
  -8   0  -1    6.03    5.25 
  -8   0  -1    6.68    5.26 
   8   0   1    5.91    5.06 
   8   0   1    6.83    6.55 
   8   0   1    5.62    5.24 
  -8   0  -2   23.50    7.91 
  -8   0  -2   22.23    7.08 
   8   0   2   24.72    6.68 
  -8   0  -2   25.07    7.84 
   8   0   2   22.54    7.07 
   8   0   3   54.99   11.02 
  -8   0  -3   54.70   10.05 
   8   0   3   58.04    8.27 
  -8   0  -3   62.13   10.16 
   8   0   3   53.49    9.76 
   8   0   4  233.29   18.27 
  -8   0  -4  241.25   17.19 
  -8   0  -4  250.84   16.37 
   8   0   4  237.96   13.84 
  -8   0  -4  241.97   16.91 
   8   0   4  265.61   17.38 
   8   0   5   14.34    8.78 
  -8   0  -5   13.10    6.77 
  -8   0  -5   12.57    6.81 
  -8   0  -5   11.81    6.93 
   8   0   5   12.06    6.57 
   8   0   6    2.15    7.78 
  -8   0  -6    4.96    6.63 
  -8   0  -6    8.10    8.23 
  -8   0  -6    8.49    7.70 
   8   0   6    8.75    7.30 
   8   0   7   18.43    9.77 
  -8   0  -7   20.62    8.08 
  -8   0  -7   23.16    8.97 
  -8   0  -7   18.08    8.79 
   8   0   8    7.76    9.40 
  -8   0  -8   12.48    6.96 
  -8   0  -8   14.65    8.57 
  -8   0  -8   14.68    8.83 
   8   0   9    3.48   10.03 
  -8   0  -9    6.22    7.98 
  -8   0  -9    5.81   10.34 
   8   0  10  509.36   27.27 
  -8   0 -10  513.96   23.49 
  -8   0 -10  518.69   26.26 
   8   0  11  169.87   18.64 
  -8   0 -11  172.69   15.28 
  -8   0 -11  170.58   16.59 
   8   0  12  184.50   18.68 
  -8   0 -12  196.18   16.29 
  -8   0 -12  194.98   17.47 
   8   0  13   19.25   13.97 
  -8   0 -13   14.98    9.77 
  -8   0 -13   17.20   11.22 
   8   0  14  141.82   18.39 
  -8   0 -14  147.44   14.54 
  -8   0 -14  151.11   17.05 
  -8   0 -15   88.21   14.50 
  -8   0 -15   92.77   16.55 
   8   1 -18   76.37   15.21 
  -8   1  18   74.49   17.08 
   8   1 -18   69.66   12.79 
   8  -1 -18   77.87   11.92 
  -8  -1  18   83.42   17.15 
   8   1 -17   53.00   13.36 
  -8   1  17   51.24   15.10 
   8   1 -17   55.64   11.54 
   8  -1 -17   30.16   10.16 
  -8  -1  17   27.52   14.06 
   8   1 -16  153.92   15.82 
  -8   1  16  157.00   18.19 
   8   1 -16  156.56   14.14 
   8  -1 -16  129.88   12.80 
  -8  -1  16  133.49   17.87 
   8   1 -15   13.42   10.82 
  -8   1  15   12.28   12.93 
  -8   1  15   16.19   10.50 
  -8  -1  15   17.05   11.17 
  -8  -1  15   17.65   11.54 
  -8   1  14   46.35   13.12 
  -8   1  14   46.27   10.82 
   8   1 -14   54.72   12.52 
  -8  -1  14   37.29   12.19 
  -8  -1  14   40.06   11.85 
   8  -1 -14   32.37   10.81 
  -8   1  13  117.32   15.06 
  -8   1  13  127.55   14.40 
   8   1 -13  123.32   13.32 
  -8  -1  13  119.43   16.14 
  -8  -1  13  124.04   15.52 
   8  -1 -13  113.84   13.74 
  -8   1  12  537.97   24.20 
  -8   1  12  539.01   25.47 
   8   1 -12  537.59   22.88 
  -8  -1  12  429.07   23.81 
  -8  -1  12  438.40   23.63 
   8  -1 -12  409.43   21.55 
  -8   1  11  375.93   22.97 
  -8   1  11  377.04   22.46 
   8   1 -11  390.00   21.07 
  -8  -1  11  442.46   26.00 
  -8  -1  11  446.92   24.94 
   8  -1 -11  435.81   23.33 
  -8   1  10  253.79   18.52 
  -8   1  10  246.86   17.62 
   8   1 -10  253.78   16.92 
  -8  -1  10  242.88   18.54 
  -8  -1  10  244.03   17.79 
   8  -1 -10  255.67   17.25 
  -8   1   9   21.37    7.98 
  -8   1   9   21.26    8.92 
   8   1  -9   19.94    7.46 
   8   1  -9   22.13    8.35 
  -8  -1   9   12.75    8.26 
   8  -1  -9   10.35    7.10 
   8  -1  -9   14.66    7.91 
  -8  -1   9    9.98    8.63 
  -8   1   8 1137.54   34.54 
  -8   1   8 1157.51   33.88 
   8   1  -8 1162.44   32.32 
   8   1  -8 1154.63   32.69 
  -8  -1   8 1173.20   38.33 
   8  -1  -8 1198.50   33.80 
   8  -1  -8 1192.03   33.41 
  -8  -1   8 1214.96   36.17 
  -8   1   7  989.29   33.91 
  -8   1   7  983.72   35.19 
   8   1  -7  954.46   33.58 
  -8   1   7  950.89   35.18 
   8   1  -7  860.94   31.36 
   8  -1  -7  945.55   34.38 
   8  -1  -7  989.53   33.81 
   8  -1  -7  997.07   33.90 
  -8  -1   7  973.12   36.82 
  -8  -1   7 1005.05   37.27 
  -8   1   6  901.19   34.45 
  -8   1   6  955.47   37.00 
   8   1  -6  923.39   35.35 
  -8   1   6  959.09   38.10 
  -8  -1   6  845.14   35.22 
   8  -1  -6  843.32   33.48 
   8  -1  -6  825.31   33.30 
   8  -1  -6  873.75   33.78 
  -8  -1   6  845.59   35.71 
  -8  -1   6  882.56   34.46 
  -8   1   5   36.14    8.05 
  -8   1   5   34.41    7.26 
   8   1  -5   33.06    7.26 
  -8   1   5   37.91    8.04 
  -8  -1   5   23.54    7.37 
   8  -1  -5   23.68    6.82 
   8  -1  -5   22.93    7.33 
   8  -1  -5   26.27    6.54 
  -8  -1   5   24.37    8.17 
  -8  -1   5   26.98    7.55 
  -8   1   4  117.44   11.68 
  -8   1   4  118.77   12.38 
   8   1  -4  116.44   11.68 
  -8   1   4  118.00   12.69 
   8   1  -4  119.78   12.51 
   8  -1  -4  162.75   14.62 
  -8  -1   4  167.58   15.85 
   8  -1  -4  165.87   14.02 
   8  -1  -4  171.66   14.42 
  -8  -1   4  157.65   14.74 
  -8  -1   4  164.25   14.29 
   8   1  -3  671.55   29.91 
  -8   1   3  714.78   29.39 
   8   1  -3  692.65   28.64 
  -8   1   3  715.57   29.91 
   8   1  -3  698.45   28.22 
  -8   1   3  706.12   31.17 
   8  -1  -3  697.94   29.94 
   8  -1  -3  653.88   27.23 
  -8  -1   3  690.82   28.71 
   8  -1  -3  659.91   27.61 
  -8  -1   3  684.25   30.03 
  -8   1   2  329.44   19.34 
   8   1  -2  327.05   20.12 
   8  -1  -2  202.39   16.12 
  -8   1   1 1355.06   49.26 
   8   1  -1 1280.00   42.56 
  -8   1   1 1270.20   43.21 
  -8   1   1 1307.20   44.02 
   8   1  -1 1239.34   43.47 
   8   1  -1 1278.52   43.71 
  -8  -1   1 1356.70   43.92 
   8  -1  -1 1345.38   45.96 
   8  -1  -1 1324.57   43.96 
  -8  -1   1 1317.05   48.16 
  -8   1   0  208.00   18.43 
   8   1   0  221.21   15.92 
  -8   1   0  220.78   17.26 
  -8   1   0  213.56   16.90 
   8   1   0  207.71   16.48 
   8   1   0  196.64   16.57 
  -8  -1   0  215.44   16.14 
   8  -1   0  208.68   16.97 
   8  -1   0  217.20   16.74 
  -8  -1   0  206.96   18.30 
  -8   1  -1  162.74   16.46 
   8   1   1  167.00   13.52 
  -8   1  -1  153.44   13.76 
  -8   1  -1  157.39   14.59 
   8   1   1  169.26   15.20 
  -8  -1  -1  116.94   12.94 
  -8  -1  -1  128.99   12.56 
  -8  -1  -1  140.70   14.34 
   8  -1   1  127.79   11.47 
   8  -1   1  138.91   13.86 
   8  -1   1  129.71   13.04 
  -8   1  -2  354.02   23.16 
  -8   1  -2  350.65   19.79 
   8   1   2  342.16   18.63 
  -8   1  -2  339.00   20.37 
   8   1   2  349.11   21.45 
  -8  -1  -2  376.51   21.10 
  -8  -1  -2  376.94   21.32 
   8  -1   2  390.16   19.68 
  -8  -1  -2  362.20   21.85 
  -8  -1  -2  370.31   22.15 
   8  -1   2  364.94   21.48 
   8  -1   2  328.25   19.83 
   8   1   3  491.12   27.80 
   8   1   3  454.77   24.51 
  -8   1  -3  469.17   26.74 
  -8   1  -3  443.97   22.79 
  -8   1  -3  471.50   24.86 
   8   1   3  450.75   21.43 
  -8  -1  -3  536.60   27.34 
   8  -1   3  520.20   23.05 
  -8  -1  -3  563.75   26.70 
  -8  -1  -3  563.26   28.22 
   8  -1   3  562.60   30.34 
   8  -1   3  521.14   26.05 
   8   1   4  331.72   19.70 
   8   1   4  339.22   22.50 
  -8   1  -4  342.24   21.58 
   8   1   4  317.07   17.01 
  -8   1  -4  335.16   20.90 
  -8  -1  -4  290.18   18.83 
   8  -1   4  291.60   21.09 
  -8  -1  -4  293.70   19.58 
  -8  -1  -4  288.80   18.24 
   8  -1   4  290.60   18.10 
  -8   1  -5  106.57   12.84 
   8   1   5  107.43   13.60 
  -8   1  -5  111.78   12.34 
   8   1   5  111.67   10.50 
   8  -1   5  138.60   15.40 
  -8  -1  -5  140.95   13.37 
  -8  -1  -5  144.89   13.26 
  -8  -1  -5  140.22   14.25 
   8  -1   5  131.24   12.23 
  -8   1  -6  170.33   14.90 
   8   1   6  171.94   16.51 
  -8   1  -6  176.71   14.85 
  -8   1  -6  159.66   13.51 
   8  -1   6  171.78   16.78 
  -8  -1  -6  176.63   14.74 
  -8  -1  -6  160.77   13.45 
  -8  -1  -6  169.78   16.07 
   8  -1   6  171.95   13.96 
  -8   1  -7  486.24   25.47 
   8   1   7  463.78   27.16 
  -8   1  -7  461.40   25.44 
  -8   1  -7  476.94   23.19 
   8  -1   7  476.21   28.30 
  -8  -1  -7  452.05   23.55 
  -8  -1  -7  467.15   25.41 
  -8  -1  -7  481.43   24.74 
   8  -1   7  463.26   23.26 
  -8   1  -8  725.34   30.74 
   8   1   8  711.58   34.76 
  -8   1  -8  742.71   33.09 
  -8  -1  -8  681.98   29.28 
   8  -1   8  673.66   34.33 
  -8  -1  -8  692.79   32.17 
  -8  -1  -8  658.89   35.09 
  -8   1  -9  261.14   17.66 
   8   1   9  256.03   20.18 
  -8   1  -9  272.90   18.83 
  -8  -1  -9  231.11   16.20 
   8  -1   9  234.69   19.57 
  -8  -1  -9  227.46   18.05 
  -8  -1  -9  235.44   16.55 
   8   1  10  100.55   14.84 
  -8   1 -10  104.28   13.05 
  -8   1 -10  100.95   14.35 
   8  -1  10  100.65   16.17 
  -8  -1 -10   92.57   12.61 
  -8  -1 -10  100.04   14.30 
   8   1  11   97.84   15.51 
  -8   1 -11   98.37   13.04 
  -8   1 -11  104.30   14.84 
   8  -1  11   97.33   15.47 
  -8  -1 -11   90.94   11.82 
  -8  -1 -11   92.90   13.41 
   8   1  12   42.26   13.88 
  -8   1 -12   40.44   10.35 
  -8   1 -12   43.14   12.68 
   8  -1  12   44.03   13.72 
  -8  -1 -12   42.27   10.30 
  -8  -1 -12   40.24   13.08 
  -8   1 -13  103.12   15.94 
  -8   1 -13   99.39   13.04 
  -8  -1 -13  108.13   14.14 
  -8  -1 -13   99.71   15.32 
   8  -1  13  100.67   16.19 
  -8   1 -14   82.10   14.91 
  -8   1 -14   79.45   12.77 
  -8  -1 -14   76.53   12.35 
  -8  -1 -14   78.10   15.45 
   8  -1  14   79.60   16.55 
  -8   1 -15   72.53   14.65 
  -8   1 -15   77.13   13.22 
  -8  -1 -15   77.49   12.86 
  -8  -1 -15   75.25   15.79 
   8  -1  15   68.09   17.06 
   8   2 -18    6.33   10.32 
   8   2 -18    5.12   13.17 
  -8  -2  18   19.11   15.15 
   8  -2 -18    9.56   13.35 
   8   2 -17   27.08   11.57 
   8   2 -17   21.54   14.31 
  -8  -2  17   17.59   13.89 
   8  -2 -17   20.86   13.77 
   8   2 -16   -1.99   12.08 
   8   2 -16    0.20   10.29 
   8  -2 -16    7.07    8.04 
   8  -2 -16    9.69   12.52 
  -8  -2  16   11.36   14.54 
   8   2 -15   88.12   12.86 
   8   2 -15   80.29   13.66 
  -8  -2  15   91.57   16.50 
   8  -2 -15   87.13   13.36 
   8   2 -14  141.67   14.84 
  -8  -2  14  122.50   15.53 
   8  -2 -14  131.22   15.40 
  -8  -2  14  122.26   16.76 
  -8   2  13  105.94   13.65 
  -8   2  13  116.97   13.02 
   8   2 -13  110.96   13.68 
  -8  -2  13  111.04   15.48 
  -8  -2  13  112.06   15.25 
   8  -2 -13  107.28   13.80 
  -8   2  12   72.24   12.57 
  -8   2  12   70.11   11.53 
   8   2 -12   74.16   11.54 
  -8  -2  12   76.10   13.45 
  -8  -2  12   75.07   12.83 
   8  -2 -12   74.72   12.71 
   8   2 -11  188.10   14.74 
  -8   2  11  186.40   15.85 
  -8   2  11  175.40   15.90 
  -8  -2  11  139.07   15.58 
   8  -2 -11  137.46   13.57 
   8  -2 -11  145.62   15.65 
  -8  -2  11  142.43   16.08 
   8   2 -10 1173.52   33.32 
  -8   2  10 1113.66   33.23 
  -8   2  10 1143.85   35.20 
  -8  -2  10 1073.60   43.13 
   8  -2 -10 1077.60   38.27 
   8  -2 -10 1069.62   39.34 
  -8  -2  10 1060.87   41.44 
  -8   2   9 1339.06   46.50 
  -8   2   9 1317.67   44.78 
   8   2  -9 1298.15   43.18 
   8   2  -9 1352.93   44.16 
  -8  -2   9 1154.16   45.42 
   8  -2  -9 1172.39   40.42 
   8  -2  -9 1185.39   40.77 
  -8  -2   9 1209.67   44.12 
  -8   2   8  115.03   12.38 
  -8   2   8  119.97   12.45 
   8   2  -8  116.61   11.08 
   8   2  -8  122.98   11.85 
  -8  -2   8  112.96   13.12 
   8  -2  -8  116.08   10.91 
   8  -2  -8  119.52   11.98 
  -8  -2   8  112.81   13.37 
  -8   2   7  446.23   21.95 
   8   2  -7  445.28   20.16 
  -8   2   7  432.30   20.72 
   8   2  -7  462.73   20.75 
  -8   2   7  445.23   19.47 
   8  -2  -7  429.41   19.31 
   8  -2  -7  452.11   20.57 
  -8  -2   7  434.11   22.51 
  -8  -2   7  428.96   23.48 
  -8   2   6  471.00   23.90 
   8   2  -6  461.44   21.79 
  -8   2   6  459.43   22.37 
   8   2  -6  473.85   23.10 
  -8   2   6  448.96   21.47 
   8  -2  -6  476.93   22.23 
   8  -2  -6  486.25   22.58 
  -8  -2   6  479.96   24.24 
  -8  -2   6  450.84   24.57 
  -8   2   5  509.58   22.81 
   8   2  -5  516.21   23.12 
  -8   2   5  507.21   23.67 
  -8   2   5  513.93   24.23 
   8   2  -5  490.85   23.38 
   8  -2  -5  503.56   23.58 
   8  -2  -5  507.63   22.91 
   8  -2  -5  511.94   23.19 
  -8  -2   5  520.70   25.95 
  -8  -2   5  493.40   25.74 
   8   2  -4  353.27   20.88 
   8   2  -4  348.21   19.53 
  -8   2   4  333.24   19.46 
  -8   2   4  350.27   19.48 
  -8   2   4  356.24   20.79 
   8   2  -4  351.47   19.95 
   8   2  -4  349.25   19.77 
   8  -2  -4  285.13   18.34 
  -8  -2   4  278.75   19.80 
   8  -2  -4  290.10   17.68 
  -8  -2   4  268.63   18.99 
   8  -2  -4  282.48   16.86 
   8   2  -3  132.49   13.92 
  -8   2   3  123.24   12.63 
   8   2  -3  133.77   13.00 
   8   2  -3  133.36   14.35 
   8   2  -3  134.01   13.07 
  -8   2   3  137.08   14.15 
  -8   2   3  136.36   13.36 
   8  -2  -3  200.32   17.07 
   8  -2  -3  194.77   16.06 
  -8  -2   3  207.57   18.57 
   8  -2  -3  196.22   15.90 
  -8   2   2  125.75   14.58 
  -8   2   2  119.86   12.26 
  -8   2   2  122.94   13.05 
   8   2  -2  116.72   12.29 
   8   2  -2  131.90   13.34 
  -8   2   2  123.73   13.24 
   8   2  -2  114.97   13.11 
   8   2  -2  114.51   12.63 
   8  -2  -2  126.45   12.68 
   8  -2  -2  119.80   12.20 
  -8  -2   2  115.67   13.50 
  -8   2   1  160.14   16.92 
  -8   2   1  156.70   14.89 
  -8   2   1  163.98   14.87 
   8   2  -1  157.70   14.59 
   8   2  -1  137.47   13.93 
   8  -2  -1  236.62   17.33 
  -8  -2   1  237.10   19.42 
   8  -2  -1  238.08   18.14 
   8  -2  -1  239.23   19.24 
  -8   2   0  556.39   29.80 
  -8   2   0  557.84   26.88 
  -8   2   0  575.77   26.43 
   8   2   0  563.54   25.48 
  -8  -2   0  615.80   29.13 
   8  -2   0  638.42   26.65 
   8  -2   0  622.98   29.44 
   8  -2   0  603.08   27.15 
  -8   2  -1  199.24   19.39 
  -8   2  -1  202.33   17.39 
  -8   2  -1  195.31   16.49 
   8   2   1  201.02   16.46 
  -8  -2  -1  208.21   17.70 
   8  -2   1  195.87   15.31 
  -8  -2  -1  202.09   18.44 
   8  -2   1  191.49   17.07 
   8  -2   1  192.35   16.25 
  -8   2  -2   90.95   12.82 
  -8   2  -2   87.50   10.80 
   8   2   2   87.35    9.39 
  -8   2  -2   86.34   10.28 
  -8  -2  -2   90.23   10.88 
  -8  -2  -2   88.56   11.85 
   8  -2   2   92.97   10.72 
   8  -2   2   91.76   10.41 
   8   2   3  277.45   15.73 
  -8   2  -3  288.59   20.46 
  -8   2  -3  278.92   16.47 
   8  -2   3  278.39   20.96 
  -8  -2  -3  282.75   18.33 
  -8  -2  -3  282.22   18.56 
  -8  -2  -3  260.24   15.99 
  -8  -2  -3  298.32   20.20 
   8  -2   3  281.04   17.84 
   8  -2   3  282.11   17.53 
  -8   2  -4  223.45   17.13 
   8   2   4  228.02   17.89 
   8   2   4  229.31   14.39 
  -8   2  -4  229.69   16.52 
  -8   2  -4  230.33   15.06 
   8  -2   4  148.16   15.08 
  -8  -2  -4  155.03   14.11 
  -8  -2  -4  152.23   12.19 
  -8  -2  -4  160.05   15.29 
   8  -2   4  154.86   12.89 
  -8   2  -5  346.90   21.14 
   8   2   5  351.13   22.53 
   8   2   5  354.46   17.74 
  -8   2  -5  342.55   20.26 
  -8   2  -5  338.26   18.77 
   8  -2   5  306.28   21.94 
  -8  -2  -5  312.89   19.25 
  -8  -2  -5  291.86   17.15 
  -8  -2  -5  319.33   20.88 
   8  -2   5  312.42   18.03 
  -8   2  -6  127.82   12.59 
   8   2   6  148.68   15.04 
  -8   2  -6  143.11   13.82 
  -8  -2  -6  103.59   10.64 
   8  -2   6  106.81   13.60 
  -8  -2  -6  104.94   11.79 
  -8  -2  -6  109.05   14.31 
   8  -2   6  113.26   11.33 
  -8   2  -7   20.80    8.40 
   8   2   7   16.92    9.14 
  -8  -2  -7   38.86    8.27 
  -8  -2  -7   38.93    9.38 
   8  -2   7   36.04   11.75 
  -8  -2  -7   39.82   11.22 
   8  -2   7   40.48    8.75 
   8   2   8  341.91   22.36 
  -8   2  -8  348.43   20.65 
   8  -2   8  345.11   23.63 
  -8  -2  -8  350.69   18.25 
  -8  -2  -8  372.45   22.02 
  -8  -2  -8  347.57   19.11 
   8  -2   8  352.98   18.32 
  -8   2  -9  110.07   13.25 
   8   2   9  109.97   14.54 
  -8   2  -9  110.77   13.59 
  -8  -2  -9   95.43   10.91 
   8  -2   9   93.46   14.65 
  -8  -2  -9   96.52   12.53 
  -8  -2  -9   95.22   14.26 
  -8   2 -10   36.39   10.24 
  -8   2 -10   27.62   11.35 
  -8  -2 -10   10.15    9.14 
  -8  -2 -10    9.94   10.95 
   8  -2  10   10.14   12.09 
  -8   2 -11  251.52   19.11 
  -8   2 -11  231.68   16.19 
  -8  -2 -11  256.12   17.84 
  -8  -2 -11  254.74   20.17 
   8  -2  11  267.26   21.55 
  -8   2 -12   59.91   13.09 
  -8  -2 -12   70.22   11.53 
   8  -2  12   74.16   15.71 
  -8  -2 -12   71.34   15.22 
  -8   2 -13    4.90    9.96 
  -8  -2 -13    6.51    9.97 
   8  -2  13    5.78   14.67 
  -8  -2 -13    0.72   12.19 
  -8   2 -14   16.82   12.10 
  -8  -2 -14   21.80   10.49 
   8  -2  14   21.58   15.49 
  -8  -2 -14   17.66   12.55 
  -8   2 -15   41.78   14.16 
   8  -2  15   41.48   16.16 
  -8  -2 -15   51.00   16.05 
   8   3 -17  174.26   17.46 
  -8   3  17  168.07   19.32 
   8   3 -17  162.49   16.22 
   8  -3 -17  167.09   19.16 
  -8  -3  17  157.26   19.03 
   8   3 -16  165.27   16.16 
  -8   3  16  165.18   17.95 
   8   3 -16  174.72   16.12 
   8  -3 -16  144.43   17.58 
  -8  -3  16  136.60   17.41 
   8   3 -15   60.07   13.15 
  -8   3  15   45.85   13.43 
   8   3 -15   63.19   12.32 
   8  -3 -15   55.34   12.70 
  -8  -3  15   51.98   14.98 
   8   3 -14  189.98   15.79 
   8   3 -14  187.60   17.20 
  -8  -3  14  168.77   17.78 
   8  -3 -14  173.60   16.12 
   8   3 -13  240.93   16.70 
  -8  -3  13  194.13   18.81 
   8  -3 -13  204.90   16.95 
  -8  -3  13  202.77   19.05 
   8   3 -12  127.78   13.92 
  -8  -3  12   70.75   14.16 
   8  -3 -12   81.35   12.39 
  -8  -3  12   77.32   15.02 
  -8   3  11   84.64   12.09 
   8   3 -11   89.61   12.53 
  -8  -3  11   98.80   14.08 
   8  -3 -11   96.43   10.69 
   8  -3 -11   96.46   12.61 
  -8  -3  11  100.75   14.27 
  -8   3  10  226.28   16.30 
   8   3 -10  232.75   15.56 
  -8  -3  10  225.85   18.19 
   8  -3 -10  227.46   14.82 
   8  -3 -10  231.33   17.23 
  -8  -3  10  233.68   17.90 
  -8   3   9  158.38   14.18 
   8   3  -9  160.50   13.97 
  -8  -3   9  118.64   14.72 
   8  -3  -9  129.89   11.61 
   8  -3  -9  129.24   14.22 
  -8  -3   9  129.91   15.13 
   8   3  -8  203.61   14.46 
   8   3  -8  203.78   14.14 
  -8   3   8  205.82   15.87 
  -8  -3   8  234.57   18.26 
   8  -3  -8  235.92   14.68 
   8  -3  -8  237.98   16.60 
  -8  -3   8  248.45   18.65 
  -8   3   7  273.56   17.61 
   8   3  -7  255.14   16.23 
  -8   3   7  244.03   16.36 
   8   3  -7  278.88   17.46 
  -8   3   7  255.52   15.42 
   8  -3  -7  285.28   16.13 
   8  -3  -7  285.50   18.47 
  -8  -3   7  296.30   19.27 
  -8  -3   7  288.30   20.41 
  -8   3   6  131.31   12.68 
   8   3  -6  124.76   11.77 
   8   3  -6  128.52   12.33 
  -8   3   6  125.46   12.19 
  -8   3   6  125.17   11.52 
  -8  -3   6  140.61   14.55 
   8  -3  -6  132.14   11.60 
   8  -3  -6  137.51   12.92 
  -8   3   5  264.39   16.75 
   8   3  -5  266.72   15.82 
   8   3  -5  266.97   16.77 
  -8   3   5  269.43   16.83 
  -8   3   5  258.67   15.31 
  -8  -3   5  241.20   18.31 
   8  -3  -5  240.58   14.65 
   8  -3  -5  246.76   15.88 
  -8   3   4   55.16    8.76 
   8   3  -4   53.12    7.89 
  -8   3   4   57.98   10.55 
   8   3  -4   54.09   10.05 
  -8   3   4   50.72    8.29 
   8  -3  -4   65.79    8.54 
   8  -3  -4   64.86    9.29 
  -8  -3   4   52.41    9.31 
  -8  -3   4   67.28   11.05 
  -8   3   3  306.28   18.40 
   8   3  -3  306.08   17.41 
  -8   3   3  294.45   18.32 
   8   3  -3  318.42   19.15 
  -8   3   3  309.07   17.68 
   8  -3  -3  322.62   17.48 
   8  -3  -3  324.53   18.26 
  -8  -3   3  303.05   19.18 
  -8  -3   3  311.38   21.53 
  -8   3   2  955.10   34.28 
  -8   3   2  984.31   44.47 
   8   3  -2  953.85   33.78 
  -8   3   2 1058.68   36.11 
   8   3  -2  992.65   33.80 
   8   3  -2 1005.90   35.87 
  -8  -3   2  938.71   35.53 
   8  -3  -2  938.90   32.53 
   8  -3  -2  962.09   31.74 
  -8  -3   2  913.44   39.24 
  -8   3   1  372.87   22.93 
  -8   3   1  390.86   21.76 
  -8   3   1  401.11   20.69 
   8   3  -1  399.81   20.37 
   8   3  -1  383.91   20.88 
   8  -3  -1  498.01   22.02 
  -8  -3   1  475.41   24.57 
   8  -3  -1  493.95   22.59 
   8  -3  -1  483.98   23.98 
  -8   3   0  122.30   13.94 
  -8   3   0  122.72   12.73 
  -8   3   0  137.40   12.31 
   8   3   0  134.20   11.82 
   8   3   0  134.29   12.51 
   8  -3   0  109.39   10.71 
  -8  -3   0  109.16   12.47 
   8  -3   0  112.90   10.73 
   8  -3   0  108.50   11.60 
  -8   3  -1  130.68   12.92 
  -8   3  -1  127.14   12.70 
   8   3   1  136.59   12.13 
  -8  -3  -1  112.17   12.23 
  -8  -3  -1  116.77   13.70 
   8  -3   1  112.80   11.76 
   8  -3   1  113.98   10.88 
  -8   3  -2  154.35   13.54 
  -8   3  -2  148.49   12.33 
   8   3   2  154.62   11.97 
  -8  -3  -2  206.82   16.04 
  -8  -3  -2  205.26   16.97 
   8  -3   2  199.03   14.68 
   8  -3   2  208.54   14.18 
   8   3   3   12.54    6.64 
  -8   3  -3   13.79    7.24 
   8  -3   3   14.19    9.45 
  -8  -3  -3   18.84    8.31 
  -8  -3  -3   19.18   10.10 
   8  -3   3   17.59    6.65 
   8  -3   3   18.34    6.50 
   8   3   4  248.22   15.15 
  -8   3  -4  259.18   16.64 
   8  -3   4  279.01   20.60 
  -8  -3  -4  279.30   18.47 
  -8  -3  -4  278.30   19.56 
   8  -3   4  282.74   16.93 
   8  -3   4  287.61   17.54 
   8   3   5   86.80    9.57 
  -8   3  -5   90.11   10.95 
  -8   3  -5   90.79   11.81 
  -8  -3  -5  109.12   12.60 
   8  -3   5  108.57   14.80 
  -8  -3  -5  106.49   10.97 
  -8  -3  -5  109.67   13.89 
   8  -3   5  109.63   11.40 
   8   3   6    7.14    5.47 
  -8   3  -6    5.71    6.98 
  -8   3  -6    6.48    8.36 
  -8  -3  -6    6.01    7.96 
   8  -3   6    5.09   10.74 
  -8  -3  -6    6.49    5.62 
  -8  -3  -6    8.59    9.08 
   8  -3   6    5.63    5.87 
  -8   3  -7  184.56   16.54 
  -8   3  -7  178.77   16.25 
  -8  -3  -7  122.57   13.77 
  -8  -3  -7  122.56   12.47 
   8  -3   7  128.18   16.82 
  -8  -3  -7  130.53   15.72 
   8  -3   7  124.01   12.64 
  -8   3  -8  426.86   20.63 
  -8  -3  -8  357.73   19.95 
   8  -3   8  388.69   24.38 
  -8  -3  -8  399.95   22.75 
   8  -3   9  501.16   27.18 
  -8  -3  -9  510.23   23.03 
  -8  -3  -9  512.49   26.69 
   8  -3  10  213.20   20.39 
  -8  -3 -10  204.61   15.91 
  -8  -3 -10  202.44   18.59 
  -8   3 -11   31.08   10.88 
  -8  -3 -11   29.65    9.77 
   8  -3  11   29.20   13.08 
  -8  -3 -11   29.67   13.88 
  -8   3 -12   37.32   11.10 
  -8  -3 -12   27.54   10.20 
   8  -3  12   27.57   15.45 
  -8  -3 -12   27.02   14.35 
  -8   3 -13  101.94   14.50 
   8  -3  13  115.10   18.43 
  -8  -3 -13  110.55   17.06 
  -8   3 -14   27.78   11.47 
   8  -3  14   26.91   14.44 
  -8  -3 -14   25.98   14.95 
   8   4 -16   67.79   13.23 
  -8   4  16   74.92   15.23 
   8   4 -16   73.07   14.01 
   8  -4 -16   43.11   14.09 
  -8  -4  16   42.79   15.63 
   8   4 -15   97.25   13.29 
  -8   4  15   76.96   13.69 
   8   4 -15   80.95   12.86 
   8  -4 -15   55.81   13.85 
  -8  -4  15   48.70   16.17 
   8   4 -14   73.29   13.04 
  -8   4  14   72.08   14.47 
   8   4 -14   62.64   13.69 
   8  -4 -14   90.94   14.32 
  -8  -4  14   82.75   16.98 
  -8   4  13  207.04   17.83 
   8   4 -13  202.51   16.33 
  -8  -4  13  205.73   19.76 
   8  -4 -13  228.79   17.84 
   8   4 -12   39.02   11.29 
  -8   4  12   43.11   12.55 
  -8  -4  12   38.52   12.56 
   8  -4 -12   44.21   11.49 
  -8  -4  12   36.73   13.55 
   8   4 -11  215.09   16.30 
  -8   4  11  228.15   17.37 
  -8  -4  11  178.80   16.96 
   8  -4 -11  190.99   16.39 
  -8  -4  11  183.65   19.06 
   8   4 -10  334.97   18.45 
  -8   4  10  321.02   18.60 
  -8  -4  10  307.14   21.06 
   8  -4 -10  327.69   20.30 
  -8  -4  10  315.03   22.27 
  -8   4   9  549.95   24.08 
   8   4  -9  568.11   23.40 
  -8  -4   9  622.69   29.33 
   8  -4  -9  610.81   22.21 
   8  -4  -9  631.99   26.24 
  -8  -4   9  561.27   27.00 
   8   4  -8   12.36    8.29 
  -8   4   8   14.33    7.83 
   8  -4  -8    6.92    5.89 
   8  -4  -8    6.39    8.73 
  -8  -4   8    2.68    9.41 
  -8   4   7  463.78   22.36 
  -8   4   7  477.72   24.34 
   8   4  -7  498.98   24.52 
   8  -4  -7  478.07   21.92 
  -8  -4   7  503.30   28.94 
   8  -4  -7  487.18   25.35 
  -8   4   6  363.40   20.76 
  -8   4   6  353.20   19.03 
   8   4  -6  380.06   21.28 
   8  -4  -6  354.89   18.48 
  -8  -4   6  337.33   23.71 
  -8  -4   6  345.93   21.73 
   8  -4  -6  358.40   21.16 
  -8   4   5  351.61   20.46 
  -8   4   5  323.46   18.27 
   8   4  -5  342.33   19.88 
   8  -4  -5  364.51   18.67 
  -8  -4   5  363.34   23.84 
  -8  -4   5  346.69   21.63 
   8  -4  -5  322.91   19.79 
  -8   4   4  161.20   13.62 
  -8   4   4  157.08   12.40 
   8   4  -4  155.08   13.82 
   8  -4  -4  125.21   10.65 
  -8  -4   4  127.55   14.72 
  -8  -4   4  121.53   13.02 
   8  -4  -4  117.37   12.42 
  -8   4   3  120.12   12.42 
   8   4  -3  120.98   12.66 
  -8   4   3  119.81   11.34 
   8  -4  -3   76.57    8.82 
  -8  -4   3   69.43   10.93 
  -8  -4   3   73.94   12.12 
   8  -4  -3   76.10   10.37 
   8   4  -2   96.72   11.46 
  -8   4   2   93.34   12.85 
   8   4  -2   99.90   11.92 
   8   4  -2  101.07   11.65 
  -8   4   2  103.80   11.67 
  -8   4   2   96.60   10.28 
   8  -4  -2  103.08   10.32 
  -8  -4   2  106.36   12.45 
   8  -4  -2   94.22   10.96 
  -8   4   1  270.88   17.74 
   8   4  -1  275.55   17.77 
  -8   4   1  271.09   17.29 
   8  -4  -1  213.51   15.41 
   8  -4  -1  196.68   15.39 
  -8  -4   1  214.72   16.53 
  -8   4   0   42.27   10.91 
   8   4   0   40.82   10.45 
  -8   4   0   39.61    9.34 
   8  -4   0   65.22    9.54 
   8  -4   0   64.62    9.58 
  -8  -4   0   67.76   10.77 
  -8   4  -1  231.28   17.23 
  -8   4  -1  225.62   15.21 
   8   4   1  225.45   14.96 
  -8  -4  -1  272.84   18.47 
  -8   4  -2  171.38   14.58 
  -8   4  -2  172.49   13.63 
   8   4   2  168.59   13.20 
  -8  -4  -2  225.50   16.27 
  -8   4  -3  329.72   20.50 
  -8   4  -3  321.54   18.63 
   8   4   3  336.61   18.33 
  -8  -4  -3  346.66   21.32 
   8   4   4   -1.84    5.84 
  -8   4  -4   -0.04    8.52 
   8  -4   4    0.58    9.47 
  -8  -4  -4    4.40    7.66 
  -8  -4  -4   -0.13    8.15 
  -8   4  -5  681.52   25.04 
  -8  -4  -5  755.62   28.61 
   8  -4   5  780.64   33.75 
  -8  -4  -5  734.40   29.50 
   8  -4   5  739.09   25.09 
   8  -4   5  794.37   28.02 
  -8   4  -6  146.80   15.23 
  -8  -4  -6  207.94   16.23 
   8  -4   6  221.84   20.53 
  -8  -4  -6  224.30   18.19 
   8  -4   6  213.02   14.82 
  -8   4  -7   47.46   10.89 
  -8  -4  -7   43.00   10.13 
   8  -4   7   47.29   13.16 
  -8  -4  -7   43.77   12.08 
  -8   4  -8    2.19    9.74 
  -8  -4  -8    4.59    7.42 
   8  -4   8   12.52   12.57 
  -8  -4  -8    3.58   10.53 
  -8   4  -9   63.32   12.55 
  -8  -4  -9   61.10   10.67 
   8  -4   9   70.45   16.53 
  -8  -4  -9   63.05   15.06 
  -8   4 -10   43.42   11.61 
  -8  -4 -10   29.81   10.15 
   8  -4  10   26.84   15.99 
  -8  -4 -10   32.41   14.81 
   8  -4  11   52.75   16.62 
  -8  -4 -11   49.49   15.36 
   8  -4  12   43.00   17.23 
  -8  -4 -12   48.54   15.74 
  -8   4 -13   25.02   12.06 
   8  -4  13   10.33   16.62 
  -8  -4 -13   23.37   14.34 
  -8   5  15   92.35   15.30 
   8   5 -15   86.99   13.63 
  -8  -5  15   85.38   16.89 
   8  -5 -15   89.09   14.81 
   8   5 -14    9.22   10.33 
  -8   5  14    3.40   12.70 
   8   5 -14    6.19   12.90 
   8  -5 -14    0.03   11.30 
  -8  -5  14   -3.59   14.47 
   8   5 -13   95.44   13.49 
  -8   5  13   88.00   13.50 
   8   5 -13   94.24   14.25 
   8  -5 -13  109.88   14.38 
  -8  -5  13  102.70   18.67 
   8   5 -12   90.45   13.55 
  -8   5  12   87.46   13.96 
   8   5 -12   85.04   13.65 
   8  -5 -12   86.98   13.85 
  -8  -5  12   91.23   16.90 
  -8   5  11   73.02   12.38 
   8   5 -11   77.18   12.34 
  -8  -5  11   43.37   13.63 
   8  -5 -11   41.35   12.44 
  -8   5  10   51.97   13.16 
   8   5 -10   41.90   10.32 
  -8  -5  10   49.80   14.14 
   8  -5 -10   53.45   11.19 
   8   5  -9  143.87   14.06 
  -8   5   9  137.28   14.98 
  -8  -5   9  128.69   15.32 
   8  -5  -9  129.36   13.79 
  -8  -5   9  134.43   16.06 
   8   5  -8  196.30   15.51 
  -8   5   8  203.48   15.69 
  -8  -5   8  190.65   17.67 
   8  -5  -8  180.92   15.63 
  -8  -5   8  187.13   18.27 
   8   5  -7  154.27   13.65 
  -8   5   7  165.79   15.29 
  -8  -5   7  111.33   13.95 
   8  -5  -7  108.38   12.78 
  -8  -5   7  114.21   15.22 
   8   5  -6  145.69   14.76 
  -8   5   6  140.05   14.99 
  -8   5   6  146.34   14.42 
  -8  -5   6  213.53   18.39 
   8  -5  -6  221.38   13.74 
   8  -5  -6  214.76   16.36 
  -8  -5   6  222.56   18.58 
   8   5  -5   97.12   13.29 
  -8   5   5   90.46   13.40 
  -8   5   5   92.96   11.90 
  -8  -5   5   92.22   13.81 
   8  -5  -5   94.69   10.48 
   8  -5  -5   97.03   12.68 
  -8  -5   5  100.67   14.38 
  -8   5   4   81.76   11.53 
   8   5  -4   80.05   11.72 
  -8  -5   4   48.81   10.45 
   8  -5  -4   60.71    8.66 
   8  -5  -4   58.64    9.96 
  -8  -5   4   61.68   12.21 
   8   5  -3  357.19   21.44 
  -8   5   3  354.10   19.84 
   8  -5  -3  401.60   19.39 
   8  -5  -3  415.66   22.50 
  -8  -5   3  409.76   23.94 
   8   5  -2  143.81   13.68 
  -8   5   2  143.58   13.33 
   8  -5  -2  187.68   14.59 
   8  -5  -2  205.44   15.31 
  -8  -5   2  204.59   16.58 
   8   5  -1  365.65   21.46 
  -8   5   1  372.91   20.42 
  -8  -5   1  374.62   22.45 
   8   5   0  148.84   14.22 
  -8   5   0  151.57   13.09 
  -8  -5   0  136.66   14.71 
   8   5   1   37.34   10.14 
  -8   5  -1   31.30    9.13 
  -8  -5  -1   46.09   10.47 
  -8   5  -2  174.95   15.69 
  -8  -5  -2  217.59   16.85 
  -8  -5  -2  231.88   17.92 
  -8   5  -3  300.01   19.83 
  -8   5  -3  327.38   17.89 
  -8  -5  -3  288.13   19.04 
  -8  -5  -3  308.37   20.45 
  -8   5  -4  348.11   20.41 
  -8   5  -4  356.88   19.03 
  -8  -5  -4  352.41   20.44 
  -8  -5  -4  349.66   20.98 
  -8   5  -5  144.76   13.34 
  -8  -5  -5  158.21   14.80 
   8  -5   5  167.68   19.40 
  -8  -5  -5  153.46   16.13 
  -8   5  -6    3.25    9.62 
  -8  -5  -6    3.35    8.60 
   8  -5   6    7.96   12.20 
  -8   5  -7  141.29   14.55 
  -8  -5  -7   99.42   12.93 
   8  -5   7  104.62   16.44 
  -8   5  -8  101.96   12.89 
  -8  -5  -8   81.08   12.70 
   8  -5   8   86.66   16.55 
  -8   5  -9   96.49   13.15 
   8  -5   9   99.93   17.44 
  -8   5 -10   26.06   12.25 
   8  -5  10   18.27   14.63 
  -8   5 -11   49.71   12.87 
   8  -5  11   49.70   16.31 
  -8  -5 -11   48.57   14.90 
  -8   5 -12   38.46   12.93 
   8  -5  12   60.51   17.30 
  -8  -5 -12   66.20   16.87 
   8   6 -13   40.65   11.24 
  -8   6  13   36.17   13.48 
   8   6 -13   35.16   12.43 
   8  -6 -13   49.72   12.83 
  -8  -6  13   58.65   16.10 
   8   6 -12   40.20   11.50 
  -8   6  12   47.57   13.37 
   8   6 -12   41.77   12.03 
   8  -6 -12   30.47   12.33 
  -8  -6  12   39.12   14.60 
   8   6 -11   44.09   11.42 
  -8   6  11   50.31   13.17 
   8   6 -11   47.55   12.55 
   8  -6 -11   39.45   11.97 
  -8  -6  11   42.43   13.90 
   8   6 -10   24.65   11.13 
  -8   6  10   18.69   12.08 
   8   6 -10   25.80   12.63 
   8  -6 -10   40.86   11.26 
  -8  -6  10   40.07   13.60 
   8   6  -9   14.75    9.74 
  -8   6   9   21.07   12.06 
  -8  -6   9   23.30   11.93 
   8  -6  -9   17.89   10.34 
  -8  -6   9   23.67   11.92 
   8   6  -8   38.86   10.95 
  -8   6   8   33.90   11.69 
  -8  -6   8   44.82   13.91 
   8  -6  -8   43.56   10.58 
  -8  -6   8   41.34   12.31 
   8   6  -7   17.55    9.48 
  -8   6   7   24.48   12.23 
  -8  -6   7   18.82   12.19 
   8  -6  -7   20.84    8.19 
  -8  -6   7   20.03   10.68 
   8   6  -6   27.36    9.73 
  -8   6   6   31.20   11.92 
  -8  -6   6   31.47   12.38 
   8  -6  -6   29.47    9.13 
  -8  -6   6   24.37   10.27 
   8   6  -5  247.24   16.45 
  -8   6   5  254.83   17.59 
  -8  -6   5  280.61   20.29 
   8  -6  -5  278.34   18.67 
  -8  -6   5  263.76   19.93 
  -8   6   4  554.23   25.06 
   8   6  -4  544.37   24.03 
  -8  -6   4  485.85   24.94 
  -8   6   3  158.34   15.19 
   8   6  -3  170.25   15.76 
  -8   6   3  163.29   13.52 
  -8  -6   3  180.17   17.21 
  -8   6   2   48.13   13.39 
   8   6  -2   39.97   10.30 
  -8   6   2   44.99   10.27 
  -8  -6   2   35.38   11.97 
  -8   6   1  488.58   23.40 
   8   6  -1  493.28   23.57 
  -8   6   1  478.16   20.88 
  -8  -6   1  478.56   24.95 
  -8   6   0  268.96   19.50 
   8   6   0  272.42   18.44 
  -8   6   0  273.40   17.40 
  -8  -6   0  224.51   17.50 
   8   6   1   58.31   12.32 
  -8   6  -1   52.90   10.08 
  -8  -6  -1   24.69   10.49 
  -8   6  -2   10.44    9.62 
  -8  -6  -2   12.38    9.64 
  -8  -6  -2   10.73   11.29 
  -8   6  -3   25.88    9.40 
  -8  -6  -3   27.41   10.09 
  -8  -6  -3   26.05   12.66 
  -8   6  -4   22.77   10.73 
  -8  -6  -4   38.88   10.45 
  -8  -6  -4   33.84   12.92 
  -8   6  -5   35.96   11.14 
  -8  -6  -5   65.10   11.04 
  -8  -6  -5   69.35   13.66 
  -8   6  -6  271.39   17.25 
   8  -6   6  323.32   25.01 
  -8  -6  -6  314.13   21.55 
  -8   6  -7   46.83   11.70 
   8  -6   7   56.13   16.67 
  -8  -6  -7   58.68   13.96 
  -8   6  -8   65.72   13.34 
   8  -6   8   72.64   16.70 
  -8  -6  -8   72.57   14.73 
  -8   6  -9    5.04   12.28 
   8  -6   9   11.14   15.78 
  -8  -6  -9   15.47   12.57 
  -8   6 -10  152.59   16.01 
   8  -6  10  168.29   21.15 
  -8  -6 -10  158.57   18.70 
  -8   7  11   68.15   14.35 
   8   7 -11   73.67   14.78 
   8   7 -11   71.28   12.05 
  -8   7  10   42.43   13.81 
   8   7 -10   44.63   13.31 
   8   7 -10   42.59   11.46 
  -8   7   9   57.67   14.39 
   8   7  -9   57.70   12.66 
   8   7  -9   56.84   12.31 
  -8   7   8  122.56   15.73 
   8   7  -8  115.96   14.19 
   8   7  -8  125.89   13.77 
  -8   7   7  167.45   16.28 
   8   7  -7  171.41   16.08 
   8   7  -7  159.85   14.90 
  -8   7   6   84.47   12.96 
   8   7  -6   75.29   12.39 
  -8  -7   6   80.77   15.60 
  -8   7   5   21.69   11.77 
   8   7  -5   17.30   11.28 
  -8  -7   5    9.39   12.05 
  -8   7   4   24.00   13.80 
   8   7  -4   30.22   10.34 
  -8  -7   4   20.35   11.69 
  -8   7   3   35.93   13.10 
   8   7  -3   33.54   11.69 
  -8  -7   3   18.01   11.23 
  -8   7   2  176.66   17.65 
   8   7  -2  183.18   15.81 
  -8  -7   2  183.82   17.83 
  -8   7   1   46.36   14.55 
   8   7  -1   50.92   11.71 
  -8  -7   1   41.28   11.40 
  -8   7   0   34.39   11.62 
   8   7   0   36.64   12.86 
  -8   7   0   27.94   10.00 
  -8  -7   0   30.84   11.15 
  -8   7  -1   -0.42   12.02 
   8   7   1    0.20   10.05 
  -8   7  -1   -0.05    8.46 
  -8  -7  -1    2.90    9.89 
  -8   7  -2   23.02   12.27 
   8   7   2   18.43   11.07 
  -8   7  -2   22.79   10.90 
  -8  -7  -2   32.83   11.53 
  -8   7  -3  294.96   20.21 
  -8   7  -3  306.85   18.03 
  -8  -7  -3  306.05   20.91 
  -8  -7  -3  314.20   21.43 
  -8   7  -4  172.62   17.70 
  -8   7  -4  152.59   15.85 
  -8  -7  -4  185.49   18.46 
  -8   7  -5   93.69   15.09 
  -8   7  -5  103.47   14.77 
  -8  -7  -5   96.79   15.22 
  -8   7  -6   32.49   11.40 
  -8  -7  -6   29.56   12.81 
  -8   7  -7   33.02   11.70 
  -8  -7  -7   44.23   13.88 
  -8   7  -8   45.09   12.27 
   8  -7   8   31.74   16.39 
  -8  -7  -8   24.24   13.97 
  -8   8   7   36.17   13.06 
   8   8  -7   43.87   13.01 
  -8   8   6   36.41   13.43 
   8   8  -6   31.04   11.24 
  -8   8   5   85.85   15.06 
   8   8  -5   84.47   12.63 
   8   8  -5   87.99   14.36 
  -8   8   4  128.28   16.40 
   8   8  -4  120.20   13.88 
   8   8  -4  130.76   15.19 
  -8   8   3   19.05   13.34 
   8   8  -3   19.36   11.11 
  -8   8   2   26.85   12.76 
   8   8  -2   24.93   11.83 
  -8   8   1   34.11   12.28 
   8   8  -1   30.01   11.31 
  -8   8   0   68.32   15.04 
   8   8   0   76.43   13.69 
  -8   8  -1   85.30   14.21 
   8   8   1   85.97   15.05 
  -8   8  -2  110.36   16.66 
   8   8   2  100.83   15.07 
  -8   8  -3    5.73   12.83 
  -8   8  -3    5.48   10.37 
   8   8   3    2.89   12.02 
  -8   8  -4   38.46   14.43 
  -8   8  -4   38.81   10.89 
  -9   0  18    3.36   13.91 
   9   0 -18    1.96    9.83 
   9   0 -18    1.59   13.86 
  -9   0  17    0.20   11.74 
   9   0 -17    2.51   10.65 
   9   0 -17    2.89   12.08 
  -9   0  16   -0.55   13.57 
  -9   0  16    2.48   12.31 
   9   0 -16   -2.94   11.52 
  -9   0  15   11.68   11.70 
  -9   0  15    6.26   11.41 
  -9   0  14    0.52   10.79 
  -9   0  14    5.21   10.06 
  -9   0  13   48.15   13.31 
  -9   0  13   44.69   12.42 
  -9   0  12  189.15   17.20 
  -9   0  12  187.42   16.30 
  -9   0  11  251.76   18.02 
  -9   0  11  236.22   17.75 
  -9   0  10   19.39    9.69 
  -9   0  10   17.25    8.49 
  -9   0   9  735.83   31.70 
  -9   0   9  718.92   31.78 
   9   0  -9  702.64   29.32 
  -9   0   8  568.62   25.81 
   9   0  -8  538.74   23.27 
  -9   0   8  543.13   25.89 
   9   0  -8  548.87   23.87 
  -9   0   7    8.17    7.23 
   9   0  -7    8.66    5.71 
  -9   0   7   10.57    8.60 
   9   0  -7    8.24    7.65 
  -9   0   6   16.85    6.57 
   9   0  -6   19.23    6.89 
  -9   0   6   16.06    7.47 
   9   0  -6   16.25    6.28 
  -9   0   5  198.60   14.51 
   9   0  -5  187.38   14.00 
  -9   0   5  192.27   14.88 
   9   0  -5  198.00   14.47 
  -9   0   5  196.68   14.06 
  -9   0   4  252.21   16.76 
   9   0  -4  238.45   18.90 
  -9   0   4  244.76   17.11 
   9   0  -4  231.32   17.82 
   9   0  -4  240.20   18.75 
  -9   0   4  236.23   18.14 
  -9   0   3   16.95    6.42 
   9   0  -3   16.05    6.35 
  -9   0   3   15.12    7.55 
   9   0  -3   14.52    6.49 
   9   0  -3   14.15    6.47 
  -9   0   2    5.61    6.42 
  -9   0   2    6.24    5.55 
  -9   0   2    8.61    6.48 
   9   0  -2    6.97    6.58 
   9   0  -2    9.54    5.66 
  -9   0   1   10.91    6.88 
  -9   0   1   13.24    5.75 
  -9   0   1   12.17    7.38 
   9   0  -1   12.13    6.29 
   9   0  -1    9.93    6.75 
   9   0  -1   12.10    7.10 
  -9   0   0   30.36    8.98 
  -9   0   0   30.92    7.30 
  -9   0   0   29.26    7.40 
   9   0   0   26.57    7.42 
   9   0   0   30.43    8.52 
   9   0   0   30.53    8.30 
  -9   0  -1   98.78   12.64 
  -9   0  -1  108.99   11.27 
  -9   0  -1   90.32   10.90 
   9   0   1  108.69   12.30 
   9   0   1   97.72   11.42 
  -9   0  -2  654.44   30.46 
  -9   0  -2  669.31   28.26 
   9   0   2  662.85   28.93 
   9   0   2  694.33   28.56 
  -9   0  -3 1012.72   34.17 
  -9   0  -3 1045.03   33.65 
   9   0   3  972.12   31.94 
   9   0   4  197.07   17.22 
  -9   0  -4  197.03   15.70 
  -9   0  -4  192.69   14.63 
  -9   0  -4  190.53   16.19 
   9   0   4  204.94   15.41 
   9   0   5  674.96   31.37 
  -9   0  -5  656.67   28.58 
  -9   0  -5  660.76   26.84 
  -9   0  -5  681.04   30.04 
   9   0   6  275.00   20.85 
  -9   0  -6  268.35   18.58 
  -9   0  -6  257.07   17.66 
  -9   0  -6  270.60   19.21 
   9   0   7   25.92   10.48 
  -9   0  -7   22.57    8.44 
  -9   0  -7   23.12    8.73 
  -9   0  -7   18.65    9.11 
   9   0   8   28.69   11.04 
  -9   0  -8   35.19    9.46 
  -9   0  -8   34.16   10.18 
  -9   0  -8   33.30   10.78 
   9   0   9  186.98   18.33 
  -9   0  -9  191.96   15.04 
  -9   0  -9  207.36   17.36 
   9   0  10    8.61   11.31 
  -9   0 -10    5.47    8.90 
  -9   0 -10    7.35    9.99 
   9   0  11   32.80   12.17 
  -9   0 -11   30.98   11.55 
  -9   0 -11   38.48   12.79 
   9   0  12    3.36   11.04 
  -9   0 -12   -0.52    9.38 
  -9   0 -12    4.86   12.34 
  -9   0 -13   19.84   11.49 
  -9   0 -13   21.29   14.30 
  -9   0 -14  220.42   17.79 
  -9   0 -14  208.73   20.44 
   9   1 -18   69.23   12.64 
  -9   1  18   70.61   17.02 
   9   1 -18   59.36   14.67 
  -9  -1  18   58.15   16.91 
   9   1 -17   31.35   12.09 
  -9   1  17   40.37   16.29 
   9   1 -17   29.80   13.97 
  -9  -1  17   54.37   14.55 
   9  -1 -17   54.10   14.59 
   9  -1 -17   47.52   10.90 
  -9   1  16   89.91   15.03 
   9   1 -16   89.00   14.92 
  -9  -1  16  108.95   17.44 
   9  -1 -16  115.63   15.44 
  -9   1  15  163.53   18.03 
  -9   1  15  162.11   16.41 
   9   1 -15  153.47   16.26 
  -9  -1  15  147.27   16.78 
  -9  -1  15  148.09   16.94 
   9  -1 -15  144.73   16.15 
  -9   1  14    1.57   11.08 
  -9   1  14    2.91   10.10 
   9   1 -14    3.53   10.27 
  -9  -1  14    2.83   10.90 
  -9  -1  14   -0.37   11.46 
   9  -1 -14    2.41   10.62 
  -9   1  13   75.67   12.77 
  -9   1  13   64.18   12.24 
   9   1 -13   74.43   11.86 
  -9  -1  13   97.00   15.57 
  -9  -1  13   82.24   12.72 
   9  -1 -13   84.31   13.93 
  -9   1  12   34.51   10.09 
  -9   1  12   38.04   10.24 
   9   1 -12   36.38    9.45 
  -9  -1  12   63.36   13.74 
  -9  -1  12   64.62   12.36 
   9  -1 -12   68.64   11.17 
  -9   1  11   36.32   11.49 
  -9   1  11   36.19   10.00 
   9   1 -11   34.61   11.47 
  -9  -1  11   21.36   11.10 
  -9  -1  11   24.96   10.67 
   9  -1 -11   22.32   10.27 
  -9   1  10    4.77    7.61 
  -9   1  10    3.87    8.28 
   9   1 -10    1.27    7.38 
  -9  -1  10    4.38    8.11 
  -9  -1  10    1.63    9.03 
   9  -1 -10    1.29    7.92 
  -9   1   9  377.28   21.41 
  -9   1   9  377.02   21.88 
   9   1  -9  350.95   19.93 
  -9  -1   9  363.37   22.43 
  -9  -1   9  388.64   22.96 
   9  -1  -9  355.35   19.61 
  -9   1   8  109.78   12.22 
  -9   1   8  112.42   11.90 
   9   1  -8  115.69   11.52 
  -9  -1   8  103.04   12.61 
  -9  -1   8  105.01   12.35 
   9  -1  -8  109.58   11.95 
  -9   1   7   33.62    9.65 
  -9   1   7   31.31    8.64 
   9   1  -7   33.52    7.65 
  -9  -1   7   34.03    8.86 
  -9  -1   7   41.08    9.00 
   9  -1  -7   40.23    8.62 
  -9   1   6  513.50   22.10 
  -9   1   6  524.87   22.37 
   9   1  -6  537.95   21.90 
  -9   1   6  528.55   23.45 
  -9  -1   6  598.63   25.34 
   9  -1  -6  611.26   23.90 
   9  -1  -6  604.54   23.18 
   9  -1  -6  617.23   23.87 
  -9  -1   6  597.08   25.37 
  -9   1   5  618.35   25.92 
  -9   1   5  611.78   26.03 
   9   1  -5  619.79   25.95 
  -9   1   5  624.23   27.39 
  -9  -1   5  599.47   27.02 
   9  -1  -5  608.34   26.05 
   9  -1  -5  602.59   25.00 
   9  -1  -5  598.08   25.87 
  -9  -1   5  622.70   28.52 
  -9   1   4  537.25   24.27 
  -9   1   4  530.00   24.05 
   9   1  -4  529.06   24.30 
  -9   1   4  539.28   25.05 
  -9  -1   4  612.33   26.67 
   9  -1  -4  593.67   26.04 
   9  -1  -4  595.96   25.88 
   9  -1  -4  601.96   25.25 
  -9  -1   4  604.48   27.86 
   9   1  -3   42.92    8.56 
  -9   1   3   48.35    8.74 
   9   1  -3   44.50    7.94 
   9   1  -3   48.57    9.56 
  -9   1   3   51.82    8.82 
  -9   1   3   45.03    9.75 
  -9  -1   3   62.36   10.23 
   9  -1  -3   63.00    9.83 
   9  -1  -3   67.05   10.09 
  -9  -1   3   64.06    9.57 
   9  -1  -3   64.10    9.47 
  -9   1   2  352.42   23.01 
   9   1  -2  358.50   20.58 
  -9   1   2  328.37   19.41 
   9   1  -2  349.97   19.42 
  -9   1   2  359.51   21.13 
   9   1  -2  355.02   20.89 
  -9  -1   2  393.01   22.39 
   9  -1  -2  385.43   21.63 
   9  -1  -2  364.28   19.34 
   9  -1  -2  390.32   20.75 
  -9  -1   2  390.49   20.97 
  -9   1   1  910.48   39.45 
   9   1  -1  930.28   34.73 
  -9   1   1  895.06   35.32 
  -9   1   1  934.91   36.98 
   9   1  -1  906.21   36.69 
   9   1  -1  919.70   37.29 
  -9  -1   1  981.78   38.25 
   9  -1  -1 1012.60   39.38 
   9  -1  -1  987.01   37.14 
  -9  -1   1  994.88   41.77 
  -9   1   0  378.36   23.95 
   9   1   0  368.11   19.68 
  -9   1   0  360.00   20.69 
  -9   1   0  384.18   21.73 
   9   1   0  406.58   22.32 
   9   1   0  375.55   21.93 
  -9  -1   0  279.93   18.17 
   9  -1   0  287.72   18.90 
   9  -1   0  288.45   18.45 
  -9  -1   0  288.19   20.56 
  -9   1  -1  236.31   17.97 
  -9   1  -1  242.73   16.18 
  -9   1  -1  239.89   16.70 
   9   1   1  230.06   16.10 
   9   1   1  235.47   16.45 
  -9  -1  -1  263.59   16.67 
  -9  -1  -1  224.42   16.59 
   9  -1   1  264.85   17.21 
   9  -1   1  266.97   16.44 
  -9  -1  -1  257.98   17.97 
  -9   1  -2   66.72   11.21 
  -9   1  -2   64.70    9.87 
  -9   1  -2   65.87   10.06 
   9   1   2   60.96    9.68 
  -9  -1  -2   72.60    9.63 
  -9  -1  -2   73.18   10.52 
  -9  -1  -2   71.91   11.21 
  -9  -1  -2   67.21    9.81 
   9  -1   2   73.79   10.48 
   9  -1   2   76.52    9.72 
  -9   1  -3  118.29   12.83 
  -9   1  -3  113.33   13.34 
  -9   1  -3  116.22   11.61 
   9  -1   3   73.06   12.29 
  -9  -1  -3   68.80   10.65 
  -9  -1  -3   69.30    9.40 
  -9  -1  -3   68.68   10.24 
  -9  -1  -3   73.53   11.40 
   9  -1   3   68.46   10.00 
  -9   1  -4  855.45   34.51 
   9   1   4  875.45   36.86 
  -9   1  -4  827.59   32.11 
   9  -1   4  852.05   35.81 
  -9  -1  -4  870.59   32.04 
  -9  -1  -4  850.58   32.55 
  -9  -1  -4  813.39   32.87 
   9  -1   4  858.23   31.51 
  -9   1  -5  297.66   19.63 
   9   1   5  299.06   20.90 
  -9   1  -5  305.31   19.71 
   9  -1   5  334.86   22.66 
  -9  -1  -5  341.50   19.31 
  -9  -1  -5  330.83   19.79 
  -9  -1  -5  338.90   21.17 
   9  -1   5  332.91   18.63 
  -9   1  -6  258.28   17.92 
   9   1   6  262.50   20.35 
  -9   1  -6  255.46   18.95 
  -9   1  -6  252.50   17.10 
   9  -1   6  256.21   20.77 
  -9  -1  -6  254.50   18.07 
  -9  -1  -6  251.09   17.11 
  -9  -1  -6  260.75   19.32 
   9  -1   6  252.95   17.02 
  -9   1  -7   14.90    8.79 
   9   1   7   10.95    9.23 
  -9   1  -7   14.08    9.13 
  -9  -1  -7   13.68    7.27 
   9  -1   7   11.11    9.71 
  -9  -1  -7   12.35    8.30 
  -9  -1  -7   12.67   10.24 
  -9   1  -8  112.62   14.27 
   9   1   8  113.15   15.90 
  -9   1  -8  110.59   14.39 
  -9  -1  -8  113.04   12.96 
   9  -1   8  106.97   15.27 
  -9  -1  -8  114.78   14.23 
  -9  -1  -8  106.83   14.11 
  -9   1  -9  194.32   16.31 
   9   1   9  189.63   18.12 
  -9   1  -9  192.88   16.40 
  -9  -1  -9  224.99   15.89 
   9  -1   9  213.33   19.30 
  -9  -1  -9  219.75   15.91 
  -9  -1  -9  228.61   18.15 
  -9   1 -10  194.27   17.06 
  -9   1 -10  201.80   15.81 
  -9  -1 -10  212.84   16.95 
  -9  -1 -10  219.87   18.45 
   9  -1  10  213.15   20.41 
  -9   1 -11   86.42   12.80 
  -9   1 -11   77.11   13.36 
   9  -1  11   82.24   14.85 
  -9  -1 -11   84.43   12.01 
  -9  -1 -11   84.28   15.44 
  -9   1 -12   40.96   12.30 
  -9   1 -12   56.01   13.52 
   9  -1  12   46.07   14.91 
  -9  -1 -12   39.33   10.69 
  -9  -1 -12   42.58   13.61 
  -9   1 -13   25.65   12.19 
  -9   1 -13   23.77   12.49 
  -9  -1 -13   44.11   11.14 
  -9  -1 -13   41.70   13.37 
   9  -1  13   37.86   15.39 
  -9   1 -14   29.51   11.83 
  -9  -1 -14   28.51   11.01 
   9  -1  14   33.88   16.75 
  -9  -1 -14   24.84   13.72 
   9   2 -17   32.86   13.04 
  -9   2  17   33.33   14.66 
   9   2 -17   32.70   11.47 
   9  -2 -17   21.15   14.43 
  -9  -2  17   13.87   14.45 
   9   2 -16    2.78   11.01 
  -9   2  16    6.23   14.45 
   9   2 -16    8.66   11.27 
  -9  -2  16    8.73   13.53 
   9  -2 -16    4.82   11.26 
   9  -2 -16    9.78    8.58 
   9   2 -15   50.80   13.40 
  -9   2  15   52.03   13.48 
  -9  -2  15   42.38   14.11 
   9  -2 -15   41.16   14.34 
  -9  -2  15   41.97   13.21 
   9   2 -14   94.17   13.49 
  -9   2  14   92.56   14.69 
  -9  -2  14   68.05   15.16 
   9  -2 -14   67.09   13.44 
  -9  -2  14   72.21   14.57 
  -9   2  13   13.25   11.09 
  -9   2  13   13.38    9.84 
   9   2 -13   11.53    9.67 
  -9  -2  13    9.74   12.21 
  -9  -2  13   13.90   11.58 
   9  -2 -13    9.93   10.06 
  -9   2  12  159.34   16.06 
  -9   2  12  153.47   14.97 
   9   2 -12  147.70   13.80 
  -9  -2  12  188.25   17.34 
  -9  -2  12  196.23   17.96 
   9  -2 -12  184.11   16.28 
  -9   2  11   27.68    9.39 
  -9   2  11   20.46    9.49 
   9   2 -11   19.45    9.96 
  -9  -2  11   28.85   11.59 
  -9  -2  11   21.26   10.69 
   9  -2 -11   25.60    9.64 
  -9   2  10   34.36   10.04 
  -9   2  10   28.34    9.35 
   9   2 -10   30.08   10.08 
  -9  -2  10   11.85   10.20 
  -9  -2  10   14.90    9.39 
   9  -2 -10   10.00    9.26 
  -9   2   9  562.34   27.53 
  -9   2   9  586.75   26.82 
   9   2  -9  540.55   25.00 
   9   2  -9  574.82   26.38 
  -9  -2   9  734.44   33.76 
  -9  -2   9  740.73   33.07 
  -9   2   8  320.10   19.87 
  -9   2   8  314.12   19.16 
   9   2  -8  310.34   18.34 
   9   2  -8  307.32   18.37 
  -9  -2   8  399.52   24.18 
   9  -2  -8  411.71   20.68 
   9  -2  -8  420.17   21.77 
  -9  -2   8  397.19   22.78 
  -9   2   7  274.47   18.33 
  -9   2   7  278.04   17.71 
   9   2  -7  284.50   16.94 
   9   2  -7  275.27   17.88 
  -9  -2   7  256.54   18.63 
   9  -2  -7  258.85   15.96 
   9  -2  -7  252.22   16.27 
  -9  -2   7  269.64   18.41 
  -9   2   6  230.36   16.47 
  -9   2   6  232.83   15.33 
   9   2  -6  236.11   15.13 
   9   2  -6  235.30   16.02 
  -9   2   6  227.92   14.55 
   9  -2  -6  218.58   14.18 
   9  -2  -6  228.76   14.91 
  -9  -2   6  225.74   16.61 
  -9  -2   6  212.61   16.98 
  -9   2   5  136.30   13.35 
  -9   2   5  124.47   12.02 
   9   2  -5  130.95   11.48 
   9   2  -5  137.46   13.05 
  -9   2   5  127.86   11.97 
   9  -2  -5  184.90   12.99 
   9  -2  -5  194.32   13.64 
  -9  -2   5  180.91   15.13 
  -9  -2   5  172.40   15.19 
  -9   2   4  416.35   19.68 
  -9   2   4  409.09   20.02 
   9   2  -4  422.59   19.74 
  -9   2   4  418.15   20.90 
   9   2  -4  427.99   20.51 
   9  -2  -4  415.15   20.25 
   9  -2  -4  462.03   19.92 
   9  -2  -4  452.99   20.43 
  -9  -2   4  387.86   21.23 
  -9  -2   4  433.14   23.06 
  -9   2   3 1049.39   36.26 
  -9   2   3 1049.56   37.49 
   9   2  -3  969.68   38.31 
   9   2  -3  932.74   35.63 
  -9   2   3  980.85   34.95 
   9  -2  -3 1045.04   34.33 
   9  -2  -3 1077.48   35.71 
   9  -2  -3 1034.08   35.95 
  -9  -2   3 1064.18   39.94 
  -9   2   2  317.95   19.01 
  -9   2   2  322.34   21.95 
  -9   2   2  319.48   18.82 
  -9  -2   2  286.34   19.41 
  -9  -2   2  285.16   19.84 
   9  -2  -2  279.50   15.83 
   9  -2  -2  271.91   17.29 
   9  -2  -2  271.54   15.93 
  -9   2   1  198.70   16.54 
  -9   2   1  195.44   14.57 
  -9   2   1  192.46   14.56 
  -9  -2   1  217.77   16.00 
   9  -2  -1  211.13   15.49 
   9  -2  -1  211.78   14.58 
  -9   2   0  489.80   26.66 
  -9   2   0  479.50   24.39 
  -9   2   0  462.62   27.01 
  -9  -2   0  441.56   23.46 
   9  -2   0  435.46   22.83 
   9  -2   0  430.05   21.68 
  -9   2  -1  405.30   23.47 
  -9   2  -1  403.42   20.72 
  -9   2  -1  417.36   20.35 
  -9  -2  -1  347.19   19.88 
   9  -2   1  324.37   18.87 
   9  -2   1  316.99   17.86 
  -9   2  -2  386.25   22.90 
  -9   2  -2  387.70   20.17 
  -9   2  -2  391.53   19.76 
  -9  -2  -2  492.50   22.78 
  -9  -2  -2  479.08   24.03 
   9  -2   2  485.69   22.52 
   9  -2   2  502.82   22.57 
  -9   2  -3  527.41   26.83 
  -9   2  -3  506.31   22.86 
  -9  -2  -3  612.25   26.96 
  -9  -2  -3  648.31   28.91 
   9  -2   3  608.01   26.43 
   9  -2   3  646.51   27.43 
  -9   2  -4   24.41    8.39 
  -9   2  -4   24.62    8.45 
  -9  -2  -4   31.97    8.58 
  -9  -2  -4   31.18    6.92 
   9  -2   4   31.37   10.67 
  -9  -2  -4   34.59   10.68 
   9  -2   4   30.71    8.11 
  -9   2  -5  331.85   19.06 
   9   2   5  362.13   23.31 
  -9   2  -5  347.37   21.08 
  -9  -2  -5  345.53   20.63 
   9  -2   5  389.45   25.31 
  -9  -2  -5  394.01   22.11 
  -9  -2  -5  372.80   22.73 
   9  -2   5  377.54   20.53 
   9  -2   6  565.46   30.31 
  -9  -2  -6  545.84   25.58 
  -9  -2  -6  587.13   27.69 
  -9  -2  -6  583.12   29.31 
   9  -2   6  549.39   25.75 
  -9   2  -7   52.23   10.54 
   9  -2   7   59.67   12.70 
  -9  -2  -7   58.54   10.05 
  -9  -2  -7   51.08    8.63 
  -9  -2  -7   52.15   12.01 
   9  -2   7   52.47    8.76 
  -9   2  -8   44.80   11.45 
  -9  -2  -8   23.22    8.78 
   9  -2   8   22.55   12.36 
  -9  -2  -8   25.18   10.00 
   9  -2   8   26.44    7.25 
  -9   2  -9   76.88   12.72 
  -9   2  -9   76.46   12.17 
   9  -2   9   67.49   14.49 
  -9  -2  -9   60.11   10.66 
  -9  -2  -9   60.59   12.68 
  -9   2 -10   66.46   11.74 
  -9   2 -10   73.16   12.91 
  -9  -2 -10   81.68   12.82 
  -9  -2 -10   85.23   14.80 
   9  -2  10   86.42   16.16 
  -9   2 -11  200.51   16.10 
  -9  -2 -11  177.21   16.07 
   9  -2  11  169.42   20.29 
  -9  -2 -11  165.96   17.21 
  -9   2 -12   87.33   14.28 
  -9  -2 -12   82.59   11.94 
   9  -2  12   88.63   17.39 
  -9  -2 -12   83.70   15.44 
  -9   2 -13   48.87   12.96 
  -9  -2 -13   31.36   11.06 
   9  -2  13   30.33   14.34 
  -9  -2 -13   38.01   14.19 
  -9   2 -14   10.80   11.66 
  -9  -2 -14   13.14   10.69 
   9  -2  14   10.39   16.12 
  -9  -2 -14   13.92   14.04 
   9   3 -17   12.51   11.59 
   9   3 -17   14.83   12.68 
  -9  -3  17    3.63   14.42 
   9  -3 -17    2.11   14.43 
   9   3 -16   10.33   11.87 
   9   3 -16   14.89   11.61 
  -9  -3  16   37.35   15.57 
   9  -3 -16   41.75   13.92 
   9   3 -15   10.47   12.54 
   9   3 -15   12.75   11.51 
  -9  -3  15    2.13   11.88 
   9  -3 -15    5.59   12.64 
   9   3 -14  148.05   15.36 
  -9  -3  14  123.85   17.46 
   9  -3 -14  130.68   15.64 
  -9  -3  14  133.47   16.50 
   9   3 -13   69.05   11.97 
  -9  -3  13   70.28   13.38 
   9  -3 -13   81.52   14.50 
  -9  -3  13   76.52   14.12 
   9   3 -12    5.61   10.11 
  -9   3  12    8.47    9.19 
  -9  -3  12   26.04   13.35 
   9  -3 -12   28.06   10.45 
  -9  -3  12   25.14   10.80 
  -9   3  11   48.31   10.74 
  -9   3  11   50.68    9.97 
   9   3 -11   50.40   10.55 
  -9  -3  11   69.39   13.62 
  -9  -3  11   61.85   13.93 
   9  -3 -11   67.42   11.35 
   9   3 -10  925.80   29.33 
  -9   3  10  870.08   28.88 
  -9   3  10  852.43   30.34 
  -9  -3  10  883.81   33.66 
   9  -3 -10  913.55   28.31 
   9  -3 -10  949.08   31.58 
  -9  -3  10  960.85   34.73 
   9   3  -9   13.52    9.19 
  -9   3   9   10.26    9.36 
  -9   3   9   11.05    8.22 
  -9  -3   9   24.44   10.28 
   9  -3  -9   16.80    7.05 
   9  -3  -9   19.95    9.82 
  -9  -3   9   20.26   11.19 
   9   3  -8   31.60    9.00 
  -9   3   8   36.84    9.94 
  -9   3   8   34.83    9.67 
  -9  -3   8   45.93   11.36 
   9  -3  -8   46.16    8.48 
   9  -3  -8   47.63   10.24 
  -9  -3   8   47.64   11.14 
   9   3  -7  230.22   15.56 
  -9   3   7  236.71   16.86 
  -9   3   7  230.99   15.98 
  -9   3   7  213.64   13.80 
  -9  -3   7  209.93   17.84 
   9  -3  -7  218.66   14.29 
  -9  -3   7  206.67   17.24 
   9  -3  -7  217.64   15.61 
  -9   3   6  821.72   33.13 
   9   3  -6  758.13   30.14 
   9   3  -6  811.04   32.26 
  -9   3   6  815.57   32.99 
  -9   3   6  785.89   30.14 
  -9  -3   6  937.98   39.14 
   9  -3  -6  918.90   33.19 
   9  -3  -6  946.52   35.00 
  -9   3   5  309.60   18.46 
   9   3  -5  300.12   17.29 
   9   3  -5  298.72   18.67 
  -9   3   5  309.80   18.75 
  -9   3   5  306.12   17.30 
  -9  -3   5  291.66   20.69 
   9  -3  -5  274.69   16.11 
   9  -3  -5  284.54   17.51 
  -9   3   4  459.59   22.88 
   9   3  -4  442.60   20.75 
  -9   3   4  450.53   22.14 
   9   3  -4  460.82   22.70 
  -9   3   4  461.60   21.26 
   9  -3  -4  475.14   20.72 
   9  -3  -4  473.31   22.05 
  -9  -3   4  439.50   23.24 
  -9  -3   4  470.54   25.68 
  -9   3   3   86.01   11.17 
  -9   3   3   82.08   11.39 
   9   3  -3   85.99    9.78 
   9   3  -3   86.04   11.90 
  -9   3   3   82.13    9.94 
   9  -3  -3   99.02   10.50 
   9  -3  -3  105.19   10.83 
  -9  -3   3   99.00   12.03 
  -9  -3   3   97.85   12.86 
  -9   3   2    1.00    7.13 
   9   3  -2   -3.38    8.12 
  -9   3   2    1.83    6.84 
   9  -3  -2    6.63    6.06 
   9  -3  -2    6.99    5.99 
  -9  -3   2    8.32    8.57 
  -9   3   1  902.82   33.01 
   9   3  -1  918.94   32.98 
  -9   3   1  902.83   32.15 
   9  -3  -1  900.12   33.09 
   9  -3  -1  857.25   38.27 
  -9  -3   1  905.17   33.92 
  -9   3   0 1002.24   35.63 
   9   3   0  984.19   34.92 
  -9   3   0 1032.69   34.46 
   9  -3   0  965.50   34.46 
   9  -3   0  996.08   32.66 
  -9  -3   0  976.84   34.98 
  -9   3  -1  261.81   18.29 
   9   3   1  251.86   16.94 
  -9   3  -1  257.99   16.55 
   9  -3   1  277.21   17.70 
   9  -3   1  274.86   17.27 
  -9  -3  -1  277.82   18.34 
  -9   3  -2   24.15    9.04 
  -9   3  -2   25.18    8.46 
  -9  -3  -2   22.78    9.30 
  -9  -3  -2   23.38    8.80 
   9  -3   2   22.41    7.33 
   9  -3   2   23.26    6.87 
  -9   3  -3  307.77   20.06 
  -9   3  -3  322.87   19.17 
  -9  -3  -3  295.31   19.09 
  -9  -3  -3  296.73   20.81 
   9  -3   3  276.58   17.65 
   9  -3   3  282.88   17.56 
  -9   3  -4 1050.50   37.72 
  -9  -3  -4 1060.94   39.40 
   9  -3   4 1091.97   45.30 
  -9  -3  -4 1031.39   41.01 
   9  -3   4 1061.36   38.35 
   9  -3   4 1045.19   38.93 
  -9   3  -5  187.82   14.92 
  -9  -3  -5  222.46   16.55 
   9  -3   5  212.96   18.60 
  -9  -3  -5  220.92   18.21 
   9  -3   5  221.58   15.05 
   9  -3   5  219.35   15.26 
  -9   3  -6   19.42    8.70 
   9  -3   6   14.99   11.00 
  -9  -3  -6   17.88    8.99 
  -9  -3  -6   15.67    6.29 
  -9  -3  -6   13.75   10.05 
   9  -3   6   15.13    6.99 
  -9   3  -7   83.19   13.03 
  -9  -3  -7   85.68   11.49 
   9  -3   7   81.44   14.13 
  -9  -3  -7   86.91   13.45 
  -9   3  -8  172.40   15.37 
  -9  -3  -8  153.57   13.93 
   9  -3   8  142.05   16.82 
  -9  -3  -8  152.26   16.21 
   9  -3   9  130.16   16.82 
  -9  -3  -9  149.71   14.78 
  -9  -3  -9  137.80   16.67 
   9  -3  10    7.60   13.18 
  -9  -3 -10    1.34    8.71 
  -9  -3 -10    0.04   11.19 
  -9   3 -11   29.03   12.59 
  -9  -3 -11   32.07   10.49 
   9  -3  11   41.77   16.12 
  -9  -3 -11   35.93   15.45 
  -9   3 -12   33.95   13.01 
  -9  -3 -12   32.40   10.59 
   9  -3  12   41.05   16.70 
  -9  -3 -12   41.60   14.53 
  -9   3 -13   46.74   13.61 
   9  -3  13   46.68   16.73 
  -9  -3 -13   47.00   15.30 
   9   4 -16   21.68   11.54 
  -9   4  16   27.89   14.23 
   9   4 -16   32.48   12.75 
   9  -4 -16   25.27   12.80 
  -9  -4  16   18.04   15.00 
   9   4 -15   73.63   12.90 
  -9   4  15   76.85   15.37 
   9   4 -15   80.92   14.38 
   9  -4 -15  100.06   14.87 
  -9  -4  15   93.54   17.04 
   9   4 -14  124.45   14.96 
   9   4 -14  132.85   14.25 
  -9  -4  14  128.56   17.13 
   9  -4 -14  147.93   16.61 
   9   4 -13   37.33   11.97 
  -9  -4  13   27.29   12.16 
   9  -4 -13   29.30   12.93 
  -9  -4  13   27.98   14.72 
   9   4 -12   86.10   12.71 
  -9  -4  12   49.56   13.46 
   9  -4 -12   48.34   11.72 
  -9  -4  12   47.80   13.58 
   9   4 -11    4.83    9.35 
  -9  -4  11    6.25   11.11 
   9  -4 -11    2.85    9.04 
  -9  -4  11    7.40   12.45 
   9   4 -10   86.30   11.83 
  -9  -4  10  107.34   15.92 
   9  -4 -10  104.30   13.66 
  -9  -4  10  108.14   15.52 
  -9   4   9   90.62   12.30 
   9   4  -9   96.26   12.29 
  -9  -4   9   59.84   12.71 
   9  -4  -9   59.60   11.97 
   9   4  -8   62.20   11.42 
  -9   4   8   65.86   10.74 
   9  -4  -8   44.85    8.16 
   9  -4  -8   51.18   10.22 
  -9  -4   8   49.86   11.99 
   9   4  -7  369.94   20.24 
  -9   4   7  367.75   19.47 
   9  -4  -7  372.01   17.54 
   9  -4  -7  385.59   20.92 
  -9  -4   7  388.84   23.67 
   9   4  -6  339.07   20.21 
  -9   4   6  329.68   20.05 
  -9   4   6  328.89   19.86 
  -9  -4   6  342.55   23.37 
   9  -4  -6  331.65   18.10 
   9  -4  -6  331.79   20.83 
  -9  -4   6  344.42   22.25 
   9   4  -5    5.19    7.34 
  -9   4   5    4.77    8.54 
  -9   4   5    4.52    6.48 
  -9  -4   5   13.09    8.41 
   9  -4  -5   18.36    6.30 
   9  -4  -5   17.70    8.12 
  -9  -4   5   15.71    9.61 
  -9   4   4  589.05   27.47 
  -9   4   4  575.52   26.72 
   9   4  -4  602.76   27.87 
  -9  -4   4  559.32   35.25 
  -9  -4   4  593.12   29.00 
   9  -4  -4  576.63   27.35 
  -9   4   3 1492.19   39.07 
  -9   4   3 1412.18   48.79 
   9   4  -3 1469.74   49.67 
  -9  -4   3 1530.83   45.16 
  -9  -4   3 1572.46   42.09 
   9  -4  -3 1450.55   48.85 
  -9   4   2  565.33   26.86 
   9   4  -2  591.41   27.61 
  -9   4   2  575.90   26.16 
   9  -4  -2  546.74   26.20 
   9  -4  -2  603.11   27.86 
  -9  -4   2  625.46   29.13 
  -9   4   1   77.00   11.02 
   9   4  -1   79.42   12.18 
  -9   4   1   76.06   11.15 
   9  -4  -1   65.99    9.70 
   9  -4  -1   69.24    9.80 
  -9  -4   1   71.87   11.28 
  -9   4   0  522.86   26.15 
   9   4   0  540.56   26.52 
  -9   4   0  526.59   25.26 
   9  -4   0  498.82   25.08 
   9  -4   0  509.99   24.43 
  -9  -4   0  503.64   26.79 
  -9   4  -1  599.83   28.80 
   9   4   1  609.27   28.45 
  -9   4  -1  591.76   26.40 
   9  -4   1  503.96   24.45 
   9  -4   1  522.91   25.91 
  -9  -4  -1  530.56   27.33 
  -9   4  -2  210.97   17.19 
  -9   4  -2  225.53   15.63 
  -9  -4  -2  239.48   16.84 
  -9  -4  -2  198.55   16.36 
   9  -4   2  226.16   16.88 
  -9   4  -3   25.92    9.05 
  -9   4  -3   27.30    8.89 
  -9  -4  -3   27.53    9.17 
  -9  -4  -3   20.64    9.35 
   9  -4   3   22.69    9.86 
  -9   4  -4  169.80   16.08 
  -9   4  -4  170.30   15.69 
  -9  -4  -4  159.99   15.99 
  -9  -4  -4  170.79   18.05 
   9  -4   4  143.07   13.52 
   9  -4   4  167.41   17.21 
  -9   4  -5    3.83    8.96 
  -9  -4  -5    3.94    8.55 
   9  -4   5    3.02   10.56 
  -9  -4  -5    3.51    9.04 
   9  -4   5    4.89    5.89 
  -9   4  -6   23.56   10.71 
  -9  -4  -6   37.19   10.47 
   9  -4   6   41.03   12.93 
  -9  -4  -6   36.06   13.05 
  -9   4  -7   13.70   11.88 
  -9  -4  -7   47.91   10.51 
   9  -4   7   48.64   13.45 
  -9  -4  -7   52.40   13.92 
  -9   4  -8   37.99   11.05 
  -9  -4  -8   39.17    9.82 
   9  -4   8   38.82   14.02 
  -9  -4  -8   34.38   13.23 
  -9   4  -9   41.18   12.71 
  -9  -4  -9   43.86   10.55 
   9  -4   9   55.29   15.67 
  -9  -4  -9   56.12   13.66 
  -9   4 -10   35.01   12.93 
  -9  -4 -10   24.06    9.80 
   9  -4  10   32.91   15.86 
  -9  -4 -10   30.40   14.31 
   9  -4  11   92.47   17.87 
  -9  -4 -11   91.96   15.33 
   9  -4  12   93.25   19.23 
  -9  -4 -12  108.57   17.41 
   9   5 -14   13.03   10.88 
  -9   5  14   18.16   13.08 
   9   5 -14   15.55   13.17 
   9  -5 -14   17.44   13.56 
  -9  -5  14    7.98   12.75 
   9   5 -13   28.05   11.10 
  -9   5  13   24.04   11.72 
   9   5 -13   22.75   13.40 
   9  -5 -13   29.53   12.02 
  -9  -5  13   28.73   13.46 
   9   5 -12   17.68   10.68 
  -9   5  12   18.55   11.72 
  -9  -5  12   30.67   14.75 
   9  -5 -12   28.16   12.14 
  -9  -5  12   26.12   13.68 
  -9   5  11  163.29   16.21 
   9   5 -11  156.99   14.87 
  -9  -5  11  197.20   19.60 
   9  -5 -11  204.78   17.24 
  -9   5  10   82.76   14.16 
   9   5 -10   89.23   12.56 
  -9  -5  10  114.34   16.11 
   9  -5 -10  115.78   14.68 
   9   5  -9   54.87   11.92 
  -9   5   9   53.02   12.06 
  -9  -5   9   67.20   14.78 
   9  -5  -9   72.38   11.99 
  -9  -5   9   72.71   14.33 
   9   5  -8   99.41   12.33 
  -9  -5   8  117.15   15.32 
   9  -5  -8  113.00   13.42 
  -9  -5   8  109.35   14.63 
   9   5  -7  129.71   13.77 
  -9  -5   7  117.32   15.50 
   9  -5  -7  116.44   13.39 
  -9  -5   7  122.62   14.73 
   9   5  -6  257.37   17.03 
  -9   5   6  253.92   16.65 
  -9  -5   6  253.45   18.46 
   9  -5  -6  254.55   17.22 
  -9  -5   6  263.58   20.33 
   9   5  -5  664.59   25.66 
  -9   5   5  687.74   26.18 
  -9  -5   5  631.21   27.06 
   9  -5  -5  605.61   26.57 
  -9  -5   5  609.91   28.91 
   9   5  -4  287.19   17.91 
  -9   5   4  280.43   16.92 
  -9  -5   4  241.31   18.59 
   9  -5  -4  247.89   16.87 
  -9  -5   4  246.99   18.70 
  -9   5   3   74.18   10.74 
   9   5  -3   64.78   12.71 
  -9  -5   3   79.41   13.20 
   9  -5  -3   63.92   11.66 
  -9   5   2  518.12   22.66 
   9   5  -2  533.32   24.09 
  -9  -5   2  467.77   24.02 
   9  -5  -2  492.95   23.50 
  -9   5   1  439.83   22.10 
   9   5  -1  494.69   23.17 
  -9   5   1  460.78   20.97 
  -9  -5   1  471.15   23.86 
  -9   5   0  394.85   21.42 
   9   5   0  395.91   21.11 
  -9   5   0  408.78   20.50 
  -9  -5   0  354.82   20.97 
  -9   5  -1   98.71   13.86 
   9   5   1   94.25   12.22 
  -9   5  -1   93.40   11.89 
  -9  -5  -1  103.06   13.38 
  -9   5  -2   33.81   10.61 
  -9   5  -2   34.98   10.49 
  -9  -5  -2   25.58   10.32 
  -9  -5  -2   31.01   11.34 
  -9   5  -3  159.22   16.01 
  -9   5  -3  156.09   13.95 
  -9  -5  -3  143.96   14.03 
  -9  -5  -3  130.62   14.62 
  -9   5  -4  108.89   15.30 
  -9   5  -4  104.81   12.48 
  -9  -5  -4  167.47   15.52 
  -9   5  -5  145.60   14.11 
  -9  -5  -5   97.51   12.92 
  -9   5  -6   63.67   12.27 
  -9  -5  -6   58.44   11.43 
   9  -5   6   60.25   15.42 
  -9   5  -7   28.10   11.84 
  -9  -5  -7   35.73   10.85 
   9  -5   7   33.00   14.65 
  -9   5  -8   31.16   12.61 
  -9  -5  -8   23.50   10.07 
   9  -5   8   21.62   13.78 
  -9   5  -9  140.17   15.65 
   9  -5   9  110.51   19.25 
  -9  -5  -9  115.00   15.62 
  -9   5 -10   92.43   13.76 
   9  -5  10   88.24   17.48 
  -9  -5 -10   94.41   16.84 
  -9   5 -11    7.72   13.10 
   9  -5  11    3.57   15.10 
  -9  -5 -11   -0.90   14.00 
   9   6 -13   87.11   13.54 
  -9   6  13   80.70   14.75 
   9   6 -13   87.30   14.71 
   9  -6 -13   87.97   15.19 
  -9  -6  13   93.02   17.99 
   9   6 -12   50.13   12.40 
  -9   6  12   49.52   14.23 
   9   6 -12   47.19   12.60 
   9  -6 -12   28.67   11.01 
  -9  -6  12   27.34   14.35 
   9   6 -11   20.21   11.87 
  -9   6  11   18.72   12.76 
   9   6 -11   23.64   12.31 
   9  -6 -11   12.28   10.58 
  -9  -6  11   20.84   13.30 
   9   6 -10  175.14   16.11 
  -9   6  10  168.95   16.64 
  -9  -6  10  151.33   16.86 
   9  -6 -10  145.30   15.72 
  -9  -6  10  149.13   18.20 
   9   6  -9  156.73   16.05 
  -9   6   9  138.59   16.46 
  -9  -6   9  135.82   17.79 
   9  -6  -9  125.41   14.24 
  -9  -6   9  133.39   16.85 
   9   6  -8  343.91   19.45 
  -9   6   8  340.59   20.69 
  -9  -6   8  257.43   21.37 
   9  -6  -8  260.00   18.21 
  -9  -6   8  257.67   20.79 
   9   6  -7   14.21   10.10 
  -9   6   7   23.59   12.78 
  -9  -6   7    6.67   11.09 
   9  -6  -7    5.23    7.92 
  -9  -6   7    4.97   10.19 
  -9   6   6   71.98   13.09 
   9   6  -6   75.62   12.45 
  -9  -6   6   74.30   13.73 
  -9   6   5   63.82   13.82 
   9   6  -5   61.17   12.05 
  -9  -6   5   48.24   12.49 
  -9   6   4  287.19   18.96 
   9   6  -4  300.36   18.30 
  -9  -6   4  307.47   20.22 
   9   6  -3   57.98   12.61 
  -9   6   3   56.23   10.55 
  -9  -6   3   91.97   14.73 
   9   6  -2  240.18   17.74 
  -9   6   2  261.33   16.56 
  -9  -6   2  267.00   19.44 
   9   6  -1   36.54   11.92 
  -9   6   1   40.41   10.69 
  -9  -6   1   45.26   11.25 
   9   6   0   76.20   12.96 
  -9   6   0   73.10   11.74 
  -9  -6   0   93.22   13.21 
   9   6   1  167.40   15.46 
  -9   6  -1  161.13   14.77 
  -9  -6  -1  190.90   16.93 
   9   6   2  257.75   18.19 
  -9   6  -2  234.89   16.90 
  -9  -6  -2  243.76   18.36 
  -9   6  -3  114.38   15.00 
  -9   6  -3  123.13   13.54 
  -9  -6  -3  101.35   13.70 
  -9  -6  -3  102.33   15.53 
  -9   6  -4   39.82   12.62 
  -9   6  -4   42.05   10.79 
  -9  -6  -4   26.55   10.28 
  -9  -6  -4   35.39   12.21 
  -9   6  -5  159.59   16.15 
  -9   6  -5  155.04   14.61 
  -9  -6  -5  151.91   15.03 
  -9  -6  -5  143.16   16.26 
  -9   6  -6   31.28   12.53 
  -9   6  -6   35.43   11.75 
  -9  -6  -6   25.33   12.93 
  -9   6  -7    1.89   11.57 
   9  -6   7    8.32   15.04 
  -9  -6  -7    9.92   12.67 
  -9   6  -8   13.72   11.73 
   9  -6   8   33.78   16.13 
  -9  -6  -8   34.83   14.52 
  -9   6  -9   14.87   12.70 
   9  -6   9   26.41   15.58 
  -9  -6  -9   19.14   14.55 
  -9   7  10   31.34   13.33 
   9   7 -10   32.53   13.53 
   9   7 -10   24.56   11.16 
  -9   7   9   36.33   12.99 
   9   7  -9   42.29   12.52 
   9   7  -9   36.14   11.05 
  -9   7   8   39.44   13.43 
   9   7  -8   33.14   12.43 
  -9  -7   8   28.12   13.06 
  -9   7   7   42.73   12.98 
   9   7  -7   47.06   12.14 
  -9  -7   7   24.37   14.17 
  -9   7   6   73.62   14.12 
   9   7  -6   59.84   11.61 
  -9  -7   6   34.07   14.58 
  -9   7   5  346.28   21.04 
   9   7  -5  354.05   19.64 
  -9  -7   5  341.57   21.94 
  -9   7   4   79.12   15.85 
   9   7  -4   79.01   12.10 
  -9  -7   4   75.41   15.21 
  -9   7   3   38.18   13.03 
   9   7  -3   31.32   11.39 
  -9  -7   3   39.51   12.97 
   9   7  -2   73.39   12.84 
  -9  -7   2   94.62   15.29 
  -9   7   1  255.72   19.04 
   9   7  -1  247.12   18.90 
  -9  -7   1  244.74   18.81 
  -9   7   0  194.32   17.77 
   9   7   0  200.21   17.60 
  -9   7   0  193.63   15.14 
  -9  -7   0  161.26   16.59 
  -9   7  -1   17.25   12.09 
   9   7   1   17.19   11.45 
  -9   7  -1   16.57    9.45 
  -9  -7  -1   11.55   11.16 
   9   7   2   68.34   13.65 
  -9   7  -2   69.70   12.68 
  -9  -7  -2   72.02   13.57 
  -9   7  -3   41.18   11.77 
   9   7   3   50.09   14.01 
  -9   7  -4   72.95   12.27 
  -9  -7  -4   41.02   13.07 
  -9   7  -5   58.99   12.00 
  -9  -7  -5   44.28   13.59 
  -9   7  -6   29.44   13.20 
  -9  -7  -6   27.89   13.92 
  -9   7  -7   14.43   12.55 
  -9  -7  -7   15.95   14.55 
  -9   8   6    1.35   13.55 
   9   8  -6    1.00   10.21 
   9   8  -6   -0.83    9.82 
  -9   8   5   45.03   14.47 
   9   8  -5   41.68   12.37 
   9   8  -5   38.91   11.78 
  -9   8   4  122.71   14.85 
   9   8  -4  125.82   14.69 
  -9   8   3   94.28   15.49 
   9   8  -3   94.89   14.18 
  -9  -8   3   83.28   15.40 
  -9   8   2   23.79   13.59 
   9   8  -2   28.63   11.54 
  -9  -8   2   41.93   13.02 
  -9   8   1    5.69   13.77 
   9   8  -1    7.12   11.12 
  -9  -8   1    8.20   12.55 
  -9   8   0   25.30   13.80 
   9   8   0   17.78   11.70 
  -9   8  -1   44.77   13.92 
   9   8   1   49.47   12.83 
  -9   8  -2   79.24   17.01 
   9   8   2   77.14   13.94 
 -10   0  17  174.16   19.67 
 -10   0  16  146.53   17.61 
 -10   0  16  143.69   16.08 
 -10   0  15   -1.12   12.39 
 -10   0  15    1.94   10.30 
 -10   0  14  292.67   20.65 
 -10   0  14  289.09   19.72 
 -10   0  13  102.75   13.95 
 -10   0  13  103.60   14.43 
 -10   0  12  187.83   16.80 
 -10   0  12  184.62   17.18 
  10   0 -12  168.42   15.05 
 -10   0  11   21.09   10.60 
 -10   0  11   13.60   10.24 
  10   0 -11   20.58    8.99 
 -10   0  10    0.77    7.72 
 -10   0  10   -0.09    8.09 
  10   0 -10   -0.89    8.98 
 -10   0   9   12.14    8.07 
 -10   0   9   10.94    9.68 
  10   0  -9   11.23    8.34 
 -10   0   8  241.74   16.89 
 -10   0   8  252.95   18.97 
  10   0  -8  233.23   15.50 
 -10   0   7  259.81   17.04 
  10   0  -7  244.88   16.16 
 -10   0   7  240.36   17.55 
  10   0  -7  236.33   15.31 
 -10   0   6  686.46   27.40 
  10   0  -6  660.17   26.61 
 -10   0   6  677.17   29.03 
  10   0  -6  665.17   26.19 
 -10   0   5  140.67   12.71 
  10   0  -5  140.25   12.16 
 -10   0   5  152.10   13.96 
  10   0  -5  153.23   13.72 
 -10   0   4  412.07   19.88 
  10   0  -4  399.19   19.80 
 -10   0   4  410.41   20.94 
  10   0  -4  417.40   20.51 
 -10   0   3 1658.56   40.06 
  10   0  -3 1577.45   40.48 
 -10   0   3 1684.68   42.06 
  10   0  -3 1657.01   41.60 
  10   0  -3 1638.16   39.74 
 -10   0   2  799.01   31.53 
 -10   0   2  802.24   27.65 
 -10   0   2  808.67   29.03 
  10   0  -2  827.31   29.28 
  10   0  -2  792.51   27.52 
 -10   0   1  595.25   27.85 
 -10   0   1  596.58   23.90 
 -10   0   1  604.98   24.75 
  10   0  -1  575.47   24.74 
  10   0  -1  615.71   24.66 
 -10   0   0  159.82   15.33 
 -10   0   0  159.42   13.18 
 -10   0   0  166.17   14.16 
  10   0   0  157.71   13.76 
  10   0   0  152.03   13.17 
 -10   0  -1   83.74   11.83 
 -10   0  -1   84.21   10.35 
  10   0   1   88.04   10.90 
  10   0   1   82.50   11.50 
 -10   0  -2   25.55    8.32 
 -10   0  -2   25.23    7.58 
  10   0   2   26.71    7.85 
  10   0   2   27.23    7.73 
 -10   0  -3  394.37   22.55 
 -10   0  -3  391.77   21.43 
 -10   0  -3  375.70   21.69 
  10   0   4   44.20   10.42 
 -10   0  -4   46.64    9.49 
 -10   0  -4   43.21    8.93 
 -10   0  -4   44.55   10.99 
  10   0   5  142.99   15.26 
 -10   0  -5  137.91   13.20 
 -10   0  -5  140.11   13.58 
 -10   0  -5  138.13   14.80 
  10   0   6  403.79   23.59 
 -10   0  -6  403.86   21.03 
 -10   0  -6  395.77   21.95 
 -10   0  -6  410.66   23.94 
  10   0   7    7.15    9.22 
 -10   0  -7    4.45    7.21 
 -10   0  -7    3.65    8.16 
 -10   0  -7    2.64    8.11 
  10   0   8  389.30   23.71 
 -10   0  -8  392.45   20.71 
 -10   0  -8  381.63   21.89 
  10   0   9  333.70   22.70 
 -10   0  -9  345.51   20.20 
 -10   0  -9  322.38   21.66 
  10   0  10   58.09   12.97 
 -10   0 -10   59.58   11.85 
 -10   0 -10   57.99   12.74 
 -10   0 -11   54.09   13.12 
 -10   0 -11   59.63   14.52 
 -10   0 -12  153.76   14.88 
 -10   0 -12  171.98   17.42 
 -10   0 -13   36.91   13.81 
 -10   0 -13   26.75   14.20 
 -10   0 -14   37.75   13.80 
 -10   0 -14   33.87   14.79 
  10   1 -17    8.56   11.58 
 -10   1  17    4.31   14.47 
  10   1 -17    8.47   10.18 
  10  -1 -17    5.69   12.75 
 -10  -1  17    5.44   13.96 
  10   1 -16    9.05   11.63 
 -10   1  16   10.54   13.50 
 -10  -1  16    8.86   12.56 
  10  -1 -16   11.35   11.76 
 -10  -1  16   11.15   13.44 
 -10   1  15  134.80   16.75 
 -10   1  15  130.68   15.05 
  10   1 -15  137.27   15.58 
 -10  -1  15  133.65   17.97 
 -10  -1  15  143.58   16.22 
  10  -1 -15  141.26   16.61 
 -10   1  14   88.93   14.62 
 -10   1  14   91.89   14.12 
  10   1 -14   88.81   14.15 
 -10  -1  14   77.62   14.76 
 -10  -1  14   73.80   14.66 
  10  -1 -14   70.98   12.68 
 -10   1  13   89.83   15.28 
 -10   1  13   93.58   14.21 
  10   1 -13   94.95   12.70 
 -10  -1  13  106.01   15.09 
 -10  -1  13  111.60   15.07 
  10  -1 -13  104.57   14.49 
 -10   1  12   49.31   12.15 
 -10   1  12   46.88   10.97 
  10   1 -12   44.17   10.78 
 -10  -1  12   48.68   11.55 
 -10  -1  12   54.99   13.18 
  10  -1 -12   51.85   12.17 
 -10   1  11   78.84   12.86 
 -10   1  11   74.64   12.55 
 -10  -1  11   57.41   12.86 
 -10  -1  11   56.61   11.91 
  10  -1 -11   60.52   11.73 
 -10   1  10  181.62   17.39 
 -10   1  10  185.96   17.87 
 -10  -1  10  234.51   17.83 
 -10  -1  10  234.39   17.56 
  10  -1 -10  230.32   15.79 
 -10   1   9   13.70    8.80 
 -10   1   9   14.82    9.09 
 -10  -1   9   43.58   10.05 
 -10  -1   9   39.21   10.01 
  10  -1  -9   39.14    8.95 
 -10   1   8   88.64   11.75 
 -10   1   8   86.69   11.09 
  10   1  -8   81.26    9.89 
 -10  -1   8   49.41   11.13 
 -10  -1   8   42.90   10.31 
  10  -1  -8   52.21   10.22 
 -10   1   7   72.20   11.65 
 -10   1   7   77.13   10.97 
  10   1  -7   80.51    9.96 
 -10  -1   7   71.11   11.13 
 -10  -1   7   69.08   11.12 
  10  -1  -7   66.94   10.29 
  10   1  -6  267.39   16.59 
 -10   1   6  277.16   17.48 
 -10   1   6  272.94   18.24 
 -10  -1   6  292.01   18.49 
 -10  -1   6  288.77   19.37 
  10  -1  -6  298.35   17.98 
  10  -1  -6  278.74   17.01 
 -10   1   5  574.29   24.61 
 -10   1   5  588.18   24.87 
  10   1  -5  585.38   24.93 
  10   1  -5  549.72   24.07 
 -10   1   5  566.62   25.60 
 -10  -1   5  472.28   22.93 
  10  -1  -5  468.61   22.08 
  10  -1  -5  492.39   23.06 
 -10  -1   5  475.96   23.75 
 -10   1   4 1171.23   33.15 
 -10   1   4 1162.46   34.09 
  10   1  -4 1165.32   33.79 
  10   1  -4 1174.57   33.69 
 -10   1   4 1202.89   34.72 
 -10  -1   4 1019.23   31.37 
  10  -1  -4 1114.67   32.47 
  10  -1  -4 1126.02   33.14 
 -10  -1   4 1119.80   35.29 
  10   1  -3  210.47   14.87 
 -10   1   3  211.29   14.90 
  10   1  -3  202.70   14.47 
 -10   1   3  200.77   14.93 
 -10  -1   3  195.48   14.22 
  10  -1  -3  199.25   14.53 
  10  -1  -3  197.84   15.21 
  10  -1  -3  197.31   14.05 
 -10  -1   3  202.76   15.66 
 -10   1   2  205.45   16.92 
 -10   1   2  212.74   15.30 
  10   1  -2  205.90   15.58 
 -10   1   2  213.05   15.00 
 -10  -1   2  210.68   14.44 
 -10  -1   2  206.74   16.51 
  10  -1  -2  199.02   15.41 
  10  -1  -2  219.77   15.08 
 -10  -1   2  196.56   15.67 
 -10   1   1  419.99   24.14 
 -10   1   1  457.18   21.49 
 -10   1   1  445.61   21.39 
  10   1  -1  442.75   21.42 
 -10  -1   1  329.91   18.73 
 -10  -1   1  349.24   21.54 
  10  -1  -1  332.66   18.26 
  10  -1  -1  335.11   19.23 
 -10   1   0  677.01   29.55 
 -10   1   0  704.52   26.48 
 -10   1   0  677.89   26.07 
  10   1   0  713.63   26.80 
 -10  -1   0  656.43   24.51 
 -10  -1   0  630.03   28.37 
  10  -1   0  642.00   25.44 
  10  -1   0  623.58   26.48 
 -10   1  -1 1447.58   43.40 
 -10   1  -1 1444.43   37.57 
  10   1   1 1440.53   38.87 
 -10   1  -1 1461.43   43.00 
 -10  -1  -1 1373.54   44.32 
 -10  -1  -1 1436.49   41.80 
  10  -1   1 1427.76   42.48 
  10  -1   1 1508.69   38.99 
 -10  -1  -1 1420.44   38.23 
 -10   1  -2  735.29   32.29 
 -10   1  -2  768.24   29.38 
  10   1   2  703.18   29.16 
 -10   1  -2  749.76   29.60 
 -10  -1  -2  729.54   30.53 
 -10  -1  -2  758.18   31.21 
  10  -1   2  762.79   30.74 
  10  -1   2  767.54   29.29 
 -10  -1  -2  773.51   30.28 
 -10   1  -3  209.88   17.05 
 -10   1  -3  198.66   15.62 
 -10   1  -3  207.14   15.15 
 -10  -1  -3  213.75   15.29 
 -10  -1  -3  214.50   16.08 
 -10  -1  -3  206.16   15.75 
 -10  -1  -3  222.14   16.57 
  10  -1   3  196.83   15.32 
  10  -1   3  206.11   14.96 
 -10   1  -4  496.29   25.96 
 -10   1  -4  478.36   25.18 
  10  -1   4  523.93   29.06 
 -10  -1  -4  526.45   26.21 
 -10  -1  -4  508.08   25.37 
 -10  -1  -4  488.96   24.23 
 -10  -1  -4  526.45   27.35 
  10  -1   4  506.96   25.01 
 -10   1  -5  412.27   23.84 
  10   1   5  429.55   25.94 
 -10   1  -5  418.20   23.84 
  10  -1   5  387.84   25.01 
 -10  -1  -5  392.49   21.85 
 -10  -1  -5  395.13   22.66 
 -10  -1  -5  382.84   24.05 
  10  -1   5  373.93   20.85 
 -10   1  -6  708.04   27.03 
  10   1   6  722.03   30.68 
 -10   1  -6  749.09   30.12 
 -10  -1  -6  756.00   29.35 
  10  -1   6  737.48   31.68 
 -10  -1  -6  768.85   28.20 
 -10  -1  -6  784.25   30.73 
 -10   1  -7  417.28   22.66 
 -10   1  -7  447.42   21.95 
 -10  -1  -7  384.05   20.38 
 -10  -1  -7  384.11   20.56 
  10  -1   7  379.75   24.14 
 -10  -1  -7  383.49   22.18 
 -10   1  -8   19.30    9.28 
 -10   1  -8   18.08    9.49 
  10  -1   8   11.18    9.96 
 -10  -1  -8   13.78   10.13 
 -10  -1  -8    8.93   11.33 
 -10   1  -9  126.72   14.06 
 -10   1  -9  128.48   14.62 
  10  -1   9  122.80   15.75 
 -10  -1  -9  128.13   13.74 
 -10  -1  -9  119.02   15.28 
 -10   1 -10   16.32   12.08 
 -10   1 -10   15.17    9.97 
  10  -1  10    3.51   10.55 
 -10  -1 -10    3.91    9.04 
 -10  -1 -10    4.89   10.96 
 -10   1 -11   81.51   14.49 
 -10   1 -11   76.24   13.30 
  10  -1  11   58.12   13.73 
 -10  -1 -11   52.35   12.27 
 -10  -1 -11   58.16   14.82 
 -10   1 -12   11.72   10.47 
 -10   1 -12   12.21   11.87 
  10  -1  12   26.50   14.12 
 -10  -1 -12   28.07   12.16 
 -10  -1 -12   20.58   13.62 
 -10   1 -13   31.41   12.82 
 -10  -1 -13   34.49   11.32 
 -10  -1 -13   35.73   13.39 
 -10   1 -14    8.30   13.10 
 -10  -1 -14    3.47   10.60 
  10   2 -17   86.16   15.84 
 -10   2  17   76.75   16.58 
  10   2 -17   86.70   13.66 
  10  -2 -17  110.63   15.08 
 -10  -2  17  113.19   17.16 
  10   2 -16   23.74   14.19 
 -10   2  16   14.80   14.07 
 -10  -2  16   14.08   13.75 
  10  -2 -16    9.15   11.95 
 -10  -2  16   14.09   14.24 
  10   2 -15   50.23   12.69 
 -10   2  15   52.02   14.96 
 -10  -2  15   41.80   13.50 
  10  -2 -15   47.20   14.81 
 -10  -2  15   42.42   13.83 
  10   2 -14  129.41   15.38 
 -10   2  14  124.49   15.33 
 -10  -2  14  145.69   18.20 
  10  -2 -14  147.34   16.35 
 -10  -2  14  146.45   16.80 
 -10   2  13  131.87   14.81 
 -10   2  13  132.30   15.00 
  10   2 -13  126.47   14.21 
 -10  -2  13  165.33   17.22 
 -10  -2  13  160.58   17.63 
  10  -2 -13  166.71   16.32 
 -10   2  12  403.80   21.54 
 -10   2  12  400.38   21.40 
  10   2 -12  403.36   20.84 
 -10  -2  12  333.32   21.87 
 -10  -2  12  327.87   21.07 
  10  -2 -12  333.89   19.68 
 -10   2  11  313.05   18.44 
 -10   2  11  304.70   18.77 
  10   2 -11  307.33   18.40 
 -10  -2  11  242.54   19.57 
 -10  -2  11  258.61   18.90 
  10  -2 -11  254.00   17.29 
 -10   2  10   12.06    9.87 
 -10   2  10   17.81    8.78 
  10   2 -10   18.74    9.28 
 -10  -2  10   12.36    8.70 
 -10  -2  10   16.65   10.15 
  10  -2 -10   11.23    8.72 
 -10   2   9   48.33   10.20 
 -10   2   9   51.52   10.98 
  10   2  -9   47.74   10.31 
 -10  -2   9   51.18   11.36 
 -10  -2   9   50.07   12.18 
  10  -2  -9   44.40    9.59 
 -10   2   8  654.90   28.74 
 -10   2   8  669.62   30.61 
 -10  -2   8  485.31   26.48 
 -10  -2   8  498.89   26.29 
  10  -2  -8  493.78   24.27 
 -10   2   7  176.93   14.67 
 -10   2   7  171.95   14.38 
  10   2  -7  172.10   13.21 
  10   2  -7  170.15   14.68 
 -10  -2   7  182.69   16.40 
  10  -2  -7  171.21   14.06 
 -10  -2   7  170.99   14.92 
  10   2  -6  434.48   22.04 
 -10   2   6  438.69   22.76 
 -10   2   6  440.60   23.29 
  10   2  -6  428.30   22.77 
 -10  -2   6  571.62   28.68 
  10  -2  -6  571.26   26.40 
 -10   2   5   84.50   11.99 
 -10   2   5   86.10   10.79 
  10   2  -5   91.38   10.37 
 -10   2   5   86.96   10.01 
  10   2  -5   73.42   10.23 
  10  -2  -5  111.26   11.64 
 -10  -2   5  107.90   12.82 
 -10  -2   5  115.67   13.58 
  10   2  -4  235.73   15.40 
 -10   2   4  235.77   15.53 
 -10   2   4  234.93   16.22 
 -10   2   4  232.93   15.21 
 -10  -2   4  209.01   16.32 
  10  -2  -4  218.51   14.86 
 -10   2   3  364.41   22.98 
  10   2  -3  321.61   19.00 
 -10   2   3  340.62   18.99 
 -10   2   3  344.61   19.92 
 -10   2   3  326.79   18.32 
 -10  -2   3  379.91   22.37 
  10  -2  -3  391.25   19.93 
 -10   2   2  193.37   16.96 
 -10   2   2  193.68   14.87 
 -10  -2   2  297.50   20.08 
  10  -2  -2  307.89   18.67 
  10  -2  -2  302.28   17.54 
 -10   2   1  322.77   21.09 
 -10  -2   1  209.37   16.00 
  10  -2  -1  204.87   15.30 
  10  -2  -1  205.71   14.52 
 -10   2   0  400.73   23.72 
 -10   2   0  404.40   21.88 
 -10   2   0  398.43   20.91 
 -10  -2   0  367.55   20.97 
  10  -2   0  358.47   20.75 
  10  -2   0  376.53   19.46 
 -10   2  -1  137.20   14.58 
 -10   2  -1  142.65   13.31 
  10   2   1  137.64   13.75 
 -10   2  -1  142.88   13.65 
  10  -2   1  176.10   14.43 
  10  -2   1  163.39   13.30 
 -10  -2  -1  171.31   14.49 
 -10   2  -2  211.81   17.72 
 -10   2  -2  209.22   16.08 
 -10   2  -2  219.07   15.62 
 -10  -2  -2  158.17   14.89 
 -10  -2  -2  158.63   14.91 
  10  -2   2  157.64   13.65 
  10  -2   2  161.50   13.53 
 -10   2  -3  649.45   29.52 
 -10   2  -3  642.95   28.17 
 -10  -2  -3  546.42   26.68 
 -10  -2  -3  526.05   27.16 
  10  -2   3  539.43   25.75 
  10  -2   3  553.57   26.24 
  10  -2   4  234.01   19.66 
 -10  -2  -4  218.03   14.37 
 -10  -2  -4  243.89   15.98 
 -10  -2  -4  233.34   16.43 
 -10  -2  -4  242.98   18.57 
  10  -2   4  218.67   15.68 
  10  -2   4  212.53   15.37 
 -10   2  -5  186.55   15.66 
 -10   2  -5  196.01   15.30 
 -10  -2  -5  192.65   15.55 
 -10  -2  -5  172.92   14.61 
  10  -2   5  183.26   19.39 
 -10  -2  -5  176.72   17.52 
  10  -2   5  183.89   15.53 
 -10   2  -6  112.63   13.45 
 -10  -2  -6   99.19   13.59 
  10  -2   6   91.09   15.20 
 -10  -2  -6  103.65   15.54 
  10  -2   6   92.50   11.27 
 -10   2  -7   53.66   10.54 
 -10  -2  -7   37.86   10.87 
  10  -2   7   36.36   11.61 
 -10  -2  -7   35.80   12.55 
  10  -2   7   38.73    8.55 
 -10   2  -8  111.33   13.49 
 -10   2  -8  118.27   13.67 
  10  -2   8  120.67   15.79 
 -10  -2  -8  119.86   13.38 
 -10  -2  -8  129.17   16.33 
 -10   2  -9  124.73   13.98 
 -10  -2  -9  169.77   15.04 
  10  -2   9  160.08   18.81 
 -10  -2  -9  158.28   17.15 
 -10   2 -10   36.35   11.66 
 -10  -2 -10   40.25   10.92 
  10  -2  10   36.69   14.28 
 -10  -2 -10   37.84   13.49 
 -10   2 -11   32.66   12.73 
 -10  -2 -11   33.94   10.27 
  10  -2  11   39.53   15.25 
 -10  -2 -11   39.84   14.30 
 -10   2 -12   35.88   11.83 
 -10  -2 -12   32.24   11.98 
  10  -2  12   28.59   15.45 
 -10  -2 -12   30.41   13.61 
 -10   2 -13   41.15   12.18 
 -10  -2 -13   56.42   12.81 
  10  -2  13   50.38   16.20 
 -10  -2 -13   60.71   15.56 
  10   3 -16   83.23   14.34 
 -10   3  16   96.19   15.70 
  10   3 -16   92.44   15.40 
  10  -3 -16  109.91   16.32 
 -10  -3  16   99.03   16.51 
  10   3 -15  209.02   17.44 
 -10   3  15  224.69   18.42 
 -10  -3  15  215.10   18.90 
  10  -3 -15  218.28   18.71 
 -10  -3  15  213.84   19.27 
  10   3 -14   48.43   11.83 
 -10   3  14   50.96   13.52 
 -10  -3  14   40.17   14.08 
  10  -3 -14   45.67   13.62 
 -10  -3  14   37.85   14.49 
  10   3 -13    4.41   11.17 
 -10   3  13    1.50   11.81 
 -10  -3  13   14.17   11.47 
  10  -3 -13    8.49   10.31 
 -10  -3  13    7.59   10.66 
  10   3 -12  118.87   14.67 
 -10   3  12  114.31   13.82 
 -10  -3  12  123.19   16.69 
  10  -3 -12  122.77   13.61 
 -10  -3  12  120.43   14.97 
 -10   3  11   97.13   12.92 
 -10   3  11   95.79   12.59 
  10   3 -11  100.38   12.25 
 -10  -3  11  101.77   14.89 
 -10  -3  11  105.70   16.59 
  10  -3 -11  103.31   13.31 
 -10   3  10   72.22   11.11 
 -10   3  10   65.65   11.55 
  10   3 -10   70.04   11.29 
 -10  -3  10   94.10   13.45 
 -10  -3  10   91.97   14.20 
  10  -3 -10   98.30   13.39 
 -10   3   9    4.03    8.51 
 -10   3   9    3.95    8.32 
  10   3  -9    1.34    9.43 
 -10  -3   9    5.84    9.43 
 -10  -3   9    3.63    9.46 
  10  -3  -9    3.90    8.40 
 -10   3   8   69.07   11.18 
 -10   3   8   70.74   11.82 
  10   3  -8   71.75   11.66 
 -10  -3   8   51.69   11.00 
 -10  -3   8   56.15   12.05 
  10  -3  -8   53.29    9.84 
 -10   3   7  331.78   18.69 
 -10   3   7  338.42   19.78 
  10   3  -7  342.92   19.33 
 -10  -3   7  328.68   21.35 
 -10  -3   7  323.83   20.75 
  10  -3  -7  355.53   19.34 
  10   3  -6  113.25   13.18 
 -10   3   6  112.74   12.51 
 -10   3   6  114.81   13.06 
 -10   3   6  108.90   11.25 
 -10  -3   6   95.19   12.71 
  10  -3  -6   90.60   11.80 
  10   3  -5  345.84   20.36 
 -10   3   5  338.45   19.81 
 -10   3   5  339.82   20.70 
 -10   3   5  364.26   19.94 
 -10  -3   5  279.05   20.28 
  10  -3  -5  266.44   17.48 
 -10   3   4  345.73   19.54 
 -10   3   4  374.02   21.48 
 -10   3   4  350.67   20.55 
  10   3  -4  347.50   20.36 
 -10  -3   4  284.41   20.83 
  10  -3  -4  323.02   18.94 
 -10  -3   4  316.08   20.64 
 -10   3   3  590.43   26.76 
 -10   3   3  579.72   26.71 
 -10   3   3  559.38   25.86 
  10   3  -3  573.36   26.60 
 -10  -3   3  543.87   29.70 
  10  -3  -3  560.20   24.85 
 -10  -3   3  554.96   27.61 
 -10   3   2   24.55    9.12 
  10   3  -2   23.69    8.38 
 -10   3   2   21.19    8.08 
  10  -3  -2   19.92    7.31 
  10  -3  -2   18.48    7.28 
 -10  -3   2   20.46    8.48 
 -10   3   1  119.69   13.32 
  10   3  -1  117.55   12.28 
 -10   3   1  128.58   13.44 
  10  -3  -1  110.69   11.74 
  10  -3  -1  115.06   11.25 
 -10  -3   1  115.39   13.29 
 -10   3   0  264.12   18.23 
  10   3   0  258.96   18.09 
 -10   3   0  268.07   17.78 
  10  -3   0  185.53   14.59 
  10  -3   0  179.91   13.17 
 -10  -3   0  185.35   16.15 
 -10   3  -1  332.21   20.37 
 -10   3  -1  325.12   19.81 
 -10  -3  -1  297.83   19.78 
  10  -3   1  282.72   18.59 
  10  -3   1  284.17   17.19 
 -10   3  -2  131.55   13.31 
 -10   3  -2  134.16   13.59 
 -10  -3  -2  116.34   13.17 
 -10  -3  -2  124.65   13.87 
  10  -3   2  131.64   12.65 
  10  -3   2  121.93   11.69 
 -10   3  -3    6.45    8.72 
 -10   3  -3    8.39    7.78 
 -10  -3  -3    7.54    8.87 
 -10  -3  -3    7.03    8.67 
  10  -3   3    9.44    6.40 
  10  -3   3    8.14    6.63 
 -10   3  -4   60.06   10.66 
 -10   3  -4   63.49   12.23 
 -10  -3  -4   92.92   12.60 
 -10  -3  -4   91.07   14.23 
  10  -3   4   89.51   11.09 
  10  -3   4   89.39   11.22 
 -10   3  -5  105.23   12.14 
 -10  -3  -5   68.00   10.83 
  10  -3   5   73.69   14.70 
 -10  -3  -5   66.10   13.58 
  10  -3   5   68.00   10.05 
 -10   3  -6  504.36   23.35 
 -10  -3  -6  493.78   24.91 
  10  -3   6  521.75   28.16 
 -10  -3  -6  513.15   26.38 
  10  -3   6  507.33   22.43 
 -10   3  -7  228.64   17.01 
 -10  -3  -7  201.94   16.48 
  10  -3   7  206.68   18.87 
 -10  -3  -7  206.28   18.29 
 -10   3  -8  105.37   14.33 
 -10  -3  -8  107.84   12.73 
  10  -3   8  110.72   15.86 
 -10  -3  -8  108.79   15.38 
  10  -3   9   69.75   14.77 
 -10  -3  -9   80.01   12.15 
 -10  -3  -9   81.57   16.01 
  10  -3  10  232.87   21.46 
 -10  -3 -10  211.08   17.45 
 -10  -3 -10  234.09   19.35 
 -10   3 -11  126.88   15.51 
 -10  -3 -11  105.51   13.59 
  10  -3  11  102.39   18.74 
 -10  -3 -11  122.97   17.92 
 -10   3 -12   -0.06   11.11 
 -10  -3 -12   -0.53    9.36 
  10  -3  12    7.70   15.32 
 -10  -3 -12    1.78   14.07 
  10   4 -15   27.05   12.76 
  10   4 -15   27.30   13.19 
 -10  -4  15   15.93   12.78 
  10  -4 -15   15.51   12.28 
  10   4 -14  113.05   14.94 
 -10  -4  14   83.95   15.56 
  10  -4 -14  103.00   15.20 
 -10  -4  14   92.13   15.99 
  10   4 -13  130.10   16.13 
 -10  -4  13  123.44   16.90 
  10  -4 -13  132.27   15.31 
 -10  -4  13  129.41   18.76 
  10   4 -12  250.92   17.62 
 -10  -4  12  265.66   20.83 
  10  -4 -12  264.41   19.51 
 -10  -4  12  264.77   20.55 
  10   4 -11  382.93   20.39 
 -10   4  11  363.98   20.76 
 -10  -4  11  343.85   22.66 
  10  -4 -11  350.12   20.60 
 -10  -4  11  327.15   22.15 
  10   4 -10  120.63   14.79 
 -10   4  10  122.93   15.19 
 -10  -4  10  136.96   16.09 
  10  -4 -10  141.41   15.33 
 -10  -4  10  139.25   17.35 
 -10   4   9  179.33   15.61 
  10   4  -9  190.02   15.59 
 -10  -4   9  225.89   19.67 
  10  -4  -9  217.66   16.23 
  10   4  -8  337.50   18.73 
 -10   4   8  340.24   19.55 
 -10   4   8  339.17   19.46 
  10  -4  -8  337.64   19.94 
 -10  -4   8  353.35   22.63 
  10   4  -7  107.76   12.80 
 -10   4   7  114.82   13.49 
 -10   4   7  108.43   13.02 
  10  -4  -7  163.70   14.82 
 -10  -4   7  162.70   16.56 
 -10   4   6   11.14    8.72 
 -10   4   6   10.58    8.63 
  10   4  -6   13.26   10.10 
 -10  -4   6   39.37   10.47 
 -10  -4   6   32.65   10.49 
  10  -4  -6   39.94    9.71 
 -10   4   5  129.35   14.94 
 -10   4   5  132.64   13.69 
  10   4  -5  133.98   14.05 
 -10  -4   5  125.90   15.77 
 -10  -4   5  129.98   15.28 
  10  -4  -5  128.69   13.90 
 -10   4   4   40.38   10.24 
 -10   4   4   39.80    9.60 
  10   4  -4   43.62   10.11 
 -10  -4   4   31.46    9.41 
 -10  -4   4   35.88   10.92 
  10  -4  -4   35.40    9.51 
 -10   4   3   74.41   12.64 
  10   4  -3   69.19   11.54 
 -10   4   3   68.49   11.21 
  10  -4  -3   99.04   11.81 
  10  -4  -3  104.26   12.45 
 -10  -4   3  104.81   14.43 
 -10   4   2  233.11   17.10 
  10   4  -2  211.94   15.61 
 -10  -4   2  123.22   15.15 
  10  -4  -2  128.61   13.62 
  10  -4  -2  126.25   13.56 
 -10   4   1    4.18    8.55 
  10   4  -1    3.96    9.77 
 -10   4   1    9.15    9.27 
  10  -4  -1   19.80    7.33 
  10  -4  -1   21.93    7.28 
 -10  -4   1   21.76   10.59 
 -10   4   0  184.16   17.01 
  10   4   0  182.62   17.28 
 -10   4   0  186.69   14.74 
  10  -4   0  180.37   15.82 
  10  -4   0  180.55   16.32 
 -10  -4   0  186.95   15.89 
 -10   4  -1  116.49   13.64 
  10   4   1  126.11   14.40 
 -10   4  -1  119.06   13.25 
  10  -4   1  111.80   12.24 
  10  -4   1  127.27   12.80 
 -10  -4  -1  127.24   15.87 
 -10   4  -2   71.45   11.91 
 -10   4  -2   68.08   12.35 
 -10  -4  -2   75.93   12.46 
  10  -4   2   72.38   10.03 
 -10   4  -3  150.65   14.48 
 -10   4  -3  158.16   14.77 
 -10  -4  -3  196.92   16.66 
 -10  -4  -3  196.17   16.66 
  10  -4   3  210.00   14.38 
 -10   4  -4  375.06   21.04 
 -10   4  -4  365.76   19.96 
 -10  -4  -4  327.83   19.47 
 -10  -4  -4  331.59   20.94 
 -10   4  -5    2.68   10.00 
 -10  -4  -5    1.54    9.36 
 -10  -4  -5   -2.93   10.84 
 -10   4  -6   37.62   11.82 
 -10  -4  -6   42.78    9.85 
  10  -4   6   41.44   13.06 
 -10  -4  -6   46.18   13.65 
 -10   4  -7   73.27   12.55 
 -10  -4  -7   95.68   12.99 
  10  -4   7   95.17   15.62 
 -10  -4  -7   90.23   15.13 
 -10   4  -8  115.77   15.24 
 -10  -4  -8  104.45   13.22 
  10  -4   8  107.77   17.59 
 -10  -4  -8  105.53   16.41 
 -10   4  -9   16.26   11.54 
 -10  -4  -9   17.50   10.82 
  10  -4   9   18.21   13.15 
 -10  -4  -9   15.90   13.22 
 -10   4 -10   41.43   12.86 
  10  -4  10   32.88   15.72 
 -10  -4 -10   31.14   14.80 
  10  -4  11   11.99   14.02 
 -10  -4 -11    9.96   14.76 
  10   5 -14   51.84   14.28 
 -10   5  14   46.89   15.20 
  10   5 -14   48.52   13.66 
  10  -5 -14   37.24   13.14 
 -10  -5  14   32.47   15.12 
  10   5 -13   17.42   11.85 
 -10  -5  13   15.97   12.24 
  10  -5 -13   12.79   12.02 
 -10  -5  13   15.26   15.26 
  10   5 -12   19.27   11.01 
 -10  -5  12   23.50   13.25 
  10  -5 -12   27.36   12.73 
 -10  -5  12   26.91   14.51 
  10   5 -11   17.42   11.20 
  10  -5 -11   23.49   10.27 
 -10  -5  11   23.90   12.59 
  10   5 -10  185.80   16.06 
  10  -5 -10  203.41   17.20 
 -10  -5  10  209.21   19.71 
  10   5  -9  270.65   18.58 
 -10  -5   9  244.65   20.51 
  10  -5  -9  242.27   17.47 
 -10  -5   9  236.62   19.57 
  10   5  -8   23.84   11.45 
 -10  -5   8   45.35   11.70 
  10  -5  -8   38.90   10.26 
 -10  -5   8   46.33   12.90 
  10   5  -7   84.02   12.62 
 -10  -5   7   81.44   13.46 
  10  -5  -7   82.23   11.77 
 -10  -5   7   81.76   14.01 
 -10   5   6   79.79   13.44 
 -10   5   6   90.24   11.90 
  10   5  -6   90.63   14.08 
 -10  -5   6   54.43   11.59 
 -10  -5   6   51.95   12.54 
  10  -5  -6   52.47   10.19 
 -10   5   5   54.16   11.12 
 -10   5   5   54.58   10.78 
  10   5  -5   54.67   11.35 
 -10  -5   5   28.00   10.74 
  10  -5  -5   29.55    9.54 
 -10   5   4   47.66   11.03 
 -10   5   4   41.16   10.32 
  10   5  -4   42.56   10.12 
 -10  -5   4   65.92   12.44 
  10  -5  -4   62.18   10.68 
 -10   5   3   54.45   11.55 
 -10   5   3   57.35   10.44 
  10   5  -3   51.95   11.83 
 -10  -5   3   44.75   11.78 
  10  -5  -3   48.20    9.29 
 -10   5   2  136.51   14.71 
  10   5  -2  131.49   14.57 
 -10   5   2  140.17   13.35 
 -10  -5   2  142.39   14.99 
 -10   5   1   30.82   11.35 
  10   5  -1   24.96    9.49 
 -10   5   1   31.42    9.96 
 -10  -5   1   65.55   13.03 
 -10   5   0   87.84   13.23 
  10   5   0   95.27   14.19 
 -10   5   0   86.10   12.46 
 -10  -5   0   73.44   12.65 
 -10   5  -1  144.05   14.93 
  10   5   1  139.74   15.89 
 -10   5  -1  145.73   13.66 
 -10  -5  -1  157.25   14.90 
 -10   5  -2  156.27   16.45 
  10   5   2  143.05   14.65 
 -10   5  -2  157.16   13.69 
 -10  -5  -2  145.11   15.18 
 -10   5  -3   11.84   10.16 
 -10   5  -3   16.82   10.53 
 -10  -5  -3   16.34    9.48 
 -10   5  -4   47.84   11.83 
 -10   5  -4   49.74   10.81 
 -10  -5  -4   39.69   11.44 
 -10   5  -5  130.09   15.45 
 -10   5  -5  123.35   14.40 
 -10  -5  -5   89.19   13.13 
 -10   5  -6  116.69   14.30 
 -10  -5  -6  133.46   14.67 
 -10   5  -7   82.57   12.82 
 -10  -5  -7   71.87   12.28 
  10  -5   7   66.00   17.39 
 -10  -5  -7   73.86   14.54 
 -10   5  -8    8.08   11.11 
  10  -5   8   13.45   15.64 
 -10  -5  -8    9.29   12.53 
 -10   5  -9   51.10   12.99 
  10  -5   9   59.43   15.06 
 -10  -5  -9   63.95   15.33 
 -10   5 -10   57.94   13.85 
  10  -5  10   73.89   17.56 
 -10  -5 -10   76.44   16.77 
 -10   6  12   28.97   12.28 
  10   6 -12   28.89   13.34 
  10   6 -12   35.50   12.95 
  10  -6 -12   31.90   12.07 
 -10   6  11   33.96   12.59 
  10   6 -11   36.03   11.67 
 -10  -6  11   49.19   15.97 
 -10   6  10   15.78   12.03 
  10   6 -10   14.87   11.20 
 -10  -6  10   12.19   13.18 
 -10   6   9   38.31   13.38 
  10   6  -9   39.76   12.73 
 -10  -6   9   42.38   13.81 
  10   6  -8   80.12   13.62 
 -10  -6   8  124.70   17.30 
  10   6  -7   46.49   12.42 
 -10  -6   7   79.88   15.06 
  10   6  -6  144.31   14.84 
 -10  -6   6  147.27   16.69 
  10   6  -5   34.75   11.25 
 -10  -6   5   25.00   12.16 
  10   6  -4   15.10   11.47 
 -10  -6   4   24.10   11.33 
  10   6  -3   47.51   12.54 
 -10   6   3   53.04   11.13 
 -10  -6   3   25.64   11.70 
  10   6  -2   44.87   11.95 
 -10   6   2   47.24   10.19 
 -10  -6   2   57.79   12.21 
 -10   6   1   67.29   13.19 
  10   6  -1   83.94   13.83 
 -10   6   1   76.55   11.88 
 -10  -6   1   73.55   12.78 
 -10   6   0    4.45   10.69 
  10   6   0    3.72   11.66 
 -10   6   0    9.10    9.21 
 -10  -6   0   15.36   11.14 
 -10   6  -1   18.87   12.18 
  10   6   1   13.11   11.03 
 -10   6  -1   16.75   10.80 
 -10  -6  -1   13.53   10.88 
 -10   6  -2    8.14   11.62 
  10   6   2    9.91   10.56 
 -10   6  -2   14.34   10.18 
 -10  -6  -2   22.90    9.95 
 -10   6  -3   58.34   14.25 
  10   6   3   58.84   13.26 
 -10   6  -3   51.96   11.88 
 -10  -6  -3   85.53   13.50 
 -10   6  -4   11.65   11.84 
 -10   6  -4    2.26   11.13 
 -10  -6  -4   14.29   10.34 
 -10  -6  -4   14.31   12.81 
 -10   6  -5   45.44   13.45 
 -10   6  -5   44.70   12.20 
 -10  -6  -5   55.70   12.36 
 -10  -6  -5   47.44   13.57 
 -10   6  -6   40.52   14.09 
 -10   6  -6   39.98   12.09 
 -10  -6  -6   48.06   14.09 
 -10   6  -7   24.78   13.71 
 -10   6  -7   23.41   12.15 
 -10  -6  -7   25.91   13.92 
 -10   6  -8   96.09   15.40 
  10  -6   8   98.40   17.85 
 -10  -6  -8   89.86   16.73 
 -10   7   9   65.87   14.68 
  10   7  -9   57.38   12.31 
 -10  -7   9   66.43   15.75 
 -10   7   8   65.32   14.93 
  10   7  -8   48.28   12.30 
 -10  -7   8   43.61   15.10 
 -10   7   7   27.58   12.28 
  10   7  -7   23.96   12.22 
 -10  -7   7   29.11   13.10 
 -10   7   6    3.19   11.35 
  10   7  -6    2.46   11.37 
 -10  -7   6    4.04   13.01 
 -10   7   5   55.62   13.63 
  10   7  -5   53.95   12.49 
 -10  -7   5   39.48   12.93 
 -10   7   4  117.78   14.32 
  10   7  -4  120.42   14.16 
 -10  -7   4   71.16   13.92 
 -10   7   3   66.14   14.26 
  10   7  -3   77.36   12.53 
 -10  -7   3   69.60   14.21 
  10   7  -2   23.11   12.59 
 -10  -7   2   25.10   12.58 
  10   7  -1    3.24   11.05 
 -10  -7   1    2.79   11.88 
  10   7   0   26.40   12.40 
 -10   7   0   26.75   10.68 
 -10  -7   0   36.98   12.63 
  10   7   1  153.02   16.77 
 -10   7  -1  146.03   15.33 
 -10  -7  -1  194.18   17.77 
  10   7   2   97.39   15.45 
 -10   7  -2  102.22   13.20 
 -10  -7  -2  111.97   14.88 
 -10   7  -3   12.01   11.30 
  10   7   3    2.22   11.23 
 -10   7  -4   29.35   13.09 
 -10   7  -4   42.07   11.60 
  10   7   4   35.92   13.48 
 -10   7  -5   97.58   17.45 
 -10   7  -5   96.77   14.07 
 -10  -7  -5   89.63   15.90 
 -11   0  17   16.47   14.87 
 -11   0  16    9.83   13.08 
 -11   0  16    9.13   12.07 
 -11   0  15  130.95   17.82 
 -11   0  15  131.66   15.43 
 -11   0  14   -0.62   10.16 
 -11   0  14   -0.70   10.22 
  11   0 -14    4.07   10.78 
 -11   0  13    8.87   10.70 
 -11   0  13    9.49   10.15 
  11   0 -13    8.19    9.88 
 -11   0  12  391.49   22.00 
 -11   0  12  378.96   22.42 
  11   0 -12  375.12   20.12 
 -11   0  11  888.18   32.78 
 -11   0  11  892.55   31.32 
  11   0 -11  882.24   28.63 
 -11   0  10  124.97   13.57 
 -11   0  10  111.59   14.57 
  11   0 -10  127.07   13.64 
 -11   0   9   13.27    9.03 
 -11   0   9   14.00    9.33 
  11   0  -9   14.99    8.92 
 -11   0   8   46.83   10.36 
 -11   0   8   48.74   11.09 
  11   0  -8   44.21   10.20 
 -11   0   7  786.42   32.33 
  11   0  -7  748.57   30.70 
 -11   0   7  758.82   32.74 
  11   0  -7  760.97   30.87 
 -11   0   6    6.75    6.27 
  11   0  -6    6.65    6.51 
 -11   0   6    4.94    8.81 
  11   0  -6    1.59    7.86 
 -11   0   5   78.68   10.21 
  11   0  -5   84.31   10.42 
 -11   0   5   79.60   11.56 
  11   0  -5   76.88   11.31 
 -11   0   4   10.20    6.44 
  11   0  -4   10.17    6.47 
 -11   0   4    7.89    8.69 
  11   0  -4    9.32    7.13 
 -11   0   3  119.21   13.49 
 -11   0   3  114.40   11.51 
 -11   0   3  114.66   13.43 
  11   0  -3  118.96   12.57 
 -11   0   2    3.26    6.66 
 -11   0   2    4.65    6.18 
 -11   0   2    2.92    8.82 
  11   0  -2    3.82    7.81 
 -11   0   1    4.92    7.09 
 -11   0   1    4.62    6.19 
 -11   0   1    5.44    8.36 
  11   0  -1    7.23    8.16 
 -11   0   0 1398.32   42.99 
 -11   0   0 1344.72   42.47 
 -11   0   0 1371.47   42.07 
  11   0   0 1422.81   38.53 
 -11   0  -1   18.52    8.74 
 -11   0  -1   22.06    7.52 
  11   0   1   22.96    8.07 
 -11   0  -2   10.46    7.16 
 -11   0  -2   10.21    6.59 
  11   0   2    9.11    7.30 
 -11   0  -3   73.12   11.13 
 -11   0  -3   76.89   10.60 
  11   0   3   64.09   11.14 
 -11   0  -4   34.78    8.94 
 -11   0  -4   33.40    8.88 
 -11   0  -4   32.96   10.14 
 -11   0  -4   35.21   10.61 
  11   0   5  182.76   18.49 
 -11   0  -5  183.55   16.56 
 -11   0  -5  184.54   16.74 
 -11   0  -5  174.94   17.37 
  11   0   6   55.60   11.98 
 -11   0  -6   56.81    9.95 
 -11   0  -6   61.38   12.71 
 -11   0  -6   51.16   11.13 
 -11   0  -7   34.11   10.52 
 -11   0  -7   32.46   11.91 
 -11   0  -8   -1.56   10.10 
 -11   0  -8   -2.25   11.05 
 -11   0  -9    1.97   11.15 
 -11   0  -9    2.41   10.54 
 -11   0 -10    2.32   10.88 
 -11   0 -10   -0.79   10.11 
 -11   0 -11    8.47   12.29 
 -11   0 -11    0.89   11.05 
 -11   0 -12   32.62   12.05 
 -11   0 -12   28.11   13.95 
 -11   0 -13    7.32   11.02 
 -11   0 -13    7.13   11.78 
  11   1 -17   20.11   14.24 
 -11   1  17   19.95   14.11 
 -11  -1  17   35.75   13.62 
  11  -1 -17   37.12   15.21 
 -11  -1  17   28.29   14.39 
  11   1 -16    7.96   11.36 
 -11   1  16    6.98   13.47 
 -11  -1  16    7.72   11.88 
  11  -1 -16    6.92   13.12 
 -11  -1  16    4.70   12.58 
 -11   1  15   55.21   14.19 
 -11   1  15   48.56   13.44 
  11   1 -15   52.48   12.54 
 -11  -1  15   39.22   14.63 
 -11  -1  15   45.55   13.25 
  11  -1 -15   41.16   12.44 
 -11   1  14   79.30   14.18 
 -11   1  14   75.20   12.94 
  11   1 -14   82.43   15.08 
 -11  -1  14   87.29   15.14 
 -11  -1  14   82.85   14.23 
  11  -1 -14   85.67   14.61 
 -11   1  13   84.46   14.97 
 -11   1  13   86.59   13.03 
 -11  -1  13  114.76   15.64 
 -11  -1  13  117.00   16.02 
  11  -1 -13  107.42   13.74 
 -11   1  12   60.95   13.78 
 -11   1  12   54.65   11.42 
 -11  -1  12   42.40   11.53 
 -11  -1  12   38.80   11.95 
  11  -1 -12   41.36   11.16 
 -11   1  11    4.27   10.02 
 -11   1  11   10.02   10.44 
 -11  -1  11    9.56   10.39 
 -11  -1  11    7.26   10.66 
  11  -1 -11   11.33    9.27 
 -11   1  10  277.84   17.97 
 -11   1  10  282.87   19.27 
 -11  -1  10  261.12   18.87 
 -11  -1  10  257.97   18.12 
  11  -1 -10  272.37   17.71 
 -11   1   9  100.06   12.87 
 -11   1   9   94.44   13.70 
 -11  -1   9   38.42   10.02 
 -11  -1   9   41.14   11.00 
  11  -1  -9   41.06   10.37 
 -11   1   8 1143.61   34.13 
 -11   1   8 1123.36   35.33 
 -11  -1   8 1150.63   35.65 
 -11  -1   8 1182.79   36.09 
  11  -1  -8 1178.02   32.43 
 -11   1   7  601.78   27.12 
 -11   1   7  590.07   28.55 
  11   1  -7  602.15   27.10 
 -11  -1   7  661.96   30.26 
 -11  -1   7  634.39   29.77 
  11  -1  -7  692.68   29.23 
 -11   1   6   11.59    8.28 
 -11   1   6   13.81    8.13 
  11   1  -6   12.07    6.66 
  11   1  -6   10.43    7.65 
 -11  -1   6   19.63    9.37 
  11  -1  -6   18.25    7.70 
 -11  -1   6   18.19    8.05 
  11   1  -5   47.01    8.51 
 -11   1   5   52.61    8.93 
  11   1  -5   46.21    9.11 
 -11   1   5   47.85   10.21 
 -11  -1   5   66.35   10.01 
 -11  -1   5   72.04   11.79 
  11  -1  -5   70.98   10.69 
  11  -1  -5   64.54    9.90 
  11   1  -4  880.88   33.51 
 -11   1   4  920.71   34.41 
  11   1  -4  952.74   35.62 
 -11   1   4  933.87   35.85 
 -11  -1   4  930.37   35.61 
 -11  -1   4  961.76   37.33 
  11  -1  -4  910.83   36.99 
  11  -1  -4  908.85   34.84 
 -11   1   3  834.00   34.13 
 -11   1   3  793.09   30.16 
 -11   1   3  809.64   31.18 
  11   1  -3  792.15   29.85 
 -11  -1   3  838.58   34.39 
 -11  -1   3  851.32   30.49 
 -11  -1   3  875.73   33.30 
  11  -1  -3  821.53   33.13 
 -11   1   2  215.71   17.11 
 -11   1   2  225.38   16.49 
  11   1  -2  223.28   15.49 
 -11   1   2  213.27   14.91 
 -11  -1   2  264.29   16.90 
 -11  -1   2  272.56   19.35 
  11  -1  -2  256.56   17.02 
  11  -1  -2  262.13   16.92 
 -11  -1   2  271.82   18.35 
 -11   1   1  295.20   20.51 
 -11   1   1  292.22   17.84 
 -11   1   1  296.95   18.29 
  11   1  -1  302.87   18.91 
 -11  -1   1  260.47   16.51 
 -11  -1   1  270.22   19.44 
  11  -1  -1  254.38   16.86 
  11  -1  -1  266.14   17.37 
 -11   1   0  565.57   29.71 
 -11   1   0  557.09   26.05 
 -11   1   0  559.13   26.18 
  11   1   0  534.92   25.79 
 -11  -1   0  565.36   27.23 
 -11  -1   0  555.19   28.73 
  11  -1   0  567.07   26.23 
  11  -1   0  547.50   26.59 
 -11   1  -1  106.42   13.33 
 -11   1  -1  111.80   13.02 
  11   1   1  106.31   12.86 
 -11   1  -1  104.82   11.94 
 -11  -1  -1   88.27   10.35 
 -11  -1  -1   87.90   11.57 
  11  -1   1   91.62   11.46 
  11  -1   1   85.25   11.38 
 -11  -1  -1   85.09   12.22 
 -11   1  -2   65.35   11.25 
 -11   1  -2   65.95   11.58 
  11   1   2   68.27   10.89 
 -11   1  -2   64.42   10.62 
 -11  -1  -2   41.68    7.89 
 -11  -1  -2   42.35    9.19 
  11  -1   2   43.29    8.70 
  11  -1   2   42.74    9.93 
 -11  -1  -2   42.02   10.79 
 -11   1  -3   72.61   11.62 
 -11   1  -3   67.71   11.33 
 -11   1  -3   71.65   11.04 
 -11  -1  -3   28.50    7.75 
 -11  -1  -3   26.28    9.37 
 -11  -1  -3   28.77    8.27 
 -11  -1  -3   27.52    9.54 
  11  -1   3   29.94    7.85 
  11  -1   3   31.49    9.05 
 -11   1  -4   31.37    8.41 
 -11   1  -4   30.85    9.34 
 -11  -1  -4   30.89    8.45 
 -11  -1  -4   31.99    8.51 
 -11  -1  -4   28.40    9.75 
 -11  -1  -4   27.33    9.89 
  11  -1   4   28.29    8.85 
 -11   1  -5  324.93   19.92 
 -11  -1  -5  303.91   18.52 
 -11  -1  -5  309.10   18.21 
 -11  -1  -5  317.73   19.55 
  11  -1   5  301.39   21.52 
 -11  -1  -5  293.93   20.12 
 -11   1  -6   72.44   11.81 
 -11   1  -6   82.59   13.03 
  11  -1   6   67.38   13.19 
 -11  -1  -6   65.85   11.38 
 -11  -1  -6   63.27   11.60 
 -11   1  -7   85.78   12.74 
 -11   1  -7   84.30   12.02 
  11  -1   7  148.83   16.80 
 -11  -1  -7  146.55   14.91 
 -11  -1  -7  153.15   15.41 
 -11   1  -8  235.41   17.08 
 -11   1  -8  237.40   18.81 
  11  -1   8  267.86   20.97 
 -11  -1  -8  273.24   18.85 
 -11  -1  -8  280.43   20.44 
 -11   1  -9   23.34   10.51 
 -11   1  -9   22.81   11.03 
  11  -1   9   25.45   12.56 
 -11  -1  -9   31.23   10.78 
 -11  -1  -9   29.61   12.45 
 -11   1 -10    6.24   10.72 
 -11   1 -10    9.65   12.62 
 -11  -1 -10   12.74   10.50 
 -11  -1 -10   11.57   13.01 
 -11   1 -11  102.83   15.43 
 -11  -1 -11  132.78   15.68 
 -11  -1 -11  138.71   17.76 
 -11   1 -12   69.55   12.85 
 -11  -1 -12   73.94   13.90 
 -11  -1 -12   72.58   15.66 
 -11   1 -13    7.46   13.08 
 -11  -1 -13    3.25   10.91 
 -11  -1 -13    5.52   12.57 
  11   2 -16   32.34   13.96 
 -11   2  16   26.70   13.94 
 -11  -2  16   27.39   13.29 
  11  -2 -16   21.61   12.14 
 -11  -2  16   19.56   14.04 
  11   2 -15   81.32   14.21 
 -11   2  15   82.73   14.25 
 -11  -2  15   96.22   16.35 
  11  -2 -15  102.92   14.17 
 -11  -2  15   97.91   16.75 
  11   2 -14  263.31   19.49 
 -11   2  14  268.07   19.57 
 -11  -2  14  304.13   22.04 
  11  -2 -14  308.54   19.35 
 -11  -2  14  286.75   21.01 
 -11   2  13  181.60   17.17 
 -11   2  13  182.70   16.51 
  11   2 -13  196.57   17.49 
 -11  -2  13  179.36   18.08 
 -11  -2  13  178.54   18.22 
  11  -2 -13  177.59   16.36 
 -11   2  12  189.28   16.09 
 -11   2  12  186.30   16.49 
  11   2 -12  188.64   15.41 
 -11  -2  12  212.55   18.70 
 -11  -2  12  207.99   18.55 
  11  -2 -12  219.87   17.33 
 -11   2  11  189.08   16.26 
 -11   2  11  188.33   16.49 
  11   2 -11  198.51   16.14 
 -11  -2  11  182.82   17.37 
 -11  -2  11  193.77   18.82 
  11  -2 -11  187.60   15.75 
 -11   2  10  193.85   16.26 
 -11   2  10  197.62   16.24 
  11   2 -10  197.10   15.19 
 -11  -2  10  275.85   18.98 
 -11  -2  10  269.84   19.98 
  11  -2 -10  278.44   18.09 
 -11   2   9   53.96   10.41 
 -11   2   9   59.94   11.56 
  11   2  -9   64.71   10.95 
 -11  -2   9   33.03   10.52 
 -11  -2   9   35.24   12.00 
  11  -2  -9   35.81    9.46 
 -11   2   8  117.06   14.03 
 -11   2   8  116.40   13.99 
  11   2  -8  119.50   13.55 
 -11  -2   8  119.79   14.39 
 -11  -2   8  126.32   15.38 
  11  -2  -8  128.04   14.05 
 -11   2   7  274.14   17.29 
 -11   2   7  271.28   17.90 
 -11  -2   7  321.16   20.41 
 -11  -2   7  319.20   19.96 
  11  -2  -7  334.50   18.84 
 -11   2   6  174.03   14.64 
 -11   2   6  169.41   14.39 
 -11  -2   6  144.51   14.64 
 -11  -2   6  155.42   14.98 
  11  -2  -6  156.50   13.56 
 -11   2   5   87.69   11.56 
 -11   2   5   84.55   11.77 
 -11  -2   5   47.64    9.64 
 -11  -2   5   50.11   10.79 
  11  -2  -5   49.81    9.54 
 -11   2   4    2.70    6.42 
 -11   2   4    1.99    7.20 
 -11   2   4    4.05    7.61 
  11  -2  -4    1.12    7.31 
 -11  -2   4    1.02    6.21 
 -11   2   3   92.03   11.21 
 -11   2   3   98.20   12.65 
 -11  -2   3   91.17   12.09 
 -11  -2   3   95.40   12.29 
  11  -2  -3   82.10   10.70 
  11  -2  -3   92.41   11.08 
 -11   2   2  416.51   24.84 
 -11   2   2  422.82   22.62 
 -11  -2   2  329.18   22.01 
 -11  -2   2  353.31   21.90 
  11  -2  -2  323.31   19.76 
  11  -2  -2  316.10   18.58 
 -11   2   1  670.84   29.59 
  11   2  -1  722.17   30.90 
 -11   2   1  727.04   30.58 
  11  -2  -1  744.36   31.97 
  11  -2  -1  753.99   32.09 
 -11  -2   1  757.00   32.44 
 -11   2   0   47.89    9.20 
  11   2   0   53.44   10.38 
 -11   2   0   52.59   11.32 
  11  -2   0   67.63   10.16 
  11  -2   0   66.78    9.80 
 -11  -2   0   71.60   12.27 
 -11   2  -1   85.42   11.51 
  11   2   1   92.38   11.98 
 -11   2  -1   88.93   11.68 
  11  -2   1  122.24   12.78 
  11  -2   1  127.01   12.36 
 -11  -2  -1  131.12   14.07 
 -11   2  -2   16.79    8.70 
  11   2   2   13.93    8.84 
 -11   2  -2   18.34   10.23 
  11  -2   2   18.16    7.29 
  11  -2   2   19.02    8.19 
 -11  -2  -2   17.39    9.38 
 -11   2  -3  216.18   16.09 
 -11   2  -3  211.67   16.49 
 -11  -2  -3  270.71   17.87 
 -11  -2  -3  273.93   19.19 
  11  -2   3  278.62   17.54 
  11  -2   3  281.01   17.33 
 -11   2  -4   18.44    8.84 
 -11   2  -4   13.97    8.88 
 -11  -2  -4   10.19    8.19 
 -11  -2  -4    7.22    8.53 
 -11  -2  -4   17.96    7.83 
 -11  -2  -4    5.63   10.93 
  11  -2   4    9.20    6.63 
  11  -2   4    9.82    7.61 
  11  -2   5  387.87   24.41 
 -11  -2  -5  379.15   19.67 
 -11  -2  -5  374.93   20.98 
 -11  -2  -5  379.09   21.90 
  11  -2   5  361.74   19.28 
  11  -2   5  375.86   19.84 
 -11   2  -6   98.94   12.31 
 -11  -2  -6   96.10   13.87 
  11  -2   6   96.15   15.06 
 -11  -2  -6   95.92   14.75 
  11  -2   7  125.43   16.93 
 -11  -2  -7  131.85   14.99 
 -11  -2  -7  121.19   15.10 
 -11   2  -8   37.00   12.04 
 -11  -2  -8   50.54   11.73 
  11  -2   8   43.52   12.04 
 -11  -2  -8   43.43   12.26 
 -11   2  -9   46.72   12.87 
 -11  -2  -9   65.75   12.12 
  11  -2   9   67.09   14.79 
 -11  -2  -9   63.67   13.51 
 -11   2 -10   53.17   13.50 
 -11  -2 -10   38.52   10.90 
  11  -2  10   38.26   13.16 
 -11  -2 -10   37.42   13.67 
 -11   2 -11   19.57   12.98 
 -11  -2 -11   19.31   12.18 
  11  -2  11   19.94   14.16 
 -11  -2 -11   17.26   12.03 
 -11   2 -12    4.02   12.03 
 -11  -2 -12    1.40    9.97 
 -11  -2 -12    3.24   12.21 
  11   3 -15    4.84   12.27 
 -11   3  15    2.49   12.21 
 -11  -3  15    7.10   14.06 
  11  -3 -15    3.17   11.55 
 -11  -3  15    5.82   11.85 
  11   3 -14   53.49   12.46 
 -11   3  14   52.44   13.15 
 -11  -3  14   25.18   14.84 
  11  -3 -14   29.18   13.53 
 -11  -3  14   25.93   12.85 
  11   3 -13  205.81   16.60 
 -11   3  13  205.87   17.21 
 -11  -3  13  246.91   20.61 
  11  -3 -13  252.96   19.12 
 -11  -3  13  235.76   20.12 
  11   3 -12  137.60   14.03 
 -11   3  12  141.10   15.21 
 -11  -3  12  140.85   17.75 
  11  -3 -12  145.43   14.96 
 -11  -3  12  128.88   16.51 
 -11   3  11  134.18   15.29 
 -11   3  11  138.22   14.82 
  11   3 -11  129.16   14.50 
 -11  -3  11  128.26   15.82 
 -11  -3  11  131.35   16.21 
  11  -3 -11  138.98   14.34 
 -11   3  10   63.33   12.65 
 -11   3  10   65.67   11.08 
  11   3 -10   63.45   11.76 
 -11  -3  10   34.86   11.50 
 -11  -3  10   46.49   11.98 
  11  -3 -10   39.92   10.39 
 -11   3   9  685.65   26.33 
 -11   3   9  687.93   27.70 
  11   3  -9  712.78   26.24 
 -11  -3   9  634.06   28.94 
 -11  -3   9  659.79   27.83 
  11  -3  -9  665.10   25.61 
 -11   3   8  334.85   19.27 
 -11   3   8  341.04   20.41 
  11   3  -8  347.60   18.84 
 -11  -3   8  330.52   21.08 
 -11  -3   8  326.33   20.53 
  11  -3  -8  335.07   19.44 
 -11   3   7  178.27   15.45 
 -11   3   7  180.43   15.88 
  11   3  -7  182.19   15.36 
 -11  -3   7  203.13   17.49 
 -11  -3   7  183.80   16.44 
  11  -3  -7  206.53   14.99 
  11   3  -6    8.89    8.92 
 -11   3   6    8.95    8.49 
 -11   3   6   11.91    7.92 
  11  -3  -6   13.43    8.26 
 -11  -3   6   15.99    9.08 
  11   3  -5  199.36   15.93 
 -11   3   5  199.75   15.71 
 -11   3   5  195.61   15.04 
  11  -3  -5  223.98   15.29 
 -11  -3   5  234.54   18.07 
 -11   3   4  201.50   15.00 
 -11   3   4  202.78   16.00 
  11   3  -4  195.52   15.18 
 -11  -3   4  193.74   16.69 
 -11  -3   4  192.03   16.91 
  11  -3  -4  196.35   14.51 
 -11   3   3  336.60   19.99 
  11   3  -3  318.30   20.24 
 -11   3   3  340.97   20.84 
  11  -3  -3  349.52   20.58 
  11  -3  -3  379.17   20.55 
 -11  -3   3  380.15   23.27 
 -11   3   2  166.58   14.99 
  11   3  -2  167.79   14.77 
 -11   3   2  175.14   14.94 
  11  -3  -2  130.60   12.90 
  11  -3  -2  133.53   12.33 
 -11  -3   2  127.19   14.58 
 -11   3   1   93.76   12.74 
 -11   3   1   93.05   12.88 
 -11  -3   1   88.46   12.26 
  11  -3  -1   88.69   11.06 
  11  -3  -1   89.18   10.62 
 -11   3   0   65.84   11.75 
 -11   3   0   66.05   10.80 
 -11  -3   0   80.36   12.15 
  11  -3   0   88.57   11.88 
  11  -3   0   84.58   10.78 
 -11   3  -1  613.98   25.50 
 -11   3  -1  597.89   23.97 
 -11  -3  -1  643.77   26.86 
  11  -3   1  627.46   25.41 
  11  -3   1  639.12   24.01 
 -11   3  -2  320.77   19.95 
 -11   3  -2  311.89   18.85 
 -11  -3  -2  251.24   18.50 
  11  -3   2  246.36   16.53 
  11  -3   2  249.26   15.74 
 -11   3  -3  302.01   19.00 
 -11   3  -3  319.70   19.07 
 -11  -3  -3  266.30   18.93 
 -11  -3  -3  257.73   19.08 
  11  -3   3  263.43   16.14 
 -11   3  -4   -0.51    8.61 
 -11   3  -4    3.06   10.79 
 -11  -3  -4   -5.23    9.58 
 -11  -3  -4    2.03   10.33 
  11  -3   4    2.95    7.01 
 -11   3  -5  318.33   19.33 
 -11   3  -5  316.46   18.58 
 -11  -3  -5  289.12   18.63 
 -11  -3  -5  290.23   19.98 
  11  -3   5  287.69   17.26 
 -11   3  -6  162.34   14.82 
 -11  -3  -6  194.14   15.97 
  11  -3   6  196.24   19.74 
 -11  -3  -6  191.07   16.99 
  11  -3   6  184.26   14.60 
 -11   3  -7   57.50   12.53 
 -11  -3  -7   71.62   12.76 
  11  -3   7   68.87   14.18 
 -11  -3  -7   76.25   15.13 
  11  -3   7   65.64   10.65 
 -11   3  -8   58.34   12.78 
 -11  -3  -8  119.11   14.79 
  11  -3   8  111.81   17.41 
 -11  -3  -8  113.15   17.03 
  11  -3   9   21.45   12.97 
 -11  -3  -9   25.05   11.30 
 -11  -3  -9   19.92   13.83 
  11  -3  10   50.73   15.94 
 -11  -3 -10   49.19   11.99 
 -11  -3 -10   52.28   15.13 
 -11   3 -11   29.38   12.41 
 -11  -3 -11   48.98   12.81 
  11  -3  11   37.75   14.32 
 -11  -3 -11   45.61   14.68 
  11   4 -14   -0.70   10.29 
 -11   4  14   -2.79   11.71 
 -11  -4  14    1.71   14.25 
  11  -4 -14    5.31   11.55 
 -11  -4  14    2.95   12.35 
  11   4 -13   21.46   11.03 
 -11   4  13   18.27   11.10 
 -11  -4  13   17.66   13.69 
  11  -4 -13   24.84   13.48 
 -11  -4  13   12.23   12.33 
  11   4 -12   48.49   13.12 
 -11   4  12   38.18   12.53 
 -11  -4  12   54.90   15.33 
  11  -4 -12   55.18   13.02 
 -11  -4  12   48.10   13.91 
  11   4 -11   52.00   12.03 
 -11   4  11   49.61   13.31 
 -11  -4  11   20.25   12.67 
  11  -4 -11   24.15   10.15 
 -11  -4  11   19.60   11.63 
  11   4 -10  160.54   15.73 
 -11   4  10  154.90   15.42 
 -11  -4  10  108.04   16.39 
  11  -4 -10  109.82   14.44 
 -11  -4  10  114.47   15.53 
 -11   4   9   87.04   13.02 
  11   4  -9   83.07   12.38 
 -11  -4   9   70.10   13.43 
  11  -4  -9   79.83   12.94 
  11   4  -8   33.43    9.86 
 -11   4   8   34.34   10.46 
 -11   4   8   29.11   10.18 
  11  -4  -8   25.41   10.05 
 -11  -4   8   27.98   10.31 
  11   4  -7   15.43    9.08 
 -11   4   7   13.18    9.81 
 -11   4   7   18.41    9.46 
  11  -4  -7    3.50    8.33 
 -11  -4   7    6.82    9.67 
 -11   4   6  315.37   18.70 
 -11   4   6  308.28   19.07 
  11   4  -6  297.54   18.81 
 -11  -4   6  364.06   22.71 
 -11  -4   6  368.11   21.81 
  11  -4  -6  361.94   19.66 
 -11   4   5  186.21   15.55 
 -11   4   5  193.48   15.01 
  11   4  -5  183.40   15.43 
 -11  -4   5  209.78   17.92 
 -11  -4   5  217.92   17.74 
  11  -4  -5  211.23   17.07 
 -11   4   4   36.16   10.56 
 -11   4   4   30.99   10.30 
  11   4  -4   32.60    9.57 
 -11  -4   4   54.28   11.60 
  11  -4  -4   55.23   10.06 
 -11   4   3  224.25   16.62 
 -11   4   3  232.56   16.69 
  11   4  -3  228.76   16.45 
 -11  -4   3  220.05   17.57 
  11  -4  -3  223.62   15.86 
 -11   4   2  374.95   20.39 
 -11   4   2  399.53   21.43 
  11   4  -2  368.52   20.30 
 -11  -4   2  435.22   23.63 
  11  -4  -2  443.94   21.02 
 -11   4   1  213.16   16.19 
 -11   4   1  209.94   15.78 
  11   4  -1  207.81   16.51 
 -11  -4   1  195.07   16.96 
  11  -4  -1  202.96   14.66 
 -11   4   0   78.75   11.82 
 -11   4   0   82.45   11.94 
  11   4   0   72.84   12.00 
 -11  -4   0   87.07   12.78 
  11  -4   0   80.39   10.29 
 -11   4  -1  102.45   13.35 
 -11   4  -1  102.79   13.59 
  11   4   1  111.89   13.81 
 -11  -4  -1   73.33   13.21 
  11  -4   1   76.38   10.10 
 -11   4  -2  119.71   13.58 
  11   4   2  104.80   14.56 
 -11   4  -2  116.03   12.82 
 -11  -4  -2  117.63   14.63 
 -11   4  -3   63.19   11.66 
 -11   4  -3   65.99   12.20 
 -11  -4  -3   64.57   11.79 
 -11  -4  -3   69.14   13.07 
 -11   4  -4   43.87   11.15 
 -11   4  -4   44.14   10.61 
 -11  -4  -4   25.49   11.14 
 -11  -4  -4   30.37   12.43 
 -11   4  -5  111.87   13.78 
 -11   4  -5  122.04   14.97 
 -11  -4  -5  118.96   13.90 
 -11  -4  -5  114.50   15.93 
 -11   4  -6   60.17   13.01 
 -11  -4  -6   81.31   13.17 
 -11  -4  -6   86.89   16.75 
 -11   4  -7   20.17   12.85 
 -11  -4  -7   29.97   11.80 
  11  -4   7   23.72   13.11 
 -11  -4  -7   28.94   13.18 
 -11   4  -8   12.27   11.52 
 -11  -4  -8   12.44   10.49 
  11  -4   8   15.41   13.08 
 -11  -4  -8   14.27   13.81 
 -11   4  -9   36.74   13.29 
 -11  -4  -9   58.44   11.97 
  11  -4   9   57.63   15.57 
 -11  -4  -9   63.37   15.73 
 -11   4 -10   81.76   14.47 
  11  -4  10  106.31   17.24 
 -11  -4 -10  109.59   16.33 
  11   5 -13   59.95   13.31 
  11  -5 -13   91.02   14.02 
 -11  -5  13   84.15   17.34 
  11   5 -12   97.36   15.23 
  11  -5 -12   90.96   14.54 
 -11  -5  12   85.06   16.92 
 -11   5  11   12.26   12.40 
  11   5 -11    9.52   11.73 
  11  -5 -11   14.63   11.09 
 -11   5  10   14.00   11.85 
  11   5 -10   10.46   10.55 
  11  -5 -10   15.38   10.51 
 -11   5   9   22.38   12.03 
  11   5  -9   20.26   11.09 
  11  -5  -9   22.07   11.07 
 -11  -5   9   19.07   12.31 
 -11   5   8  241.36   18.30 
  11   5  -8  217.92   17.63 
  11  -5  -8  234.86   17.38 
 -11  -5   8  225.68   18.89 
 -11   5   7  177.14   16.33 
  11   5  -7  177.95   16.26 
  11  -5  -7  145.68   14.46 
 -11  -5   7  151.14   16.87 
 -11   5   6   16.02    9.54 
 -11   5   6   11.36    9.27 
  11   5  -6   16.03   11.37 
 -11  -5   6   12.85   11.67 
  11  -5  -6   12.93    8.19 
 -11   5   5   88.39   14.50 
 -11   5   5   78.56   12.42 
  11   5  -5   79.02   12.04 
 -11  -5   5   78.83   14.29 
  11  -5  -5   84.74   11.42 
 -11   5   4   60.59   12.05 
  11   5  -4   59.14   11.86 
 -11   5   4   57.80   11.52 
 -11  -5   4   40.90   13.15 
 -11   5   3  450.86   22.76 
  11   5  -3  460.80   22.49 
 -11   5   3  468.53   22.22 
 -11  -5   3  384.01   22.52 
 -11   5   2   77.21   12.57 
  11   5  -2   72.76   12.14 
 -11   5   2   75.57   12.69 
 -11  -5   2   80.16   12.47 
 -11   5   1   37.05   11.13 
  11   5  -1   33.56   12.15 
 -11   5   1   29.30    9.77 
 -11  -5   1   37.27   11.18 
 -11   5   0    3.50    9.47 
  11   5   0    4.56   11.40 
 -11   5   0    4.47   10.21 
 -11  -5   0   -0.07   10.32 
 -11   5  -1  179.24   16.27 
  11   5   1  184.57   17.07 
 -11   5  -1  177.42   15.18 
 -11  -5  -1  169.05   15.55 
 -11   5  -2  188.24   17.17 
  11   5   2  182.46   16.92 
 -11   5  -2  190.00   15.48 
 -11  -5  -2  187.82   16.26 
 -11   5  -3   89.94   14.33 
  11   5   3   87.70   14.69 
 -11   5  -3   78.86   12.99 
 -11  -5  -3   90.05   13.06 
 -11   5  -4   14.25    9.87 
 -11   5  -4    7.40   10.39 
 -11  -5  -4    2.94    9.04 
 -11   5  -5   77.59   14.26 
 -11   5  -5   75.95   12.63 
 -11  -5  -5   69.08   13.09 
 -11  -5  -5   68.95   14.59 
 -11   5  -6   67.09   13.97 
 -11   5  -6   66.75   13.09 
 -11  -5  -6   65.78   12.61 
 -11  -5  -6   69.88   14.14 
 -11   5  -7  110.99   14.88 
 -11   5  -7  105.95   14.46 
 -11  -5  -7   84.58   13.78 
 -11  -5  -7   86.91   15.13 
 -11   5  -8   18.74   13.19 
  11  -5   8   16.22   13.62 
 -11  -5  -8   13.44   14.28 
 -11   5  -9   32.66   13.16 
  11  -5   9   36.11   16.72 
 -11  -5  -9   45.98   16.23 
  11   6 -11  177.37   16.43 
 -11  -6  11  154.47   18.96 
  11   6 -10   52.80   13.75 
 -11  -6  10   46.80   14.82 
  11   6  -9   84.23   13.27 
 -11  -6   9   74.94   14.89 
  11   6  -8   82.05   14.08 
 -11  -6   8   86.82   15.73 
  11   6  -7  108.69   14.01 
 -11  -6   7   91.82   16.92 
 -11   6   6  133.07   15.58 
  11   6  -6  146.48   15.24 
 -11  -6   6  196.83   18.12 
 -11   6   5   47.82   14.04 
  11   6  -5   42.00   12.79 
 -11  -6   5   88.22   15.05 
 -11   6   4   48.65   13.23 
  11   6  -4   40.22   12.39 
 -11  -6   4   73.65   14.05 
 -11   6   3    4.52   10.11 
  11   6  -3   -2.78   10.22 
 -11   6   3    1.71    9.11 
 -11  -6   3    0.51   10.02 
 -11   6   2   49.12   12.34 
  11   6  -2   42.42   12.46 
 -11   6   2   44.84   11.52 
 -11  -6   2   26.11   11.17 
 -11   6   1    4.06   11.41 
  11   6  -1    7.64   10.69 
 -11   6   1    2.71    9.38 
 -11  -6   1   14.69   11.11 
 -11   6   0  104.38   14.65 
  11   6   0  106.55   15.34 
 -11   6   0   94.10   12.67 
 -11  -6   0  117.11   14.98 
 -11   6  -1   78.34   13.74 
  11   6   1   72.53   14.62 
 -11   6  -1   75.13   12.61 
 -11  -6  -1   76.16   12.84 
 -11   6  -2   11.96   11.71 
  11   6   2    6.89   12.73 
 -11   6  -2   15.89   11.91 
 -11  -6  -2   10.64   10.68 
 -11   6  -3   22.53   12.68 
  11   6   3   23.13   12.24 
 -11   6  -3   23.32   11.72 
 -11  -6  -3   20.93   10.40 
 -11   6  -4  207.98   18.35 
 -11   6  -4  210.19   17.06 
 -11  -6  -4  212.32   17.26 
 -11   6  -5   47.07   14.28 
 -11   6  -5   44.22   12.53 
 -11  -6  -5   26.84   12.47 
 -11   6  -6   15.45   12.66 
 -11   6  -6    7.39   11.30 
 -11   6  -7   29.06   13.03 
 -11   6  -7   25.92   12.62 
  11   7  -7   58.17   14.18 
 -11  -7   7   59.43   15.05 
  11   7  -6    8.60   11.71 
 -11  -7   6   11.28   14.53 
  11   7  -5   11.74   11.21 
 -11  -7   5    4.80   12.04 
  11   7  -4   97.13   14.35 
 -11  -7   4   94.13   15.79 
  11   7  -3   82.44   13.35 
 -11  -7   3   88.83   15.85 
  11   7  -2   23.00   11.92 
 -11  -7   2   32.37   14.12 
 -11   7   1   24.31   12.54 
  11   7  -1   31.75   12.65 
 -11  -7   1   22.83   12.40 
 -11   7   0   16.49   13.05 
  11   7   0    9.71   13.12 
 -11   7   0   16.78   10.62 
 -11  -7   0   11.31   10.84 
 -11   7  -1   33.89   12.47 
  11   7   1   42.11   13.60 
 -11   7  -1   42.10   11.47 
 -11  -7  -1   16.83   11.53 
 -11   7  -2   29.47   14.01 
 -11   7  -2   32.31   12.18 
  11   7   2   35.07   13.27 
 -11   7  -3   15.53   14.81 
 -11   7  -3   15.73   12.69 
  11   7   3   10.42   14.17 
 -12   0  16   46.40   14.73 
 -12   0  16   66.99   14.32 
  12   0 -16   56.19   14.68 
 -12   0  15  160.48   17.05 
 -12   0  15  171.21   18.38 
  12   0 -15  163.94   16.69 
 -12   0  14   50.33   13.60 
 -12   0  14   45.70   12.93 
  12   0 -14   55.12   12.88 
 -12   0  13   41.58   13.06 
 -12   0  13   47.88   13.45 
  12   0 -13   48.16   12.09 
 -12   0  12    1.14   10.50 
 -12   0  12    2.17    9.19 
  12   0 -12   -0.62   10.69 
 -12   0  11   10.15   10.73 
 -12   0  11   15.51   12.31 
  12   0 -11   13.22   10.19 
 -12   0  10   97.21   12.86 
 -12   0  10   96.03   13.56 
  12   0 -10  104.61   13.10 
 -12   0   9  216.09   16.35 
 -12   0   9  208.58   16.96 
  12   0  -9  205.84   15.48 
 -12   0   8  482.79   22.42 
 -12   0   8  460.92   23.27 
  12   0  -8  464.56   21.58 
 -12   0   7   13.28    7.53 
 -12   0   7   21.01    9.34 
  12   0  -7   15.81    8.17 
 -12   0   6   16.06    8.37 
 -12   0   6   14.40    9.10 
  12   0  -6   14.52    8.62 
 -12   0   5  246.75   17.14 
 -12   0   5  233.32   16.79 
  12   0  -5  238.56   16.04 
 -12   0   4  673.64   28.77 
 -12   0   4  665.43   30.21 
  12   0  -4  696.05   29.73 
 -12   0   3  155.06   15.07 
 -12   0   3  158.16   13.06 
 -12   0   3  158.90   14.90 
  12   0  -3  153.35   13.93 
 -12   0   2   17.80    8.65 
 -12   0   2   23.53    7.28 
 -12   0   2   20.72    9.94 
  12   0  -2   22.57    9.04 
 -12   0   1  706.65   33.34 
 -12   0   1  707.26   30.02 
 -12   0   1  709.49   31.69 
  12   0  -1  699.31   30.18 
 -12   0   0  191.82   16.80 
 -12   0   0  184.44   14.17 
 -12   0   0  194.57   15.84 
  12   0   0  201.96   15.91 
 -12   0  -1  154.81   14.91 
 -12   0  -1  159.17   13.18 
  12   0   1  170.86   15.11 
 -12   0  -2    3.84    6.88 
 -12   0  -2    3.31    6.72 
  12   0   2    0.17    8.34 
 -12   0  -3   -0.66    6.76 
 -12   0  -3   -0.54    6.30 
 -12   0  -3    2.02    8.10 
  12   0   3    3.69    8.30 
 -12   0  -4    5.17    7.46 
 -12   0  -4    0.27    9.72 
  12   0   4    7.33    8.39 
 -12   0  -5  272.72   17.65 
 -12   0  -5  270.56   18.73 
 -12   0  -5  280.68   18.95 
 -12   0  -6   12.03    9.98 
 -12   0  -6   10.44    9.66 
 -12   0  -7  332.65   19.76 
 -12   0  -7  316.05   21.11 
 -12   0  -8   27.27   12.08 
 -12   0  -8   19.56   10.64 
 -12   0  -9   12.15   11.94 
 -12   0  -9   16.75   11.27 
 -12   0 -10   67.56   12.63 
 -12   0 -10   69.99   14.37 
 -12   0 -11  195.25   17.98 
 -12   0 -11  206.39   19.01 
 -12   0 -12   -2.10   11.55 
 -12   0 -12   -1.67   12.29 
  12   1 -16  109.46   15.71 
 -12   1  16  112.92   17.34 
 -12  -1  16  115.50   15.69 
  12  -1 -16  125.87   16.36 
 -12  -1  16  127.88   17.42 
 -12   1  15   22.43   13.69 
 -12   1  15   29.60   11.83 
 -12  -1  15   15.08   14.25 
 -12  -1  15   20.92   13.97 
  12  -1 -15   11.16   12.73 
 -12   1  14   22.82   12.75 
 -12   1  14   22.71   12.96 
 -12  -1  14   10.98   11.69 
 -12  -1  14   14.89   12.67 
  12  -1 -14   16.30   11.07 
 -12   1  13  158.64   16.28 
 -12   1  13  152.97   15.45 
 -12  -1  13  152.94   16.97 
 -12  -1  13  154.43   17.39 
  12  -1 -13  149.76   15.67 
 -12   1  12  223.91   18.58 
 -12   1  12  222.39   17.44 
 -12  -1  12  269.68   20.36 
 -12  -1  12  244.32   19.17 
  12  -1 -12  261.42   17.89 
 -12   1  11  392.44   22.17 
 -12   1  11  375.84   21.15 
 -12  -1  11  336.79   21.58 
 -12  -1  11  345.43   21.35 
  12  -1 -11  355.48   19.54 
 -12   1  10    6.80    9.44 
 -12   1  10    6.74    9.96 
  12   1 -10    3.53    8.58 
 -12  -1  10    0.59    8.68 
 -12  -1  10    3.84   10.68 
  12  -1 -10    3.15    9.25 
 -12   1   9   93.40   12.99 
 -12   1   9   96.04   13.47 
  12   1  -9   93.49   12.80 
 -12  -1   9  103.23   13.77 
 -12  -1   9  105.26   13.89 
  12  -1  -9  102.30   12.02 
 -12   1   8  638.32   25.67 
 -12   1   8  602.26   26.32 
  12   1  -8  608.06   24.55 
 -12  -1   8  669.44   27.61 
 -12  -1   8  691.99   28.50 
  12  -1  -8  714.10   25.80 
 -12   1   7  732.02   28.39 
 -12  -1   7  581.97   25.72 
 -12  -1   7  562.88   24.49 
  12  -1  -7  583.57   23.82 
 -12   1   6  186.71   14.99 
 -12   1   6  195.57   15.89 
  12   1  -6  199.76   15.88 
 -12  -1   6  160.69   15.77 
 -12  -1   6  159.62   16.94 
  12  -1  -6  161.69   15.34 
 -12   1   5  394.94   19.61 
 -12   1   5  398.47   21.55 
  12   1  -5  397.97   20.22 
 -12  -1   5  367.03   20.17 
 -12  -1   5  390.15   21.61 
  12  -1  -5  381.51   19.27 
 -12   1   4  292.09   18.58 
 -12   1   4  308.20   20.49 
  12   1  -4  289.96   19.02 
 -12  -1   4  292.58   18.43 
 -12  -1   4  294.12   19.62 
  12  -1  -4  302.45   18.70 
 -12   1   3  224.87   17.76 
 -12   1   3  221.67   17.08 
 -12   1   3  220.28   15.78 
  12   1  -3  211.15   15.29 
 -12  -1   3  167.85   14.27 
 -12  -1   3  178.08   15.36 
  12  -1  -3  172.51   14.02 
 -12  -1   3  175.73   15.67 
 -12   1   2   34.96    9.11 
 -12   1   2   39.60   10.16 
 -12   1   2   36.69    8.23 
  12   1  -2   35.27    9.69 
 -12  -1   2   34.63    7.78 
 -12  -1   2   40.83   10.13 
  12  -1  -2   38.54    9.99 
 -12  -1   2   37.22    9.17 
 -12   1   1  749.24   34.29 
 -12   1   1  746.37   30.66 
  12   1  -1  737.43   31.87 
 -12   1   1  775.16   32.38 
 -12  -1   1  768.70   35.22 
  12  -1  -1  761.38   30.89 
 -12  -1   1  795.21   31.36 
 -12   1   0  259.56   20.05 
 -12   1   0  248.63   17.39 
  12   1   0  256.91   18.07 
 -12   1   0  252.32   17.56 
 -12  -1   0  295.92   20.50 
  12  -1   0  291.80   18.87 
 -12  -1   0  310.89   18.32 
 -12   1  -1   38.32   10.22 
 -12   1  -1   41.16   10.76 
 -12   1  -1   42.43    9.58 
  12   1   1   46.35   10.43 
 -12  -1  -1   42.75    8.38 
 -12  -1  -1   39.61   11.05 
  12  -1   1   41.41    8.81 
 -12  -1  -1   42.29    9.65 
 -12   1  -2  256.62   18.81 
 -12   1  -2  250.96   17.06 
 -12   1  -2  258.43   17.48 
  12   1   2  253.17   17.63 
 -12  -1  -2  278.44   18.11 
 -12  -1  -2  303.69   18.58 
  12  -1   2  294.52   18.22 
 -12  -1  -2  302.30   18.67 
 -12   1  -3  696.93   28.71 
 -12   1  -3  701.55   27.49 
 -12   1  -3  659.53   25.95 
  12   1   3  715.26   27.33 
 -12  -1  -3  707.15   25.98 
 -12  -1  -3  697.69   27.97 
  12  -1   3  736.87   26.86 
 -12   1  -4  320.15   19.74 
 -12  -1  -4  362.85   19.34 
 -12  -1  -4  361.79   20.32 
 -12  -1  -4  370.28   21.69 
  12  -1   4  349.42   19.48 
 -12   1  -5   70.86   11.18 
 -12  -1  -5   52.98   10.04 
 -12  -1  -5   54.46   11.19 
 -12  -1  -5   61.24   12.90 
  12  -1   5   50.93   10.83 
 -12   1  -6  353.50   21.15 
 -12   1  -6  359.57   20.90 
 -12  -1  -6  377.00   20.91 
 -12  -1  -6  345.33   19.35 
  12  -1   6  354.28   23.14 
 -12  -1  -6  354.80   21.04 
 -12   1  -7  169.93   16.50 
 -12   1  -7  176.85   16.46 
 -12  -1  -7  150.42   15.97 
 -12  -1  -7  144.89   15.93 
 -12   1  -8   70.18   13.09 
 -12   1  -8   73.52   13.65 
 -12  -1  -8   47.48   11.42 
 -12  -1  -8   43.48   12.14 
 -12   1  -9   45.69   13.94 
 -12  -1  -9   26.30   12.16 
 -12  -1  -9   29.61   12.33 
 -12   1 -10   28.73   11.36 
 -12  -1 -10   28.98   10.99 
 -12  -1 -10   29.43   12.72 
 -12   1 -11   37.49   12.72 
 -12  -1 -11   36.67   14.08 
 -12  -1 -11   36.39   13.69 
  12   2 -15   69.24   15.45 
 -12   2  15   77.95   15.52 
 -12  -2  15   83.93   15.86 
  12  -2 -15   90.96   14.82 
 -12  -2  15   92.39   16.67 
  12   2 -14   47.88   12.45 
 -12   2  14   50.42   14.54 
 -12  -2  14   19.35   13.92 
  12  -2 -14   19.18   11.55 
 -12  -2  14   19.52   13.34 
 -12   2  13   52.06   12.57 
 -12   2  13   44.94   11.51 
  12   2 -13   51.28   13.76 
 -12  -2  13   33.61   11.70 
 -12  -2  13   35.64   13.52 
  12  -2 -13   35.00   11.60 
 -12   2  12   40.57   12.49 
 -12   2  12   40.20   11.51 
  12   2 -12   45.86   13.20 
 -12  -2  12   46.33   13.02 
 -12  -2  12   41.43   14.26 
  12  -2 -12   47.17   13.11 
 -12   2  11  109.99   14.17 
 -12   2  11  107.49   14.45 
  12   2 -11  112.48   14.58 
 -12  -2  11   87.75   13.53 
 -12  -2  11   90.64   14.21 
  12  -2 -11   89.42   12.74 
 -12   2  10  251.49   17.57 
 -12   2  10  249.21   17.89 
  12   2 -10  243.30   18.02 
 -12  -2  10  187.72   16.86 
 -12  -2  10  191.04   17.52 
  12  -2 -10  202.76   15.63 
 -12   2   9  307.00   18.75 
 -12   2   9  289.81   19.70 
 -12  -2   9  291.37   19.87 
 -12  -2   9  308.72   21.23 
  12  -2  -9  306.30   17.57 
 -12   2   8  200.11   15.27 
 -12   2   8  199.08   17.09 
 -12  -2   8  137.56   14.51 
 -12  -2   8  141.88   15.96 
  12  -2  -8  144.96   13.95 
 -12   2   7   36.11   10.58 
 -12   2   7   40.12   11.60 
 -12  -2   7   33.98   10.26 
 -12  -2   7   36.11   10.80 
  12  -2  -7   39.16    9.28 
 -12   2   6   75.23   10.85 
 -12   2   6   78.06   11.74 
 -12  -2   6   66.64   11.25 
 -12  -2   6   78.61   12.60 
  12  -2  -6   76.76   11.05 
 -12   2   5   46.97    9.91 
 -12   2   5   52.76   11.51 
 -12  -2   5  114.00   13.76 
 -12  -2   5  120.06   14.94 
  12  -2  -5  119.37   12.44 
  12   2  -4  167.34   16.07 
 -12   2   4  193.49   15.04 
 -12   2   4  199.61   15.84 
  12  -2  -4  214.13   14.67 
 -12  -2   4  211.35   16.77 
 -12   2   3  103.22   13.06 
  12   2  -3   99.72   12.82 
 -12   2   3  100.59   13.11 
 -12  -2   3  142.06   15.40 
  12  -2  -3  136.12   13.70 
 -12  -2   3  145.72   15.18 
 -12   2   2  110.23   13.30 
 -12   2   2  114.95   14.28 
  12   2  -2  108.13   13.20 
 -12  -2   2  108.24   16.22 
 -12  -2   2   92.42   15.80 
  12  -2  -2  103.69   11.68 
  12  -2  -2   91.00   11.55 
 -12   2   1   53.65    9.87 
  12   2  -1   54.06   10.33 
 -12   2   1   54.58   10.78 
  12  -2  -1   91.24   11.81 
  12  -2  -1   84.42   11.39 
 -12  -2   1   90.87   13.54 
 -12   2   0  525.71   23.78 
  12   2   0  513.80   23.62 
 -12   2   0  536.87   23.83 
  12  -2   0  561.05   24.37 
  12  -2   0  542.37   23.04 
 -12  -2   0  565.03   25.03 
 -12   2  -1  280.65   17.70 
  12   2   1  291.70   18.73 
 -12   2  -1  262.79   17.57 
  12  -2   1  180.36   16.72 
  12  -2   1  199.83   14.98 
 -12  -2  -1  199.63   17.19 
 -12   2  -2  117.59   12.53 
  12   2   2  118.69   14.04 
 -12   2  -2  116.87   13.73 
  12  -2   2   85.82   11.06 
  12  -2   2   96.70   11.48 
 -12  -2  -2   98.04   13.21 
 -12   2  -3   11.85    9.28 
  12   2   3   11.31    9.01 
 -12   2  -3   10.87   10.56 
  12  -2   3    9.02    7.36 
  12  -2   3   11.80    7.86 
 -12  -2  -3   14.26    9.94 
 -12   2  -4   99.00   13.30 
 -12   2  -4  100.99   12.93 
 -12  -2  -4   72.52   12.02 
 -12  -2  -4   80.71   12.67 
  12  -2   4   71.76   10.85 
 -12   2  -5  239.30   17.74 
 -12   2  -5  240.50   16.45 
 -12  -2  -5  201.97   16.20 
 -12  -2  -5  207.18   18.01 
  12  -2   5  201.55   15.52 
 -12  -2  -6  181.99   15.89 
 -12  -2  -6  182.83   17.22 
  12  -2   6  180.41   14.93 
  12  -2   7    5.74   11.70 
 -12  -2  -7   10.99    9.58 
 -12  -2  -7    8.68   10.38 
 -12   2  -8   55.65   12.67 
 -12  -2  -8   63.81   11.95 
  12  -2   8   63.51   13.97 
 -12  -2  -8   59.25   12.74 
 -12   2  -9   10.12   12.19 
 -12  -2  -9    7.31   11.18 
  12  -2   9    5.93   10.73 
 -12  -2  -9    8.65   13.01 
 -12   2 -10   20.15   11.96 
 -12  -2 -10   31.52   11.68 
 -12  -2 -10   29.22   13.83 
 -12   2 -11    6.59   12.39 
 -12  -2 -11   23.76   12.43 
 -12  -2 -11   21.02   13.33 
  12   3 -15   18.82   12.55 
 -12   3  15   18.60   12.53 
 -12  -3  15   15.35   16.47 
  12  -3 -15   20.23   11.99 
 -12  -3  15   12.91   12.54 
  12   3 -14   45.30   13.10 
 -12   3  14   43.00   12.72 
 -12  -3  14   61.81   15.61 
  12  -3 -14   48.81   12.66 
 -12  -3  14   52.45   14.21 
  12   3 -13  120.67   13.76 
 -12   3  13  117.78   14.44 
 -12  -3  13  126.41   17.67 
  12  -3 -13  130.58   15.45 
 -12  -3  13  129.92   16.30 
  12   3 -12   31.11   11.72 
 -12   3  12   34.40   13.29 
 -12  -3  12   32.05   14.50 
  12  -3 -12   34.89   12.03 
 -12  -3  12   35.88   12.70 
  12   3 -11   41.16   10.90 
 -12   3  11   38.39   10.85 
 -12  -3  11   24.87   14.37 
  12  -3 -11   27.57   11.75 
 -12  -3  11   20.39   11.34 
 -12   3  10   22.96   10.26 
 -12   3  10   22.30    9.72 
  12   3 -10   26.47   13.18 
 -12  -3  10   12.62   10.08 
 -12  -3  10   16.12   14.00 
  12  -3 -10   17.08   10.12 
 -12   3   9   18.90    9.75 
 -12   3   9   14.23   10.50 
  12   3  -9   19.60   10.12 
 -12  -3   9   24.22   10.48 
 -12  -3   9   20.95   13.81 
  12  -3  -9   22.37   11.17 
 -12   3   8  245.72   17.76 
 -12   3   8  245.32   18.50 
  12   3  -8  259.97   18.12 
 -12  -3   8  245.85   18.76 
 -12  -3   8  272.04   20.08 
  12  -3  -8  273.34   17.82 
 -12   3   7  620.66   26.04 
 -12   3   7  624.75   24.73 
 -12  -3   7  464.28   24.79 
  12  -3  -7  494.90   22.46 
  12   3  -6  437.38   21.89 
 -12   3   6  456.65   21.52 
 -12   3   6  463.90   22.93 
  12  -3  -6  407.91   20.16 
 -12  -3   6  416.16   23.17 
  12   3  -5  246.37   17.42 
 -12   3   5  251.79   16.78 
 -12   3   5  257.52   17.90 
  12  -3  -5  219.97   15.49 
 -12  -3   5  233.38   18.31 
 -12   3   4    6.75    9.15 
  12   3  -4    7.76    9.39 
 -12   3   4    5.20    8.55 
  12  -3  -4    5.88    6.44 
  12  -3  -4    7.13    7.50 
 -12  -3   4    9.78   10.63 
 -12   3   3  252.59   16.92 
 -12   3   3  257.20   17.25 
 -12  -3   3  224.73   18.52 
  12  -3  -3  216.41   15.89 
  12  -3  -3  229.93   15.19 
 -12   3   2  519.07   23.76 
 -12   3   2  523.25   24.06 
 -12  -3   2  636.90   27.07 
  12  -3  -2  612.81   25.02 
  12  -3  -2  632.13   23.80 
 -12   3   1   51.02   10.30 
 -12   3   1   46.63   11.79 
 -12  -3   1   88.96   12.81 
  12  -3  -1   97.92   11.32 
 -12   3   0   -1.90    9.05 
 -12   3   0   -0.60    8.93 
 -12  -3   0    6.82   10.50 
  12  -3   0    2.31    7.11 
 -12   3  -1   73.51   12.96 
 -12   3  -1   70.55   12.71 
 -12  -3  -1   51.72   12.49 
  12  -3   1   54.24    9.08 
 -12   3  -2  163.98   16.01 
 -12   3  -2  151.23   15.40 
  12   3   2  143.94   15.31 
 -12  -3  -2  208.84   17.72 
  12  -3   2  212.45   15.00 
 -12   3  -3   45.25   10.74 
 -12   3  -3   48.15   11.44 
  12   3   3   51.32   12.01 
 -12  -3  -3   63.73   12.85 
  12  -3   3   62.77   10.00 
 -12   3  -4  151.69   14.64 
 -12   3  -4  145.00   14.75 
 -12  -3  -4  173.95   15.80 
 -12  -3  -4  176.66   16.48 
  12  -3   4  170.14   13.98 
 -12   3  -5  146.90   15.25 
 -12   3  -5  140.94   15.78 
 -12  -3  -5  138.86   15.25 
 -12  -3  -5  139.69   17.09 
  12  -3   5  138.61   13.15 
 -12   3  -6   31.87   10.37 
 -12   3  -6   28.78   11.31 
 -12  -3  -6   32.80   11.91 
 -12  -3  -6   28.09   12.04 
 -12   3  -7   61.27   14.53 
 -12  -3  -7   49.23   11.98 
  12  -3   7   43.66   13.68 
 -12  -3  -7   36.25   12.25 
  12  -3   8  150.44   18.48 
 -12  -3  -8  145.06   15.94 
 -12  -3  -8  148.96   17.49 
  12  -3   9  110.83   17.56 
 -12  -3  -9  102.95   14.55 
 -12  -3  -9  101.20   15.79 
 -12   3 -10   10.15   11.33 
 -12  -3 -10   12.10   11.13 
  12  -3  10   16.84   13.31 
 -12  -3 -10    7.77   12.81 
  12   4 -14   32.19   13.70 
  12  -4 -14   22.09   12.17 
 -12  -4  14   25.01   13.69 
  12   4 -13   57.52   13.31 
 -12   4  13   53.39   12.97 
 -12  -4  13   73.78   18.19 
  12  -4 -13   75.12   13.68 
 -12  -4  13   69.20   14.96 
  12   4 -12   74.34   14.43 
 -12   4  12   56.33   14.42 
 -12  -4  12   68.87   15.77 
  12  -4 -12   67.85   14.34 
 -12  -4  12   59.80   13.35 
  12   4 -11   52.58   12.64 
 -12   4  11   50.72   11.79 
 -12  -4  11   60.42   15.35 
  12  -4 -11   54.34   12.73 
 -12  -4  11   46.90   13.88 
 -12   4  10   95.63   13.55 
  12   4 -10   90.74   13.60 
  12  -4 -10  121.61   14.71 
 -12  -4  10  119.92   16.06 
 -12   4   9  111.38   13.69 
  12   4  -9  104.20   13.28 
  12  -4  -9  141.38   15.23 
 -12   4   8   31.99   10.57 
 -12   4   8   30.37   10.81 
  12   4  -8   34.80   12.22 
  12  -4  -8   19.48    9.96 
 -12   4   7  141.38   14.97 
 -12   4   7  132.62   13.80 
  12   4  -7  136.48   15.17 
 -12  -4   7  129.49   14.80 
  12  -4  -7  139.47   14.11 
 -12   4   6  216.57   16.60 
 -12   4   6  205.60   15.92 
  12   4  -6  223.52   17.06 
 -12  -4   6  230.73   18.31 
  12  -4  -6  236.16   17.19 
 -12   4   5   36.78   11.94 
 -12   4   5   37.85   10.55 
  12   4  -5   35.50   10.77 
 -12  -4   5   47.56   11.65 
  12  -4  -5   51.88   10.47 
 -12   4   4   62.44   12.11 
 -12   4   4   66.12   12.09 
  12   4  -4   61.73   12.18 
 -12  -4   4   47.77   13.08 
  12  -4  -4   49.91   10.55 
 -12   4   3   17.69    9.92 
 -12   4   3   22.67    9.91 
  12   4  -3   19.98    9.84 
 -12  -4   3   17.35   10.60 
  12  -4  -3   17.79    8.30 
 -12   4   2   14.10    9.59 
 -12   4   2   14.61    9.05 
  12   4  -2   13.90   11.35 
 -12  -4   2   18.37    9.98 
  12  -4  -2   18.34    7.59 
 -12   4   1   43.02   11.56 
 -12   4   1   42.17   10.97 
  12   4  -1   40.45   11.84 
 -12  -4   1   68.07   13.59 
  12  -4  -1   56.13    9.65 
 -12   4   0  160.05   14.85 
  12   4   0  162.73   16.08 
 -12   4   0  169.88   14.89 
 -12  -4   0  137.53   15.90 
 -12   4  -1  242.48   17.51 
  12   4   1  259.38   18.50 
 -12   4  -1  237.09   17.24 
 -12  -4  -1  305.83   20.12 
 -12   4  -2  130.06   13.95 
  12   4   2  120.50   14.62 
 -12   4  -2  133.30   14.64 
 -12  -4  -2  146.34   15.92 
 -12   4  -3   47.07   12.06 
 -12   4  -3   43.37   12.40 
 -12  -4  -3   46.17   11.28 
 -12   4  -4   48.73   12.98 
 -12   4  -4   45.45   12.52 
 -12  -4  -4   52.41   11.62 
 -12  -4  -4   47.16   13.04 
 -12   4  -5   93.60   14.44 
 -12   4  -5   80.29   13.91 
 -12  -4  -5  114.30   14.81 
 -12  -4  -5  109.55   16.45 
 -12   4  -6  197.31   17.41 
 -12   4  -6  187.81   17.33 
 -12  -4  -6  166.23   15.63 
 -12  -4  -6  167.59   17.55 
 -12   4  -7   53.83   11.90 
 -12   4  -7   58.87   13.91 
 -12  -4  -7   33.06   11.07 
 -12  -4  -7   29.00   13.54 
 -12   4  -8   29.86   13.37 
 -12  -4  -8   26.77   11.53 
  12  -4   8   23.67   13.61 
 -12  -4  -8   23.15   14.59 
 -12   4  -9    3.08   12.09 
 -12  -4  -9    1.21   10.36 
  12  -4   9   -4.15   14.02 
 -12  -4  -9   -0.73   14.72 
 -12   5  12   98.06   15.70 
  12   5 -12   99.54   13.74 
  12  -5 -12   83.02   13.96 
 -12  -5  12   71.59   15.91 
 -12   5  11    4.38   11.40 
  12   5 -11    1.84   11.05 
  12  -5 -11    9.69   11.35 
 -12   5  10   40.77   12.55 
  12   5 -10   38.49   12.30 
  12  -5 -10   39.16   11.70 
 -12   5   9   66.26   13.02 
  12   5  -9   66.49   13.05 
  12  -5  -9   66.93   12.75 
 -12  -5   9   54.70   15.32 
 -12   5   8  159.63   16.39 
  12   5  -8  160.42   15.57 
  12  -5  -8  138.28   14.46 
 -12  -5   8  136.14   18.60 
 -12   5   7  207.62   17.42 
  12   5  -7  199.67   17.19 
 -12  -5   7  174.48   18.37 
 -12   5   6  171.65   16.51 
  12   5  -6  162.62   16.08 
 -12   5   6  158.51   15.00 
 -12  -5   6  154.04   17.05 
 -12   5   5   16.28   12.52 
  12   5  -5   12.38   11.93 
 -12   5   5   16.99    9.33 
 -12  -5   5    8.41   11.06 
 -12   5   4  125.52   14.85 
  12   5  -4  113.03   14.42 
 -12   5   4  113.26   13.16 
 -12  -5   4  117.55   16.03 
 -12   5   3  258.34   18.21 
  12   5  -3  277.11   18.67 
 -12   5   3  267.78   17.54 
 -12  -5   3  314.17   20.29 
 -12   5   2  217.68   17.47 
  12   5  -2  210.64   17.19 
 -12   5   2  207.76   17.00 
 -12  -5   2  220.60   17.84 
 -12   5   1   59.44   13.52 
  12   5  -1   53.56   14.28 
 -12   5   1   55.79   11.84 
 -12  -5   1   72.72   12.67 
 -12   5   0   48.90   12.40 
  12   5   0   53.03   13.26 
 -12   5   0   51.30   12.18 
 -12  -5   0   43.87   12.09 
 -12   5  -1   16.44   10.61 
  12   5   1   15.82   11.03 
 -12   5  -1   14.05   10.39 
 -12  -5  -1    9.84   11.24 
 -12   5  -2   80.91   13.47 
  12   5   2   83.87   14.13 
 -12   5  -2   83.17   13.91 
 -12  -5  -2   67.44   13.47 
 -12   5  -3   69.23   13.40 
  12   5   3   61.41   14.53 
 -12   5  -3   66.86   12.80 
 -12  -5  -3   59.80   13.68 
 -12   5  -4  169.31   17.43 
 -12   5  -4  180.23   16.73 
 -12  -5  -4  163.27   15.74 
 -12   5  -5   46.62   13.62 
 -12   5  -5   45.31   13.28 
 -12  -5  -5   65.27   13.09 
 -12  -5  -5   72.04   15.47 
 -12   5  -6    5.29   11.06 
 -12   5  -6   11.12   11.55 
 -12  -5  -6    1.75   10.65 
 -12  -5  -6    5.92   13.64 
 -12   5  -7   81.50   15.58 
 -12   5  -7   76.06   13.81 
 -12  -5  -7  100.05   16.72 
 -12   5  -8   40.40   13.46 
 -12   5  -8   37.38   13.35 
 -12   6   9   12.02   13.14 
  12   6  -9   18.84   12.35 
 -12  -6   9   35.77   15.35 
 -12   6   8   61.09   13.98 
  12   6  -8   52.10   12.87 
 -12  -6   8   69.02   15.42 
 -12   6   7   13.21   12.99 
  12   6  -7   13.97   11.36 
 -12  -6   7   17.44   12.60 
 -12   6   6   -0.93   10.94 
  12   6  -6    6.12   12.64 
 -12  -6   6    5.41   13.86 
 -12   6   5  293.24   19.58 
  12   6  -5  304.52   19.65 
 -12  -6   5  327.53   22.23 
 -12   6   4  174.89   16.81 
  12   6  -4  157.79   16.05 
 -12  -6   4  181.52   18.05 
 -12   6   3   48.32   12.63 
  12   6  -3   52.39   14.25 
 -12   6   3   41.85   10.65 
 -12  -6   3   52.55   13.03 
 -12   6   2    0.02   10.38 
  12   6  -2    5.04   11.84 
 -12   6   2    1.63   10.01 
 -12  -6   2    4.68   11.24 
 -12   6   1  237.94   18.90 
  12   6  -1  244.07   18.75 
 -12   6   1  231.93   17.70 
 -12  -6   1  227.32   18.46 
 -12   6   0  108.99   15.34 
  12   6   0  110.34   15.67 
 -12   6   0  112.73   13.47 
 -12  -6   0   86.28   14.64 
 -12   6  -1  134.89   16.23 
  12   6   1  135.45   16.78 
 -12   6  -1  141.15   15.28 
 -12  -6  -1  122.32   16.10 
 -12   6  -2   20.98   13.13 
  12   6   2   20.85   13.03 
 -12   6  -2   20.20   10.20 
 -12  -6  -2    4.78   10.03 
 -12   6  -3   15.79   11.45 
  12   6   3   16.47   12.70 
 -12   6  -3   13.37   12.30 
 -12  -6  -3   12.20   10.69 
 -12   6  -4    2.92   11.48 
  12   6   4   -1.02   13.56 
 -12   6  -4    2.24   13.36 
 -12  -6  -4    4.61   10.60 
 -12   6  -5   53.12   13.95 
 -12   6  -5   55.19   13.85 
 -12   7   5   20.12   13.21 
  12   7  -5   27.34   13.84 
 -12  -7   5   12.69   14.09 
 -12   7   4   17.70   13.42 
  12   7  -4   20.36   12.22 
 -12  -7   4   29.60   12.56 
 -12   7   3   93.59   15.70 
  12   7  -3   87.91   15.35 
 -12  -7   3   80.52   14.85 
 -12   7   2  131.45   16.80 
  12   7  -2  125.02   15.36 
 -12  -7   2  104.66   15.28 
 -12   7   1   84.67   14.90 
  12   7  -1   95.52   14.53 
 -12  -7   1   87.47   14.59 
 -12   7   0   42.43   14.05 
  12   7   0   38.30   13.21 
 -12  -7   0   37.16   12.15 
 -13   0  15   29.20   13.98 
 -13   0  15   29.20   13.67 
  13   0 -15   26.33   13.41 
 -13   0  14   43.24   13.34 
 -13   0  14   30.08   12.36 
  13   0 -14   43.03   12.61 
 -13   0  13  240.63   19.47 
 -13   0  13  228.62   19.49 
  13   0 -13  225.52   16.75 
 -13   0  12  104.03   15.40 
 -13   0  12   98.29   14.69 
  13   0 -12  106.26   14.51 
 -13   0  11    3.33   10.44 
 -13   0  11    2.68    9.50 
  13   0 -11    6.24   10.10 
 -13   0  10  240.93   18.24 
 -13   0  10  231.77   17.89 
  13   0 -10  241.40   16.97 
 -13   0   9  503.20   24.00 
 -13   0   9  474.16   24.01 
  13   0  -9  507.40   22.74 
 -13   0   8   75.68   12.22 
 -13   0   8   75.41   13.41 
  13   0  -8   73.40   12.11 
 -13   0   7   40.21   10.11 
 -13   0   7   43.90   11.12 
  13   0  -7   37.69   10.26 
 -13   0   6  224.87   15.75 
 -13   0   6  216.89   17.38 
  13   0  -6  221.24   16.15 
 -13   0   5    2.11    7.16 
 -13   0   5    1.44    9.41 
  13   0  -5    6.55    9.60 
 -13   0   4  228.69   17.77 
 -13   0   4  231.68   15.80 
 -13   0   4  229.55   16.92 
  13   0  -4  228.93   16.27 
 -13   0   3  210.43   17.21 
 -13   0   3  225.41   15.43 
 -13   0   3  228.11   16.89 
  13   0  -3  229.33   15.91 
 -13   0   2   15.95    8.63 
 -13   0   2   13.95    7.50 
 -13   0   2   17.08   11.55 
  13   0  -2   15.33    9.20 
 -13   0   1  659.95   28.86 
 -13   0   1  673.58   25.11 
 -13   0   1  656.03   27.19 
  13   0  -1  649.76   25.75 
 -13   0   0   26.80    8.16 
 -13   0   0   29.80   11.02 
  13   0   0   31.53   10.52 
 -13   0  -1  195.33   16.12 
  13   0   1  205.65   16.48 
 -13   0  -2  249.76   16.34 
  13   0   2  251.53   17.68 
 -13   0  -3  382.25   19.86 
 -13   0  -3  360.97   21.41 
  13   0   3  394.37   21.14 
 -13   0  -4   47.89   10.12 
 -13   0  -4   54.51   11.89 
  13   0   4   50.46   11.55 
 -13   0  -5   41.68    9.61 
 -13   0  -5   48.00   12.63 
  13   0   5   46.59   11.11 
 -13   0  -6  227.51   16.47 
 -13   0  -6  230.86   18.36 
 -13   0  -6  223.25   18.40 
 -13   0  -7   25.78   12.45 
 -13   0  -7   24.00   11.42 
 -13   0  -8    4.46   11.22 
 -13   0  -8    3.93   11.67 
 -13   0  -9   11.29   13.59 
 -13   0  -9    6.31   10.89 
 -13   0 -10    5.76   10.65 
 -13   0 -10    9.29   12.21 
 -13   1  15   34.64   14.76 
 -13  -1  15   28.76   14.73 
 -13  -1  15   17.97   13.08 
  13  -1 -15   23.26   12.13 
 -13   1  14   41.09   14.98 
 -13   1  14   38.86   13.29 
 -13  -1  14   38.17   13.20 
 -13  -1  14   38.45   12.84 
  13  -1 -14   33.84   13.88 
 -13   1  13    4.91   11.33 
 -13   1  13    4.82   12.51 
 -13  -1  13    4.57   12.51 
 -13  -1  13    7.63   12.49 
  13  -1 -13    2.70   10.47 
 -13   1  12   96.22   14.70 
 -13   1  12   86.05   13.36 
  13   1 -12   86.86   13.40 
 -13  -1  12   74.17   13.87 
 -13  -1  12   63.03   14.30 
  13  -1 -12   65.45   12.38 
 -13   1  11  188.35   17.57 
 -13   1  11  173.92   16.73 
  13   1 -11  195.99   17.07 
 -13  -1  11  172.91   16.64 
 -13  -1  11  184.23   17.44 
  13  -1 -11  175.54   15.02 
 -13   1  10  239.25   17.49 
 -13   1  10  246.63   18.28 
  13   1 -10  248.24   17.87 
 -13  -1  10  246.14   18.38 
 -13  -1  10  262.36   19.10 
  13  -1 -10  257.26   17.31 
 -13   1   9   43.28   10.58 
 -13   1   9   43.51   12.19 
  13   1  -9   44.02   11.43 
 -13  -1   9   43.03   11.14 
 -13  -1   9   45.82   11.87 
  13  -1  -9   44.61   10.36 
 -13   1   8  145.84   14.30 
 -13   1   8  145.19   14.88 
  13   1  -8  158.37   14.34 
 -13  -1   8  146.75   14.96 
 -13  -1   8  140.21   16.13 
  13  -1  -8  137.79   14.32 
 -13   1   7  101.21   12.13 
 -13   1   7  107.64   13.49 
  13   1  -7   99.37   13.18 
 -13  -1   7  103.08   12.81 
 -13  -1   7   97.08   14.04 
  13  -1  -7  112.82   12.44 
 -13   1   6 1240.96   34.41 
 -13   1   6 1215.61   35.54 
  13   1  -6 1224.47   34.75 
 -13  -1   6 1261.02   37.67 
 -13  -1   6 1301.39   37.86 
  13  -1  -6 1300.18   35.59 
 -13   1   5  257.71   16.97 
 -13   1   5  262.03   18.34 
  13   1  -5  255.79   16.99 
 -13  -1   5  295.31   17.98 
 -13  -1   5  299.69   20.28 
  13  -1  -5  306.73   17.52 
 -13   1   4  226.82   15.78 
 -13   1   4  226.73   16.85 
  13   1  -4  241.21   16.34 
 -13  -1   4  224.84   16.21 
 -13  -1   4  240.59   18.03 
  13  -1  -4  231.06   16.05 
 -13   1   3  249.91   16.43 
 -13   1   3  250.25   17.65 
  13   1  -3  242.16   16.44 
 -13  -1   3  247.78   16.46 
 -13  -1   3  240.10   18.25 
  13  -1  -3  236.77   16.64 
 -13   1   2  187.70   14.56 
 -13   1   2  182.30   15.39 
  13   1  -2  185.85   14.69 
 -13  -1   2  189.55   13.87 
 -13  -1   2  167.24   15.26 
  13  -1  -2  190.22   14.49 
 -13   1   1  184.25   16.21 
 -13   1   1  182.13   14.43 
 -13   1   1  189.47   15.38 
  13   1  -1  185.57   15.31 
 -13   1   0  381.17   22.30 
 -13   1   0  377.96   20.31 
 -13   1   0  356.00   20.40 
  13   1   0  363.16   20.23 
 -13  -1   0  257.51   15.78 
 -13   1  -1   12.99    8.47 
 -13   1  -1   12.83    8.01 
 -13   1  -1   16.41    9.83 
  13   1   1   13.34    9.29 
 -13  -1  -1   35.94    7.98 
 -13  -1  -1   35.62   10.36 
  13  -1   1   34.45    9.88 
 -13   1  -2   26.20    9.03 
 -13   1  -2   23.44   11.28 
  13   1   2   28.36    9.45 
 -13  -1  -2   20.42    7.16 
 -13  -1  -2   24.86   10.69 
  13  -1   2   21.48    8.43 
 -13   1  -3   62.10   11.25 
 -13   1  -3   60.59   12.30 
  13   1   3   69.97   12.15 
 -13  -1  -3   71.39   12.49 
  13  -1   3   73.44   11.12 
 -13   1  -4  321.08   19.54 
  13   1   4  325.02   19.08 
  13  -1   4  279.86   17.98 
 -13  -1  -4  297.60   19.46 
 -13   1  -5   11.55    8.47 
 -13  -1  -5   -1.78   10.41 
 -13  -1  -5    1.01    9.72 
  13  -1   5    1.60    8.47 
 -13   1  -6   88.63   12.26 
 -13   1  -6   85.90   14.40 
 -13  -1  -6  117.69   14.24 
 -13  -1  -6  110.60   14.64 
  13  -1   6  102.58   13.36 
 -13   1  -7   21.33    9.91 
 -13   1  -7   15.87   11.03 
 -13  -1  -7   20.39   12.27 
 -13  -1  -7   21.14   13.22 
 -13   1  -8   58.11   14.02 
 -13  -1  -8   67.39   12.92 
 -13  -1  -8   68.38   14.47 
 -13   1  -9  172.20   16.00 
 -13  -1  -9  189.44   16.57 
 -13  -1  -9  194.48   19.55 
 -13   1 -10  155.34   18.28 
 -13  -1 -10  172.35   17.79 
 -13  -1 -10  173.84   18.29 
  13   2 -15   62.51   14.93 
  13  -2 -15   60.11   14.80 
  13   2 -14  176.44   16.91 
 -13   2  14  170.80   17.63 
 -13  -2  14  146.38   17.93 
  13  -2 -14  131.75   16.13 
 -13  -2  14  133.87   16.57 
  13   2 -13   97.33   14.61 
 -13   2  13   91.31   14.61 
 -13  -2  13  117.87   16.36 
  13  -2 -13  121.68   14.81 
 -13  -2  13  117.54   15.28 
 -13   2  12   68.18   13.04 
 -13   2  12   57.05   13.15 
  13   2 -12   57.22   12.12 
 -13  -2  12   81.13   14.06 
 -13  -2  12   99.27   17.23 
  13  -2 -12   89.56   13.06 
 -13   2  11    3.32    9.58 
 -13   2  11   -0.40    9.42 
 -13  -2  11    2.01   10.66 
 -13  -2  11    0.03   11.42 
  13  -2 -11   -2.05    9.89 
 -13   2  10   57.58   11.63 
 -13   2  10   61.49   11.87 
 -13  -2  10   51.62   12.07 
 -13  -2  10   47.99   13.15 
  13  -2 -10   47.98   10.66 
 -13   2   9  228.55   16.69 
 -13   2   9  233.64   17.67 
 -13  -2   9  290.61   19.40 
 -13  -2   9  293.47   20.70 
  13  -2  -9  279.95   17.75 
 -13   2   8  113.25   13.87 
 -13   2   8  110.08   13.56 
 -13  -2   8   93.76   13.03 
 -13  -2   8   89.43   14.40 
  13  -2  -8  101.53   12.67 
 -13   2   7  153.23   13.91 
 -13   2   7  159.26   15.73 
 -13  -2   7  147.05   14.85 
 -13  -2   7  166.96   15.97 
  13  -2  -7  159.22   13.63 
 -13   2   6    8.16    8.17 
 -13   2   6    5.11    9.56 
  13   2  -6    9.00    9.68 
 -13  -2   6    6.37    8.36 
 -13  -2   6    2.51   11.35 
  13  -2  -6    9.00    7.59 
 -13   2   5   79.32   11.21 
 -13   2   5   77.66   11.53 
  13   2  -5   75.47   13.09 
 -13  -2   5   87.56   12.30 
 -13  -2   5   94.96   14.27 
  13  -2  -5   92.03   12.03 
  13   2  -4  458.07   21.72 
 -13   2   4  458.59   21.69 
 -13   2   4  448.24   22.25 
  13  -2  -4  404.28   19.51 
 -13  -2   4  388.01   21.41 
  13   2  -3  334.67   19.43 
 -13   2   3  330.94   18.45 
 -13   2   3  337.44   19.41 
  13  -2  -3  295.09   16.85 
 -13  -2   3  302.86   19.93 
 -13   2   2  275.32   17.12 
 -13   2   2  271.40   18.06 
  13   2  -2  272.61   18.34 
 -13  -2   2  257.50   18.37 
  13  -2  -2  286.89   17.26 
 -13   2   1    9.06    8.17 
 -13   2   1   11.54   10.60 
  13   2  -1    9.28    9.73 
 -13  -2   1   18.42    9.67 
  13  -2  -1   19.86    8.60 
 -13   2   0  223.50   16.21 
 -13   2   0  214.33   16.30 
  13   2   0  203.05   16.08 
 -13  -2   0  171.07   16.49 
  13  -2   0  176.61   14.65 
 -13   2  -1  146.17   14.76 
 -13   2  -1  136.20   15.12 
  13   2   1  133.52   14.36 
 -13  -2  -1  188.66   16.97 
  13  -2   1  185.61   14.69 
 -13   2  -2  140.31   14.56 
 -13   2  -2  137.95   15.20 
  13   2   2  135.44   15.09 
 -13  -2  -2  200.56   17.02 
  13  -2   2  195.63   15.24 
 -13   2  -3  162.63   15.16 
 -13   2  -3  164.37   15.80 
  13   2   3  156.77   16.07 
 -13  -2  -3  176.93   16.30 
  13  -2   3  174.63   14.47 
 -13   2  -4   15.67    9.16 
 -13   2  -4   17.92   11.98 
  13   2   4   16.05   11.58 
 -13  -2  -4    7.37    9.53 
  13  -2   4    8.35    8.45 
 -13   2  -5   44.82   11.31 
 -13   2  -5   52.72   12.63 
 -13  -2  -5   54.26   13.06 
 -13  -2  -5   56.62   14.21 
  13  -2   5   50.37   11.04 
 -13   2  -6    8.39   10.39 
 -13  -2  -6   15.62   10.74 
 -13  -2  -6    7.67   11.72 
  13  -2   6   12.29    8.85 
 -13   2  -7  159.64   15.08 
 -13  -2  -7  152.02   15.31 
 -13  -2  -7  154.02   18.10 
  13  -2   7  139.51   14.43 
 -13   2  -8  206.96   18.25 
 -13  -2  -8  164.57   16.43 
 -13  -2  -8  167.93   18.53 
 -13   2  -9    3.09   10.66 
 -13  -2  -9    8.54   13.09 
 -13  -2  -9    1.15   12.81 
 -13   2 -10    4.38   13.41 
 -13  -2 -10   10.50   12.21 
 -13  -2 -10    2.91   13.21 
  13   3 -14   76.00   13.95 
 -13   3  14   76.38   14.85 
 -13  -3  14   73.61   15.90 
  13  -3 -14   76.29   14.10 
 -13  -3  14   59.28   14.56 
  13   3 -13   25.48   12.24 
 -13   3  13   30.00   12.49 
 -13  -3  13   25.33   14.58 
  13  -3 -13   21.36   12.48 
 -13  -3  13   25.08   12.63 
  13   3 -12   91.03   14.78 
 -13   3  12   82.94   13.14 
 -13  -3  12   80.02   16.51 
  13  -3 -12   81.83   13.13 
 -13  -3  12   71.83   14.56 
  13   3 -11  316.83   19.67 
 -13   3  11  314.80   19.45 
 -13  -3  11  303.19   22.74 
  13  -3 -11  303.03   19.31 
 -13  -3  11  281.10   20.58 
 -13   3  10  245.95   17.40 
 -13   3  10  245.74   17.63 
  13   3 -10  262.88   19.13 
 -13  -3  10  257.62   19.40 
 -13  -3  10  254.79   20.50 
  13  -3 -10  261.43   17.59 
 -13   3   9  113.92   13.62 
 -13   3   9  113.63   13.90 
  13   3  -9  130.28   15.24 
 -13  -3   9  145.56   15.73 
 -13  -3   9  158.52   16.38 
  13  -3  -9  162.87   14.61 
 -13   3   8  130.47   13.75 
 -13   3   8  123.59   13.98 
  13   3  -8  132.67   14.36 
 -13  -3   8  139.30   15.26 
  13  -3  -8  136.61   14.44 
 -13   3   7  241.64   16.92 
 -13   3   7  248.18   17.43 
  13   3  -7  247.06   18.07 
 -13  -3   7  196.16   16.89 
  13  -3  -7  219.35   16.29 
 -13   3   6  157.18   14.55 
 -13   3   6  160.09   15.01 
  13   3  -6  146.76   14.87 
  13  -3  -6  216.59   15.66 
 -13   3   5  468.49   22.59 
 -13   3   5  457.57   22.85 
  13  -3  -5  468.84   21.31 
 -13   3   4   96.91   13.39 
 -13   3   4   83.83   11.72 
 -13  -3   4   87.30   14.41 
  13  -3  -4   88.67   11.40 
 -13   3   3   85.03   12.95 
 -13   3   3   85.20   13.12 
 -13  -3   3   88.69   13.33 
  13  -3  -3   89.90   10.97 
 -13   3   2    9.28   10.09 
 -13   3   2    9.96   11.20 
 -13  -3   2    0.60   10.85 
  13  -3  -2    2.52    7.49 
 -13   3   1  312.11   19.61 
 -13   3   1  322.10   19.34 
 -13  -3   1  320.23   20.47 
  13  -3  -1  324.40   17.63 
 -13   3   0  195.84   16.39 
 -13   3   0  196.87   16.62 
  13   3   0  179.58   15.77 
 -13  -3   0  205.44   17.55 
  13  -3   0  195.76   14.42 
 -13   3  -1  157.60   15.75 
 -13   3  -1  157.07   15.18 
  13   3   1  150.29   15.23 
 -13  -3  -1  183.76   16.22 
  13  -3   1  172.68   13.63 
 -13   3  -2   44.38   12.18 
 -13   3  -2   50.32   12.43 
  13   3   2   42.03   12.27 
 -13  -3  -2   47.14   12.67 
  13  -3   2   39.70    9.40 
 -13   3  -3  158.74   15.88 
 -13   3  -3  152.70   15.09 
  13   3   3  160.97   16.57 
 -13  -3  -3  158.47   16.01 
  13  -3   3  153.57   13.42 
 -13   3  -4  215.59   17.64 
  13   3   4  231.33   18.11 
 -13   3  -4  225.06   18.06 
 -13  -3  -4  189.33   16.82 
 -13   3  -5   52.12   11.93 
 -13   3  -5   51.41   13.24 
 -13  -3  -5   61.10   13.06 
 -13  -3  -5   54.72   14.21 
 -13   3  -6    8.29    9.98 
 -13   3  -6    6.64   11.02 
 -13  -3  -6    8.81   12.34 
 -13  -3  -6   11.65   12.55 
 -13   3  -7   14.73   10.73 
 -13   3  -7   17.00   12.08 
 -13  -3  -7   13.46   11.66 
 -13  -3  -7   19.14   12.61 
 -13  -3  -8   24.69   11.20 
 -13  -3  -8   28.55   14.46 
 -13  -3  -9   34.88   11.96 
 -13  -3  -9   36.99   14.48 
 -13   4  12   36.74   11.69 
  13   4 -12   45.41   13.49 
  13  -4 -12   20.56   12.20 
 -13  -4  12   23.05   13.60 
 -13   4  11   11.43   11.80 
  13   4 -11    9.16   12.03 
  13  -4 -11    7.78   10.59 
 -13  -4  11   11.86   14.03 
 -13   4  10   24.12   11.63 
  13   4 -10   31.58   12.70 
  13  -4 -10   10.77    9.94 
 -13  -4  10   21.71   12.91 
 -13   4   9  149.50   15.28 
  13   4  -9  164.69   17.09 
  13  -4  -9  140.32   15.09 
 -13   4   8  169.21   15.43 
 -13   4   8  160.88   16.01 
  13   4  -8  168.77   15.99 
  13  -4  -8  156.15   15.30 
 -13   4   7   15.27   11.82 
 -13   4   7   11.88   10.24 
  13   4  -7   14.63   11.23 
 -13  -4   7   39.04   14.01 
  13  -4  -7   32.31   10.87 
 -13   4   6  219.77   16.86 
 -13   4   6  211.46   17.03 
  13   4  -6  226.82   17.85 
 -13  -4   6  224.42   18.70 
  13  -4  -6  230.30   16.54 
 -13   4   5   73.26   12.15 
 -13   4   5   64.70   11.64 
  13   4  -5   67.05   13.28 
 -13  -4   5   62.47   12.55 
  13  -4  -5   61.95   11.14 
 -13   4   4  221.07   17.40 
 -13   4   4  229.27   17.00 
  13   4  -4  224.14   17.00 
 -13  -4   4  235.02   19.32 
  13  -4  -4  252.15   16.98 
 -13   4   3  262.94   17.60 
 -13   4   3  279.07   18.93 
  13   4  -3  277.81   18.66 
 -13  -4   3  273.94   20.22 
  13  -4  -3  264.66   16.91 
 -13   4   2  210.68   16.01 
  13   4  -2  209.26   18.04 
 -13   4   2  195.94   16.45 
 -13  -4   2  207.14   18.37 
 -13   4   1   17.63   11.31 
  13   4  -1   18.13   10.51 
 -13   4   1   21.03   10.23 
 -13  -4   1    7.62   10.74 
 -13   4   0   36.74   12.11 
  13   4   0   31.18   12.57 
 -13   4   0   36.90   12.66 
 -13  -4   0   54.77   13.31 
 -13   4  -1  132.53   15.68 
 -13   4  -1  132.66   15.13 
 -13  -4  -1   99.40   15.34 
 -13   4  -2   12.36   10.36 
 -13   4  -2   12.83   11.80 
 -13  -4  -2    5.70   10.92 
 -13   4  -3   70.17   12.84 
 -13   4  -3   65.36   13.62 
 -13  -4  -3   64.07   12.95 
 -13   4  -4   81.38   13.23 
 -13   4  -4   84.47   14.05 
 -13  -4  -4   85.12   13.40 
 -13   4  -5   14.51   12.16 
 -13   4  -5   10.79   10.41 
 -13  -4  -5    7.69   10.95 
 -13  -4  -5   15.24   12.30 
 -13   4  -6   27.66   12.75 
 -13   4  -6   24.53   12.28 
 -13  -4  -6   15.11   11.60 
 -13  -4  -6    8.99   13.81 
 -13   4  -7  112.35   15.41 
 -13   4  -7  107.54   15.15 
 -13  -4  -7   84.54   14.87 
 -13  -4  -7   74.60   15.30 
 -13   4  -8  108.93   14.73 
 -13   4  -8  111.14   15.59 
 -13  -4  -8  140.29   16.25 
 -13  -4  -8  141.50   19.07 
 -13   5  11  132.11   16.46 
  13   5 -11  122.29   16.03 
 -13   5  10   29.46   12.19 
  13   5 -10   25.67   12.55 
 -13   5   9   27.03   13.40 
  13   5  -9   22.99   12.62 
 -13  -5   9   34.67   14.51 
 -13   5   8   48.33   12.62 
  13   5  -8   42.23   12.65 
 -13  -5   8   42.76   14.85 
 -13   5   7   92.26   14.16 
  13   5  -7   89.88   13.78 
 -13  -5   7   69.18   14.43 
 -13   5   6   75.34   13.75 
  13   5  -6   73.69   12.33 
 -13  -5   6   69.66   15.06 
 -13   5   5  360.17   21.58 
  13   5  -5  360.75   20.24 
 -13   5   5  346.48   19.74 
 -13  -5   5  318.42   21.79 
 -13   5   4   34.49   12.34 
  13   5  -4   31.92   12.19 
 -13   5   4   36.81   11.82 
 -13  -5   4   30.47   13.36 
 -13   5   3    7.77   10.04 
  13   5  -3    6.39   11.91 
 -13   5   3    7.20    9.81 
 -13  -5   3   10.56   13.15 
 -13   5   2   91.03   14.61 
  13   5  -2  101.42   14.29 
 -13   5   2   93.25   13.35 
 -13  -5   2   95.52   15.87 
 -13   5   1  213.65   17.27 
  13   5  -1  210.81   18.91 
 -13   5   1  214.80   16.64 
 -13  -5   1  196.27   17.42 
 -13   5   0   43.05   13.21 
  13   5   0   39.62   13.42 
 -13   5   0   36.40   11.76 
 -13  -5   0   68.71   13.57 
 -13   5  -1   24.05   12.20 
  13   5   1   19.83   12.59 
 -13   5  -1   23.22   11.44 
 -13  -5  -1   36.71   12.22 
 -13   5  -2   34.40   12.61 
  13   5   2   35.94   12.90 
 -13   5  -2   38.19   12.35 
 -13  -5  -2   34.15   12.12 
 -13   5  -3   18.74   11.92 
  13   5   3   15.49   12.44 
 -13   5  -3   13.46   11.82 
 -13  -5  -3   10.66   10.87 
 -13   5  -4   32.43   11.69 
  13   5   4   32.61   13.81 
 -13   5  -4   31.67   12.29 
 -13  -5  -4   51.92   13.71 
 -13   5  -5   39.75   12.50 
  13   5   5   43.41   13.78 
 -13   5  -5   45.93   13.36 
 -13  -5  -5   28.38   12.18 
 -13   5  -6   50.34   14.02 
 -13   5  -6   46.08   14.10 
 -13  -5  -6   28.59   12.65 
 -13  -5  -6   27.71   14.58 
  13   6  -8  121.10   15.31 
 -13   6   7    7.55   11.97 
  13   6  -7    2.18   12.54 
 -13  -6   7   12.20   13.05 
 -13   6   6   31.61   11.58 
  13   6  -6   38.93   13.89 
 -13  -6   6   40.40   14.40 
 -13   6   5    7.62   12.09 
  13   6  -5   15.82   13.48 
 -13  -6   5    3.77   12.09 
 -13   6   4    6.40   11.61 
  13   6  -4    9.89   12.33 
 -13  -6   4   17.99   12.73 
 -13   6   3   21.18   12.41 
  13   6  -3   15.79   12.81 
 -13  -6   3    6.46   12.48 
 -13   6   2   51.87   12.78 
  13   6  -2   51.13   15.62 
 -13   6   2   50.59   12.49 
 -13  -6   2   35.07   13.41 
 -13   6   1   73.33   14.00 
  13   6  -1   68.97   14.99 
 -13   6   1   76.66   13.09 
 -13  -6   1   63.02   13.72 
 -13   6   0    0.56   11.17 
  13   6   0   -5.01   13.06 
 -13   6   0   -0.16   11.37 
 -13  -6   0    0.72   11.77 
 -13   6  -1    2.99   12.53 
  13   6   1    8.29   12.94 
 -13   6  -1    4.67   11.53 
 -13  -6  -1   12.05   12.81 
 -13   6  -2  115.92   15.99 
  13   6   2  135.33   16.90 
 -13   6  -2  125.38   15.29 
 -13  -6  -2  111.48   15.86 
 -13   6  -3   79.08   14.60 
  13   6   3   73.78   15.05 
 -13   6  -3   72.26   13.34 
 -13  -6  -3   70.23   13.84 
 -14   0  14   31.45   13.99 
 -14   0  14   39.08   13.44 
  14   0 -14   35.50   12.96 
 -14   0  13  112.23   15.16 
 -14   0  13  106.41   15.64 
  14   0 -13   99.05   14.38 
 -14   0  12   19.86   13.06 
 -14   0  12   22.72   12.37 
  14   0 -12   10.75   10.95 
 -14   0  11   56.51   13.42 
 -14   0  11   50.08   12.38 
  14   0 -11   57.21   11.81 
 -14   0  10   71.65   13.07 
 -14   0  10   64.31   14.75 
  14   0 -10   75.35   13.21 
 -14   0   9    6.32   10.18 
 -14   0   9    2.45   10.60 
  14   0  -9    0.65    8.79 
 -14   0   8    2.38    8.66 
 -14   0   8    2.69   11.51 
  14   0  -8    3.37    8.84 
 -14   0   7  780.30   28.56 
 -14   0   7  775.50   30.12 
  14   0  -7  761.53   26.53 
 -14   0   6  258.63   16.83 
 -14   0   6  256.97   19.04 
  14   0  -6  267.65   17.53 
 -14   0   5   76.32   10.65 
 -14   0   5   76.11   14.25 
  14   0  -5   78.61   11.80 
 -14   0   4    4.53    7.68 
 -14   0   4    6.82   10.34 
  14   0  -4    7.55   10.02 
 -14   0   3  554.95   22.98 
 -14   0   3  531.55   25.43 
  14   0  -3  532.78   23.01 
 -14   0   2  586.44   23.38 
 -14   0   2  559.51   25.35 
  14   0  -2  566.54   23.56 
 -14   0   1  144.35   12.90 
 -14   0   1  136.32   14.84 
  14   0  -1  142.94   14.49 
 -14   0   0   45.26    9.10 
 -14   0   0   47.00   13.36 
  14   0   0   44.12   10.46 
 -14   0  -1   34.11    8.70 
  14   0   1   40.20   10.64 
 -14   0  -2    2.61    6.59 
  14   0   2    2.08    8.64 
 -14   0  -3   96.52   12.78 
  14   0   3   94.83   12.45 
 -14   0  -4   77.68   13.18 
  14   0   4   75.09   11.86 
 -14   0  -5   97.26   14.60 
  14   0   5   85.09   12.60 
 -14   0  -6   24.21   12.70 
  14   0   6   23.46   10.55 
 -14   0  -7   39.30   12.23 
 -14   0  -7   38.68   12.61 
 -14   0  -8   52.30   12.38 
 -14   0  -8   56.53   14.36 
 -14   0  -9    0.09   11.79 
 -14   1  14  170.92   17.06 
 -14   1  14  161.95   17.17 
  14   1 -14  169.72   16.34 
 -14  -1  14  176.26   17.80 
 -14  -1  14  179.05   18.58 
  14  -1 -14  167.80   17.82 
 -14   1  13   94.47   14.93 
 -14   1  13   90.70   14.72 
  14   1 -13  102.65   14.33 
 -14  -1  13  107.45   16.21 
 -14  -1  13   96.88   16.07 
  14  -1 -13   96.74   13.83 
 -14   1  12    2.30   11.14 
 -14   1  12    8.38   12.13 
  14   1 -12    7.62   12.49 
 -14  -1  12    3.24   10.99 
 -14  -1  12    5.96   10.63 
  14  -1 -12    4.31   10.85 
 -14   1  11   80.73   13.97 
 -14   1  11   87.17   14.81 
  14   1 -11   83.70   13.68 
 -14  -1  11   84.38   13.60 
 -14  -1  11   86.50   14.64 
  14  -1 -11   93.69   13.94 
 -14   1  10  249.77   18.13 
 -14   1  10  244.73   18.77 
  14   1 -10  260.14   17.93 
 -14  -1  10  253.97   19.11 
 -14  -1  10  261.42   19.42 
  14  -1 -10  266.40   17.53 
 -14   1   9  135.71   14.23 
 -14   1   9  134.30   15.62 
  14   1  -9  126.53   13.86 
 -14  -1   9  160.66   15.84 
 -14  -1   9  162.36   16.85 
  14  -1  -9  169.61   14.49 
 -14   1   8  128.76   13.21 
 -14   1   8  124.74   14.40 
  14   1  -8  123.79   13.39 
 -14  -1   8   90.03   12.50 
 -14  -1   8   95.47   15.10 
  14  -1  -8   93.59   13.01 
 -14   1   7   14.05    8.35 
 -14   1   7   15.86   10.62 
  14   1  -7   15.94   11.44 
 -14  -1   7   16.76    9.77 
 -14  -1   7   10.60   11.01 
  14  -1  -7   10.36   10.23 
 -14   1   6  233.17   16.44 
 -14   1   6  219.95   17.07 
  14   1  -6  215.78   16.37 
 -14  -1   6  202.87   16.01 
 -14  -1   6  220.71   17.63 
  14  -1  -6  220.84   16.38 
 -14   1   5  186.42   14.36 
 -14   1   5  191.00   16.98 
  14   1  -5  181.57   15.14 
 -14  -1   5  161.97   14.33 
 -14  -1   5  160.61   15.52 
  14  -1  -5  157.17   13.98 
 -14   1   4  280.77   17.10 
 -14   1   4  277.28   19.24 
  14   1  -4  267.29   18.26 
 -14  -1   4  256.14   16.71 
 -14  -1   4  267.23   19.13 
  14  -1  -4  253.28   17.16 
 -14   1   3   92.35   11.35 
 -14   1   3   89.76   13.83 
  14   1  -3   92.28   12.61 
 -14  -1   3   61.24   10.19 
 -14  -1   3   62.96   13.78 
  14  -1  -3   57.44   11.01 
 -14   1   2   65.36   10.58 
 -14   1   2   61.18   12.16 
  14   1  -2   65.02   12.02 
 -14  -1   2   69.77    9.97 
 -14  -1   2   67.91   13.17 
  14  -1  -2   67.10   10.68 
 -14   1   1  143.10   13.63 
 -14   1   1  134.92   15.20 
  14   1  -1  136.07   15.29 
  14  -1  -1  106.64   12.29 
 -14   1   0  253.00   16.75 
 -14   1   0  244.99   19.09 
  14   1   0  259.34   18.30 
  14  -1   0  315.09   18.80 
 -14   1  -1  533.05   23.35 
 -14   1  -1  521.72   24.64 
  14   1   1  524.16   24.26 
 -14  -1  -1  489.78   24.06 
  14  -1   1  511.04   22.71 
 -14   1  -2   74.60   11.38 
 -14   1  -2   75.80   13.43 
  14   1   2   77.25   12.71 
 -14  -1  -2   82.51   14.23 
  14  -1   2   80.49   11.56 
 -14   1  -3   20.43    9.16 
  14   1   3   20.64    9.78 
  14  -1   3   15.32    9.68 
 -14  -1  -3   21.02   11.16 
 -14   1  -4   53.64   10.97 
  14   1   4   53.60   11.86 
  14  -1   4   59.80   10.79 
 -14  -1  -4   61.20   13.79 
 -14   1  -5   89.26   12.28 
  14   1   5   91.38   14.30 
  14  -1   5   99.70   12.88 
 -14  -1  -5  104.73   14.55 
 -14   1  -6  132.83   14.03 
 -14   1  -6  133.73   15.90 
  14   1   6  129.73   14.14 
 -14  -1  -6  140.39   15.51 
  14  -1   6  133.36   13.44 
 -14   1  -7   96.84   15.21 
 -14  -1  -7   69.76   13.76 
 -14  -1  -7   63.91   13.25 
  14  -1   7   59.60   11.88 
 -14   1  -8    0.96   13.46 
 -14  -1  -8    5.38   11.67 
 -14  -1  -8   -1.05   13.52 
  14  -1   8    6.87   10.13 
 -14   1  -9   39.74   14.02 
 -14  -1  -9   32.81   12.85 
 -14  -1  -9   37.02   13.11 
 -14   2  13   52.73   13.83 
 -14  -2  13   78.95   14.86 
 -14  -2  13   80.26   16.17 
  14  -2 -13   78.53   13.24 
 -14   2  12  156.82   16.81 
 -14   2  12  153.81   16.01 
 -14  -2  12  134.06   15.76 
 -14  -2  12  126.47   16.64 
  14  -2 -12  135.30   15.00 
 -14   2  11  195.42   17.22 
 -14   2  11  190.69   17.18 
 -14  -2  11  162.05   16.81 
 -14  -2  11  173.96   18.72 
  14  -2 -11  161.46   15.43 
 -14   2  10   12.83   10.20 
 -14   2  10   15.93   12.64 
 -14  -2  10   19.21   10.94 
 -14  -2  10   20.29   14.17 
  14  -2 -10   20.29   10.32 
 -14   2   9   93.34   12.74 
 -14   2   9   93.92   14.10 
 -14  -2   9   83.40   13.08 
 -14  -2   9   92.80   14.59 
  14  -2  -9   87.80   12.22 
 -14   2   8   85.77   12.39 
 -14   2   8   87.84   13.55 
  14   2  -8   88.58   13.88 
 -14  -2   8   92.76   13.37 
 -14  -2   8   94.39   14.45 
  14  -2  -8   98.39   11.99 
 -14   2   7  158.72   14.14 
 -14   2   7  152.18   15.38 
  14   2  -7  163.95   16.10 
 -14  -2   7  168.68   17.69 
  14  -2  -7  169.02   14.80 
 -14   2   6  180.94   15.47 
 -14   2   6  189.27   16.51 
  14   2  -6  173.48   15.65 
 -14  -2   6  168.66   17.75 
  14  -2  -6  171.09   13.95 
 -14   2   5   50.08   10.44 
 -14   2   5   55.71   12.58 
  14   2  -5   56.40   11.91 
 -14  -2   5   80.53   14.53 
  14  -2  -5   80.28   11.09 
 -14   2   4  107.06   12.41 
 -14   2   4  106.82   14.55 
  14   2  -4  112.69   12.94 
  14  -2  -4  116.67   12.20 
 -14   2   3  105.74   12.31 
 -14   2   3  107.39   13.60 
  14   2  -3  106.78   13.76 
  14  -2  -3   91.76   11.94 
 -14   2   2  158.43   14.44 
 -14   2   2  162.61   15.76 
  14   2  -2  157.54   15.45 
 -14  -2   2  154.25   16.50 
  14  -2  -2  164.07   14.14 
 -14   2   1  332.01   18.74 
 -14   2   1  345.03   20.45 
  14   2  -1  364.00   21.15 
 -14  -2   1  354.92   21.44 
  14  -2  -1  344.17   19.11 
 -14   2   0  381.10   20.68 
 -14   2   0  385.75   21.15 
  14   2   0  395.07   21.06 
 -14  -2   0  327.50   20.53 
  14  -2   0  330.76   18.54 
 -14   2  -1   23.84   10.10 
 -14   2  -1   28.23   11.31 
  14   2   1   19.84   10.81 
 -14  -2  -1   21.25   11.49 
  14  -2   1   17.16    8.92 
 -14   2  -2   28.51   10.43 
 -14   2  -2   31.42   11.51 
  14   2   2   22.35   11.80 
 -14  -2  -2   24.18   11.17 
  14  -2   2   20.43    8.75 
 -14   2  -3  233.96   17.25 
 -14   2  -3  228.14   17.92 
  14   2   3  232.95   18.37 
 -14  -2  -3  205.73   17.36 
  14  -2   3  203.92   15.76 
 -14   2  -4   91.69   12.75 
 -14   2  -4   90.36   14.08 
  14   2   4   84.86   15.11 
 -14  -2  -4   58.72   13.11 
  14  -2   4   64.60   10.81 
 -14   2  -5   91.99   13.41 
 -14   2  -5   86.95   14.95 
  14   2   5   81.00   14.11 
 -14  -2  -5  117.99   14.69 
  14  -2   5  118.30   13.20 
 -14   2  -6   20.40    9.86 
 -14  -2  -6   21.54   10.98 
 -14  -2  -6   27.87   12.32 
 -14   2  -7    9.31    9.96 
 -14  -2  -7    8.15   10.95 
 -14  -2  -7    6.05   11.56 
 -14   2  -8   63.16   12.52 
 -14   2  -8   63.96   14.78 
 -14  -2  -8   94.48   13.78 
 -14  -2  -8  108.90   16.03 
 -14   3  12   33.04   12.94 
  14   3 -12   33.56   13.08 
  14  -3 -12   39.62   12.81 
 -14  -3  12   46.79   14.32 
 -14   3  11   17.34   11.39 
  14   3 -11   11.85   11.30 
  14  -3 -11   17.47   12.42 
 -14  -3  11   14.91   13.47 
 -14   3  10  116.37   14.30 
 -14   3  10  120.77   14.53 
  14   3 -10  116.85   14.83 
 -14  -3  10  137.81   18.22 
  14  -3 -10  141.83   14.70 
 -14   3   9   79.19   13.58 
 -14   3   9   79.88   13.29 
  14   3  -9   77.15   13.55 
 -14  -3   9   74.70   15.61 
  14  -3  -9   81.96   12.10 
 -14   3   8   58.89   13.08 
 -14   3   8   57.32   12.44 
  14   3  -8   49.17   12.98 
  14  -3  -8   74.74   12.33 
 -14   3   7   56.56   12.15 
 -14   3   7   58.66   12.97 
  14  -3  -7   59.23   11.78 
 -14   3   6  192.67   15.83 
 -14   3   6  196.81   17.54 
  14  -3  -6  211.64   15.31 
 -14   3   5  324.03   19.20 
 -14   3   5  323.82   19.77 
  14  -3  -5  281.46   17.55 
 -14   3   4  246.72   17.59 
 -14   3   4  238.20   18.02 
 -14  -3   4  259.69   19.31 
  14  -3  -4  253.57   16.55 
 -14   3   3   47.43   10.56 
 -14   3   3   47.65   10.86 
 -14  -3   3   32.43   13.23 
  14  -3  -3   39.64    9.50 
 -14   3   2   31.15   10.66 
 -14   3   2   28.55   12.20 
  14   3  -2   27.36   11.68 
 -14  -3   2   32.75   14.23 
  14  -3  -2   33.02    9.37 
 -14   3   1   78.89   12.11 
 -14   3   1   82.66   13.93 
  14   3  -1   84.63   13.44 
 -14  -3   1   98.77   14.94 
  14  -3  -1   98.77   11.76 
 -14   3   0  194.64   16.84 
 -14   3   0  178.70   16.33 
  14   3   0  206.27   17.50 
 -14  -3   0  169.76   16.34 
  14  -3   0  164.99   13.39 
 -14   3  -1   11.68   10.53 
 -14   3  -1    7.88   10.60 
  14   3   1   12.47   12.09 
 -14  -3  -1    3.60   10.99 
  14  -3   1    5.32    7.87 
 -14   3  -2  121.55   14.59 
  14   3   2  118.25   14.63 
 -14   3  -2  126.19   16.00 
 -14  -3  -2  130.43   15.78 
 -14   3  -3   16.95   10.99 
  14   3   3   14.04   12.48 
 -14   3  -3   11.76   12.83 
 -14  -3  -3    8.35   11.34 
 -14   3  -4   30.18   12.44 
  14   3   4   32.28   12.88 
 -14   3  -4   25.02   12.10 
 -14  -3  -4   31.61   12.08 
 -14   3  -5    0.65   10.04 
  14   3   5    5.52   11.61 
 -14   3  -5    0.18   11.67 
 -14  -3  -5    5.57   11.23 
 -14   3  -6  158.45   15.71 
 -14   3  -6  145.92   16.50 
 -14  -3  -6  178.08   17.69 
 -14  -3  -6  194.52   18.40 
 -14   3  -7  199.80   16.78 
 -14   3  -7  203.28   17.99 
 -14  -3  -7  202.85   18.07 
 -14  -3  -7  200.74   18.66 
 -14   4  11  148.11   16.55 
  14   4 -11  148.05   15.94 
  14  -4 -11  178.44   16.77 
 -14  -4  11  166.32   18.65 
 -14   4  10    4.42   11.64 
  14   4 -10    6.44   11.95 
  14  -4 -10    7.81   10.90 
 -14  -4  10    1.96   12.24 
 -14   4   9   57.21   13.74 
  14   4  -9   60.43   15.00 
  14  -4  -9   64.41   12.15 
 -14   4   8   87.84   13.67 
 -14   4   8   84.92   12.89 
  14   4  -8   77.56   14.21 
  14  -4  -8   82.93   13.07 
 -14   4   7  125.29   15.36 
 -14   4   7  126.92   14.29 
  14   4  -7  137.19   15.48 
 -14  -4   7  162.99   17.96 
  14  -4  -7  163.51   15.09 
 -14   4   6   88.98   14.11 
 -14   4   6   90.47   14.02 
  14   4  -6   93.79   13.10 
 -14  -4   6   82.30   15.48 
  14  -4  -6   79.18   12.76 
 -14   4   5   67.70   13.19 
  14   4  -5   70.68   12.84 
 -14   4   5   71.35   13.47 
 -14  -4   5   52.39   14.34 
 -14   4   4   31.12   12.18 
 -14   4   4   19.75   11.21 
 -14  -4   4   24.78   14.49 
 -14   4   3   48.56   12.75 
  14   4  -3   44.98   13.57 
 -14   4   3   49.71   13.24 
 -14  -4   3   28.87   13.39 
 -14   4   2  225.27   17.81 
  14   4  -2  205.50   17.61 
 -14   4   2  223.98   16.84 
 -14  -4   2  210.46   18.02 
 -14   4   1  163.54   15.24 
 -14   4   1  161.03   15.70 
 -14  -4   1  163.71   17.18 
 -14   4   0   34.61   11.72 
 -14   4   0   35.33   11.94 
 -14  -4   0   55.43   13.57 
 -14   4  -1   27.32   11.71 
 -14   4  -1   26.99   13.00 
 -14  -4  -1   29.88   12.22 
 -14   4  -2  197.48   17.26 
 -14   4  -2  198.90   17.78 
 -14  -4  -2  211.71   18.10 
 -14   4  -3  195.61   17.40 
  14   4   3  180.88   16.65 
 -14   4  -3  190.57   17.70 
 -14  -4  -3  236.33   19.20 
 -14   4  -4    4.26   10.48 
  14   4   4    8.27   12.40 
 -14   4  -4    6.25   11.46 
 -14  -4  -4    7.99   11.17 
 -14   4  -5    3.02   10.75 
  14   4   5   -0.97   11.37 
 -14   4  -5    3.84   11.87 
 -14  -4  -5    2.60   10.99 
 -14   4  -6   72.41   13.60 
 -14   4  -6   80.09   14.86 
 -14  -4  -6   75.74   15.12 
 -14  -4  -6   83.23   15.79 
 -14   5   9  100.96   14.52 
  14   5  -9   94.13   14.09 
 -14  -5   9   96.19   16.70 
 -14   5   8   33.03   12.12 
  14   5  -8   27.55   12.33 
 -14  -5   8   41.87   14.63 
 -14   5   7   41.93   13.97 
  14   5  -7   42.30   13.54 
 -14  -5   7   45.53   13.66 
 -14   5   6   28.95   11.71 
  14   5  -6   28.14   12.34 
 -14  -5   6   29.32   14.60 
 -14   5   5  279.94   19.78 
  14   5  -5  263.15   19.92 
 -14   5   5  268.40   18.14 
 -14  -5   5  289.80   20.71 
 -14   5   4   76.05   13.42 
  14   5  -4   73.62   13.81 
 -14   5   4   80.57   14.19 
 -14  -5   4   96.72   16.01 
 -14   5   3   58.69   13.15 
  14   5  -3   52.21   13.94 
 -14   5   3   45.03   12.23 
 -14  -5   3   56.58   14.27 
 -14   5   2    4.94   10.72 
  14   5  -2   10.31   12.98 
 -14   5   2    2.79   11.74 
 -14  -5   2    9.34   11.72 
 -14   5   1   56.55   12.65 
  14   5  -1   51.21   14.58 
 -14   5   1   54.00   12.37 
 -14  -5   1   66.95   13.79 
 -14   5   0   82.40   14.22 
  14   5   0   78.50   14.47 
 -14   5   0   85.77   14.80 
 -14  -5   0   57.66   14.23 
 -14   5  -1  322.90   20.00 
  14   5   1  319.47   21.44 
 -14   5  -1  330.78   20.42 
 -14  -5  -1  322.32   21.45 
 -14   5  -2   19.60   12.50 
  14   5   2   20.14   13.42 
 -14   5  -2   24.57   13.84 
 -14  -5  -2   11.41   11.60 
 -14   5  -3   11.38   11.37 
  14   5   3   21.17   13.80 
 -14   5  -3   13.98   12.98 
 -14  -5  -3    9.11   11.46 
 -14   5  -4   61.52   13.33 
 -14   5  -4   60.22   14.09 
 -14  -5  -4   50.70   12.92 
  14   6  -3  151.91   16.11 
 -14  -6   3  155.70   18.94 
  14   6  -2  295.79   20.80 
 -14   6   2  263.81   18.18 
 -14  -6   2  275.73   21.13 
 -15   0  13   58.55   13.17 
 -15   0  13   60.77   15.41 
  15   0 -13   55.32   13.52 
 -15   0  12   18.80   12.51 
 -15   0  12   20.20   14.26 
  15   0 -12   15.45   11.56 
 -15   0  11  320.34   20.07 
 -15   0  11  340.00   21.57 
  15   0 -11  329.69   19.43 
 -15   0  10  291.42   19.33 
 -15   0  10  280.19   20.62 
  15   0 -10  274.88   18.18 
 -15   0   9   52.58   11.88 
 -15   0   9   53.71   13.72 
  15   0  -9   52.85   12.61 
 -15   0   8   34.28   10.32 
 -15   0   8   28.03   13.65 
  15   0  -8   30.06   10.24 
 -15   0   7   58.33   11.17 
 -15   0   7   56.70   14.25 
  15   0  -7   53.94   11.40 
 -15   0   6  246.48   16.48 
 -15   0   6  247.82   19.01 
  15   0  -6  247.17   17.36 
 -15   0   5   69.40   10.65 
 -15   0   5   77.88   14.97 
  15   0  -5   69.77   12.20 
 -15   0   4   49.47    9.40 
 -15   0   4   46.09   12.74 
  15   0  -4   53.30   10.94 
 -15   0   3   59.53   10.66 
 -15   0   3   57.19   13.55 
  15   0  -3   64.00   11.44 
 -15   0   2  112.49   12.37 
 -15   0   2  120.66   15.23 
  15   0  -2  113.97   12.86 
 -15   0   1   84.80   13.65 
  15   0  -1   79.12   11.83 
 -15   0   0  322.81   20.06 
  15   0   0  322.45   18.84 
  15   0   1  161.25   15.91 
  15   0   2    0.59    8.86 
 -15   0  -3   51.87   13.03 
  15   0   3   56.46   12.62 
 -15   0  -4  122.64   15.77 
  15   0   4  121.47   13.54 
 -15   0  -5  139.38   16.85 
  15   0   5  140.82   14.84 
 -15   0  -6    4.70   12.07 
  15   0   6   -2.33   10.88 
 -15   0  -7   10.15   11.94 
  15   0   7    9.27   10.35 
 -15   1  13   68.88   14.13 
 -15   1  13   69.44   14.50 
  15   1 -13   75.46   14.26 
 -15  -1  13   59.52   14.14 
 -15  -1  13   61.21   15.77 
  15  -1 -13   61.55   13.54 
 -15   1  12   61.08   14.34 
 -15   1  12   58.70   12.69 
  15   1 -12   53.45   12.82 
 -15  -1  12   38.47   13.12 
 -15  -1  12   49.83   13.34 
  15  -1 -12   41.31   12.27 
 -15   1  11   64.09   12.92 
 -15   1  11   75.83   13.96 
  15   1 -11   74.18   13.61 
 -15  -1  11   67.01   13.06 
 -15  -1  11   78.33   15.21 
  15  -1 -11   70.07   13.31 
 -15   1  10   28.08   12.73 
 -15   1  10   24.69   13.26 
  15   1 -10   31.18   11.78 
 -15  -1  10   19.84   12.02 
 -15  -1  10   21.50   12.91 
  15  -1 -10   27.40   11.33 
 -15   1   9   61.81   12.45 
 -15   1   9   50.10   13.11 
  15   1  -9   51.32   12.69 
 -15  -1   9   40.18   10.94 
 -15  -1   9   42.50   12.88 
  15  -1  -9   44.52   11.19 
 -15   1   8  195.56   15.23 
 -15   1   8  193.28   17.01 
  15   1  -8  201.54   16.46 
 -15  -1   8  201.18   16.83 
 -15  -1   8  191.79   17.34 
  15  -1  -8  197.81   15.46 
 -15   1   7  242.53   16.73 
 -15   1   7  222.27   18.90 
  15   1  -7  250.13   17.48 
 -15  -1   7  265.21   20.38 
  15  -1  -7  265.87   17.54 
 -15   1   6   12.76    8.85 
 -15   1   6   15.23   10.97 
  15   1  -6   18.54   10.95 
 -15  -1   6   31.21   12.64 
  15  -1  -6   26.54   11.25 
 -15   1   5   52.15   10.57 
 -15   1   5   54.74   13.08 
  15   1  -5   47.33   12.96 
 -15  -1   5   56.06   14.76 
  15  -1  -5   55.22   11.83 
 -15   1   4  233.29   16.11 
 -15   1   4  237.04   17.83 
  15   1  -4  241.54   17.94 
 -15  -1   4  259.89   20.47 
  15  -1  -4  253.18   17.33 
 -15   1   3  461.42   21.09 
 -15   1   3  452.55   23.60 
  15   1  -3  445.75   22.21 
 -15  -1   3  447.82   22.98 
  15  -1  -3  461.68   21.57 
 -15   1   2  289.80   17.73 
 -15   1   2  275.06   19.23 
  15   1  -2  282.29   18.95 
  15  -1  -2  305.75   17.81 
 -15   1   1   70.18   10.96 
 -15   1   1   82.32   14.46 
  15   1  -1   75.69   12.29 
  15  -1  -1   60.83   11.18 
 -15   1   0   65.94   10.47 
 -15   1   0   62.29   13.81 
  15   1   0   64.69   13.20 
  15  -1   0   65.57   11.14 
 -15   1  -1  162.41   14.19 
 -15   1  -1  155.35   15.40 
  15   1   1  172.07   15.72 
 -15  -1  -1  150.80   15.18 
  15  -1   1  147.88   14.42 
 -15   1  -2  226.42   16.20 
 -15   1  -2  232.36   18.30 
  15   1   2  239.74   17.56 
 -15  -1  -2  215.58   18.64 
  15  -1   2  219.89   16.12 
  15   1   3  138.65   15.15 
  15  -1   3  146.24   14.76 
 -15  -1  -3  155.75   16.38 
  15   1   4   42.68   12.01 
  15  -1   4   41.95   10.22 
 -15  -1  -4   37.27   13.12 
 -15   1  -5    1.01   11.73 
  15   1   5    5.84   10.17 
 -15  -1  -5    3.56   10.95 
  15  -1   5    1.07    9.00 
 -15   1  -6   86.81   16.48 
  15   1   6   83.10   14.81 
 -15  -1  -6   82.22   14.34 
  15  -1   6   78.38   12.68 
 -15   1  -7  127.26   16.34 
  15   1   7  122.79   14.52 
 -15  -1  -7  133.05   16.13 
  15  -1   7  129.43   14.21 
 -15   2  12   12.68   11.12 
 -15   2  12   12.61   11.91 
 -15  -2  12   13.08   13.91 
  15  -2 -12   17.92   12.50 
 -15   2  11  132.04   14.82 
 -15   2  11  124.89   15.44 
  15   2 -11  116.84   13.86 
 -15  -2  11  150.46   17.56 
  15  -2 -11  156.60   15.55 
 -15   2  10  130.76   14.38 
 -15   2  10  137.45   15.51 
  15   2 -10  132.70   15.61 
 -15  -2  10  145.80   16.31 
  15  -2 -10  150.05   14.72 
 -15   2   9  153.17   14.57 
 -15   2   9  163.18   16.66 
  15   2  -9  160.98   15.25 
 -15  -2   9  141.02   15.95 
  15  -2  -9  146.74   14.11 
 -15   2   8   71.15   12.90 
 -15   2   8   76.54   15.00 
  15   2  -8   83.34   13.04 
 -15  -2   8   78.02   14.03 
  15  -2  -8   73.56   11.58 
 -15   2   7  156.02   14.57 
 -15   2   7  150.39   15.38 
  15   2  -7  144.59   14.77 
 -15  -2   7  173.08   17.82 
  15  -2  -7  168.06   14.44 
 -15   2   6  228.91   16.73 
 -15   2   6  237.82   19.05 
  15   2  -6  236.93   17.61 
 -15  -2   6  207.54   18.22 
  15  -2  -6  209.67   16.20 
 -15   2   5  319.12   19.11 
 -15   2   5  306.77   20.10 
  15   2  -5  304.04   19.75 
 -15  -2   5  277.53   20.71 
  15  -2  -5  293.98   17.23 
 -15   2   4  179.53   14.78 
 -15   2   4  170.10   16.25 
  15   2  -4  168.38   15.41 
  15  -2  -4  180.83   15.05 
 -15   2   3   10.00    9.88 
 -15   2   3   11.33   10.85 
  15   2  -3    9.98   10.76 
  15  -2  -3   11.64    9.62 
 -15   2   2  167.63   14.83 
 -15   2   2  168.42   16.10 
  15   2  -2  179.15   16.62 
 -15  -2   2  154.76   17.25 
  15  -2  -2  149.52   13.20 
 -15   2   1  230.83   16.06 
 -15   2   1  238.74   18.51 
  15   2  -1  241.13   18.15 
 -15  -2   1  240.68   18.48 
  15  -2  -1  236.82   15.94 
 -15   2   0   99.80   12.59 
 -15   2   0   96.98   15.05 
  15   2   0  101.27   13.75 
 -15  -2   0  127.67   15.91 
  15  -2   0  127.54   13.06 
 -15   2  -1   40.66   10.51 
 -15   2  -1   44.08   12.14 
  15   2   1   47.52   11.90 
 -15  -2  -1   47.28   14.41 
  15  -2   1   52.46   10.64 
 -15   2  -2    7.15    9.98 
 -15   2  -2    7.05   11.75 
  15   2   2    6.19   11.31 
 -15  -2  -2    6.41   11.63 
  15  -2   2    7.76    9.41 
 -15   2  -3   72.16   12.52 
 -15   2  -3   75.32   14.16 
  15   2   3   74.48   13.58 
 -15  -2  -3   92.07   14.96 
  15  -2   3   97.62   12.54 
 -15   2  -4   41.86   11.24 
  15   2   4   49.22   12.68 
 -15   2  -4   43.92   13.90 
 -15  -2  -4   53.58   14.24 
 -15   2  -5  138.77   14.80 
  15   2   5  121.19   15.25 
 -15   2  -5  124.61   16.48 
 -15  -2  -5  128.63   15.97 
  15   2   6   47.06   12.93 
 -15  -2  -6   40.14   12.86 
 -15  -2  -7   48.92   13.48 
 -15   3  11    0.46   11.05 
  15   3 -11    5.96   13.35 
  15  -3 -11    9.38   10.51 
 -15  -3  11    3.90   13.29 
 -15   3  10   10.04   11.89 
 -15   3  10   10.99   11.96 
  15   3 -10   14.13   12.23 
 -15  -3  10   20.05   14.25 
  15  -3 -10   16.78   11.89 
 -15   3   9   63.69   12.79 
 -15   3   9   64.16   13.12 
 -15  -3   9   74.11   14.93 
  15  -3  -9   71.35   13.22 
 -15   3   8  391.39   20.50 
 -15   3   8  402.65   22.34 
 -15  -3   8  376.00   23.58 
  15  -3  -8  374.62   19.51 
 -15   3   7   61.98   11.75 
 -15   3   7   66.44   13.27 
  15  -3  -7   49.25   11.38 
 -15   3   6   28.95   11.52 
 -15   3   6   22.32   12.29 
  15  -3  -6   37.17   10.04 
 -15   3   5   17.40   10.71 
 -15   3   5   14.52   12.61 
 -15  -3   5   13.28   12.47 
  15  -3  -5   11.77    9.06 
 -15   3   4   92.52   13.73 
 -15   3   4   94.56   14.70 
  15   3  -4   85.63   15.02 
 -15  -3   4   82.38   15.84 
  15  -3  -4   80.82   12.16 
 -15   3   3  277.84   18.73 
 -15   3   3  299.53   20.54 
  15   3  -3  288.78   18.72 
 -15  -3   3  273.69   20.63 
  15  -3  -3  280.70   17.05 
 -15   3   2  257.91   17.61 
 -15   3   2  262.97   19.63 
  15   3  -2  267.92   19.24 
 -15  -3   2  270.45   19.71 
  15  -3  -2  265.07   16.89 
 -15   3   1   59.87   11.49 
  15   3  -1   53.55   13.73 
 -15   3   1   54.58   12.16 
 -15  -3   1   56.79   14.23 
 -15   3   0    3.95    9.81 
  15   3   0   -1.52   11.76 
 -15   3   0    0.28   10.83 
 -15  -3   0    9.69   11.95 
 -15   3  -1  551.43   24.00 
  15   3   1  524.36   24.30 
 -15   3  -1  542.10   25.02 
 -15  -3  -1  528.47   25.51 
 -15   3  -2  215.62   17.39 
  15   3   2  226.18   18.40 
 -15   3  -2  214.13   17.62 
 -15  -3  -2  218.47   18.28 
 -15   3  -3   93.80   13.23 
  15   3   3   87.34   15.09 
 -15   3  -3   88.82   15.00 
 -15  -3  -3   75.75   14.67 
 -15   3  -4   25.01   10.52 
  15   3   4   28.21   11.68 
 -15   3  -4   22.72   11.99 
 -15  -3  -4   11.42   11.27 
 -15   3  -5   20.79   11.21 
  15   3   5   20.14   13.41 
 -15   3  -5   16.29   12.56 
 -15  -3  -5   21.95   11.95 
 -15   4   9  122.07   15.23 
  15   4  -9  121.49   15.08 
 -15   4   8   24.87   12.71 
  15   4  -8   28.98   12.80 
 -15   4   7   50.37   12.33 
  15   4  -7   45.80   12.58 
 -15   4   7   44.21   12.81 
 -15  -4   7   46.52   14.54 
 -15   4   6  217.42   18.28 
  15   4  -6  204.19   17.57 
 -15   4   6  218.63   18.40 
 -15  -4   6  206.22   18.88 
 -15   4   5  199.30   17.17 
  15   4  -5  196.46   16.87 
 -15   4   5  199.67   17.98 
 -15  -4   5  222.40   20.84 
 -15   4   4   75.97   13.12 
  15   4  -4   58.93   14.27 
 -15   4   4   61.77   13.71 
 -15  -4   4   60.93   15.20 
 -15   4   3   24.33   11.50 
 -15   4   3   26.71   11.95 
 -15  -4   3   21.24   12.97 
 -15   4   2   71.75   12.56 
 -15   4   2   71.45   13.26 
 -15  -4   2   77.96   14.15 
 -15   4   1  170.70   16.43 
 -15   4   1  174.04   16.75 
 -15  -4   1  198.77   18.61 
 -15   4   0  192.89   16.63 
 -15   4   0  189.43   17.60 
 -15  -4   0  150.11   16.95 
 -15   4  -1   46.45   12.08 
  15   4   1   39.62   14.92 
 -15   4  -1   46.82   12.94 
 -15  -4  -1   25.77   13.61 
 -15   4  -2    5.48   10.74 
  15   4   2   11.23   13.06 
 -15   4  -2    2.30   11.16 
 -15  -4  -2    2.24   11.54 
 -15   4  -3    5.42   11.55 
  15   4   3   10.81   12.74 
 -15   4  -3   12.05   11.95 
 -15  -4  -3   11.87   13.43 
 -15   4  -4   99.61   14.26 
  15   4   4   94.31   15.55 
 -15   4  -4   95.55   15.07 
 -15  -4  -4   61.96   15.02 
  15   5  -6   27.30   13.67 
 -15  -5   6   21.17   13.02 
 -15   5   5  110.06   16.20 
  15   5  -5  106.22   15.38 
 -15  -5   5  108.33   17.12 
 -15   5   4  114.21   14.44 
  15   5  -4  109.58   15.37 
 -15   5   4  108.39   14.64 
 -15  -5   4   89.92   17.00 
 -15   5   3  110.13   14.62 
  15   5  -3  111.71   15.26 
 -15   5   3  111.23   15.30 
 -15  -5   3   77.81   15.90 
 -15   5   2   90.40   13.73 
  15   5  -2   80.34   15.54 
 -15   5   2   83.79   14.09 
 -15  -5   2   98.50   16.33 
 -15   5   1    8.22   11.37 
  15   5  -1    2.61   13.32 
 -15   5   1    0.83   12.08 
 -15  -5   1    8.55   12.53 
 -15   5   0   83.50   14.55 
  15   5   0   80.56   16.11 
 -15   5   0   83.49   15.00 
 -15  -5   0   72.91   14.62 
 -16   0  11   -1.17   10.36 
 -16   0  11    1.55   12.95 
  16   0 -11   -3.55   12.23 
 -16   0  10    3.01   11.05 
 -16   0  10   14.59   13.34 
  16   0 -10   10.21   11.59 
 -16   0   9   96.97   14.16 
 -16   0   9  100.55   15.38 
  16   0  -9   97.36   13.87 
 -16   0   8  355.95   22.43 
  16   0  -8  332.88   19.40 
 -16   0   7   72.87   14.45 
  16   0  -7   77.31   12.70 
 -16   0   6   11.49   12.27 
  16   0  -6   12.61   11.45 
 -16   0   5   58.30   13.49 
  16   0  -5   62.82   12.73 
 -16   0   4  472.76   24.64 
  16   0  -4  480.80   22.22 
 -16   0   3   46.59   12.83 
  16   0  -3   52.32   11.22 
 -16   0   2   11.67   13.04 
  16   0  -2   16.08    9.73 
 -16   0   1   89.42   15.26 
  16   0  -1   90.18   13.90 
 -16   0   0   98.96   14.53 
  16   0   0  104.51   13.02 
  16   0   1  139.69   14.29 
  16   0   2   61.01   12.59 
 -16   0  -3   13.53   12.83 
  16   0   3   11.61   10.82 
 -16   0  -4    3.90   12.20 
  16   0   4    3.02   10.02 
 -16   0  -5   54.70   13.97 
  16   0   5   48.71   11.98 
 -16   1  11  107.00   15.13 
 -16   1  11  104.07   17.37 
  16   1 -11   99.77   14.80 
 -16  -1  11  125.48   17.06 
  16  -1 -11  123.17   14.89 
 -16   1  10   24.92   11.46 
 -16   1  10   26.82   12.41 
  16   1 -10   23.37   12.97 
 -16  -1  10   24.72   12.26 
  16  -1 -10   22.34   10.31 
 -16   1   9    1.55    9.74 
 -16   1   9    5.42   11.95 
  16   1  -9   -1.02   10.99 
 -16  -1   9    6.56   14.38 
  16  -1  -9    3.18   10.11 
 -16   1   8  156.36   15.12 
 -16   1   8  156.12   16.58 
  16   1  -8  167.09   16.10 
 -16  -1   8  172.59   18.34 
  16  -1  -8  173.50   14.98 
 -16   1   7  144.35   14.07 
 -16   1   7  138.37   16.53 
  16   1  -7  145.27   14.98 
 -16  -1   7  151.33   17.46 
  16  -1  -7  147.86   14.76 
 -16   1   6   97.96   12.25 
 -16   1   6   99.78   15.56 
  16   1  -6   91.58   14.17 
 -16  -1   6   96.01   14.60 
  16  -1  -6   97.69   13.91 
 -16   1   5   11.73    9.09 
 -16   1   5    9.94   12.22 
  16   1  -5   10.59   10.50 
 -16  -1   5    7.35   12.43 
  16  -1  -5   10.11    9.86 
 -16   1   4    4.77    8.25 
 -16   1   4    3.59   11.89 
  16   1  -4    5.78   10.98 
 -16  -1   4    5.58   12.48 
  16  -1  -4    1.11    9.13 
 -16   1   3  216.69   15.71 
 -16   1   3  219.17   18.38 
  16   1  -3  218.25   17.09 
 -16  -1   3  216.65   18.93 
  16  -1  -3  213.25   16.14 
 -16   1   2  245.98   16.24 
 -16   1   2  251.83   18.72 
  16   1  -2  261.36   17.69 
  16  -1  -2  197.50   15.95 
 -16   1   1  184.96   17.48 
  16   1  -1  183.59   16.33 
  16  -1  -1  196.37   16.16 
 -16   1   0  163.08   16.71 
  16   1   0  161.60   16.19 
 -16  -1   0  162.35   16.79 
  16  -1   0  163.71   15.12 
 -16   1  -1   -2.78   11.17 
  16   1   1    4.85   10.93 
 -16  -1  -1    7.38   11.33 
  16  -1   1    2.12    9.14 
 -16   1  -2   88.02   14.52 
  16   1   2   81.95   13.50 
 -16  -1  -2   96.46   14.76 
  16  -1   2   86.98   12.70 
  16   1   3  117.79   15.39 
  16  -1   3   99.57   13.18 
 -16  -1  -3  104.33   15.44 
  16   1   4  147.76   16.14 
  16  -1   4  140.00   13.87 
 -16  -1  -4  150.18   17.19 
 -16   1  -5   55.88   14.61 
  16   1   5   61.62   12.95 
 -16  -1  -5   54.19   14.61 
  16  -1   5   54.74   11.98 
 -16   2  10   85.27   13.11 
 -16   2  10   93.10   14.22 
  16   2 -10   98.37   15.25 
 -16  -2  10   54.64   14.17 
  16  -2 -10   66.33   12.45 
 -16   2   9  113.60   13.50 
 -16   2   9  125.91   17.22 
  16   2  -9  114.32   15.51 
 -16  -2   9  113.57   16.45 
  16  -2  -9  114.65   14.56 
 -16   2   8   35.16   10.57 
 -16   2   8   42.58   13.30 
  16   2  -8   31.94   12.00 
 -16  -2   8   51.88   15.44 
  16  -2  -8   57.65   12.46 
 -16   2   7   63.14   12.22 
 -16   2   7   49.99   13.22 
  16   2  -7   60.56   13.26 
 -16  -2   7   73.86   13.86 
  16  -2  -7   59.45   11.44 
 -16   2   6    4.66    8.65 
 -16   2   6    5.22   12.32 
  16   2  -6   -0.05   11.11 
 -16  -2   6   12.90   14.21 
  16  -2  -6   10.72    9.19 
 -16   2   5   31.28    9.44 
 -16   2   5   29.22   11.92 
  16   2  -5   36.11   12.18 
 -16  -2   5   56.48   14.22 
  16  -2  -5   56.35   11.62 
 -16   2   4   87.97   12.08 
 -16   2   4   90.32   15.75 
  16   2  -4   91.13   14.01 
  16  -2  -4  133.49   13.32 
 -16   2   3   81.28   12.14 
 -16   2   3   71.45   13.83 
  16   2  -3   72.05   13.19 
  16  -2  -3   77.03   11.58 
 -16   2   2   17.29    9.55 
 -16   2   2   14.42   12.06 
  16   2  -2   20.56   11.41 
 -16  -2   2   18.55   11.86 
  16  -2  -2   20.85    9.51 
 -16   2   1    1.75    9.08 
 -16   2   1    4.48   12.30 
  16   2  -1    3.95   10.25 
 -16  -2   1    1.41   12.22 
  16  -2  -1    3.23    9.46 
 -16   2   0  126.40   14.02 
 -16   2   0  126.55   15.93 
  16   2   0  120.68   14.61 
 -16  -2   0  133.65   16.10 
  16  -2   0  123.17   13.41 
 -16   2  -1  297.02   18.64 
 -16   2  -1  301.77   20.74 
  16   2   1  307.74   20.41 
 -16  -2  -1  253.81   19.31 
  16  -2   1  253.50   16.76 
  16   2   2   89.63   13.97 
 -16   2  -2   92.44   15.63 
 -16  -2  -2   99.35   16.16 
  16   2   3   17.11   11.91 
 -16   2  -3   14.23   11.93 
 -16  -2  -3   13.33   11.66 
  16   2   4   35.10   13.84 
 -16   2  -4   41.09   14.25 
 -16  -2  -4   26.12   13.32 
 -16   3   9    3.60   11.61 
 -16   3   9   11.97   12.49 
 -16  -3   9    1.49   13.29 
  16  -3  -9    7.62   10.93 
 -16   3   8   48.18   12.61 
 -16   3   8   50.76   13.23 
 -16  -3   8   50.60   13.92 
  16  -3  -8   56.85   12.06 
 -16   3   7  120.51   14.12 
 -16   3   7  112.12   15.29 
  16   3  -7  109.59   15.31 
  16  -3  -7  163.06   15.23 
 -16   3   6  109.08   14.16 
 -16   3   6  103.82   15.49 
  16   3  -6  101.19   14.44 
  16  -3  -6  126.89   14.08 
 -16   3   5   81.97   12.76 
  16   3  -5   80.02   13.97 
 -16   3   5   82.01   13.95 
 -16  -3   5   71.80   15.62 
 -16   3   4    6.48   10.60 
  16   3  -4   10.25   11.16 
 -16   3   4    8.32   12.87 
 -16  -3   4    4.93   12.07 
 -16   3   3   95.53   13.30 
  16   3  -3   88.97   13.79 
 -16   3   3   93.64   13.77 
 -16  -3   3   94.51   16.04 
 -16   3   2  234.20   16.91 
  16   3  -2  222.00   17.35 
 -16   3   2  226.72   18.06 
 -16  -3   2  187.68   18.68 
 -16   3   1  160.68   14.85 
  16   3  -1  143.56   16.31 
 -16   3   1  157.35   16.26 
 -16  -3   1  135.55   18.51 
 -16   3   0    9.77   10.64 
  16   3   0    8.48   12.49 
 -16   3   0    7.94   14.28 
 -16  -3   0   -5.54   12.23 
 -16   3  -1   10.27    9.59 
  16   3   1   11.86   12.98 
 -16   3  -1   11.16   12.07 
 -16  -3  -1   14.29   13.08 
 -16   3  -2   11.06   10.85 
  16   3   2    3.63   12.23 
 -16   3  -2    6.70   12.77 
 -16  -3  -2    2.16   12.43 
 -16   3  -3   71.79   13.03 
  16   3   3   82.50   15.73 
 -16   3  -3   70.71   15.33 
 -16  -3  -3   68.84   14.97 
 -16   4   6   -2.78   10.68 
 -16   4   6    6.67   11.03 
 -16  -4   6   12.43   14.44 
 -16   4   5    3.03   10.72 
 -16   4   5    0.52   12.55 
 -16  -4   5    9.29   13.02 
 -16   4   4   90.83   13.67 
 -16   4   4   88.12   14.40 
 -16  -4   4   92.51   16.53 
 -16   4   3  108.24   14.64 
 -16   4   3  110.67   15.18 
 -16  -4   3  130.66   17.21 
 -16   4   2   57.50   14.00 
 -16   4   2   53.11   14.17 
 -16  -4   2   70.93   14.76 
 -16   4   1   20.39   11.24 
  16   4  -1   20.23   11.84 
 -16   4   1   27.26   13.03 
 -16  -4   1   11.44   13.51 
 -16   4   0   48.89   12.50 
  16   4   0   42.39   14.36 
 -16   4   0   45.04   14.49 
 -16  -4   0   44.53   14.54 
 -17   0   9  256.75   19.83 
  17   0  -9  266.40   17.86 
 -17   0   8   95.49   15.77 
  17   0  -8   83.21   13.68 
 -17   0   7   57.03   14.52 
  17   0  -7   58.84   12.19 
 -17   0   6    7.40   13.49 
  17   0  -6    9.87   10.06 
 -17   0   5    0.61   13.37 
  17   0  -5    0.96   10.64 
 -17   0   4    5.67   13.15 
  17   0  -4    2.21   10.24 
 -17   0   3    1.72   12.25 
  17   0  -3    2.52   10.20 
 -17   0   2   63.36   14.82 
  17   0  -2   73.09   12.42 
 -17   0   1   39.68   14.00 
  17   0  -1   30.44   11.21 
 -17   0   0    9.35   13.84 
  17   0   0    7.12   10.26 
  17   0   1   10.96   10.93 
  17   0   2  137.38   14.39 
 -17   0  -3   91.57   16.05 
 -17   1   8   -1.68   12.26 
  17   1  -8    9.74   12.45 
 -17  -1   8    1.61   12.36 
  17  -1  -8   -0.37   10.84 
 -17   1   7   36.37   12.63 
  17   1  -7   40.27   13.16 
 -17  -1   7   22.10   13.65 
  17  -1  -7   23.17   11.03 
 -17   1   6  129.79   15.79 
  17   1  -6  128.54   14.96 
 -17  -1   6  135.07   17.71 
  17  -1  -6  131.73   14.48 
 -17   1   5  272.74   19.96 
  17   1  -5  265.35   18.09 
 -17  -1   5  288.99   21.52 
  17  -1  -5  283.02   18.08 
 -17   1   4  189.64   18.53 
  17   1  -4  203.70   16.71 
 -17  -1   4  213.23   19.18 
  17  -1  -4  207.66   15.87 
 -17   1   3   36.50   13.08 
  17   1  -3   36.07   11.31 
 -17  -1   3   30.40   13.83 
  17  -1  -3   39.38   11.07 
 -17   1   2   -0.44   11.83 
  17   1  -2    4.82   10.29 
  17  -1  -2    8.03   10.66 
 -17   1   1  128.92   18.18 
  17   1  -1  133.93   14.83 
  17  -1  -1  139.52   14.45 
 -17   1   0   54.27   14.29 
  17   1   0   55.05   12.79 
 -17  -1   0   58.21   13.75 
  17  -1   0   46.78   11.68 
 -17   1  -1   55.51   14.44 
  17   1   1   70.02   12.46 
 -17  -1  -1   37.35   13.73 
  17  -1   1   43.65   11.88 
 -17   1  -2   41.47   14.34 
  17   1   2   40.66   12.13 
 -17  -1  -2   40.88   14.96 
  17  -1   2   43.57   11.50 
 -17   2   7  190.03   16.36 
 -17   2   7  207.41   18.79 
  17   2  -7  201.93   17.62 
 -17  -2   7  174.78   18.37 
  17  -2  -7  190.02   16.07 
 -17   2   6   68.32   12.24 
 -17   2   6   65.31   14.73 
  17   2  -6   63.84   13.70 
 -17  -2   6   42.19   13.92 
  17  -2  -6   44.94   10.77 
 -17   2   5   15.50   10.07 
 -17   2   5   22.62   13.60 
  17   2  -5   19.43   11.21 
 -17  -2   5   18.57   12.92 
  17  -2  -5   23.13   10.81 
 -17   2   4  162.47   14.63 
 -17   2   4  174.47   17.95 
  17   2  -4  165.22   15.93 
  17  -2  -4  166.42   15.34 
 -17   2   3   40.83   14.43 
  17   2  -3   36.73   12.77 
  17  -2  -3   42.42   11.06 
 -17   2   2    1.02   12.19 
  17   2  -2    6.57   11.55 
 -17  -2   2   12.61   13.11 
  17  -2  -2   10.23    9.46 
  17   2  -1   21.31   12.73 
 -17   2   1   13.85   13.36 
 -17  -2   1   24.88   13.95 
  17   2   0    8.24   11.56 
 -17   2   0    4.90   11.37 
 -17  -2   0   -0.63   13.19 
  17   2   1   26.73   12.79 
 -17   2  -1   28.09   12.23 
 -17  -2  -1   49.40   14.82 
  17   3  -4  152.78   17.15 
 -17   3   4  148.15   16.39 
 -17  -3   4  144.82   18.42 
 -17   3   3    1.35   10.26 
  17   3  -3    1.75   12.61 
 -17   3   3   -5.84   12.63 
 -17  -3   3    3.69   13.03 
  17   3  -2   13.71   12.74 
 -17   3   2   11.01   11.57 
 -17  -3   2   16.23   12.91 
;
_shelx_hkl_checksum              48191
loop_
_space_group_symop_operation_xyz
'x, y, z'
'-x, y+1/2, -z'
loop_
_atom_site_label
_atom_site_type_symbol
_atom_site_fract_x
_atom_site_fract_y
_atom_site_fract_z
_atom_site_U_iso_or_equiv
_atom_site_adp_type
_atom_site_occupancy
_atom_site_site_symmetry_order
_atom_site_calc_flag
_atom_site_refinement_flags_posn
_atom_site_refinement_flags_adp
Br1 Br 0.86957(2) 0.07545(4) 0.09821(2) 0.03287(8) Uani 1 1 d . .
S1 S 0.39431(4) 0.41714(8) 0.17466(4) 0.01684(13) Uani 1 1 d . .
F1 F 0.13440(11) 0.0068(2) 0.48700(9) 0.0372(4) Uani 1 1 d . .
O1 O 0.07008(12) 0.1268(3) 0.03622(11) 0.0379(6) Uani 1 1 d . .
O2 O 0.08957(10) 0.0909(3) -0.10793(10) 0.0296(4) Uani 1 1 d . .
O3 O 0.48951(12) 0.4783(2) 0.16298(11) 0.0223(4) Uani 1 1 d . .
O4 O 0.30990(11) 0.52969(19) 0.14948(10) 0.0215(4) Uani 1 1 d . .
O5 O 0.33861(14) 0.2317(3) 0.59562(12) 0.0373(5) Uani 1 1 d . .
O6 O 0.49697(13) 0.2148(3) 0.61151(12) 0.0345(5) Uani 1 1 d . .
O7 O 0.71658(12) 0.1735(3) 0.40265(12) 0.0312(4) Uani 1 1 d . .
O8 O 0.86913(12) 0.1434(2) 0.37022(12) 0.0294(5) Uani 1 1 d . .
N1 N 0.37160(13) 0.2279(3) 0.11644(12) 0.0142(4) Uani 1 1 d . .
N2 N 0.41598(16) 0.2409(3) 0.56609(14) 0.0240(5) Uani 1 1 d . .
C1 C 0.26841(16) 0.1588(3) 0.10232(15) 0.0155(5) Uani 1 1 d . .
H1 H 0.2247 0.2453 0.1279 0.019 Uiso 1 1 calc R U
C2 C 0.27485(17) -0.0236(3) 0.15454(16) 0.0166(5) Uani 1 1 d . .
H2 H 0.2358 -0.1161 0.1152 0.020 Uiso 1 1 calc R U
C3 C 0.38263(17) -0.0673(4) 0.16106(15) 0.0170(5) Uani 1 1 d . .
H3 H 0.4102 -0.1824 0.1777 0.020 Uiso 1 1 calc R U
C4 C 0.43448(13) 0.0726(4) 0.14096(13) 0.0144(4) Uani 1 1 d . .
C5 C 0.23202(16) 0.1311(3) 0.00196(15) 0.0174(5) Uani 1 1 d . .
C6 C 0.28859(17) 0.1185(3) -0.06016(16) 0.0223(6) Uani 1 1 d . .
H6A H 0.2601 0.0986 -0.1215 0.027 Uiso 1 1 calc R U
H6B H 0.3579 0.1292 -0.0436 0.027 Uiso 1 1 calc R U
C7 C 0.12312(17) 0.1153(3) -0.02023(16) 0.0244(6) Uani 1 1 d . .
C8 C -0.01766(17) 0.0942(6) -0.13332(17) 0.0461(8) Uani 1 1 d . .
H8A H -0.0446 0.2074 -0.1123 0.055 Uiso 1 1 calc R U
H8B H -0.0473 -0.0092 -0.1059 0.055 Uiso 1 1 calc R U
C9 C -0.03973(19) 0.0826(7) -0.23360(18) 0.0540(8) Uani 1 1 d . .
H9A H -0.0068 0.1817 -0.2598 0.065 Uiso 1 1 calc R U
H9B H -0.1109 0.0915 -0.2539 0.065 Uiso 1 1 calc R U
H9C H -0.0160 -0.0331 -0.2532 0.065 Uiso 1 1 calc R U
C10 C 0.23749(16) -0.0161(3) 0.24471(16) 0.0175(5) Uani 1 1 d . .
C11 C 0.29283(17) -0.0852(4) 0.32330(16) 0.0217(5) Uani 1 1 d . .
H11 H 0.3554 -0.1369 0.3211 0.026 Uiso 1 1 calc R U
C12 C 0.25821(17) -0.0800(4) 0.40509(17) 0.0259(6) Uani 1 1 d . .
H12 H 0.2958 -0.1291 0.4584 0.031 Uiso 1 1 calc R U
C13 C 0.16846(18) -0.0022(4) 0.40662(16) 0.0245(6) Uani 1 1 d . .
C14 C 0.11065(15) 0.0675(4) 0.33069(14) 0.0234(5) Uani 1 1 d . .
H14 H 0.0485 0.1200 0.3337 0.028 Uiso 1 1 calc R U
C15 C 0.14602(15) 0.0586(4) 0.24958(15) 0.0205(5) Uani 1 1 d . .
H15 H 0.1069 0.1045 0.1962 0.025 Uiso 1 1 calc R U
C16 C 0.53987(13) 0.0783(4) 0.13325(13) 0.0152(4) Uani 1 1 d . .
C17 C 0.60750(17) -0.0223(3) 0.19198(16) 0.0184(5) Uani 1 1 d . .
H17 H 0.5862 -0.0897 0.2389 0.022 Uiso 1 1 calc R U
C18 C 0.70618(17) -0.0254(3) 0.18278(17) 0.0222(6) Uani 1 1 d . .
H18 H 0.7525 -0.0936 0.2233 0.027 Uiso 1 1 calc R U
C19 C 0.73576(14) 0.0728(4) 0.11348(15) 0.0209(5) Uani 1 1 d . .
C20 C 0.66946(17) 0.1717(3) 0.05376(16) 0.0204(5) Uani 1 1 d . .
H20 H 0.6906 0.2360 0.0057 0.024 Uiso 1 1 calc R U
C21 C 0.57197(16) 0.1764(3) 0.06444(15) 0.0187(5) Uani 1 1 d . .
H21 H 0.5263 0.2471 0.0245 0.022 Uiso 1 1 calc R U
C22 C 0.40105(17) 0.3624(3) 0.29085(15) 0.0162(5) Uani 1 1 d . .
C23 C 0.48658(17) 0.2855(3) 0.33806(16) 0.0195(5) Uani 1 1 d . .
H23 H 0.5407 0.2606 0.3084 0.023 Uiso 1 1 calc R U
C24 C 0.49189(17) 0.2458(3) 0.42890(16) 0.0204(5) Uani 1 1 d . .
H24 H 0.5495 0.1936 0.4627 0.025 Uiso 1 1 calc R U
C25 C 0.41125(17) 0.2840(3) 0.46923(16) 0.0190(5) Uani 1 1 d . .
C26 C 0.32652(18) 0.3612(3) 0.42418(17) 0.0231(6) Uani 1 1 d . .
H26 H 0.2729 0.3863 0.4544 0.028 Uiso 1 1 calc R U
C27 C 0.32140(17) 0.4015(3) 0.33312(16) 0.0200(5) Uani 1 1 d . .
H27 H 0.2639 0.4554 0.3000 0.024 Uiso 1 1 calc R U
C28 C 0.78149(19) 0.2253(4) 0.36389(17) 0.0279(6) Uani 1 1 d . .
C29 C 0.7756(2) 0.3871(4) 0.30295(19) 0.0378(7) Uani 1 1 d . .
H29A H 0.8186 0.3690 0.2580 0.045 Uiso 1 1 calc R U
H29B H 0.7967 0.4948 0.3390 0.045 Uiso 1 1 calc R U
H29C H 0.7077 0.4031 0.2721 0.045 Uiso 1 1 calc R U
C30 C 0.8829(2) -0.0169(4) 0.42703(18) 0.0301(6) Uani 1 1 d . .
H30A H 0.9334 -0.0952 0.4073 0.036 Uiso 1 1 calc R U
H30B H 0.8205 -0.0857 0.4199 0.036 Uiso 1 1 calc R U
C31 C 0.91437(19) 0.0321(4) 0.52492(18) 0.0351(8) Uani 1 1 d . .
H31A H 0.8616 0.0996 0.5462 0.042 Uiso 1 1 calc R U
H31B H 0.9738 0.1068 0.5315 0.042 Uiso 1 1 calc R U
H31C H 0.9283 -0.0783 0.5608 0.042 Uiso 1 1 calc R U
loop_
_atom_site_aniso_label
_atom_site_aniso_U_11
_atom_site_aniso_U_22
_atom_site_aniso_U_33
_atom_site_aniso_U_23
_atom_site_aniso_U_13
_atom_site_aniso_U_12
Br1 0.01651(11) 0.03603(16) 0.04886(17) -0.00844(17) 0.01350(10) -0.00332(15)
S1 0.0194(3) 0.0121(3) 0.0194(3) -0.0005(3) 0.0044(2) -0.0021(2)
F1 0.0345(8) 0.0588(12) 0.0217(8) 0.0070(7) 0.0143(7) 0.0060(7)
O1 0.0177(8) 0.0697(18) 0.0264(10) 0.0040(10) 0.0042(7) -0.0058(9)
O2 0.0214(7) 0.0437(11) 0.0214(8) 0.0012(10) -0.0029(6) -0.0068(11)
O3 0.0242(9) 0.0174(9) 0.0268(9) -0.0024(8) 0.0084(7) -0.0073(7)
O4 0.0268(9) 0.0124(10) 0.0249(9) 0.0021(7) 0.0033(7) 0.0023(7)
O5 0.0335(11) 0.0532(14) 0.0272(11) 0.0066(10) 0.0113(9) 0.0047(10)
O6 0.0303(10) 0.0431(13) 0.0262(10) 0.0058(9) -0.0065(8) -0.0022(9)
O7 0.0212(9) 0.0467(12) 0.0271(10) -0.0047(9) 0.0078(8) 0.0020(9)
O8 0.0236(9) 0.0359(12) 0.0314(10) 0.0022(9) 0.0119(8) 0.0038(8)
N1 0.0151(9) 0.0108(10) 0.0172(11) 0.0002(8) 0.0047(8) -0.0021(8)
N2 0.0299(12) 0.0189(12) 0.0230(12) -0.0015(10) 0.0035(10) -0.0024(10)
C1 0.0131(11) 0.0150(12) 0.0195(12) -0.0012(10) 0.0058(9) -0.0013(9)
C2 0.0171(11) 0.0139(12) 0.0198(13) 0.0001(11) 0.0059(10) -0.0042(10)
C3 0.0177(12) 0.0157(13) 0.0183(12) 0.0010(11) 0.0053(10) 0.0024(10)
C4 0.0172(9) 0.0137(11) 0.0127(10) -0.0008(12) 0.0035(8) 0.0016(13)
C5 0.0192(11) 0.0138(14) 0.0185(12) 0.0006(9) 0.0014(9) -0.0004(9)
C6 0.0226(11) 0.0235(17) 0.0196(12) 0.0009(11) 0.0005(10) -0.0021(11)
C7 0.0218(11) 0.0282(18) 0.0219(13) 0.0036(11) 0.0002(10) -0.0037(11)
C8 0.0246(13) 0.077(2) 0.0343(15) 0.000(2) -0.0021(11) -0.017(2)
C9 0.0369(15) 0.075(2) 0.0436(17) 0.002(2) -0.0105(13) -0.013(2)
C10 0.0179(11) 0.0155(12) 0.0204(12) 0.0016(11) 0.0068(10) -0.0048(10)
C11 0.0177(12) 0.0233(14) 0.0254(13) 0.0040(12) 0.0075(10) -0.0006(11)
C12 0.0248(13) 0.0312(15) 0.0219(13) 0.0089(13) 0.0046(11) 0.0011(12)
C13 0.0237(12) 0.0312(14) 0.0211(13) -0.0001(12) 0.0114(11) -0.0049(11)
C14 0.0179(10) 0.0280(13) 0.0258(12) 0.0038(15) 0.0082(9) 0.0025(15)
C15 0.0177(10) 0.0230(14) 0.0209(11) 0.0032(13) 0.0037(8) -0.0016(13)
C16 0.0180(9) 0.0130(10) 0.0156(10) -0.0039(12) 0.0055(8) -0.0008(13)
C17 0.0215(12) 0.0183(12) 0.0163(12) -0.0012(10) 0.0058(10) -0.0009(10)
C18 0.0205(12) 0.0219(14) 0.0232(13) -0.0039(11) 0.0012(10) 0.0040(11)
C19 0.0145(9) 0.0210(12) 0.0289(12) -0.0084(14) 0.0086(9) -0.0022(14)
C20 0.0220(12) 0.0210(13) 0.0203(13) -0.0044(11) 0.0095(10) -0.0067(11)
C21 0.0205(12) 0.0187(13) 0.0172(12) -0.0010(10) 0.0039(10) -0.0011(10)
C22 0.0198(12) 0.0123(12) 0.0162(12) -0.0020(10) 0.0023(10) -0.0016(10)
C23 0.0166(12) 0.0185(13) 0.0240(14) -0.0045(11) 0.0047(10) -0.0005(10)
C24 0.0156(11) 0.0199(14) 0.0237(14) -0.0026(11) -0.0026(10) 0.0019(10)
C25 0.0227(13) 0.0174(13) 0.0162(12) -0.0039(11) 0.0012(10) -0.0004(11)
C26 0.0202(13) 0.0253(15) 0.0250(14) -0.0046(12) 0.0073(11) 0.0013(11)
C27 0.0175(11) 0.0213(13) 0.0205(13) -0.0005(11) 0.0014(9) 0.0034(11)
C28 0.0296(15) 0.0339(17) 0.0203(14) -0.0070(13) 0.0042(11) 0.0039(13)
C29 0.0473(18) 0.0378(19) 0.0287(15) 0.0006(14) 0.0073(13) 0.0087(15)
C30 0.0257(14) 0.0301(15) 0.0371(16) 0.0029(14) 0.0128(13) 0.0029(12)
C31 0.0283(13) 0.039(2) 0.0388(16) 0.0051(14) 0.0076(12) 0.0003(12)
loop_
_atom_type_symbol
_atom_type_description
_atom_type_scat_dispersion_real
_atom_type_scat_dispersion_imag
_atom_type_scat_source
C C 0.0033 0.0016 'International Tables Vol C Tables 4.2.6.8 and 6.1.1.4'
H H 0.0000 0.0000 'International Tables Vol C Tables 4.2.6.8 and 6.1.1.4'
N N 0.0061 0.0033 'International Tables Vol C Tables 4.2.6.8 and 6.1.1.4'
O O 0.0106 0.0060 'International Tables Vol C Tables 4.2.6.8 and 6.1.1.4'
F F 0.0171 0.0103 'International Tables Vol C Tables 4.2.6.8 and 6.1.1.4'
S S 0.1246 0.1234 'International Tables Vol C Tables 4.2.6.8 and 6.1.1.4'
Br Br -0.2901 2.4595 'International Tables Vol C Tables 4.2.6.8 and 6.1.1.4'
loop_
_geom_angle_atom_site_label_1
_geom_angle_atom_site_label_2
_geom_angle_atom_site_label_3
_geom_angle
O3 S1 O4 120.49(10)
O3 S1 N1 107.45(10)
O4 S1 N1 106.35(9)
O3 S1 C22 107.25(11)
O4 S1 C22 107.30(10)
N1 S1 C22 107.39(10)
C7 O2 C8 114.94(18)
C28 O8 C30 115.9(2)
C4 N1 C1 106.19(17)
C4 N1 S1 119.12(15)
C1 N1 S1 117.14(15)
O6 N2 O5 124.0(2)
O6 N2 C25 117.8(2)
O5 N2 C25 118.1(2)
N1 C1 C5 109.51(17)
N1 C1 C2 104.72(18)
C5 C1 C2 111.30(18)
N1 C1 H1 110.4
C5 C1 H1 110.4
C2 C1 H1 110.4
C3 C2 C10 115.3(2)
C3 C2 C1 100.97(18)
C10 C2 C1 114.54(19)
C3 C2 H2 108.6
C10 C2 H2 108.6
C1 C2 H2 108.6
C4 C3 C2 112.5(2)
C4 C3 H3 123.8
C2 C3 H3 123.8
C3 C4 N1 110.85(17)
C3 C4 C16 128.1(2)
N1 C4 C16 120.7(2)
C6 C5 C7 122.2(2)
C6 C5 C1 125.2(2)
C7 C5 C1 112.60(18)
C5 C6 H6A 120.0
C5 C6 H6B 120.0
H6A C6 H6B 120.0
O1 C7 O2 123.4(2)
O1 C7 C5 122.9(2)
O2 C7 C5 113.62(19)
O2 C8 C9 106.7(2)
O2 C8 H8A 110.4
C9 C8 H8A 110.4
O2 C8 H8B 110.4
C9 C8 H8B 110.4
H8A C8 H8B 108.6
C8 C9 H9A 109.5
C8 C9 H9B 109.5
H9A C9 H9B 109.5
C8 C9 H9C 109.5
H9A C9 H9C 109.5
H9B C9 H9C 109.5
C11 C10 C15 118.3(2)
C11 C10 C2 121.3(2)
C15 C10 C2 120.4(2)
C10 C11 C12 121.2(2)
C10 C11 H11 119.4
C12 C11 H11 119.4
C13 C12 C11 118.2(2)
C13 C12 H12 120.9
C11 C12 H12 120.9
F1 C13 C12 118.8(2)
F1 C13 C14 118.4(2)
C12 C13 C14 122.9(2)
C13 C14 C15 117.9(2)
C13 C14 H14 121.0
C15 C14 H14 121.0
C14 C15 C10 121.5(2)
C14 C15 H15 119.3
C10 C15 H15 119.3
C17 C16 C21 119.13(19)
C17 C16 C4 120.0(2)
C21 C16 C4 120.8(2)
C16 C17 C18 120.6(2)
C16 C17 H17 119.7
C18 C17 H17 119.7
C19 C18 C17 118.9(2)
C19 C18 H18 120.6
C17 C18 H18 120.6
C20 C19 C18 121.34(19)
C20 C19 Br1 117.88(18)
C18 C19 Br1 120.79(18)
C19 C20 C21 119.3(2)
C19 C20 H20 120.4
C21 C20 H20 120.4
C20 C21 C16 120.7(2)
C20 C21 H21 119.7
C16 C21 H21 119.7
C27 C22 C23 121.4(2)
C27 C22 S1 119.12(18)
C23 C22 S1 119.49(18)
C24 C23 C22 119.2(2)
C24 C23 H23 120.4
C22 C23 H23 120.4
C25 C24 C23 118.4(2)
C25 C24 H24 120.8
C23 C24 H24 120.8
C26 C25 C24 123.4(2)
C26 C25 N2 117.8(2)
C24 C25 N2 118.8(2)
C25 C26 C27 118.1(2)
C25 C26 H26 120.9
C27 C26 H26 120.9
C22 C27 C26 119.5(2)
C22 C27 H27 120.3
C26 C27 H27 120.3
O7 C28 O8 123.7(3)
O7 C28 C29 125.3(3)
O8 C28 C29 111.0(2)
C28 C29 H29A 109.5
C28 C29 H29B 109.5
H29A C29 H29B 109.5
C28 C29 H29C 109.5
H29A C29 H29C 109.5
H29B C29 H29C 109.5
O8 C30 C31 111.3(2)
O8 C30 H30A 109.4
C31 C30 H30A 109.4
O8 C30 H30B 109.4
C31 C30 H30B 109.4
H30A C30 H30B 108.0
C30 C31 H31A 109.5
C30 C31 H31B 109.5
H31A C31 H31B 109.5
C30 C31 H31C 109.5
H31A C31 H31C 109.5
H31B C31 H31C 109.5
loop_
_geom_bond_atom_site_label_1
_geom_bond_atom_site_label_2
_geom_bond_distance
Br1 C19 1.8983(19)
S1 O3 1.4278(16)
S1 O4 1.4298(16)
S1 N1 1.653(2)
S1 C22 1.778(2)
F1 C13 1.369(3)
O1 C7 1.213(3)
O2 C7 1.332(3)
O2 C8 1.464(3)
O5 N2 1.225(3)
O6 N2 1.222(3)
O7 C28 1.210(3)
O8 C28 1.341(3)
O8 C30 1.456(3)
N1 C4 1.450(3)
N1 C1 1.493(3)
N2 C25 1.479(3)
C1 C5 1.519(3)
C1 C2 1.557(3)
C1 H1 1.0000
C2 C3 1.508(3)
C2 C10 1.529(3)
C2 H2 1.0000
C3 C4 1.322(4)
C3 H3 0.9500
C4 C16 1.478(2)
C5 C6 1.317(3)
C5 C7 1.487(3)
C6 H6A 0.9500
C6 H6B 0.9500
C8 C9 1.487(4)
C8 H8A 0.9900
C8 H8B 0.9900
C9 H9A 0.9800
C9 H9B 0.9800
C9 H9C 0.9800
C10 C11 1.390(3)
C10 C15 1.391(3)
C11 C12 1.391(3)
C11 H11 0.9500
C12 C13 1.369(3)
C12 H12 0.9500
C13 C14 1.376(3)
C14 C15 1.388(3)
C14 H14 0.9500
C15 H15 0.9500
C16 C17 1.387(3)
C16 C21 1.395(3)
C17 C18 1.391(3)
C17 H17 0.9500
C18 C19 1.386(3)
C18 H18 0.9500
C19 C20 1.378(3)
C20 C21 1.381(3)
C20 H20 0.9500
C21 H21 0.9500
C22 C27 1.389(3)
C22 C23 1.391(3)
C23 C24 1.385(3)
C23 H23 0.9500
C24 C25 1.383(3)
C24 H24 0.9500
C25 C26 1.372(3)
C26 C27 1.389(3)
C26 H26 0.9500
C27 H27 0.9500
C28 C29 1.502(4)
C29 H29A 0.9800
C29 H29B 0.9800
C29 H29C 0.9800
C30 C31 1.505(4)
C30 H30A 0.9900
C30 H30B 0.9900
C31 H31A 0.9800
C31 H31B 0.9800
C31 H31C 0.9800
loop_
_geom_torsion_atom_site_label_1
_geom_torsion_atom_site_label_2
_geom_torsion_atom_site_label_3
_geom_torsion_atom_site_label_4
_geom_torsion
O3 S1 N1 C4 62.41(18)
O4 S1 N1 C4 -167.32(15)
C22 S1 N1 C4 -52.70(18)
O3 S1 N1 C1 -167.48(15)
O4 S1 N1 C1 -37.21(18)
C22 S1 N1 C1 77.41(17)
C4 N1 C1 C5 -98.5(2)
S1 N1 C1 C5 125.55(17)
C4 N1 C1 C2 20.9(2)
S1 N1 C1 C2 -115.01(16)
N1 C1 C2 C3 -20.5(2)
C5 C1 C2 C3 97.7(2)
N1 C1 C2 C10 104.0(2)
C5 C1 C2 C10 -137.80(19)
C10 C2 C3 C4 -110.1(2)
C1 C2 C3 C4 13.9(2)
C2 C3 C4 N1 -1.2(3)
C2 C3 C4 C16 -175.0(2)
C1 N1 C4 C3 -13.0(2)
S1 N1 C4 C3 121.91(18)
C1 N1 C4 C16 161.41(18)
S1 N1 C4 C16 -63.7(2)
N1 C1 C5 C6 18.1(3)
C2 C1 C5 C6 -97.2(3)
N1 C1 C5 C7 -163.11(18)
C2 C1 C5 C7 81.6(2)
C8 O2 C7 O1 5.0(4)
C8 O2 C7 C5 -173.7(3)
C6 C5 C7 O1 -179.9(2)
C1 C5 C7 O1 1.2(3)
C6 C5 C7 O2 -1.2(3)
C1 C5 C7 O2 -180.0(2)
C7 O2 C8 C9 174.7(3)
C3 C2 C10 C11 -14.2(3)
C1 C2 C10 C11 -130.8(2)
C3 C2 C10 C15 166.6(2)
C1 C2 C10 C15 50.1(3)
C15 C10 C11 C12 -0.1(4)
C2 C10 C11 C12 -179.3(2)
C10 C11 C12 C13 -1.0(4)
C11 C12 C13 F1 -178.8(2)
C11 C12 C13 C14 1.3(4)
F1 C13 C14 C15 179.7(2)
C12 C13 C14 C15 -0.4(4)
C13 C14 C15 C10 -0.8(4)
C11 C10 C15 C14 1.0(4)
C2 C10 C15 C14 -179.8(2)
C3 C4 C16 C17 -37.3(3)
N1 C4 C16 C17 149.4(2)
C3 C4 C16 C21 139.3(3)
N1 C4 C16 C21 -34.0(3)
C21 C16 C17 C18 0.1(4)
C4 C16 C17 C18 176.8(2)
C16 C17 C18 C19 -0.4(4)
C17 C18 C19 C20 -0.4(4)
C17 C18 C19 Br1 179.45(18)
C18 C19 C20 C21 1.5(4)
Br1 C19 C20 C21 -178.35(19)
C19 C20 C21 C16 -1.8(4)
C17 C16 C21 C20 1.0(4)
C4 C16 C21 C20 -175.7(2)
O3 S1 C22 C27 142.35(19)
O4 S1 C22 C27 11.6(2)
N1 S1 C22 C27 -102.4(2)
O3 S1 C22 C23 -36.1(2)
O4 S1 C22 C23 -166.85(18)
N1 S1 C22 C23 79.2(2)
C27 C22 C23 C24 0.6(3)
S1 C22 C23 C24 179.00(18)
C22 C23 C24 C25 0.2(3)
C23 C24 C25 C26 -0.8(4)
C23 C24 C25 N2 179.6(2)
O6 N2 C25 C26 -162.4(2)
O5 N2 C25 C26 18.4(3)
O6 N2 C25 C24 17.3(3)
O5 N2 C25 C24 -161.9(2)
C24 C25 C26 C27 0.6(4)
N2 C25 C26 C27 -179.8(2)
C23 C22 C27 C26 -0.8(4)
S1 C22 C27 C26 -179.21(19)
C25 C26 C27 C22 0.2(4)
C30 O8 C28 O7 0.6(3)
C30 O8 C28 C29 -179.4(2)
C28 O8 C30 C31 -83.8(3)
